# DDEC6 charges by PACMAN v1.1 (https://github.com/mtap-research/PACMAN-charge/)
data_WUYXAR_ASR_pacman
_symmetry_space_group_name_H-M   'P 1'
_cell_length_a   15.50800000
_cell_length_b   16.24100000
_cell_length_c   18.38300000
_cell_angle_alpha   108.70900000
_cell_angle_beta   104.27900000
_cell_angle_gamma   107.16000000
_symmetry_Int_Tables_number   1
_chemical_formula_structural   Cu3H60(C11O3)8
_chemical_formula_sum   'Cu3 H60 C88 O24'
_cell_volume   3880.80888522
_cell_formula_units_Z   1
loop_
 _symmetry_equiv_pos_site_id
 _symmetry_equiv_pos_as_xyz
  1  'x, y, z'
loop_
 _atom_site_type_symbol
 _atom_site_label
 _atom_site_symmetry_multiplicity
 _atom_site_fract_x
 _atom_site_fract_y
 _atom_site_fract_z
 _atom_site_occupancy
 _atom_site_charge
Cu  Cu1  1  0.50000000  0.50000000  0.00000000  1.0 1.0053146048
Cu  Cu2  1  0.48357000  0.33052000  0.08704000  1.0 0.9577888413
Cu  Cu3  1  0.51643000  0.66948000  0.91296000  1.0 0.9577888413
H  H1  1  0.22570000  0.38080000  0.87690000  1.0 0.1428147568
H  H2  1  0.77430000  0.61920000  0.12310000  1.0 0.1428147568
H  H3  1  0.07580000  0.32620000  0.78370000  1.0 0.1199513887
H  H4  1  0.92420000  0.67380000  0.21630000  1.0 0.1199513887
H  H5  1  0.98960000  0.11290000  0.84310000  1.0 0.1292600915
H  H6  1  0.01040000  0.88710000  0.15690000  1.0 0.1292600915
H  H7  1  0.14720000  0.16430000  0.93170000  1.0 0.1292600915
H  H8  1  0.85280000  0.83570000  0.06830000  1.0 0.1292600915
H  H9  1  0.87380000  0.22490000  0.83850000  1.0 0.1292600915
H  H10  1  0.12620000  0.77510000  0.16150000  1.0 0.1292600915
H  H11  1  0.98360000  0.25220000  0.62450000  1.0 0.1199513887
H  H12  1  0.01640000  0.74780000  0.37550000  1.0 0.1199513887
H  H13  1  0.93690000  0.17180000  0.53390000  1.0 0.1199513887
H  H14  1  0.06310000  0.82820000  0.46610000  1.0 0.1199513887
H  H15  1  0.04320000  0.19710000  0.59080000  1.0 0.1199513887
H  H16  1  0.95680000  0.80290000  0.40920000  1.0 0.1199513887
H  H17  1  0.49560000  0.00170000  0.58140000  1.0 0.1199513887
H  H18  1  0.50440000  0.99830000  0.41860000  1.0 0.1199513887
H  H19  1  0.58250000  0.00660000  0.65030000  1.0 0.1112258037
H  H20  1  0.41750000  0.99340000  0.34970000  1.0 0.1112258037
H  H21  1  0.56640000  0.95660000  0.55670000  1.0 0.1199513887
H  H22  1  0.43360000  0.04340000  0.44330000  1.0 0.1199513887
H  H23  1  0.62830000  0.25340000  0.70950000  1.0 0.1199513887
H  H24  1  0.37170000  0.74660000  0.29050000  1.0 0.1199513887
H  H25  1  0.55840000  0.31910000  0.79830000  1.0 0.1199513887
H  H26  1  0.44160000  0.68090000  0.20170000  1.0 0.1199513887
H  H27  1  0.64490000  0.20380000  0.94680000  1.0 0.1292600915
H  H28  1  0.35510000  0.79620000  0.05320000  1.0 0.1292600915
H  H29  1  0.72610000  0.14670000  0.86790000  1.0 0.1199513887
H  H30  1  0.27390000  0.85330000  0.13210000  1.0 0.1199513887
H  H31  1  0.62490000  0.93860000  0.29000000  1.0 0.1199513887
H  H32  1  0.37510000  0.06140000  0.71000000  1.0 0.1199513887
H  H33  1  0.66420000  0.27510000  0.55830000  1.0 0.1292600915
H  H34  1  0.33580000  0.72490000  0.44170000  1.0 0.1292600915
H  H35  1  0.59700000  0.17330000  0.48700000  1.0 0.1112258037
H  H36  1  0.40300000  0.82670000  0.51300000  1.0 0.1112258037
H  H37  1  0.64730000  0.25660000  0.46580000  1.0 0.1199513887
H  H38  1  0.35270000  0.74340000  0.53420000  1.0 0.1199513887
H  H39  1  0.83940000  0.85040000  0.53240000  1.0 0.1199513887
H  H40  1  0.16060000  0.14960000  0.46760000  1.0 0.1199513887
H  H41  1  0.89830000  0.95650000  0.55130000  1.0 0.1199513887
H  H42  1  0.10170000  0.04350000  0.44870000  1.0 0.1199513887
H  H43  1  0.83360000  0.88160000  0.45970000  1.0 0.1008437513
H  H44  1  0.16640000  0.11840000  0.54030000  1.0 0.1008437513
H  H45  1  0.59900000  0.77230000  0.41820000  1.0 0.1199513887
H  H46  1  0.40100000  0.22770000  0.58180000  1.0 0.1199513887
H  H47  1  0.53610000  0.60690000  0.33240000  1.0 0.1199513887
H  H48  1  0.46390000  0.39310000  0.66760000  1.0 0.1199513887
H  H49  1  0.65480000  0.66600000  0.17740000  1.0 0.1199513887
H  H50  1  0.34520000  0.33400000  0.82260000  1.0 0.1199513887
H  H51  1  0.70830000  0.82830000  0.25620000  1.0 0.1199513887
H  H52  1  0.29170000  0.17170000  0.74380000  1.0 0.1199513887
H  H53  1  0.51480000  0.00600000  0.25150000  1.0 0.1199513887
H  H54  1  0.48520000  0.99400000  0.74850000  1.0 0.1199513887
H  H55  1  0.46820000  0.08180000  0.17740000  1.0 0.1292600915
H  H56  1  0.53180000  0.91820000  0.82260000  1.0 0.1292600915
H  H57  1  0.72120000  0.30270000  0.30000000  1.0 0.1292600915
H  H58  1  0.27880000  0.69730000  0.70000000  1.0 0.1292600915
H  H59  1  0.77270000  0.23010000  0.38030000  1.0 0.1199513887
H  H60  1  0.22730000  0.76990000  0.61970000  1.0 0.1199513887
C  C1  1  0.30430000  0.30680000  0.97100000  1.0 0.5518394275
C  C2  1  0.69570000  0.69320000  0.02900000  1.0 0.5518394275
C  C3  1  0.20620000  0.27310000  0.91040000  1.0 -0.037989815
C  C4  1  0.79380000  0.72690000  0.08960000  1.0 -0.037989815
C  C5  1  0.17940000  0.32290000  0.86750000  1.0 -0.0898096362
C  C6  1  0.82060000  0.67710000  0.13250000  1.0 -0.0898096362
C  C7  1  0.08860000  0.29060000  0.81260000  1.0 -0.1295927228
C  C8  1  0.91140000  0.70940000  0.18740000  1.0 -0.1295927228
C  C9  1  0.01750000  0.21300000  0.79720000  1.0 0.0779463886
C  C10  1  0.98250000  0.78700000  0.20280000  1.0 0.0779463886
C  C11  1  0.03870000  0.16530000  0.84670000  1.0 -0.1519213951
C  C12  1  0.96130000  0.83470000  0.15330000  1.0 -0.1519213951
C  C13  1  0.13370000  0.19760000  0.90070000  1.0 -0.0804312563
C  C14  1  0.86630000  0.80240000  0.09930000  1.0 -0.0804312563
C  C15  1  0.91410000  0.18240000  0.74410000  1.0 -0.0277583488
C  C16  1  0.08590000  0.81760000  0.25590000  1.0 -0.0277583488
C  C17  1  0.85060000  0.19620000  0.78090000  1.0 -0.181671633
C  C18  1  0.14940000  0.80380000  0.21910000  1.0 -0.181671633
C  C19  1  0.75190000  0.16980000  0.73680000  1.0 -0.037989815
C  C20  1  0.24810000  0.83020000  0.26320000  1.0 -0.037989815
C  C21  1  0.71800000  0.12380000  0.64940000  1.0 0.1901870681
C  C22  1  0.28200000  0.87620000  0.35060000  1.0 0.1901870681
C  C23  1  0.78570000  0.11300000  0.60880000  1.0 -0.0965849297
C  C24  1  0.21430000  0.88700000  0.39120000  1.0 -0.0965849297
C  C25  1  0.88230000  0.14150000  0.65650000  1.0 0.1612935005
C  C26  1  0.11770000  0.85850000  0.34350000  1.0 0.1612935005
C  C27  1  0.97950000  0.19160000  0.58970000  1.0 -0.2232093053
C  C28  1  0.02050000  0.80840000  0.41030000  1.0 -0.2232093053
C  C29  1  0.56180000  0.00810000  0.59720000  1.0 -0.2396523418
C  C30  1  0.43820000  0.99190000  0.40280000  1.0 -0.2396523418
C  C31  1  0.69030000  0.19530000  0.77990000  1.0 0.0779463886
C  C32  1  0.30970000  0.80470000  0.22010000  1.0 0.0779463886
C  C33  1  0.63540000  0.24550000  0.75820000  1.0 -0.1395797213
C  C34  1  0.36460000  0.75450000  0.24180000  1.0 -0.1395797213
C  C35  1  0.59170000  0.28330000  0.81120000  1.0 -0.0965849297
C  C36  1  0.40830000  0.71670000  0.18880000  1.0 -0.0965849297
C  C37  1  0.59660000  0.26940000  0.87940000  1.0 0.0042504806
C  C38  1  0.40340000  0.73060000  0.12060000  1.0 0.0042504806
C  C39  1  0.64470000  0.21590000  0.90060000  1.0 -0.0898096362
C  C40  1  0.35530000  0.78410000  0.09940000  1.0 -0.0898096362
C  C41  1  0.69200000  0.18080000  0.85250000  1.0 -0.1559339711
C  C42  1  0.30800000  0.81920000  0.14750000  1.0 -0.1559339711
C  C43  1  0.55110000  0.31920000  0.93870000  1.0 0.5667744292
C  C44  1  0.44890000  0.68080000  0.06130000  1.0 0.5667744292
C  C45  1  0.74310000  0.06540000  0.51690000  1.0 -0.0965849297
C  C46  1  0.25690000  0.93460000  0.48310000  1.0 -0.0965849297
C  C47  1  0.72810000  0.96870000  0.47660000  1.0 0.1540307267
C  C48  1  0.27190000  0.03130000  0.52340000  1.0 0.1540307267
C  C49  1  0.68230000  0.91920000  0.39170000  1.0 -0.037989815
C  C50  1  0.31770000  0.08080000  0.60830000  1.0 -0.037989815
C  C51  1  0.65680000  0.97120000  0.34730000  1.0 -0.1900729524
C  C52  1  0.34320000  0.02880000  0.65270000  1.0 -0.1900729524
C  C53  1  0.67560000  0.06450000  0.38260000  1.0 -0.0277583488
C  C54  1  0.32440000  0.93550000  0.61740000  1.0 -0.0277583488
C  C55  1  0.71610000  0.10820000  0.46840000  1.0 0.1292600915
C  C56  1  0.28390000  0.89180000  0.53160000  1.0 0.1292600915
C  C57  1  0.65460000  0.22960000  0.50520000  1.0 -0.2232093053
C  C58  1  0.34540000  0.77040000  0.49480000  1.0 -0.2232093053
C  C59  1  0.83890000  0.90100000  0.51630000  1.0 -0.2396523418
C  C60  1  0.16110000  0.09900000  0.48370000  1.0 -0.2396523418
C  C61  1  0.65370000  0.81430000  0.34450000  1.0 0.0859854831
C  C62  1  0.34630000  0.18570000  0.65550000  1.0 0.0859854831
C  C63  1  0.60790000  0.75150000  0.36840000  1.0 -0.1519213951
C  C64  1  0.39210000  0.24850000  0.63160000  1.0 -0.1519213951
C  C65  1  0.57200000  0.65130000  0.31770000  1.0 -0.0744514526
C  C66  1  0.42800000  0.34870000  0.68230000  1.0 -0.0804312563
C  C67  1  0.59210000  0.62140000  0.24530000  1.0 -0.0488800561
C  C68  1  0.40790000  0.37860000  0.75470000  1.0 -0.0488800561
C  C69  1  0.64130000  0.68640000  0.22500000  1.0 -0.0639090785
C  C70  1  0.35870000  0.31360000  0.77500000  1.0 -0.0639090785
C  C71  1  0.67410000  0.78430000  0.27210000  1.0 -0.1395797213
C  C72  1  0.32590000  0.21570000  0.72790000  1.0 -0.1395797213
C  C73  1  0.55260000  0.52260000  0.18730000  1.0 0.5667744292
C  C74  1  0.44740000  0.47740000  0.81270000  1.0 0.5667744292
C  C75  1  0.64570000  0.11200000  0.32790000  1.0 0.0779463886
C  C76  1  0.35430000  0.88800000  0.67210000  1.0 0.0779463886
C  C77  1  0.55650000  0.06730000  0.26370000  1.0 -0.1559339711
C  C78  1  0.44350000  0.93270000  0.73630000  1.0 -0.1559339711
C  C79  1  0.53000000  0.11240000  0.21900000  1.0 -0.0898096362
C  C80  1  0.47000000  0.88760000  0.78100000  1.0 -0.0898096362
C  C81  1  0.58690000  0.19860000  0.23020000  1.0 0.0042504806
C  C82  1  0.41310000  0.80140000  0.76980000  1.0 0.0042504806
C  C83  1  0.67940000  0.24320000  0.29150000  1.0 -0.0898096362
C  C84  1  0.32060000  0.75680000  0.70850000  1.0 -0.0898096362
C  C85  1  0.71000000  0.20050000  0.34000000  1.0 -0.1395797213
C  C86  1  0.29000000  0.79950000  0.66000000  1.0 -0.1395797213
C  C87  1  0.55630000  0.25160000  0.17840000  1.0 0.5322430296
C  C88  1  0.44370000  0.74840000  0.82160000  1.0 0.5322430296
O  O1  1  0.36400000  0.38420000  0.99100000  1.0 -0.4995654361
O  O2  1  0.63600000  0.61580000  0.00900000  1.0 -0.4995654361
O  O3  1  0.32710000  0.26010000  0.00850000  1.0 -0.4592894302
O  O4  1  0.67290000  0.73990000  0.99150000  1.0 -0.4592894302
O  O5  1  0.54520000  0.38770000  0.93480000  1.0 -0.4995654361
O  O6  1  0.45480000  0.61230000  0.06520000  1.0 -0.4995654361
O  O7  1  0.53470000  0.28100000  0.98490000  1.0 -0.5299762325
O  O8  1  0.46530000  0.71900000  0.01510000  1.0 -0.5299762325
O  O9  1  0.57110000  0.49430000  0.12420000  1.0 -0.57480426
O  O10  1  0.42890000  0.50570000  0.87580000  1.0 -0.57480426
O  O11  1  0.49690000  0.45740000  0.20570000  1.0 -0.5419024961
O  O12  1  0.50310000  0.54260000  0.79430000  1.0 -0.5419024961
O  O13  1  0.46460000  0.21330000  0.13140000  1.0 -0.5222700672
O  O14  1  0.53540000  0.78670000  0.86860000  1.0 -0.5222700672
O  O15  1  0.61480000  0.32410000  0.18420000  1.0 -0.4592894302
O  O16  1  0.38520000  0.67590000  0.81580000  1.0 -0.4592894302
O  O17  1  0.75360000  0.92340000  0.52470000  1.0 -0.1519213951
O  O18  1  0.24640000  0.07660000  0.47530000  1.0 -0.1519213951
O  O19  1  0.73630000  0.20590000  0.51170000  1.0 -0.1900729524
O  O20  1  0.26370000  0.79410000  0.48830000  1.0 -0.1900729524
O  O21  1  0.62240000  0.09570000  0.60200000  1.0 -0.1722930209
O  O22  1  0.37760000  0.90430000  0.39800000  1.0 -0.1722930209
O  O23  1  0.94330000  0.12490000  0.61840000  1.0 -0.1395797213
O  O24  1  0.05670000  0.87510000  0.38160000  1.0 -0.1395797213
