# DDEC6 charges by PACMAN v1.1 (https://github.com/mtap-research/PACMAN-charge/)
data_WUYYAS_FSR_pacman
_symmetry_space_group_name_H-M   'P 1'
_cell_length_a   15.89000000
_cell_length_b   18.59600000
_cell_length_c   28.50000000
_cell_angle_alpha   101.97900000
_cell_angle_beta   94.41400000
_cell_angle_gamma   108.93100000
_symmetry_Int_Tables_number   1
_chemical_formula_structural   PrCd2H74C94(NO13)2
_chemical_formula_sum   'Pr2 Cd4 H148 C188 N4 O52'
_cell_volume   7697.15367398
_cell_formula_units_Z   2
loop_
 _symmetry_equiv_pos_site_id
 _symmetry_equiv_pos_as_xyz
  1  'x, y, z'
loop_
 _atom_site_type_symbol
 _atom_site_label
 _atom_site_symmetry_multiplicity
 _atom_site_fract_x
 _atom_site_fract_y
 _atom_site_fract_z
 _atom_site_occupancy
 _atom_site_charge
Pr  Pr1  1  0.19465000  0.22890000  0.23124000  1.0 2.1632073959
Pr  Pr2  1  0.80535000  0.77110000  0.76876000  1.0 2.1632073959
Cd  Cd1  1  0.38683000  0.14532000  0.23916000  1.0 1.0017211278
Cd  Cd2  1  0.61317000  0.85468000  0.76084000  1.0 1.0017211278
Cd  Cd3  1  0.04015000  0.35104000  0.26962000  1.0 0.9845027169
Cd  Cd4  1  0.95985000  0.64896000  0.73038000  1.0 0.9845027169
H  H1  1  0.03120000  0.07000000  0.14190000  1.0 0.1101616551
H  H2  1  0.96880000  0.93000000  0.85810000  1.0 0.1101616551
H  H3  1  0.93000000  0.87890000  0.09760000  1.0 0.1398048323
H  H4  1  0.07000000  0.12110000  0.90240000  1.0 0.1398048323
H  H5  1  0.98580000  0.91850000  0.06100000  1.0 0.1398048323
H  H6  1  0.01420000  0.08150000  0.93900000  1.0 0.1398048323
H  H7  1  0.93150000  0.96160000  0.09240000  1.0 0.1283183269
H  H8  1  0.06850000  0.03840000  0.90760000  1.0 0.1283183269
H  H9  1  0.79830000  0.12710000  0.18680000  1.0 0.1283183269
H  H10  1  0.20170000  0.87290000  0.81320000  1.0 0.1283183269
H  H11  1  0.06590000  0.87890000  0.15410000  1.0 0.1283183269
H  H12  1  0.93410000  0.12110000  0.84590000  1.0 0.1283183269
H  H13  1  0.14510000  0.95880000  0.17560000  1.0 0.1398048323
H  H14  1  0.85490000  0.04120000  0.82440000  1.0 0.1398048323
H  H15  1  0.13610000  0.91330000  0.12150000  1.0 0.1398048323
H  H16  1  0.86390000  0.08670000  0.87850000  1.0 0.1398048323
H  H17  1  0.70570000  0.00230000  0.14350000  1.0 0.1283183269
H  H18  1  0.29430000  0.99770000  0.85650000  1.0 0.1283183269
H  H19  1  0.87080000  0.91340000  0.20270000  1.0 0.1191694138
H  H20  1  0.12920000  0.08660000  0.79730000  1.0 0.1191694138
H  H21  1  0.97090000  0.03760000  0.23930000  1.0 0.1191694138
H  H22  1  0.02910000  0.96240000  0.76070000  1.0 0.1191694138
H  H23  1  0.94460000  0.27170000  0.04770000  1.0 0.1283183269
H  H24  1  0.05540000  0.72830000  0.95230000  1.0 0.1283183269
H  H25  1  0.95800000  0.31340000  0.10290000  1.0 0.1398048323
H  H26  1  0.04200000  0.68660000  0.89710000  1.0 0.1398048323
H  H27  1  0.88340000  0.23060000  0.08200000  1.0 0.1398048323
H  H28  1  0.11660000  0.76940000  0.91800000  1.0 0.1398048323
H  H29  1  0.04190000  0.27850000  0.16050000  1.0 0.1191694138
H  H30  1  0.95810000  0.72150000  0.83950000  1.0 0.1191694138
H  H31  1  0.72640000  0.90520000  0.07330000  1.0 0.1191694138
H  H32  1  0.27360000  0.09480000  0.92670000  1.0 0.1191694138
H  H33  1  0.02330000  0.10500000  0.06320000  1.0 0.1283183269
H  H34  1  0.97670000  0.89500000  0.93680000  1.0 0.1283183269
H  H35  1  0.10400000  0.17090000  0.05190000  1.0 0.1398048323
H  H36  1  0.89600000  0.82910000  0.94810000  1.0 0.1398048323
H  H37  1  0.00910000  0.14180000  0.01980000  1.0 0.1283183269
H  H38  1  0.99090000  0.85820000  0.98020000  1.0 0.1283183269
H  H39  1  0.59050000  0.86390000  0.00400000  1.0 0.1191694138
H  H40  1  0.40950000  0.13610000  0.99600000  1.0 0.1191694138
H  H41  1  0.59250000  0.88060000  0.92580000  1.0 0.1283183269
H  H42  1  0.40750000  0.11940000  0.07420000  1.0 0.1283183269
H  H43  1  0.73260000  0.74070000  0.89590000  1.0 0.1191694138
H  H44  1  0.26740000  0.25930000  0.10410000  1.0 0.1191694138
H  H45  1  0.73390000  0.72040000  0.97620000  1.0 0.1191694138
H  H46  1  0.26610000  0.27960000  0.02380000  1.0 0.1191694138
H  H47  1  0.65710000  0.57640000  0.99050000  1.0 0.1283183269
H  H48  1  0.34290000  0.42360000  0.00950000  1.0 0.1283183269
H  H49  1  0.61190000  0.54380000  0.03240000  1.0 0.1283183269
H  H50  1  0.38810000  0.45620000  0.96760000  1.0 0.1283183269
H  H51  1  0.70700000  0.61020000  0.04430000  1.0 0.1191694138
H  H52  1  0.29300000  0.38980000  0.95570000  1.0 0.1191694138
H  H53  1  0.67440000  0.81210000  0.25630000  1.0 0.1191694138
H  H54  1  0.32560000  0.18790000  0.74370000  1.0 0.1191694138
H  H55  1  0.60120000  0.77310000  0.20970000  1.0 0.1191694138
H  H56  1  0.39880000  0.22690000  0.79030000  1.0 0.1191694138
H  H57  1  0.65790000  0.86290000  0.22130000  1.0 0.1101616551
H  H58  1  0.34210000  0.13710000  0.77870000  1.0 0.1101616551
H  H59  1  0.38050000  0.64480000  0.09180000  1.0 0.1283183269
H  H60  1  0.61950000  0.35520000  0.90820000  1.0 0.1283183269
H  H61  1  0.39120000  0.56530000  0.09570000  1.0 0.0982705506
H  H62  1  0.60880000  0.43470000  0.90430000  1.0 0.0982705506
H  H63  1  0.44930000  0.61560000  0.06410000  1.0 0.1101616551
H  H64  1  0.55070000  0.38440000  0.93590000  1.0 0.1101616551
H  H65  1  0.57250000  0.47450000  0.18550000  1.0 0.1191694138
H  H66  1  0.42750000  0.52550000  0.81450000  1.0 0.1191694138
H  H67  1  0.40630000  0.41030000  0.14310000  1.0 0.1191694138
H  H68  1  0.59370000  0.58970000  0.85690000  1.0 0.1191694138
H  H69  1  0.27650000  0.35690000  0.17350000  1.0 0.1101616551
H  H70  1  0.72350000  0.64310000  0.82650000  1.0 0.1101616551
H  H71  1  0.42850000  0.62590000  0.21500000  1.0 0.1191694138
H  H72  1  0.57150000  0.37410000  0.78500000  1.0 0.1191694138
H  H73  1  0.30660000  0.57600000  0.25200000  1.0 0.1283183269
H  H74  1  0.69340000  0.42400000  0.74800000  1.0 0.1283183269
H  H75  1  0.70020000  0.50290000  0.24340000  1.0 0.1191694138
H  H76  1  0.29980000  0.49710000  0.75660000  1.0 0.1191694138
H  H77  1  0.79870000  0.45410000  0.27120000  1.0 0.1283183269
H  H78  1  0.20130000  0.54590000  0.72880000  1.0 0.1283183269
H  H79  1  0.90060000  0.45090000  0.14760000  1.0 0.1283183269
H  H80  1  0.09940000  0.54910000  0.85240000  1.0 0.1283183269
H  H81  1  0.80220000  0.50380000  0.12070000  1.0 0.1191694138
H  H82  1  0.19780000  0.49620000  0.87930000  1.0 0.1191694138
H  H83  1  0.14100000  0.14030000  0.32880000  1.0 0.1191694138
H  H84  1  0.85900000  0.85970000  0.67120000  1.0 0.1191694138
H  H85  1  0.01850000  0.08760000  0.36060000  1.0 0.1283183269
H  H86  1  0.98150000  0.91240000  0.63940000  1.0 0.1283183269
H  H87  1  0.00000000  0.87220000  0.29170000  1.0 0.1283183269
H  H88  1  0.00000000  0.12780000  0.70830000  1.0 0.1283183269
H  H89  1  0.12350000  0.92230000  0.25850000  1.0 0.1191694138
H  H90  1  0.87650000  0.07770000  0.74150000  1.0 0.1191694138
H  H91  1  0.85920000  0.02130000  0.32270000  1.0 0.1101616551
H  H92  1  0.14080000  0.97870000  0.67730000  1.0 0.1101616551
H  H93  1  0.06400000  0.86830000  0.39580000  1.0 0.1191694138
H  H94  1  0.93600000  0.13170000  0.60420000  1.0 0.1191694138
H  H95  1  0.00440000  0.86480000  0.43720000  1.0 0.1191694138
H  H96  1  0.99560000  0.13520000  0.56280000  1.0 0.1191694138
H  H97  1  0.02470000  0.93500000  0.41230000  1.0 0.0982705506
H  H98  1  0.97530000  0.06500000  0.58770000  1.0 0.0982705506
H  H99  1  0.72710000  0.99560000  0.26550000  1.0 0.1101616551
H  H100  1  0.27290000  0.00440000  0.73450000  1.0 0.1101616551
H  H101  1  0.63630000  0.05620000  0.24060000  1.0 0.1191694138
H  H102  1  0.36370000  0.94380000  0.75940000  1.0 0.1191694138
H  H103  1  0.53920000  0.06470000  0.36980000  1.0 0.1191694138
H  H104  1  0.46080000  0.93530000  0.63020000  1.0 0.1191694138
H  H105  1  0.63090000  0.00100000  0.39210000  1.0 0.1191694138
H  H106  1  0.36910000  0.99900000  0.60790000  1.0 0.1191694138
H  H107  1  0.71440000  0.68010000  0.24780000  1.0 0.1191694138
H  H108  1  0.28560000  0.31990000  0.75220000  1.0 0.1191694138
H  H109  1  0.75500000  0.64430000  0.28510000  1.0 0.1101616551
H  H110  1  0.24500000  0.35570000  0.71490000  1.0 0.1101616551
H  H111  1  0.79640000  0.73420000  0.28780000  1.0 0.1191694138
H  H112  1  0.20360000  0.26580000  0.71220000  1.0 0.1191694138
H  H113  1  0.83770000  0.95190000  0.49270000  1.0 0.1283183269
H  H114  1  0.16230000  0.04810000  0.50730000  1.0 0.1283183269
H  H115  1  0.80570000  0.89870000  0.52860000  1.0 0.1191694138
H  H116  1  0.19430000  0.10130000  0.47140000  1.0 0.1191694138
H  H117  1  0.74310000  0.88490000  0.47990000  1.0 0.1191694138
H  H118  1  0.25690000  0.11510000  0.52010000  1.0 0.1191694138
H  H119  1  0.69400000  0.59060000  0.43470000  1.0 0.1191694138
H  H120  1  0.30600000  0.40940000  0.56530000  1.0 0.1191694138
H  H121  1  0.70940000  0.75930000  0.53750000  1.0 0.1191694138
H  H122  1  0.29060000  0.24070000  0.46250000  1.0 0.1191694138
H  H123  1  0.73950000  0.74460000  0.61440000  1.0 0.1398048323
H  H124  1  0.26050000  0.25540000  0.38560000  1.0 0.1398048323
H  H125  1  0.92180000  0.66100000  0.57630000  1.0 0.1283183269
H  H126  1  0.07820000  0.33900000  0.42370000  1.0 0.1283183269
H  H127  1  0.87300000  0.64560000  0.49280000  1.0 0.1283183269
H  H128  1  0.12700000  0.35440000  0.50720000  1.0 0.1283183269
H  H129  1  0.53110000  0.59550000  0.31350000  1.0 0.1191694138
H  H130  1  0.46890000  0.40450000  0.68650000  1.0 0.1191694138
H  H131  1  0.42240000  0.47320000  0.27810000  1.0 0.1191694138
H  H132  1  0.57760000  0.52680000  0.72190000  1.0 0.1191694138
H  H133  1  0.59870000  0.37310000  0.31490000  1.0 0.1398048323
H  H134  1  0.40130000  0.62690000  0.68510000  1.0 0.1398048323
H  H135  1  0.69550000  0.49090000  0.35930000  1.0 0.1191694138
H  H136  1  0.30450000  0.50910000  0.64070000  1.0 0.1191694138
H  H137  1  0.51170000  0.81340000  0.35340000  1.0 0.1283183269
H  H138  1  0.48830000  0.18660000  0.64660000  1.0 0.1283183269
H  H139  1  0.56880000  0.76990000  0.32470000  1.0 0.1191694138
H  H140  1  0.43120000  0.23010000  0.67530000  1.0 0.1191694138
H  H141  1  0.56980000  0.85110000  0.31690000  1.0 0.1101616551
H  H142  1  0.43020000  0.14890000  0.68310000  1.0 0.1101616551
H  H143  1  0.91130000  0.71210000  0.16610000  1.0 0.1283183269
H  H144  1  0.08870000  0.28790000  0.83390000  1.0 0.1283183269
H  H145  1  0.85740000  0.65900000  0.19770000  1.0 0.1191694138
H  H146  1  0.14260000  0.34100000  0.80230000  1.0 0.1191694138
H  H147  1  0.83710000  0.73440000  0.19270000  1.0 0.1191694138
H  H148  1  0.16290000  0.26560000  0.80730000  1.0 0.1191694138
C  C1  1  0.06840000  0.04550000  0.15310000  1.0 0.2803172906
C  C2  1  0.93160000  0.95450000  0.84690000  1.0 0.2803172906
C  C3  1  0.89860000  0.09630000  0.21380000  1.0 -0.0401056592
C  C4  1  0.10140000  0.90370000  0.78620000  1.0 -0.0401056592
C  C5  1  0.96630000  0.92790000  0.09200000  1.0 -0.3564870814
C  C6  1  0.03370000  0.07210000  0.90800000  1.0 -0.3544087867
C  C7  1  0.81610000  0.08440000  0.18770000  1.0 -0.0988539499
C  C8  1  0.18390000  0.91560000  0.81230000  1.0 -0.0988539499
C  C9  1  0.10340000  0.92620000  0.14700000  1.0 -0.3067212263
C  C10  1  0.89660000  0.07380000  0.85300000  1.0 -0.3067212263
C  C11  1  0.75910000  0.00890000  0.16260000  1.0 -0.1605981375
C  C12  1  0.24090000  0.99110000  0.83740000  1.0 -0.1605981375
C  C13  1  0.78160000  0.94400000  0.16600000  1.0 0.0825632819
C  C14  1  0.21840000  0.05600000  0.83400000  1.0 0.0825632819
C  C15  1  0.85820000  0.95650000  0.19690000  1.0 -0.1492941638
C  C16  1  0.14180000  0.04350000  0.80310000  1.0 -0.1492941638
C  C17  1  0.91800000  0.03130000  0.21990000  1.0 -0.109162503
C  C18  1  0.08200000  0.96870000  0.78010000  1.0 -0.109162503
C  C19  1  0.94280000  0.26370000  0.07990000  1.0 -0.3167852322
C  C20  1  0.05720000  0.73630000  0.92010000  1.0 -0.3167852322
C  C21  1  0.72910000  0.86580000  0.13310000  1.0 -0.031408658
C  C22  1  0.27090000  0.13420000  0.86690000  1.0 -0.031408658
C  C23  1  0.05570000  0.24320000  0.13690000  1.0 0.3267939081
C  C24  1  0.94430000  0.75680000  0.86310000  1.0 0.3267939081
C  C25  1  0.71090000  0.85920000  0.08380000  1.0 -0.1907312388
C  C26  1  0.28910000  0.14080000  0.91620000  1.0 -0.1907312388
C  C27  1  0.04020000  0.15230000  0.05210000  1.0 -0.4363858858
C  C28  1  0.95980000  0.84770000  0.94790000  1.0 -0.4363858858
C  C29  1  0.67230000  0.79060000  0.04990000  1.0 -0.031408658
C  C30  1  0.32770000  0.20940000  0.95010000  1.0 -0.031408658
C  C31  1  0.64820000  0.71770000  0.06470000  1.0 0.1815679064
C  C32  1  0.35180000  0.28230000  0.93530000  1.0 0.1815679064
C  C33  1  0.66520000  0.72080000  0.11430000  1.0 -0.0988539499
C  C34  1  0.33480000  0.27920000  0.88570000  1.0 -0.0988539499
C  C35  1  0.70580000  0.79370000  0.14700000  1.0 0.1646189382
C  C36  1  0.29420000  0.20630000  0.85300000  1.0 0.1646189382
C  C37  1  0.66080000  0.79100000  0.99680000  1.0 0.0933149857
C  C38  1  0.33920000  0.20900000  0.00320000  1.0 0.0933149857
C  C39  1  0.61920000  0.83860000  0.98260000  1.0 -0.1492941638
C  C40  1  0.38080000  0.16140000  0.01740000  1.0 -0.1492941638
C  C41  1  0.62060000  0.84820000  0.93560000  1.0 -0.0814482002
C  C42  1  0.37940000  0.15180000  0.06440000  1.0 -0.0814482002
C  C43  1  0.66120000  0.81220000  0.90410000  1.0 -0.0198908799
C  C44  1  0.33880000  0.18780000  0.09590000  1.0 -0.0198908799
C  C45  1  0.70400000  0.76500000  0.91790000  1.0 -0.0988539499
C  C46  1  0.29600000  0.23500000  0.08210000  1.0 -0.0988539499
C  C47  1  0.70530000  0.75220000  0.96620000  1.0 -0.1605981375
C  C48  1  0.29470000  0.24780000  0.03380000  1.0 -0.1605981375
C  C49  1  0.66700000  0.82000000  0.85300000  1.0 0.6005362709
C  C50  1  0.33300000  0.18000000  0.14700000  1.0 0.6005362709
C  C51  1  0.64930000  0.58980000  0.02390000  1.0 -0.2389603043
C  C52  1  0.35070000  0.41020000  0.97610000  1.0 -0.2389603043
C  C53  1  0.65930000  0.81220000  0.22300000  1.0 -0.2293682307
C  C54  1  0.34070000  0.18780000  0.77700000  1.0 -0.2293682307
C  C55  1  0.42240000  0.61770000  0.09310000  1.0 -0.2293682307
C  C56  1  0.57760000  0.38230000  0.90690000  1.0 -0.2293682307
C  C57  1  0.63720000  0.64840000  0.13360000  1.0 -0.0890433556
C  C58  1  0.36280000  0.35160000  0.86640000  1.0 -0.0890433556
C  C59  1  0.55060000  0.61890000  0.14360000  1.0 0.1398048323
C  C60  1  0.44940000  0.38110000  0.85640000  1.0 0.1398048323
C  C61  1  0.52410000  0.55530000  0.16410000  1.0 -0.048044527
C  C62  1  0.47590000  0.44470000  0.83590000  1.0 -0.048044527
C  C63  1  0.58950000  0.51910000  0.17350000  1.0 -0.1907312388
C  C64  1  0.41050000  0.48090000  0.82650000  1.0 -0.1907312388
C  C65  1  0.67680000  0.54970000  0.16480000  1.0 -0.0401056592
C  C66  1  0.32320000  0.45030000  0.83520000  1.0 -0.0401056592
C  C67  1  0.70070000  0.61410000  0.14520000  1.0 0.150883768
C  C68  1  0.29930000  0.38590000  0.85480000  1.0 0.150883768
C  C69  1  0.43280000  0.52330000  0.17790000  1.0 0.0982705506
C  C70  1  0.56720000  0.47670000  0.82210000  1.0 0.0982705506
C  C71  1  0.38520000  0.44300000  0.16450000  1.0 -0.1404904477
C  C72  1  0.61480000  0.55700000  0.83550000  1.0 -0.1404904477
C  C73  1  0.30700000  0.41080000  0.18260000  1.0 -0.0890433556
C  C74  1  0.69300000  0.58920000  0.81740000  1.0 -0.0890433556
C  C75  1  0.39930000  0.57190000  0.20840000  1.0 -0.1404904477
C  C76  1  0.60070000  0.42810000  0.79160000  1.0 -0.1404904477
C  C77  1  0.32480000  0.54300000  0.22910000  1.0 -0.0890433556
C  C78  1  0.67520000  0.45700000  0.77090000  1.0 -0.0890433556
C  C79  1  0.27410000  0.45830000  0.21410000  1.0 -0.0589686111
C  C80  1  0.72590000  0.54170000  0.78590000  1.0 -0.0589686111
C  C81  1  0.20010000  0.42800000  0.23860000  1.0 0.5658009489
C  C82  1  0.79990000  0.57200000  0.76140000  1.0 0.5658009489
C  C83  1  0.74090000  0.51120000  0.18080000  1.0 0.0738156875
C  C84  1  0.25910000  0.48880000  0.81920000  1.0 0.0738156875
C  C85  1  0.74210000  0.49380000  0.22410000  1.0 -0.1320528696
C  C86  1  0.25790000  0.50620000  0.77590000  1.0 -0.1320528696
C  C87  1  0.80040000  0.46420000  0.24060000  1.0 -0.0890433556
C  C88  1  0.19960000  0.53580000  0.75940000  1.0 -0.0890433556
C  C89  1  0.86560000  0.44750000  0.21290000  1.0 0.0208129919
C  C90  1  0.13440000  0.55250000  0.78710000  1.0 0.0208129919
C  C91  1  0.86110000  0.46270000  0.16780000  1.0 -0.109162503
C  C92  1  0.13890000  0.53730000  0.83220000  1.0 -0.109162503
C  C93  1  0.80220000  0.49390000  0.15140000  1.0 -0.1404904477
C  C94  1  0.19780000  0.50610000  0.84860000  1.0 -0.1404904477
C  C95  1  0.93450000  0.41100000  0.22970000  1.0 0.5197368701
C  C96  1  0.06550000  0.58900000  0.77030000  1.0 0.5197368701
C  C97  1  0.22790000  0.06680000  0.26840000  1.0 0.5554396947
C  C98  1  0.77210000  0.93320000  0.73160000  1.0 0.5554396947
C  C99  1  0.11260000  0.08610000  0.32060000  1.0 -0.0814482002
C  C100  1  0.88740000  0.91390000  0.67940000  1.0 -0.0814482002
C  C101  1  0.03940000  0.05480000  0.33920000  1.0 -0.1404904477
C  C102  1  0.96060000  0.94520000  0.66080000  1.0 -0.1404904477
C  C103  1  0.99220000  0.97250000  0.32740000  1.0 0.0933149857
C  C104  1  0.00780000  0.02750000  0.67260000  1.0 0.0933149857
C  C105  1  0.02780000  0.92640000  0.29830000  1.0 -0.1320528696
C  C106  1  0.97220000  0.07360000  0.70170000  1.0 -0.1320528696
C  C107  1  0.10170000  0.95590000  0.27880000  1.0 -0.0988539499
C  C108  1  0.89830000  0.04410000  0.72120000  1.0 -0.0988539499
C  C109  1  0.90370000  0.94230000  0.34390000  1.0 -0.031408658
C  C110  1  0.09630000  0.05770000  0.65610000  1.0 -0.031408658
C  C111  1  0.84130000  0.97830000  0.33610000  1.0 -0.1907312388
C  C112  1  0.15870000  0.02170000  0.66390000  1.0 -0.1907312388
C  C113  1  0.75150000  0.95400000  0.34740000  1.0 -0.0401056592
C  C114  1  0.24850000  0.04600000  0.65260000  1.0 -0.0401056592
C  C115  1  0.72690000  0.88650000  0.36690000  1.0 0.1815679064
C  C116  1  0.27310000  0.11350000  0.63310000  1.0 0.1815679064
C  C117  1  0.79020000  0.85060000  0.37490000  1.0 -0.0890433556
C  C118  1  0.20980000  0.14940000  0.62510000  1.0 -0.0890433556
C  C119  1  0.87220000  0.87630000  0.36400000  1.0 0.1398048323
C  C120  1  0.12780000  0.12370000  0.63600000  1.0 0.1398048323
C  C121  1  0.01340000  0.87980000  0.40720000  1.0 -0.2293682307
C  C122  1  0.98660000  0.12020000  0.59280000  1.0 -0.2293682307
C  C123  1  0.69300000  0.99270000  0.33260000  1.0 0.0825632819
C  C124  1  0.30700000  0.00730000  0.66740000  1.0 0.0825632819
C  C125  1  0.68950000  0.00950000  0.28620000  1.0 -0.1605981375
C  C126  1  0.31050000  0.99050000  0.71380000  1.0 -0.1605981375
C  C127  1  0.63360000  0.04490000  0.27080000  1.0 -0.0814482002
C  C128  1  0.36640000  0.95510000  0.72920000  1.0 -0.0814482002
C  C129  1  0.57150000  0.06500000  0.29910000  1.0 -0.0589686111
C  C130  1  0.42850000  0.93500000  0.70090000  1.0 -0.0589686111
C  C131  1  0.57530000  0.04960000  0.34840000  1.0 -0.0814482002
C  C132  1  0.42470000  0.95040000  0.65160000  1.0 -0.0814482002
C  C133  1  0.63230000  0.01300000  0.36200000  1.0 -0.1492941638
C  C134  1  0.36770000  0.98700000  0.63800000  1.0 -0.1492941638
C  C135  1  0.74170000  0.68950000  0.28070000  1.0 -0.2389603043
C  C136  1  0.25830000  0.31050000  0.71930000  1.0 -0.2389603043
C  C137  1  0.80430000  0.89990000  0.49500000  1.0 -0.2293682307
C  C138  1  0.19570000  0.10010000  0.50500000  1.0 -0.2293682307
C  C139  1  0.75750000  0.77530000  0.39440000  1.0 -0.0890433556
C  C140  1  0.24250000  0.22470000  0.60560000  1.0 -0.0890433556
C  C141  1  0.70520000  0.70590000  0.36270000  1.0 0.150883768
C  C142  1  0.29480000  0.29410000  0.63730000  1.0 0.150883768
C  C143  1  0.68220000  0.63480000  0.37560000  1.0 -0.0198908799
C  C144  1  0.31780000  0.36520000  0.62440000  1.0 -0.0198908799
C  C145  1  0.70970000  0.63660000  0.42410000  1.0 -0.1907312388
C  C146  1  0.29030000  0.36340000  0.57590000  1.0 -0.1907312388
C  C147  1  0.76070000  0.70810000  0.45610000  1.0 -0.0198908799
C  C148  1  0.23930000  0.29190000  0.54390000  1.0 -0.0198908799
C  C149  1  0.79040000  0.77840000  0.43950000  1.0 0.150883768
C  C150  1  0.20960000  0.22160000  0.56050000  1.0 0.150883768
C  C151  1  0.79040000  0.70540000  0.50670000  1.0 0.0825632819
C  C152  1  0.20960000  0.29460000  0.49330000  1.0 0.0825632819
C  C153  1  0.74990000  0.73460000  0.54380000  1.0 -0.1492941638
C  C154  1  0.25010000  0.26540000  0.45620000  1.0 -0.1492941638
C  C155  1  0.76970000  0.72700000  0.59040000  1.0 -0.0988539499
C  C156  1  0.23030000  0.27300000  0.40960000  1.0 -0.0988539499
C  C157  1  0.82920000  0.69580000  0.60200000  1.0 -0.0032188002
C  C158  1  0.17080000  0.30420000  0.39800000  1.0 -0.0032188002
C  C159  1  0.87240000  0.67460000  0.56760000  1.0 -0.0988539499
C  C160  1  0.12760000  0.32540000  0.43240000  1.0 -0.0988539499
C  C161  1  0.84880000  0.67080000  0.51700000  1.0 -0.1404904477
C  C162  1  0.15120000  0.32920000  0.48300000  1.0 -0.1404904477
C  C163  1  0.85460000  0.69130000  0.65540000  1.0 0.6105481823
C  C164  1  0.14540000  0.30870000  0.34460000  1.0 0.6105481823
C  C165  1  0.62090000  0.55820000  0.34380000  1.0 0.0825632819
C  C166  1  0.37910000  0.44180000  0.65620000  1.0 0.0825632819
C  C167  1  0.54230000  0.55060000  0.31680000  1.0 -0.1404904477
C  C168  1  0.45770000  0.44940000  0.68320000  1.0 -0.1404904477
C  C169  1  0.47780000  0.47690000  0.29370000  1.0 -0.0988539499
C  C170  1  0.52220000  0.52310000  0.70630000  1.0 -0.0988539499
C  C171  1  0.49690000  0.40990000  0.29430000  1.0 -0.0032188002
C  C172  1  0.50310000  0.59010000  0.70570000  1.0 -0.0032188002
C  C173  1  0.58270000  0.41740000  0.31730000  1.0 -0.109162503
C  C174  1  0.41730000  0.58260000  0.68270000  1.0 -0.109162503
C  C175  1  0.64130000  0.48770000  0.34250000  1.0 -0.1492941638
C  C176  1  0.35870000  0.51230000  0.65750000  1.0 -0.1492941638
C  C177  1  0.42740000  0.32480000  0.27030000  1.0 0.5927536329
C  C178  1  0.57260000  0.67520000  0.72970000  1.0 0.5927536329
C  C179  1  0.51010000  0.09800000  0.28180000  1.0 0.5106186112
C  C180  1  0.48990000  0.90200000  0.71820000  1.0 0.5106186112
C  C181  1  0.95730000  0.17890000  0.23500000  1.0 0.6005362709
C  C182  1  0.04270000  0.82110000  0.76500000  1.0 0.6005362709
C  C183  1  0.56690000  0.82020000  0.34020000  1.0 -0.2293682307
C  C184  1  0.43310000  0.17980000  0.65980000  1.0 -0.2293682307
C  C185  1  0.85380000  0.69170000  0.17620000  1.0 -0.2293682307
C  C186  1  0.14620000  0.30830000  0.82380000  1.0 -0.2293682307
C  C187  1  0.14750000  0.03980000  0.28920000  1.0 -0.048044527
C  C188  1  0.85250000  0.96020000  0.71080000  1.0 -0.048044527
N  N1  1  0.04880000  0.96710000  0.13190000  1.0 0.0314607275
N  N2  1  0.95120000  0.03290000  0.86810000  1.0 0.0314607275
N  N3  1  0.01120000  0.22410000  0.09120000  1.0 0.0208129919
N  N4  1  0.98880000  0.77590000  0.90880000  1.0 0.0208129919
O  O1  1  0.93760000  0.41030000  0.27480000  1.0 -0.5375759164
O  O2  1  0.06240000  0.58970000  0.72520000  1.0 -0.5375759164
O  O3  1  0.97440000  0.38610000  0.20050000  1.0 -0.5091631422
O  O4  1  0.02560000  0.61390000  0.79950000  1.0 -0.5091631422
O  O5  1  0.16530000  0.46740000  0.26630000  1.0 -0.4979220638
O  O6  1  0.83470000  0.53260000  0.73370000  1.0 -0.4979220638
O  O7  1  0.16170000  0.34840000  0.22810000  1.0 -0.7712874572
O  O8  1  0.83830000  0.65160000  0.77190000  1.0 -0.7712874572
O  O9  1  0.25660000  0.14930000  0.27180000  1.0 -0.7712874572
O  O10  1  0.74340000  0.85070000  0.72820000  1.0 -0.779316024
O  O11  1  0.27060000  0.03250000  0.24630000  1.0 -0.4363858858
O  O12  1  0.72940000  0.96750000  0.75370000  1.0 -0.4363858858
O  O13  1  0.70370000  0.78950000  0.82470000  1.0 -0.6011824767
O  O14  1  0.29630000  0.21050000  0.17530000  1.0 -0.6011824767
O  O15  1  0.62320000  0.86900000  0.84040000  1.0 -0.5768248896
O  O16  1  0.37680000  0.13100000  0.15960000  1.0 -0.5768248896
O  O17  1  0.34590000  0.32180000  0.26470000  1.0 -0.6602169434
O  O18  1  0.65410000  0.67820000  0.73530000  1.0 -0.6602169434
O  O19  1  0.45020000  0.27200000  0.26260000  1.0 -0.4495733241
O  O20  1  0.54980000  0.72800000  0.73740000  1.0 -0.4495733241
O  O21  1  0.50040000  0.09840000  0.23880000  1.0 -0.4979220638
O  O22  1  0.49960000  0.90160000  0.76120000  1.0 -0.4979220638
O  O23  1  0.45830000  0.12340000  0.30820000  1.0 -0.5349153439
O  O24  1  0.54170000  0.87660000  0.69180000  1.0 -0.5349153439
O  O25  1  0.91430000  0.66170000  0.65880000  1.0 -0.5091631422
O  O26  1  0.08570000  0.33830000  0.34120000  1.0 -0.5091631422
O  O27  1  0.81130000  0.71360000  0.68420000  1.0 -0.5915982882
O  O28  1  0.18870000  0.28640000  0.31580000  1.0 -0.5915982882
O  O29  1  0.13050000  0.08450000  0.18500000  1.0 -0.4849496345
O  O30  1  0.86950000  0.91550000  0.81500000  1.0 -0.4849496345
O  O31  1  0.11100000  0.21810000  0.14890000  1.0 -0.4923782358
O  O32  1  0.88900000  0.78190000  0.85110000  1.0 -0.4923782358
O  O33  1  0.49070000  0.65820000  0.13430000  1.0 -0.1907312388
O  O34  1  0.50930000  0.34180000  0.86570000  1.0 -0.1907312388
O  O35  1  0.78570000  0.64530000  0.13340000  1.0 -0.1681600036
O  O36  1  0.21430000  0.35470000  0.86660000  1.0 -0.1681600036
O  O37  1  0.60660000  0.64900000  0.03080000  1.0 -0.1492941638
O  O38  1  0.39340000  0.35100000  0.96920000  1.0 -0.1492941638
O  O39  1  0.72630000  0.79490000  0.19550000  1.0 -0.2071354399
O  O40  1  0.27370000  0.20510000  0.80450000  1.0 -0.2071354399
O  O41  1  0.68070000  0.70460000  0.31300000  1.0 -0.2226244668
O  O42  1  0.31930000  0.29540000  0.68700000  1.0 -0.2226244668
O  O43  1  0.84300000  0.84760000  0.47170000  1.0 -0.1681600036
O  O44  1  0.15700000  0.15240000  0.52830000  1.0 -0.1681600036
O  O45  1  0.64250000  0.85980000  0.37890000  1.0 -0.1404904477
O  O46  1  0.35750000  0.14020000  0.62110000  1.0 -0.1404904477
O  O47  1  0.93210000  0.83580000  0.37080000  1.0 -0.2006717483
O  O48  1  0.06790000  0.16420000  0.62920000  1.0 -0.2006717483
O  O49  1  0.92940000  0.23570000  0.23910000  1.0 -0.5222569267
O  O50  1  0.07060000  0.76430000  0.76090000  1.0 -0.5222569267
O  O51  1  0.04520000  0.19200000  0.24620000  1.0 -0.779316024
O  O52  1  0.95480000  0.80800000  0.75380000  1.0 -0.779316024
