# DDEC6 charges by PACMAN v1.1 (https://github.com/mtap-research/PACMAN-charge/)
data_WUZQOZ_ASR_pacman
_symmetry_space_group_name_H-M   'P 1'
_cell_length_a   6.52280000
_cell_length_b   13.84130000
_cell_length_c   15.64050000
_cell_angle_alpha   96.64100000
_cell_angle_beta   93.77500000
_cell_angle_gamma   94.72700000
_symmetry_Int_Tables_number   1
_chemical_formula_structural   CuH8(CN2)8
_chemical_formula_sum   'Cu2 H16 C16 N32'
_cell_volume   1393.78448802
_cell_formula_units_Z   2
loop_
 _symmetry_equiv_pos_site_id
 _symmetry_equiv_pos_as_xyz
  1  'x, y, z'
loop_
 _atom_site_type_symbol
 _atom_site_label
 _atom_site_symmetry_multiplicity
 _atom_site_fract_x
 _atom_site_fract_y
 _atom_site_fract_z
 _atom_site_occupancy
 _atom_site_charge
Cu  Cu1  1  0.69599000  0.70859000  0.70819000  1.0 0.2117372959
Cu  Cu2  1  0.30401000  0.29141000  0.29181000  1.0 0.2117372959
H  H1  1  0.30290000  0.69310000  0.57190000  1.0 0.1281434029
H  H2  1  0.69710000  0.30690000  0.42810000  1.0 0.1281434029
H  H3  1  0.64350000  0.87860000  0.86380000  1.0 0.1281434029
H  H4  1  0.35650000  0.12140000  0.13620000  1.0 0.1281434029
H  H5  1  0.24690000  0.89420000  0.91160000  1.0 0.1218467911
H  H6  1  0.75310000  0.10580000  0.08840000  1.0 0.1218467911
H  H7  1  0.91530000  0.91360000  0.67680000  1.0 0.1281434029
H  H8  1  0.08470000  0.08640000  0.32320000  1.0 0.1281434029
H  H9  1  0.30020000  0.40750000  0.56910000  1.0 0.1281434029
H  H10  1  0.69980000  0.59250000  0.43090000  1.0 0.1281434029
H  H11  1  0.80910000  0.58600000  0.86600000  1.0 0.1281434029
H  H12  1  0.19090000  0.41400000  0.13400000  1.0 0.1281434029
H  H13  1  0.83790000  0.82070000  0.42810000  1.0 0.1218467911
H  H14  1  0.16210000  0.17930000  0.57190000  1.0 0.1218467911
H  H15  1  0.21720000  0.57570000  0.90690000  1.0 0.1218467911
H  H16  1  0.78280000  0.42430000  0.09310000  1.0 0.1218467911
C  C1  1  0.34080000  0.63160000  0.58110000  1.0 0.0419770808
C  C2  1  0.65920000  0.36840000  0.41890000  1.0 0.0419770808
C  C3  1  0.78160000  0.86750000  0.86040000  1.0 0.0119122736
C  C4  1  0.21840000  0.13250000  0.13960000  1.0 0.0119122736
C  C5  1  0.11390000  0.87580000  0.88670000  1.0 -0.014518446
C  C6  1  0.88610000  0.12420000  0.11330000  1.0 -0.014518446
C  C7  1  0.88250000  0.87420000  0.62460000  1.0 0.0419770808
C  C8  1  0.11750000  0.12580000  0.37540000  1.0 0.0419770808
C  C9  1  0.34000000  0.47410000  0.57980000  1.0 0.0564792961
C  C10  1  0.66000000  0.52590000  0.42020000  1.0 0.0564792961
C  C11  1  0.66890000  0.59410000  0.86090000  1.0 0.0217085079
C  C12  1  0.33110000  0.40590000  0.13910000  1.0 0.0217085079
C  C13  1  0.83930000  0.82250000  0.48780000  1.0 0.0217085079
C  C14  1  0.16070000  0.17750000  0.51220000  1.0 0.0217085079
C  C15  1  0.34240000  0.58830000  0.88330000  1.0 -0.001691939
C  C16  1  0.65760000  0.41170000  0.11670000  1.0 -0.001691939
N  N1  1  0.91510000  0.98330000  0.98230000  1.0 -0.0774037779
N  N2  1  0.08490000  0.01670000  0.01770000  1.0 -0.0774037779
N  N3  1  0.52640000  0.56190000  0.91370000  1.0 0.0976094365
N  N4  1  0.47360000  0.43810000  0.08630000  1.0 0.0976094365
N  N5  1  0.80010000  0.78570000  0.61630000  1.0 -0.1885199581
N  N6  1  0.19990000  0.21430000  0.38370000  1.0 -0.1885199581
N  N7  1  0.57660000  0.63800000  0.80250000  1.0 -0.1601776049
N  N8  1  0.42340000  0.36200000  0.19750000  1.0 -0.1601776049
N  N9  1  0.57740000  0.51190000  0.98230000  1.0 -0.0616055742
N  N10  1  0.42260000  0.48810000  0.01770000  1.0 -0.0616055742
N  N11  1  0.85390000  0.80790000  0.80230000  1.0 -0.1840609104
N  N12  1  0.14610000  0.19210000  0.19770000  1.0 -0.1840609104
N  N13  1  0.51080000  0.61450000  0.62370000  1.0 -0.1601776049
N  N14  1  0.48920000  0.38550000  0.37630000  1.0 -0.1601776049
N  N15  1  0.22910000  0.54630000  0.55270000  1.0 0.0820090308
N  N16  1  0.77090000  0.45370000  0.44730000  1.0 0.0820090308
N  N17  1  0.99780000  0.99550000  0.53850000  1.0 -0.0712856591
N  N18  1  0.00220000  0.00450000  0.46150000  1.0 -0.0712856591
N  N19  1  0.06630000  0.81210000  0.81880000  1.0 -0.1885199581
N  N20  1  0.93370000  0.18790000  0.18120000  1.0 -0.1885199581
N  N21  1  0.94060000  0.91110000  0.91560000  1.0 0.0976094365
N  N22  1  0.05940000  0.08890000  0.08440000  1.0 0.0976094365
N  N23  1  0.91400000  0.90120000  0.54620000  1.0 0.0820090308
N  N24  1  0.08600000  0.09880000  0.45380000  1.0 0.0820090308
N  N25  1  0.77040000  0.75060000  0.52830000  1.0 -0.2167073578
N  N26  1  0.22960000  0.24940000  0.47170000  1.0 -0.2167073578
N  N27  1  0.51050000  0.51350000  0.62300000  1.0 -0.1885199581
N  N28  1  0.48950000  0.48650000  0.37700000  1.0 -0.1885199581
N  N29  1  0.03430000  0.54300000  0.50970000  1.0 -0.0712856591
N  N30  1  0.96570000  0.45700000  0.49030000  1.0 -0.0712856591
N  N31  1  0.36800000  0.63390000  0.81610000  1.0 -0.1885199581
N  N32  1  0.63200000  0.36610000  0.18390000  1.0 -0.1885199581
