# DDEC6 charges by PACMAN v1.1 (https://github.com/mtap-research/PACMAN-charge/)
data_XACFEN_ASR_pacman
_symmetry_space_group_name_H-M   'P 1'
_cell_length_a   11.63000000
_cell_length_b   11.63000000
_cell_length_c   15.73100000
_cell_angle_alpha   90.00000000
_cell_angle_beta   90.00000000
_cell_angle_gamma   120.00000000
_symmetry_Int_Tables_number   1
_chemical_formula_structural   Cd2P2H42(C8O7)3
_chemical_formula_sum   'Cd4 P4 H84 C48 O42'
_cell_volume   1842.66502282
_cell_formula_units_Z   2
loop_
 _symmetry_equiv_pos_site_id
 _symmetry_equiv_pos_as_xyz
  1  'x, y, z'
loop_
 _atom_site_type_symbol
 _atom_site_label
 _atom_site_symmetry_multiplicity
 _atom_site_fract_x
 _atom_site_fract_y
 _atom_site_fract_z
 _atom_site_occupancy
 _atom_site_charge
Cd  Cd1  1  0.66666667  0.33333333  0.72580000  1.0 0.5432852599
Cd  Cd2  1  0.33333333  0.66666667  0.22580000  1.0 0.5432852599
Cd  Cd3  1  0.00000000  0.00000000  0.47240000  1.0 0.6233269069
Cd  Cd4  1  0.00000000  0.00000000  0.97240000  1.0 0.6233269069
P  P1  1  0.00000000  0.00000000  0.63380000  1.0 0.0392717123
P  P2  1  0.00000000  0.00000000  0.13380000  1.0 0.0392717123
P  P3  1  0.66666667  0.33333333  0.88390000  1.0 -0.0092661924
P  P4  1  0.33333333  0.66666667  0.38390000  1.0 -0.0092661924
H  H1  1  0.15370000  0.09150000  0.74410000  1.0 0.1096968569
H  H2  1  0.90850000  0.06220000  0.74410000  1.0 0.1096968569
H  H3  1  0.93780000  0.84630000  0.74410000  1.0 0.1096968569
H  H4  1  0.84630000  0.90850000  0.24410000  1.0 0.1096968569
H  H5  1  0.09150000  0.93780000  0.24410000  1.0 0.1096968569
H  H6  1  0.06220000  0.15370000  0.24410000  1.0 0.1096968569
H  H7  1  0.19920000  0.01880000  0.68000000  1.0 0.0967646358
H  H8  1  0.98120000  0.18040000  0.68000000  1.0 0.0967646358
H  H9  1  0.81960000  0.80080000  0.68000000  1.0 0.0967646358
H  H10  1  0.80080000  0.98120000  0.18000000  1.0 0.0967646358
H  H11  1  0.01880000  0.81960000  0.18000000  1.0 0.0967646358
H  H12  1  0.18040000  0.19920000  0.18000000  1.0 0.0967646358
H  H13  1  0.22440000  0.26710000  0.65470000  1.0 0.1096968569
H  H14  1  0.73290000  0.95730000  0.65470000  1.0 0.1096968569
H  H15  1  0.04270000  0.77560000  0.65470000  1.0 0.1096968569
H  H16  1  0.77560000  0.73290000  0.15470000  1.0 0.1096968569
H  H17  1  0.26710000  0.04270000  0.15470000  1.0 0.1096968569
H  H18  1  0.95730000  0.22440000  0.15470000  1.0 0.1096968569
H  H19  1  0.25960000  0.19320000  0.58490000  1.0 0.0967646358
H  H20  1  0.80680000  0.06640000  0.58490000  1.0 0.0967646358
H  H21  1  0.93360000  0.74040000  0.58490000  1.0 0.0967646358
H  H22  1  0.74040000  0.80680000  0.08490000  1.0 0.0967646358
H  H23  1  0.19320000  0.93360000  0.08490000  1.0 0.0967646358
H  H24  1  0.06640000  0.25960000  0.08490000  1.0 0.0967646358
H  H25  1  0.71830000  0.47980000  0.98980000  1.0 0.078384539
H  H26  1  0.52020000  0.23850000  0.98980000  1.0 0.078384539
H  H27  1  0.76150000  0.28170000  0.98980000  1.0 0.078384539
H  H28  1  0.28170000  0.52020000  0.48980000  1.0 0.078384539
H  H29  1  0.47980000  0.76150000  0.48980000  1.0 0.078384539
H  H30  1  0.23850000  0.71830000  0.48980000  1.0 0.078384539
H  H31  1  0.83810000  0.52540000  0.92900000  1.0 0.0707563006
H  H32  1  0.47460000  0.31270000  0.92900000  1.0 0.0707563006
H  H33  1  0.68730000  0.16190000  0.92900000  1.0 0.0707563006
H  H34  1  0.16190000  0.47460000  0.42900000  1.0 0.0707563006
H  H35  1  0.52540000  0.68730000  0.42900000  1.0 0.0707563006
H  H36  1  0.31270000  0.83810000  0.42900000  1.0 0.0707563006
H  H37  1  0.64950000  0.58620000  0.93080000  1.0 0.0967646358
H  H38  1  0.41380000  0.06330000  0.93080000  1.0 0.0967646358
H  H39  1  0.93670000  0.35050000  0.93080000  1.0 0.0967646358
H  H40  1  0.35050000  0.41380000  0.43080000  1.0 0.0967646358
H  H41  1  0.58620000  0.93670000  0.43080000  1.0 0.0967646358
H  H42  1  0.06330000  0.64950000  0.43080000  1.0 0.0967646358
H  H43  1  0.72220000  0.59570000  0.84590000  1.0 0.078384539
H  H44  1  0.40430000  0.12650000  0.84590000  1.0 0.078384539
H  H45  1  0.87350000  0.27780000  0.84590000  1.0 0.078384539
H  H46  1  0.27780000  0.40430000  0.34590000  1.0 0.078384539
H  H47  1  0.59570000  0.87350000  0.34590000  1.0 0.078384539
H  H48  1  0.12650000  0.72220000  0.34590000  1.0 0.078384539
H  H49  1  0.31960000  0.47430000  0.42880000  1.0 0.0707563006
H  H50  1  0.52570000  0.84530000  0.42880000  1.0 0.0707563006
H  H51  1  0.15470000  0.68040000  0.42880000  1.0 0.0707563006
H  H52  1  0.68040000  0.52570000  0.92880000  1.0 0.0707563006
H  H53  1  0.47430000  0.15470000  0.92880000  1.0 0.0707563006
H  H54  1  0.84530000  0.31960000  0.92880000  1.0 0.0707563006
H  H55  1  0.24050000  0.51550000  0.48970000  1.0 0.078384539
H  H56  1  0.48450000  0.72500000  0.48970000  1.0 0.078384539
H  H57  1  0.27500000  0.75950000  0.48970000  1.0 0.078384539
H  H58  1  0.75950000  0.48450000  0.98970000  1.0 0.078384539
H  H59  1  0.51550000  0.27500000  0.98970000  1.0 0.078384539
H  H60  1  0.72500000  0.24050000  0.98970000  1.0 0.078384539
H  H61  1  0.14600000  0.41080000  0.33430000  1.0 0.1096968569
H  H62  1  0.58920000  0.73520000  0.33430000  1.0 0.1096968569
H  H63  1  0.26480000  0.85400000  0.33430000  1.0 0.1096968569
H  H64  1  0.85400000  0.58920000  0.83430000  1.0 0.1096968569
H  H65  1  0.41080000  0.26480000  0.83430000  1.0 0.1096968569
H  H66  1  0.73520000  0.14600000  0.83430000  1.0 0.1096968569
H  H67  1  0.06840000  0.42890000  0.41010000  1.0 0.078384539
H  H68  1  0.57110000  0.63950000  0.41010000  1.0 0.078384539
H  H69  1  0.36050000  0.93160000  0.41010000  1.0 0.078384539
H  H70  1  0.93160000  0.57110000  0.91010000  1.0 0.078384539
H  H71  1  0.42890000  0.36050000  0.91010000  1.0 0.078384539
H  H72  1  0.63950000  0.06840000  0.91010000  1.0 0.078384539
H  H73  1  0.65460000  0.55140000  0.72980000  1.0 0.298282866
H  H74  1  0.44860000  0.10320000  0.72980000  1.0 0.298282866
H  H75  1  0.89680000  0.34540000  0.72980000  1.0 0.298282866
H  H76  1  0.34540000  0.44860000  0.22980000  1.0 0.298282866
H  H77  1  0.55140000  0.89680000  0.22980000  1.0 0.298282866
H  H78  1  0.10320000  0.65460000  0.22980000  1.0 0.298282866
H  H79  1  0.77990000  0.59780000  0.67070000  1.0 0.2328206691
H  H80  1  0.40220000  0.18210000  0.67070000  1.0 0.2328206691
H  H81  1  0.81790000  0.22010000  0.67070000  1.0 0.2328206691
H  H82  1  0.22010000  0.40220000  0.17070000  1.0 0.2328206691
H  H83  1  0.59780000  0.81790000  0.17070000  1.0 0.2328206691
H  H84  1  0.18210000  0.77990000  0.17070000  1.0 0.2328206691
C  C1  1  0.16330000  0.07800000  0.68430000  1.0 -0.3333912499
C  C2  1  0.92200000  0.08530000  0.68430000  1.0 -0.3333912499
C  C3  1  0.91470000  0.83670000  0.68430000  1.0 -0.3333912499
C  C4  1  0.83670000  0.92200000  0.18430000  1.0 -0.3333912499
C  C5  1  0.07800000  0.91470000  0.18430000  1.0 -0.3333912499
C  C6  1  0.08530000  0.16330000  0.18430000  1.0 -0.3333912499
C  C7  1  0.25610000  0.20500000  0.64570000  1.0 -0.3503529188
C  C8  1  0.79500000  0.05110000  0.64570000  1.0 -0.3503529188
C  C9  1  0.94890000  0.74390000  0.64570000  1.0 -0.3503529188
C  C10  1  0.74390000  0.79500000  0.14570000  1.0 -0.3503529188
C  C11  1  0.20500000  0.94890000  0.14570000  1.0 -0.3503529188
C  C12  1  0.05110000  0.25610000  0.14570000  1.0 -0.3503529188
C  C13  1  0.39300000  0.26190000  0.68230000  1.0 0.3153509888
C  C14  1  0.73810000  0.13110000  0.68230000  1.0 0.3153509888
C  C15  1  0.86890000  0.60700000  0.68230000  1.0 0.3153509888
C  C16  1  0.60700000  0.73810000  0.18230000  1.0 0.3153509888
C  C17  1  0.26190000  0.86890000  0.18230000  1.0 0.3153509888
C  C18  1  0.13110000  0.39300000  0.18230000  1.0 0.3153509888
C  C19  1  0.74360000  0.49450000  0.93030000  1.0 -0.2227115986
C  C20  1  0.50550000  0.24910000  0.93030000  1.0 -0.2227115986
C  C21  1  0.75090000  0.25640000  0.93030000  1.0 -0.2227115986
C  C22  1  0.25640000  0.50550000  0.43030000  1.0 -0.2227115986
C  C23  1  0.49450000  0.75090000  0.43030000  1.0 -0.2227115986
C  C24  1  0.24910000  0.74360000  0.43030000  1.0 -0.2227115986
C  C25  1  0.73270000  0.60040000  0.90720000  1.0 -0.1769307163
C  C26  1  0.39960000  0.13230000  0.90720000  1.0 -0.1769307163
C  C27  1  0.86770000  0.26730000  0.90720000  1.0 -0.1769307163
C  C28  1  0.26730000  0.39960000  0.40720000  1.0 -0.1769307163
C  C29  1  0.60040000  0.86770000  0.40720000  1.0 -0.1769307163
C  C30  1  0.13230000  0.73270000  0.40720000  1.0 -0.1769307163
C  C31  1  0.83290000  0.73790000  0.92730000  1.0 0.3083140297
C  C32  1  0.26210000  0.09500000  0.92730000  1.0 0.3083140297
C  C33  1  0.90500000  0.16710000  0.92730000  1.0 0.3083140297
C  C34  1  0.16710000  0.26210000  0.42730000  1.0 0.3083140297
C  C35  1  0.73790000  0.90500000  0.42730000  1.0 0.3083140297
C  C36  1  0.09500000  0.83290000  0.42730000  1.0 0.3083140297
C  C37  1  0.13840000  0.41000000  0.39580000  1.0 -0.2100305167
C  C38  1  0.59000000  0.72840000  0.39580000  1.0 -0.2100305167
C  C39  1  0.27160000  0.86160000  0.39580000  1.0 -0.2100305167
C  C40  1  0.86160000  0.59000000  0.89580000  1.0 -0.2100305167
C  C41  1  0.41000000  0.27160000  0.89580000  1.0 -0.2100305167
C  C42  1  0.72840000  0.13840000  0.89580000  1.0 -0.2100305167
C  C43  1  0.10170000  0.26670000  0.43160000  1.0 0.3083140297
C  C44  1  0.73330000  0.83500000  0.43160000  1.0 0.3083140297
C  C45  1  0.16500000  0.89830000  0.43160000  1.0 0.3083140297
C  C46  1  0.89830000  0.73330000  0.93160000  1.0 0.3083140297
C  C47  1  0.26670000  0.16500000  0.93160000  1.0 0.3083140297
C  C48  1  0.83500000  0.10170000  0.93160000  1.0 0.3083140297
O  O1  1  0.47850000  0.23900000  0.65290000  1.0 -0.1769307163
O  O2  1  0.76100000  0.23950000  0.65290000  1.0 -0.1769307163
O  O3  1  0.76050000  0.52150000  0.65290000  1.0 -0.1769307163
O  O4  1  0.52150000  0.76100000  0.15290000  1.0 -0.1769307163
O  O5  1  0.23900000  0.76050000  0.15290000  1.0 -0.1769307163
O  O6  1  0.23950000  0.47850000  0.15290000  1.0 -0.1769307163
O  O7  1  0.43260000  0.35330000  0.74600000  1.0 -0.6383326656
O  O8  1  0.64670000  0.07930000  0.74600000  1.0 -0.6383326656
O  O9  1  0.92070000  0.56740000  0.74600000  1.0 -0.6383326656
O  O10  1  0.56740000  0.64670000  0.24600000  1.0 -0.6383326656
O  O11  1  0.35330000  0.92070000  0.24600000  1.0 -0.6383326656
O  O12  1  0.07930000  0.43260000  0.24600000  1.0 -0.6383326656
O  O13  1  0.83200000  0.83540000  0.89470000  1.0 -0.2688646274
O  O14  1  0.16460000  0.99660000  0.89470000  1.0 -0.2688646274
O  O15  1  0.00340000  0.16800000  0.89470000  1.0 -0.2688646274
O  O16  1  0.16800000  0.16460000  0.39470000  1.0 -0.2688646274
O  O17  1  0.83540000  0.00340000  0.39470000  1.0 -0.2688646274
O  O18  1  0.99660000  0.83200000  0.39470000  1.0 -0.2688646274
O  O19  1  0.92250000  0.75340000  0.98060000  1.0 -0.0092661924
O  O20  1  0.24660000  0.16910000  0.98060000  1.0 -0.0092661924
O  O21  1  0.83090000  0.07750000  0.98060000  1.0 -0.0092661924
O  O22  1  0.07750000  0.24660000  0.48060000  1.0 -0.0092661924
O  O23  1  0.75340000  0.83090000  0.48060000  1.0 -0.0092661924
O  O24  1  0.16910000  0.92250000  0.48060000  1.0 -0.0092661924
O  O25  1  0.99300000  0.17470000  0.40280000  1.0 -0.2688646274
O  O26  1  0.82530000  0.81830000  0.40280000  1.0 -0.2688646274
O  O27  1  0.18170000  0.00700000  0.40280000  1.0 -0.2688646274
O  O28  1  0.00700000  0.82530000  0.90280000  1.0 -0.2688646274
O  O29  1  0.17470000  0.18170000  0.90280000  1.0 -0.2688646274
O  O30  1  0.81830000  0.99300000  0.90280000  1.0 -0.2688646274
O  O31  1  0.17200000  0.24310000  0.48410000  1.0 -0.0165639712
O  O32  1  0.75690000  0.92890000  0.48410000  1.0 -0.0165639712
O  O33  1  0.07110000  0.82800000  0.48410000  1.0 -0.0165639712
O  O34  1  0.82800000  0.75690000  0.98410000  1.0 -0.0165639712
O  O35  1  0.24310000  0.07110000  0.98410000  1.0 -0.0165639712
O  O36  1  0.92890000  0.17200000  0.98410000  1.0 -0.0165639712
O  O37  1  0.70820000  0.59130000  0.68910000  1.0 -0.2641505805
O  O38  1  0.40870000  0.11690000  0.68910000  1.0 -0.2641505805
O  O39  1  0.88310000  0.29180000  0.68910000  1.0 -0.2641505805
O  O40  1  0.29180000  0.40870000  0.18910000  1.0 -0.2641505805
O  O41  1  0.59130000  0.88310000  0.18910000  1.0 -0.2641505805
O  O42  1  0.11690000  0.70820000  0.18910000  1.0 -0.2641505805
