# DDEC6 charges by PACMAN v1.1 (https://github.com/mtap-research/PACMAN-charge/)
data_XADDEN_ion_pacman
_symmetry_space_group_name_H-M   'P 1'
_cell_length_a   18.65100000
_cell_length_b   18.65100000
_cell_length_c   18.65100000
_cell_angle_alpha   60.00000000
_cell_angle_beta   60.00000000
_cell_angle_gamma   60.00000000
_symmetry_Int_Tables_number   1
_chemical_formula_structural   LiCu2H4(C6O5)2
_chemical_formula_sum   'Li6 Cu12 H24 C72 O60'
_cell_volume   4587.66152515
_cell_formula_units_Z   6
loop_
 _symmetry_equiv_pos_site_id
 _symmetry_equiv_pos_as_xyz
  1  'x, y, z'
loop_
 _atom_site_type_symbol
 _atom_site_label
 _atom_site_symmetry_multiplicity
 _atom_site_fract_x
 _atom_site_fract_y
 _atom_site_fract_z
 _atom_site_occupancy
 _atom_site_charge
Li  Li1  1  0.37400000  0.62600000  0.37400000  1.0 0.5874953485
Li  Li2  1  0.62600000  0.37400000  0.62600000  1.0 0.5966187782
Li  Li3  1  0.62600000  0.37400000  0.37400000  1.0 0.5874953485
Li  Li4  1  0.37400000  0.62600000  0.62600000  1.0 0.5874953485
Li  Li5  1  0.37400000  0.37400000  0.62600000  1.0 0.5966187782
Li  Li6  1  0.62600000  0.62600000  0.37400000  1.0 0.5874953485
Cu  Cu1  1  0.93014000  0.50000000  0.50000000  1.0 0.9095667021
Cu  Cu2  1  0.50000000  0.93014000  0.06986000  1.0 0.9095667021
Cu  Cu3  1  0.50000000  0.06986000  0.93014000  1.0 0.9095667021
Cu  Cu4  1  0.06986000  0.50000000  0.50000000  1.0 0.9095667021
Cu  Cu5  1  0.50000000  0.93014000  0.50000000  1.0 0.9095667021
Cu  Cu6  1  0.06986000  0.50000000  0.93014000  1.0 0.9095667021
Cu  Cu7  1  0.93014000  0.50000000  0.06986000  1.0 0.9095667021
Cu  Cu8  1  0.50000000  0.06986000  0.50000000  1.0 0.9095667021
Cu  Cu9  1  0.50000000  0.50000000  0.93014000  1.0 0.9095667021
Cu  Cu10  1  0.93014000  0.06986000  0.50000000  1.0 0.9095667021
Cu  Cu11  1  0.06986000  0.93014000  0.50000000  1.0 0.9095667021
Cu  Cu12  1  0.50000000  0.50000000  0.06986000  1.0 0.9095667021
H  H1  1  0.98740000  0.77260000  0.46740000  1.0 0.1376134025
H  H2  1  0.77260000  0.98740000  0.77260000  1.0 0.1376134025
H  H3  1  0.46740000  0.77260000  0.98740000  1.0 0.1376134025
H  H4  1  0.77260000  0.46740000  0.77260000  1.0 0.1376134025
H  H5  1  0.46740000  0.98740000  0.77260000  1.0 0.1376134025
H  H6  1  0.77260000  0.77260000  0.98740000  1.0 0.1376134025
H  H7  1  0.98740000  0.46740000  0.77260000  1.0 0.1376134025
H  H8  1  0.77260000  0.77260000  0.46740000  1.0 0.1376134025
H  H9  1  0.77260000  0.46740000  0.98740000  1.0 0.1376134025
H  H10  1  0.98740000  0.77260000  0.77260000  1.0 0.1376134025
H  H11  1  0.77260000  0.98740000  0.46740000  1.0 0.1376134025
H  H12  1  0.46740000  0.77260000  0.77260000  1.0 0.1376134025
H  H13  1  0.01260000  0.22740000  0.22740000  1.0 0.1376134025
H  H14  1  0.22740000  0.01260000  0.53260000  1.0 0.1376134025
H  H15  1  0.53260000  0.22740000  0.22740000  1.0 0.1376134025
H  H16  1  0.22740000  0.53260000  0.01260000  1.0 0.1376134025
H  H17  1  0.53260000  0.01260000  0.22740000  1.0 0.1376134025
H  H18  1  0.22740000  0.22740000  0.53260000  1.0 0.1376134025
H  H19  1  0.01260000  0.53260000  0.22740000  1.0 0.1376134025
H  H20  1  0.22740000  0.22740000  0.01260000  1.0 0.1376134025
H  H21  1  0.22740000  0.53260000  0.22740000  1.0 0.1376134025
H  H22  1  0.01260000  0.22740000  0.53260000  1.0 0.1376134025
H  H23  1  0.22740000  0.01260000  0.22740000  1.0 0.1376134025
H  H24  1  0.53260000  0.22740000  0.01260000  1.0 0.1376134025
C  C1  1  0.93090000  0.66394000  0.47426000  1.0 0.5706645192
C  C2  1  0.66394000  0.93090000  0.93090000  1.0 0.5706645192
C  C3  1  0.47426000  0.93090000  0.93090000  1.0 0.5706645192
C  C4  1  0.93090000  0.47426000  0.66394000  1.0 0.5706645192
C  C5  1  0.47426000  0.93090000  0.66394000  1.0 0.5706645192
C  C6  1  0.93090000  0.66394000  0.93090000  1.0 0.5706645192
C  C7  1  0.93090000  0.47426000  0.93090000  1.0 0.5706645192
C  C8  1  0.66394000  0.93090000  0.47426000  1.0 0.5706645192
C  C9  1  0.66394000  0.47426000  0.93090000  1.0 0.5706645192
C  C10  1  0.93090000  0.93090000  0.66394000  1.0 0.5706645192
C  C11  1  0.93090000  0.93090000  0.47426000  1.0 0.5706645192
C  C12  1  0.47426000  0.66394000  0.93090000  1.0 0.5706645192
C  C13  1  0.06910000  0.33606000  0.06910000  1.0 0.5706645192
C  C14  1  0.33606000  0.06910000  0.52574000  1.0 0.5706645192
C  C15  1  0.52574000  0.06910000  0.33606000  1.0 0.5706645192
C  C16  1  0.06910000  0.52574000  0.06910000  1.0 0.5706645192
C  C17  1  0.52574000  0.06910000  0.06910000  1.0 0.5706645192
C  C18  1  0.06910000  0.33606000  0.52574000  1.0 0.5706645192
C  C19  1  0.06910000  0.52574000  0.33606000  1.0 0.5706645192
C  C20  1  0.33606000  0.06910000  0.06910000  1.0 0.5706645192
C  C21  1  0.33606000  0.52574000  0.06910000  1.0 0.5706645192
C  C22  1  0.06910000  0.06910000  0.52574000  1.0 0.5706645192
C  C23  1  0.06910000  0.06910000  0.33606000  1.0 0.5706645192
C  C24  1  0.52574000  0.33606000  0.06910000  1.0 0.5706645192
C  C25  1  0.88740000  0.75808000  0.46712000  1.0 -0.0412775673
C  C26  1  0.75808000  0.88740000  0.88740000  1.0 -0.0412775673
C  C27  1  0.46712000  0.88740000  0.88740000  1.0 -0.0412775673
C  C28  1  0.88740000  0.46712000  0.75808000  1.0 -0.0412775673
C  C29  1  0.46712000  0.88740000  0.75808000  1.0 -0.0412775673
C  C30  1  0.88740000  0.75808000  0.88740000  1.0 -0.0412775673
C  C31  1  0.88740000  0.46712000  0.88740000  1.0 -0.0412775673
C  C32  1  0.75808000  0.88740000  0.46712000  1.0 -0.0412775673
C  C33  1  0.75808000  0.46712000  0.88740000  1.0 -0.0412775673
C  C34  1  0.88740000  0.88740000  0.75808000  1.0 -0.0412775673
C  C35  1  0.88740000  0.88740000  0.46712000  1.0 -0.0412775673
C  C36  1  0.46712000  0.75808000  0.88740000  1.0 -0.0412775673
C  C37  1  0.11260000  0.24192000  0.11260000  1.0 -0.0412775673
C  C38  1  0.24192000  0.11260000  0.53288000  1.0 -0.0412775673
C  C39  1  0.53288000  0.11260000  0.24192000  1.0 -0.0412775673
C  C40  1  0.11260000  0.53288000  0.11260000  1.0 -0.0412775673
C  C41  1  0.53288000  0.11260000  0.11260000  1.0 -0.0412775673
C  C42  1  0.11260000  0.24192000  0.53288000  1.0 -0.0412775673
C  C43  1  0.11260000  0.53288000  0.24192000  1.0 -0.0412775673
C  C44  1  0.24192000  0.11260000  0.11260000  1.0 -0.0412775673
C  C45  1  0.24192000  0.53288000  0.11260000  1.0 -0.0412775673
C  C46  1  0.11260000  0.11260000  0.53288000  1.0 -0.0412775673
C  C47  1  0.11260000  0.11260000  0.24192000  1.0 -0.0412775673
C  C48  1  0.53288000  0.24192000  0.11260000  1.0 -0.0412775673
C  C49  1  0.92978000  0.80150000  0.46722000  1.0 -0.0765328955
C  C50  1  0.80150000  0.92978000  0.80150000  1.0 -0.0765328955
C  C51  1  0.46722000  0.80150000  0.92978000  1.0 -0.0765328955
C  C52  1  0.80150000  0.46722000  0.80150000  1.0 -0.0765328955
C  C53  1  0.46722000  0.92978000  0.80150000  1.0 -0.0765328955
C  C54  1  0.80150000  0.80150000  0.92978000  1.0 -0.0765328955
C  C55  1  0.92978000  0.46722000  0.80150000  1.0 -0.0765328955
C  C56  1  0.80150000  0.80150000  0.46722000  1.0 -0.0765328955
C  C57  1  0.80150000  0.46722000  0.92978000  1.0 -0.0765328955
C  C58  1  0.92978000  0.80150000  0.80150000  1.0 -0.0765328955
C  C59  1  0.80150000  0.92978000  0.46722000  1.0 -0.0765328955
C  C60  1  0.46722000  0.80150000  0.80150000  1.0 -0.0765328955
C  C61  1  0.07022000  0.19850000  0.19850000  1.0 -0.0765328955
C  C62  1  0.19850000  0.07022000  0.53278000  1.0 -0.0765328955
C  C63  1  0.53278000  0.19850000  0.19850000  1.0 -0.0765328955
C  C64  1  0.19850000  0.53278000  0.07022000  1.0 -0.0765328955
C  C65  1  0.53278000  0.07022000  0.19850000  1.0 -0.0765328955
C  C66  1  0.19850000  0.19850000  0.53278000  1.0 -0.0765328955
C  C67  1  0.07022000  0.53278000  0.19850000  1.0 -0.0765328955
C  C68  1  0.19850000  0.19850000  0.07022000  1.0 -0.0765328955
C  C69  1  0.19850000  0.53278000  0.19850000  1.0 -0.0765328955
C  C70  1  0.07022000  0.19850000  0.53278000  1.0 -0.0765328955
C  C71  1  0.19850000  0.07022000  0.19850000  1.0 -0.0765328955
C  C72  1  0.53278000  0.19850000  0.07022000  1.0 -0.0765328955
O  O1  1  0.88746000  0.62646000  0.47868000  1.0 -0.5210683168
O  O2  1  0.62646000  0.88746000  0.00740000  1.0 -0.5210683168
O  O3  1  0.47868000  0.00740000  0.88746000  1.0 -0.5210683168
O  O4  1  0.00740000  0.47868000  0.62646000  1.0 -0.5210683168
O  O5  1  0.47868000  0.88746000  0.62646000  1.0 -0.5210683168
O  O6  1  0.00740000  0.62646000  0.88746000  1.0 -0.5210683168
O  O7  1  0.88746000  0.47868000  0.00740000  1.0 -0.5210683168
O  O8  1  0.62646000  0.00740000  0.47868000  1.0 -0.5210683168
O  O9  1  0.62646000  0.47868000  0.88746000  1.0 -0.5210683168
O  O10  1  0.88746000  0.00740000  0.62646000  1.0 -0.5210683168
O  O11  1  0.00740000  0.88746000  0.47868000  1.0 -0.5210683168
O  O12  1  0.47868000  0.62646000  0.00740000  1.0 -0.5210683168
O  O13  1  0.11254000  0.37354000  0.99260000  1.0 -0.5210683168
O  O14  1  0.37354000  0.11254000  0.52132000  1.0 -0.5210683168
O  O15  1  0.52132000  0.99260000  0.37354000  1.0 -0.5210683168
O  O16  1  0.99260000  0.52132000  0.11254000  1.0 -0.5210683168
O  O17  1  0.52132000  0.11254000  0.99260000  1.0 -0.5210683168
O  O18  1  0.99260000  0.37354000  0.52132000  1.0 -0.5210683168
O  O19  1  0.11254000  0.52132000  0.37354000  1.0 -0.5210683168
O  O20  1  0.37354000  0.99260000  0.11254000  1.0 -0.5210683168
O  O21  1  0.37354000  0.52132000  0.99260000  1.0 -0.5210683168
O  O22  1  0.11254000  0.99260000  0.52132000  1.0 -0.5210683168
O  O23  1  0.99260000  0.11254000  0.37354000  1.0 -0.5210683168
O  O24  1  0.52132000  0.37354000  0.11254000  1.0 -0.5210683168
O  O25  1  0.11254000  0.37354000  0.52132000  1.0 -0.5210683168
O  O26  1  0.37354000  0.11254000  0.99260000  1.0 -0.5210683168
O  O27  1  0.52132000  0.99260000  0.11254000  1.0 -0.5210683168
O  O28  1  0.99260000  0.52132000  0.37354000  1.0 -0.5210683168
O  O29  1  0.52132000  0.11254000  0.37354000  1.0 -0.5210683168
O  O30  1  0.99260000  0.37354000  0.11254000  1.0 -0.5210683168
O  O31  1  0.11254000  0.52132000  0.99260000  1.0 -0.5210683168
O  O32  1  0.37354000  0.99260000  0.52132000  1.0 -0.5210683168
O  O33  1  0.37354000  0.52132000  0.11254000  1.0 -0.5210683168
O  O34  1  0.11254000  0.99260000  0.37354000  1.0 -0.5210683168
O  O35  1  0.99260000  0.11254000  0.52132000  1.0 -0.5210683168
O  O36  1  0.52132000  0.37354000  0.99260000  1.0 -0.5210683168
O  O37  1  0.88746000  0.62646000  0.00740000  1.0 -0.5210683168
O  O38  1  0.62646000  0.88746000  0.47868000  1.0 -0.5210683168
O  O39  1  0.47868000  0.00740000  0.62646000  1.0 -0.5210683168
O  O40  1  0.00740000  0.47868000  0.88746000  1.0 -0.5210683168
O  O41  1  0.47868000  0.88746000  0.00740000  1.0 -0.5210683168
O  O42  1  0.00740000  0.62646000  0.47868000  1.0 -0.5210683168
O  O43  1  0.88746000  0.47868000  0.62646000  1.0 -0.5210683168
O  O44  1  0.62646000  0.00740000  0.88746000  1.0 -0.5210683168
O  O45  1  0.62646000  0.47868000  0.00740000  1.0 -0.5210683168
O  O46  1  0.88746000  0.00740000  0.47868000  1.0 -0.5210683168
O  O47  1  0.00740000  0.88746000  0.62646000  1.0 -0.5210683168
O  O48  1  0.47868000  0.62646000  0.88746000  1.0 -0.5210683168
O  O49  1  0.81440000  0.50000000  0.50000000  1.0 -0.3086842332
O  O50  1  0.50000000  0.81440000  0.18560000  1.0 -0.2991007202
O  O51  1  0.50000000  0.18560000  0.81440000  1.0 -0.3086842332
O  O52  1  0.18560000  0.50000000  0.50000000  1.0 -0.3086842332
O  O53  1  0.50000000  0.81440000  0.50000000  1.0 -0.2991007202
O  O54  1  0.18560000  0.50000000  0.81440000  1.0 -0.2991007202
O  O55  1  0.81440000  0.50000000  0.18560000  1.0 -0.2991007202
O  O56  1  0.50000000  0.18560000  0.50000000  1.0 -0.2991007202
O  O57  1  0.50000000  0.50000000  0.81440000  1.0 -0.2991007202
O  O58  1  0.81440000  0.18560000  0.50000000  1.0 -0.2991007202
O  O59  1  0.18560000  0.81440000  0.50000000  1.0 -0.2991007202
O  O60  1  0.50000000  0.50000000  0.18560000  1.0 -0.2991007202
