# DDEC6 charges by PACMAN v1.1 (https://github.com/mtap-research/PACMAN-charge/)
data_XAFFUH_ASR_pacman
_symmetry_space_group_name_H-M   'P 1'
_cell_length_a   36.32950000
_cell_length_b   36.32950000
_cell_length_c   24.08700000
_cell_angle_alpha   90.00000000
_cell_angle_beta   90.00000000
_cell_angle_gamma   90.00000000
_symmetry_Int_Tables_number   1
_chemical_formula_structural   CuH12C20NO4
_chemical_formula_sum   'Cu16 H192 C320 N16 O64'
_cell_volume   31790.80711961
_cell_formula_units_Z   16
loop_
 _symmetry_equiv_pos_site_id
 _symmetry_equiv_pos_as_xyz
  1  'x, y, z'
loop_
 _atom_site_type_symbol
 _atom_site_label
 _atom_site_symmetry_multiplicity
 _atom_site_fract_x
 _atom_site_fract_y
 _atom_site_fract_z
 _atom_site_occupancy
 _atom_site_charge
Cu  Cu1  1  0.49347000  0.81287000  0.50000000  1.0 0.8574502695
Cu  Cu2  1  0.00653000  0.31287000  0.00000000  1.0 0.8574502695
Cu  Cu3  1  0.50653000  0.18713000  0.50000000  1.0 0.8574502695
Cu  Cu4  1  0.99347000  0.68713000  0.00000000  1.0 0.8574502695
Cu  Cu5  1  0.31287000  0.99347000  0.00000000  1.0 0.8574502695
Cu  Cu6  1  0.18713000  0.49347000  0.50000000  1.0 0.8574502695
Cu  Cu7  1  0.81287000  0.50653000  0.50000000  1.0 0.8574502695
Cu  Cu8  1  0.68713000  0.00653000  0.00000000  1.0 0.8574502695
Cu  Cu9  1  0.98882000  0.61507000  0.00000000  1.0 0.850477301
Cu  Cu10  1  0.51118000  0.11507000  0.50000000  1.0 0.850477301
Cu  Cu11  1  0.01118000  0.38493000  0.00000000  1.0 0.850477301
Cu  Cu12  1  0.48882000  0.88493000  0.50000000  1.0 0.850477301
Cu  Cu13  1  0.11507000  0.48882000  0.50000000  1.0 0.850477301
Cu  Cu14  1  0.38493000  0.98882000  0.00000000  1.0 0.850477301
Cu  Cu15  1  0.61507000  0.01118000  0.00000000  1.0 0.850477301
Cu  Cu16  1  0.88493000  0.51118000  0.50000000  1.0 0.850477301
H  H1  1  0.25350000  0.76910000  0.66980000  1.0 0.1124895896
H  H2  1  0.24650000  0.26910000  0.83020000  1.0 0.1124895896
H  H3  1  0.74650000  0.23090000  0.66980000  1.0 0.1124895896
H  H4  1  0.75350000  0.73090000  0.83020000  1.0 0.1124895896
H  H5  1  0.26910000  0.75350000  0.83020000  1.0 0.1124895896
H  H6  1  0.23090000  0.25350000  0.66980000  1.0 0.1124895896
H  H7  1  0.76910000  0.74650000  0.66980000  1.0 0.1124895896
H  H8  1  0.73090000  0.24650000  0.83020000  1.0 0.1124895896
H  H9  1  0.74650000  0.23090000  0.33020000  1.0 0.1124895896
H  H10  1  0.75350000  0.73090000  0.16980000  1.0 0.1124895896
H  H11  1  0.25350000  0.76910000  0.33020000  1.0 0.1124895896
H  H12  1  0.24650000  0.26910000  0.16980000  1.0 0.1124895896
H  H13  1  0.73090000  0.24650000  0.16980000  1.0 0.1124895896
H  H14  1  0.76910000  0.74650000  0.33020000  1.0 0.1124895896
H  H15  1  0.23090000  0.25350000  0.33020000  1.0 0.1124895896
H  H16  1  0.26910000  0.75350000  0.16980000  1.0 0.1124895896
H  H17  1  0.40710000  0.89700000  0.62870000  1.0 0.1285778971
H  H18  1  0.09290000  0.39700000  0.87130000  1.0 0.1285778971
H  H19  1  0.59290000  0.10300000  0.62870000  1.0 0.1285778971
H  H20  1  0.90710000  0.60300000  0.87130000  1.0 0.1285778971
H  H21  1  0.39700000  0.90710000  0.87130000  1.0 0.1285778971
H  H22  1  0.10300000  0.40710000  0.62870000  1.0 0.1285778971
H  H23  1  0.89700000  0.59290000  0.62870000  1.0 0.1285778971
H  H24  1  0.60300000  0.09290000  0.87130000  1.0 0.1285778971
H  H25  1  0.59290000  0.10300000  0.37130000  1.0 0.1285778971
H  H26  1  0.90710000  0.60300000  0.12870000  1.0 0.1285778971
H  H27  1  0.40710000  0.89700000  0.37130000  1.0 0.1285778971
H  H28  1  0.09290000  0.39700000  0.12870000  1.0 0.1285778971
H  H29  1  0.60300000  0.09290000  0.12870000  1.0 0.1285778971
H  H30  1  0.89700000  0.59290000  0.37130000  1.0 0.1285778971
H  H31  1  0.10300000  0.40710000  0.37130000  1.0 0.1285778971
H  H32  1  0.39700000  0.90710000  0.12870000  1.0 0.1285778971
H  H33  1  0.11370000  0.59000000  0.80200000  1.0 0.1285778971
H  H34  1  0.38630000  0.09000000  0.69800000  1.0 0.1285778971
H  H35  1  0.88630000  0.41000000  0.80200000  1.0 0.1285778971
H  H36  1  0.61370000  0.91000000  0.69800000  1.0 0.1285778971
H  H37  1  0.09000000  0.61370000  0.69800000  1.0 0.1285778971
H  H38  1  0.41000000  0.11370000  0.80200000  1.0 0.1285778971
H  H39  1  0.59000000  0.88630000  0.80200000  1.0 0.1285778971
H  H40  1  0.91000000  0.38630000  0.69800000  1.0 0.1285778971
H  H41  1  0.88630000  0.41000000  0.19800000  1.0 0.1285778971
H  H42  1  0.61370000  0.91000000  0.30200000  1.0 0.1285778971
H  H43  1  0.11370000  0.59000000  0.19800000  1.0 0.1285778971
H  H44  1  0.38630000  0.09000000  0.30200000  1.0 0.1285778971
H  H45  1  0.91000000  0.38630000  0.30200000  1.0 0.1285778971
H  H46  1  0.59000000  0.88630000  0.19800000  1.0 0.1285778971
H  H47  1  0.41000000  0.11370000  0.19800000  1.0 0.1285778971
H  H48  1  0.09000000  0.61370000  0.30200000  1.0 0.1285778971
H  H49  1  0.07080000  0.59070000  0.87210000  1.0 0.1285778971
H  H50  1  0.42920000  0.09070000  0.62790000  1.0 0.1285778971
H  H51  1  0.92920000  0.40930000  0.87210000  1.0 0.1285778971
H  H52  1  0.57080000  0.90930000  0.62790000  1.0 0.1285778971
H  H53  1  0.09070000  0.57080000  0.62790000  1.0 0.1285778971
H  H54  1  0.40930000  0.07080000  0.87210000  1.0 0.1285778971
H  H55  1  0.59070000  0.92920000  0.87210000  1.0 0.1285778971
H  H56  1  0.90930000  0.42920000  0.62790000  1.0 0.1285778971
H  H57  1  0.92920000  0.40930000  0.12790000  1.0 0.1285778971
H  H58  1  0.57080000  0.90930000  0.37210000  1.0 0.1285778971
H  H59  1  0.07080000  0.59070000  0.12790000  1.0 0.1285778971
H  H60  1  0.42920000  0.09070000  0.37210000  1.0 0.1285778971
H  H61  1  0.90930000  0.42920000  0.37210000  1.0 0.1285778971
H  H62  1  0.59070000  0.92920000  0.12790000  1.0 0.1285778971
H  H63  1  0.40930000  0.07080000  0.12790000  1.0 0.1285778971
H  H64  1  0.09070000  0.57080000  0.37210000  1.0 0.1285778971
H  H65  1  0.41300000  0.78740000  0.62710000  1.0 0.1285778971
H  H66  1  0.08700000  0.28740000  0.87290000  1.0 0.1285778971
H  H67  1  0.58700000  0.21260000  0.62710000  1.0 0.1285778971
H  H68  1  0.91300000  0.71260000  0.87290000  1.0 0.1285778971
H  H69  1  0.28740000  0.91300000  0.87290000  1.0 0.1285778971
H  H70  1  0.21260000  0.41300000  0.62710000  1.0 0.1285778971
H  H71  1  0.78740000  0.58700000  0.62710000  1.0 0.1285778971
H  H72  1  0.71260000  0.08700000  0.87290000  1.0 0.1285778971
H  H73  1  0.58700000  0.21260000  0.37290000  1.0 0.1285778971
H  H74  1  0.91300000  0.71260000  0.12710000  1.0 0.1285778971
H  H75  1  0.41300000  0.78740000  0.37290000  1.0 0.1285778971
H  H76  1  0.08700000  0.28740000  0.12710000  1.0 0.1285778971
H  H77  1  0.71260000  0.08700000  0.12710000  1.0 0.1285778971
H  H78  1  0.78740000  0.58700000  0.37290000  1.0 0.1285778971
H  H79  1  0.21260000  0.41300000  0.37290000  1.0 0.1285778971
H  H80  1  0.28740000  0.91300000  0.12710000  1.0 0.1285778971
H  H81  1  0.23180000  0.71230000  0.82970000  1.0 0.1124895896
H  H82  1  0.26820000  0.21230000  0.67030000  1.0 0.1124895896
H  H83  1  0.76820000  0.28770000  0.82970000  1.0 0.1124895896
H  H84  1  0.73180000  0.78770000  0.67030000  1.0 0.1124895896
H  H85  1  0.21230000  0.73180000  0.67030000  1.0 0.1124895896
H  H86  1  0.28770000  0.23180000  0.82970000  1.0 0.1124895896
H  H87  1  0.71230000  0.76820000  0.82970000  1.0 0.1124895896
H  H88  1  0.78770000  0.26820000  0.67030000  1.0 0.1124895896
H  H89  1  0.76820000  0.28770000  0.17030000  1.0 0.1124895896
H  H90  1  0.73180000  0.78770000  0.32970000  1.0 0.1124895896
H  H91  1  0.23180000  0.71230000  0.17030000  1.0 0.1124895896
H  H92  1  0.26820000  0.21230000  0.32970000  1.0 0.1124895896
H  H93  1  0.78770000  0.26820000  0.32970000  1.0 0.1124895896
H  H94  1  0.71230000  0.76820000  0.17030000  1.0 0.1124895896
H  H95  1  0.28770000  0.23180000  0.17030000  1.0 0.1124895896
H  H96  1  0.21230000  0.73180000  0.32970000  1.0 0.1124895896
H  H97  1  0.07220000  0.70050000  0.87140000  1.0 0.1285778971
H  H98  1  0.42780000  0.20050000  0.62860000  1.0 0.1285778971
H  H99  1  0.92780000  0.29950000  0.87140000  1.0 0.1285778971
H  H100  1  0.57220000  0.79950000  0.62860000  1.0 0.1285778971
H  H101  1  0.20050000  0.57220000  0.62860000  1.0 0.1285778971
H  H102  1  0.29950000  0.07220000  0.87140000  1.0 0.1285778971
H  H103  1  0.70050000  0.92780000  0.87140000  1.0 0.1285778971
H  H104  1  0.79950000  0.42780000  0.62860000  1.0 0.1285778971
H  H105  1  0.92780000  0.29950000  0.12860000  1.0 0.1285778971
H  H106  1  0.57220000  0.79950000  0.37140000  1.0 0.1285778971
H  H107  1  0.07220000  0.70050000  0.12860000  1.0 0.1285778971
H  H108  1  0.42780000  0.20050000  0.37140000  1.0 0.1285778971
H  H109  1  0.79950000  0.42780000  0.37140000  1.0 0.1285778971
H  H110  1  0.70050000  0.92780000  0.12860000  1.0 0.1285778971
H  H111  1  0.29950000  0.07220000  0.12860000  1.0 0.1285778971
H  H112  1  0.20050000  0.57220000  0.37140000  1.0 0.1285778971
H  H113  1  0.36410000  0.89380000  0.69900000  1.0 0.1285778971
H  H114  1  0.13590000  0.39380000  0.80100000  1.0 0.1285778971
H  H115  1  0.63590000  0.10620000  0.69900000  1.0 0.1285778971
H  H116  1  0.86410000  0.60620000  0.80100000  1.0 0.1285778971
H  H117  1  0.39380000  0.86410000  0.80100000  1.0 0.1285778971
H  H118  1  0.10620000  0.36410000  0.69900000  1.0 0.1285778971
H  H119  1  0.89380000  0.63590000  0.69900000  1.0 0.1285778971
H  H120  1  0.60620000  0.13590000  0.80100000  1.0 0.1285778971
H  H121  1  0.63590000  0.10620000  0.30100000  1.0 0.1285778971
H  H122  1  0.86410000  0.60620000  0.19900000  1.0 0.1285778971
H  H123  1  0.36410000  0.89380000  0.30100000  1.0 0.1285778971
H  H124  1  0.13590000  0.39380000  0.19900000  1.0 0.1285778971
H  H125  1  0.60620000  0.13590000  0.19900000  1.0 0.1285778971
H  H126  1  0.89380000  0.63590000  0.30100000  1.0 0.1285778971
H  H127  1  0.10620000  0.36410000  0.30100000  1.0 0.1285778971
H  H128  1  0.39380000  0.86410000  0.19900000  1.0 0.1285778971
H  H129  1  0.18850000  0.66500000  0.82700000  1.0 0.1285778971
H  H130  1  0.31150000  0.16500000  0.67300000  1.0 0.1285778971
H  H131  1  0.81150000  0.33500000  0.82700000  1.0 0.1285778971
H  H132  1  0.68850000  0.83500000  0.67300000  1.0 0.1285778971
H  H133  1  0.16500000  0.68850000  0.67300000  1.0 0.1285778971
H  H134  1  0.33500000  0.18850000  0.82700000  1.0 0.1285778971
H  H135  1  0.66500000  0.81150000  0.82700000  1.0 0.1285778971
H  H136  1  0.83500000  0.31150000  0.67300000  1.0 0.1285778971
H  H137  1  0.81150000  0.33500000  0.17300000  1.0 0.1285778971
H  H138  1  0.68850000  0.83500000  0.32700000  1.0 0.1285778971
H  H139  1  0.18850000  0.66500000  0.17300000  1.0 0.1285778971
H  H140  1  0.31150000  0.16500000  0.32700000  1.0 0.1285778971
H  H141  1  0.83500000  0.31150000  0.32700000  1.0 0.1285778971
H  H142  1  0.66500000  0.81150000  0.17300000  1.0 0.1285778971
H  H143  1  0.33500000  0.18850000  0.17300000  1.0 0.1285778971
H  H144  1  0.16500000  0.68850000  0.32700000  1.0 0.1285778971
H  H145  1  0.29690000  0.81310000  0.67030000  1.0 0.1382058341
H  H146  1  0.20310000  0.31310000  0.82970000  1.0 0.1382058341
H  H147  1  0.70310000  0.18690000  0.67030000  1.0 0.1382058341
H  H148  1  0.79690000  0.68690000  0.82970000  1.0 0.1382058341
H  H149  1  0.31310000  0.79690000  0.82970000  1.0 0.1382058341
H  H150  1  0.18690000  0.29690000  0.67030000  1.0 0.1382058341
H  H151  1  0.81310000  0.70310000  0.67030000  1.0 0.1382058341
H  H152  1  0.68690000  0.20310000  0.82970000  1.0 0.1382058341
H  H153  1  0.70310000  0.18690000  0.32970000  1.0 0.1382058341
H  H154  1  0.79690000  0.68690000  0.17030000  1.0 0.1382058341
H  H155  1  0.29690000  0.81310000  0.32970000  1.0 0.1382058341
H  H156  1  0.20310000  0.31310000  0.17030000  1.0 0.1382058341
H  H157  1  0.68690000  0.20310000  0.17030000  1.0 0.1382058341
H  H158  1  0.81310000  0.70310000  0.32970000  1.0 0.1382058341
H  H159  1  0.18690000  0.29690000  0.32970000  1.0 0.1382058341
H  H160  1  0.31310000  0.79690000  0.17030000  1.0 0.1382058341
H  H161  1  0.11540000  0.69950000  0.80100000  1.0 0.1285778971
H  H162  1  0.38460000  0.19950000  0.69900000  1.0 0.1285778971
H  H163  1  0.88460000  0.30050000  0.80100000  1.0 0.1285778971
H  H164  1  0.61540000  0.80050000  0.69900000  1.0 0.1285778971
H  H165  1  0.19950000  0.61540000  0.69900000  1.0 0.1285778971
H  H166  1  0.30050000  0.11540000  0.80100000  1.0 0.1285778971
H  H167  1  0.69950000  0.88460000  0.80100000  1.0 0.1285778971
H  H168  1  0.80050000  0.38460000  0.69900000  1.0 0.1285778971
H  H169  1  0.88460000  0.30050000  0.19900000  1.0 0.1285778971
H  H170  1  0.61540000  0.80050000  0.30100000  1.0 0.1285778971
H  H171  1  0.11540000  0.69950000  0.19900000  1.0 0.1285778971
H  H172  1  0.38460000  0.19950000  0.30100000  1.0 0.1285778971
H  H173  1  0.80050000  0.38460000  0.30100000  1.0 0.1285778971
H  H174  1  0.69950000  0.88460000  0.19900000  1.0 0.1285778971
H  H175  1  0.30050000  0.11540000  0.19900000  1.0 0.1285778971
H  H176  1  0.19950000  0.61540000  0.30100000  1.0 0.1285778971
H  H177  1  0.37130000  0.78480000  0.69830000  1.0 0.1285778971
H  H178  1  0.12870000  0.28480000  0.80170000  1.0 0.1285778971
H  H179  1  0.62870000  0.21520000  0.69830000  1.0 0.1285778971
H  H180  1  0.87130000  0.71520000  0.80170000  1.0 0.1285778971
H  H181  1  0.28480000  0.87130000  0.80170000  1.0 0.1285778971
H  H182  1  0.21520000  0.37130000  0.69830000  1.0 0.1285778971
H  H183  1  0.78480000  0.62870000  0.69830000  1.0 0.1285778971
H  H184  1  0.71520000  0.12870000  0.80170000  1.0 0.1285778971
H  H185  1  0.62870000  0.21520000  0.30170000  1.0 0.1285778971
H  H186  1  0.87130000  0.71520000  0.19830000  1.0 0.1285778971
H  H187  1  0.37130000  0.78480000  0.30170000  1.0 0.1285778971
H  H188  1  0.12870000  0.28480000  0.19830000  1.0 0.1285778971
H  H189  1  0.71520000  0.12870000  0.19830000  1.0 0.1285778971
H  H190  1  0.78480000  0.62870000  0.30170000  1.0 0.1285778971
H  H191  1  0.21520000  0.37130000  0.30170000  1.0 0.1285778971
H  H192  1  0.28480000  0.87130000  0.19830000  1.0 0.1285778971
C  C1  1  0.17273000  0.67273000  0.75000000  1.0 0.1382058341
C  C2  1  0.32727000  0.17273000  0.75000000  1.0 0.1382058341
C  C3  1  0.82727000  0.32727000  0.75000000  1.0 0.1382058341
C  C4  1  0.67273000  0.82727000  0.75000000  1.0 0.1382058341
C  C5  1  0.82727000  0.32727000  0.25000000  1.0 0.1382058341
C  C6  1  0.67273000  0.82727000  0.25000000  1.0 0.1382058341
C  C7  1  0.17273000  0.67273000  0.25000000  1.0 0.1382058341
C  C8  1  0.32727000  0.17273000  0.25000000  1.0 0.1382058341
C  C9  1  0.22697000  0.72697000  0.75000000  1.0 0.0461119696
C  C10  1  0.27303000  0.22697000  0.75000000  1.0 0.0461119696
C  C11  1  0.77303000  0.27303000  0.75000000  1.0 0.0461119696
C  C12  1  0.72697000  0.77303000  0.75000000  1.0 0.0461119696
C  C13  1  0.77303000  0.27303000  0.25000000  1.0 0.0461119696
C  C14  1  0.72697000  0.77303000  0.25000000  1.0 0.0461119696
C  C15  1  0.22697000  0.72697000  0.25000000  1.0 0.0461119696
C  C16  1  0.27303000  0.22697000  0.25000000  1.0 0.0461119696
C  C17  1  0.25543000  0.75543000  0.75000000  1.0 0.0322701199
C  C18  1  0.24457000  0.25543000  0.75000000  1.0 0.0322701199
C  C19  1  0.74457000  0.24457000  0.75000000  1.0 0.0322701199
C  C20  1  0.75543000  0.74457000  0.75000000  1.0 0.0322701199
C  C21  1  0.74457000  0.24457000  0.25000000  1.0 0.0322701199
C  C22  1  0.75543000  0.74457000  0.25000000  1.0 0.0322701199
C  C23  1  0.25543000  0.75543000  0.25000000  1.0 0.0322701199
C  C24  1  0.24457000  0.25543000  0.25000000  1.0 0.0322701199
C  C25  1  0.26534000  0.77458000  0.70301000  1.0 -0.1386349644
C  C26  1  0.23466000  0.27458000  0.79699000  1.0 -0.1386349644
C  C27  1  0.73466000  0.22542000  0.70301000  1.0 -0.1386349644
C  C28  1  0.76534000  0.72542000  0.79699000  1.0 -0.1386349644
C  C29  1  0.27458000  0.76534000  0.79699000  1.0 -0.1386349644
C  C30  1  0.22542000  0.26534000  0.70301000  1.0 -0.1386349644
C  C31  1  0.77458000  0.73466000  0.70301000  1.0 -0.1386349644
C  C32  1  0.72542000  0.23466000  0.79699000  1.0 -0.1386349644
C  C33  1  0.73466000  0.22542000  0.29699000  1.0 -0.1386349644
C  C34  1  0.76534000  0.72542000  0.20301000  1.0 -0.1386349644
C  C35  1  0.26534000  0.77458000  0.29699000  1.0 -0.1386349644
C  C36  1  0.23466000  0.27458000  0.20301000  1.0 -0.1386349644
C  C37  1  0.72542000  0.23466000  0.20301000  1.0 -0.1386349644
C  C38  1  0.77458000  0.73466000  0.29699000  1.0 -0.1386349644
C  C39  1  0.22542000  0.26534000  0.29699000  1.0 -0.1386349644
C  C40  1  0.27458000  0.76534000  0.20301000  1.0 -0.1386349644
C  C41  1  0.41462000  0.84245000  0.62012000  1.0 -0.0639536235
C  C42  1  0.08538000  0.34245000  0.87988000  1.0 -0.0639536235
C  C43  1  0.58538000  0.15755000  0.62012000  1.0 -0.0639536235
C  C44  1  0.91462000  0.65755000  0.87988000  1.0 -0.0639536235
C  C45  1  0.34245000  0.91462000  0.87988000  1.0 -0.0639536235
C  C46  1  0.15755000  0.41462000  0.62012000  1.0 -0.0639536235
C  C47  1  0.84245000  0.58538000  0.62012000  1.0 -0.0639536235
C  C48  1  0.65755000  0.08538000  0.87988000  1.0 -0.0639536235
C  C49  1  0.58538000  0.15755000  0.37988000  1.0 -0.0639536235
C  C50  1  0.91462000  0.65755000  0.12012000  1.0 -0.0639536235
C  C51  1  0.41462000  0.84245000  0.37988000  1.0 -0.0639536235
C  C52  1  0.08538000  0.34245000  0.12012000  1.0 -0.0639536235
C  C53  1  0.65755000  0.08538000  0.12012000  1.0 -0.0639536235
C  C54  1  0.84245000  0.58538000  0.37988000  1.0 -0.0639536235
C  C55  1  0.15755000  0.41462000  0.37988000  1.0 -0.0639536235
C  C56  1  0.34245000  0.91462000  0.12012000  1.0 -0.0639536235
C  C57  1  0.31002000  0.81002000  0.75000000  1.0 0.1454253461
C  C58  1  0.18998000  0.31002000  0.75000000  1.0 0.1382058341
C  C59  1  0.68998000  0.18998000  0.75000000  1.0 0.1454253461
C  C60  1  0.81002000  0.68998000  0.75000000  1.0 0.1454253461
C  C61  1  0.68998000  0.18998000  0.25000000  1.0 0.1382058341
C  C62  1  0.81002000  0.68998000  0.25000000  1.0 0.1454253461
C  C63  1  0.31002000  0.81002000  0.25000000  1.0 0.1382058341
C  C64  1  0.18998000  0.31002000  0.25000000  1.0 0.1382058341
C  C65  1  0.36310000  0.83958000  0.70551000  1.0 0.1645380765
C  C66  1  0.13690000  0.33958000  0.79449000  1.0 0.1645380765
C  C67  1  0.63690000  0.16042000  0.70551000  1.0 0.1645380765
C  C68  1  0.86310000  0.66042000  0.79449000  1.0 0.1645380765
C  C69  1  0.33958000  0.86310000  0.79449000  1.0 0.1645380765
C  C70  1  0.16042000  0.36310000  0.70551000  1.0 0.1645380765
C  C71  1  0.83958000  0.63690000  0.70551000  1.0 0.1645380765
C  C72  1  0.66042000  0.13690000  0.79449000  1.0 0.1645380765
C  C73  1  0.63690000  0.16042000  0.29449000  1.0 0.1645380765
C  C74  1  0.86310000  0.66042000  0.20551000  1.0 0.1645380765
C  C75  1  0.36310000  0.83958000  0.29449000  1.0 0.1645380765
C  C76  1  0.13690000  0.33958000  0.20551000  1.0 0.1645380765
C  C77  1  0.66042000  0.13690000  0.20551000  1.0 0.1645380765
C  C78  1  0.83958000  0.63690000  0.29449000  1.0 0.1645380765
C  C79  1  0.16042000  0.36310000  0.29449000  1.0 0.1645380765
C  C80  1  0.33958000  0.86310000  0.20551000  1.0 0.1645380765
C  C81  1  0.39979000  0.87419000  0.64223000  1.0 -0.0766276639
C  C82  1  0.10021000  0.37419000  0.85777000  1.0 -0.0766276639
C  C83  1  0.60021000  0.12581000  0.64223000  1.0 -0.0766276639
C  C84  1  0.89979000  0.62581000  0.85777000  1.0 -0.0766276639
C  C85  1  0.37419000  0.89979000  0.85777000  1.0 -0.0766276639
C  C86  1  0.12581000  0.39979000  0.64223000  1.0 -0.0766276639
C  C87  1  0.87419000  0.60021000  0.64223000  1.0 -0.0766276639
C  C88  1  0.62581000  0.10021000  0.85777000  1.0 -0.0766276639
C  C89  1  0.60021000  0.12581000  0.35777000  1.0 -0.0766276639
C  C90  1  0.89979000  0.62581000  0.14223000  1.0 -0.0766276639
C  C91  1  0.39979000  0.87419000  0.35777000  1.0 -0.0766276639
C  C92  1  0.10021000  0.37419000  0.14223000  1.0 -0.0766276639
C  C93  1  0.62581000  0.10021000  0.14223000  1.0 -0.0766276639
C  C94  1  0.87419000  0.60021000  0.35777000  1.0 -0.0766276639
C  C95  1  0.12581000  0.39979000  0.35777000  1.0 -0.0766276639
C  C96  1  0.37419000  0.89979000  0.14223000  1.0 -0.0766276639
C  C97  1  0.11854000  0.64444000  0.79401000  1.0 0.1673785005
C  C98  1  0.38146000  0.14444000  0.70599000  1.0 0.1673785005
C  C99  1  0.88146000  0.35556000  0.79401000  1.0 0.1673785005
C  C100  1  0.61854000  0.85556000  0.70599000  1.0 0.1673785005
C  C101  1  0.14444000  0.61854000  0.70599000  1.0 0.1673785005
C  C102  1  0.35556000  0.11854000  0.79401000  1.0 0.1673785005
C  C103  1  0.64444000  0.88146000  0.79401000  1.0 0.1673785005
C  C104  1  0.85556000  0.38146000  0.70599000  1.0 0.1673785005
C  C105  1  0.88146000  0.35556000  0.20599000  1.0 0.1673785005
C  C106  1  0.61854000  0.85556000  0.29401000  1.0 0.1673785005
C  C107  1  0.11854000  0.64444000  0.20599000  1.0 0.1673785005
C  C108  1  0.38146000  0.14444000  0.29401000  1.0 0.1673785005
C  C109  1  0.85556000  0.38146000  0.29401000  1.0 0.1673785005
C  C110  1  0.64444000  0.88146000  0.20599000  1.0 0.1673785005
C  C111  1  0.35556000  0.11854000  0.20599000  1.0 0.1673785005
C  C112  1  0.14444000  0.61854000  0.29401000  1.0 0.1673785005
C  C113  1  0.06687000  0.64597000  0.87924000  1.0 -0.0639536235
C  C114  1  0.43313000  0.14597000  0.62076000  1.0 -0.0639536235
C  C115  1  0.93313000  0.35403000  0.87924000  1.0 -0.0639536235
C  C116  1  0.56687000  0.85403000  0.62076000  1.0 -0.0639536235
C  C117  1  0.14597000  0.56687000  0.62076000  1.0 -0.0639536235
C  C118  1  0.35403000  0.06687000  0.87924000  1.0 -0.0639536235
C  C119  1  0.64597000  0.93313000  0.87924000  1.0 -0.0639536235
C  C120  1  0.85403000  0.43313000  0.62076000  1.0 -0.0639536235
C  C121  1  0.93313000  0.35403000  0.12076000  1.0 -0.0639536235
C  C122  1  0.56687000  0.85403000  0.37924000  1.0 -0.0639536235
C  C123  1  0.06687000  0.64597000  0.12076000  1.0 -0.0639536235
C  C124  1  0.43313000  0.14597000  0.37924000  1.0 -0.0639536235
C  C125  1  0.85403000  0.43313000  0.37924000  1.0 -0.0639536235
C  C126  1  0.64597000  0.93313000  0.12076000  1.0 -0.0639536235
C  C127  1  0.35403000  0.06687000  0.12076000  1.0 -0.0639536235
C  C128  1  0.14597000  0.56687000  0.37924000  1.0 -0.0639536235
C  C129  1  0.10533000  0.61236000  0.81576000  1.0 -0.1875134609
C  C130  1  0.39467000  0.11236000  0.68424000  1.0 -0.1875134609
C  C131  1  0.89467000  0.38764000  0.81576000  1.0 -0.1875134609
C  C132  1  0.60533000  0.88764000  0.68424000  1.0 -0.1875134609
C  C133  1  0.11236000  0.60533000  0.68424000  1.0 -0.1875134609
C  C134  1  0.38764000  0.10533000  0.81576000  1.0 -0.1875134609
C  C135  1  0.61236000  0.89467000  0.81576000  1.0 -0.1875134609
C  C136  1  0.88764000  0.39467000  0.68424000  1.0 -0.1875134609
C  C137  1  0.89467000  0.38764000  0.18424000  1.0 -0.1875134609
C  C138  1  0.60533000  0.88764000  0.31576000  1.0 -0.1875134609
C  C139  1  0.10533000  0.61236000  0.18424000  1.0 -0.1875134609
C  C140  1  0.39467000  0.11236000  0.31576000  1.0 -0.1875134609
C  C141  1  0.88764000  0.39467000  0.31576000  1.0 -0.1875134609
C  C142  1  0.61236000  0.89467000  0.18424000  1.0 -0.1875134609
C  C143  1  0.38764000  0.10533000  0.18424000  1.0 -0.1875134609
C  C144  1  0.11236000  0.60533000  0.31576000  1.0 -0.1875134609
C  C145  1  0.07965000  0.61276000  0.85788000  1.0 -0.0733013932
C  C146  1  0.42035000  0.11276000  0.64212000  1.0 -0.0733013932
C  C147  1  0.92035000  0.38724000  0.85788000  1.0 -0.0733013932
C  C148  1  0.57965000  0.88724000  0.64212000  1.0 -0.0733013932
C  C149  1  0.11276000  0.57965000  0.64212000  1.0 -0.0733013932
C  C150  1  0.38724000  0.07965000  0.85788000  1.0 -0.0733013932
C  C151  1  0.61276000  0.92035000  0.85788000  1.0 -0.0733013932
C  C152  1  0.88724000  0.42035000  0.64212000  1.0 -0.0733013932
C  C153  1  0.92035000  0.38724000  0.14212000  1.0 -0.0733013932
C  C154  1  0.57965000  0.88724000  0.35788000  1.0 -0.0733013932
C  C155  1  0.07965000  0.61276000  0.14212000  1.0 -0.0733013932
C  C156  1  0.42035000  0.11276000  0.35788000  1.0 -0.0733013932
C  C157  1  0.88724000  0.42035000  0.35788000  1.0 -0.0733013932
C  C158  1  0.61276000  0.92035000  0.14212000  1.0 -0.0733013932
C  C159  1  0.38724000  0.07965000  0.14212000  1.0 -0.0733013932
C  C160  1  0.11276000  0.57965000  0.35788000  1.0 -0.0733013932
C  C161  1  0.40337000  0.80910000  0.64158000  1.0 -0.0733013932
C  C162  1  0.09663000  0.30910000  0.85842000  1.0 -0.0733013932
C  C163  1  0.59663000  0.19090000  0.64158000  1.0 -0.0733013932
C  C164  1  0.90337000  0.69090000  0.85842000  1.0 -0.0733013932
C  C165  1  0.30910000  0.90337000  0.85842000  1.0 -0.0733013932
C  C166  1  0.19090000  0.40337000  0.64158000  1.0 -0.0733013932
C  C167  1  0.80910000  0.59663000  0.64158000  1.0 -0.0733013932
C  C168  1  0.69090000  0.09663000  0.85842000  1.0 -0.0733013932
C  C169  1  0.59663000  0.19090000  0.35842000  1.0 -0.0733013932
C  C170  1  0.90337000  0.69090000  0.14158000  1.0 -0.0733013932
C  C171  1  0.40337000  0.80910000  0.35842000  1.0 -0.0733013932
C  C172  1  0.09663000  0.30910000  0.14158000  1.0 -0.0733013932
C  C173  1  0.69090000  0.09663000  0.14158000  1.0 -0.0733013932
C  C174  1  0.80910000  0.59663000  0.35842000  1.0 -0.0733013932
C  C175  1  0.19090000  0.40337000  0.35842000  1.0 -0.0733013932
C  C176  1  0.30910000  0.90337000  0.14158000  1.0 -0.0733013932
C  C177  1  0.21933000  0.70728000  0.79682000  1.0 -0.1386349644
C  C178  1  0.28067000  0.20728000  0.70318000  1.0 -0.1386349644
C  C179  1  0.78067000  0.29272000  0.79682000  1.0 -0.1386349644
C  C180  1  0.71933000  0.79272000  0.70318000  1.0 -0.1386349644
C  C181  1  0.20728000  0.71933000  0.70318000  1.0 -0.1386349644
C  C182  1  0.29272000  0.21933000  0.79682000  1.0 -0.1386349644
C  C183  1  0.70728000  0.78067000  0.79682000  1.0 -0.1386349644
C  C184  1  0.79272000  0.28067000  0.70318000  1.0 -0.1386349644
C  C185  1  0.78067000  0.29272000  0.20318000  1.0 -0.1386349644
C  C186  1  0.71933000  0.79272000  0.29682000  1.0 -0.1386349644
C  C187  1  0.21933000  0.70728000  0.20318000  1.0 -0.1386349644
C  C188  1  0.28067000  0.20728000  0.29682000  1.0 -0.1386349644
C  C189  1  0.79272000  0.28067000  0.29682000  1.0 -0.1386349644
C  C190  1  0.70728000  0.78067000  0.20318000  1.0 -0.1386349644
C  C191  1  0.29272000  0.21933000  0.20318000  1.0 -0.1386349644
C  C192  1  0.20728000  0.71933000  0.29682000  1.0 -0.1386349644
C  C193  1  0.08040000  0.67809000  0.85760000  1.0 -0.0733013932
C  C194  1  0.41960000  0.17809000  0.64240000  1.0 -0.0733013932
C  C195  1  0.91960000  0.32191000  0.85760000  1.0 -0.0733013932
C  C196  1  0.58040000  0.82191000  0.64240000  1.0 -0.0733013932
C  C197  1  0.17809000  0.58040000  0.64240000  1.0 -0.0733013932
C  C198  1  0.32191000  0.08040000  0.85760000  1.0 -0.0733013932
C  C199  1  0.67809000  0.91960000  0.85760000  1.0 -0.0733013932
C  C200  1  0.82191000  0.41960000  0.64240000  1.0 -0.0733013932
C  C201  1  0.91960000  0.32191000  0.14240000  1.0 -0.0733013932
C  C202  1  0.58040000  0.82191000  0.35760000  1.0 -0.0733013932
C  C203  1  0.08040000  0.67809000  0.14240000  1.0 -0.0733013932
C  C204  1  0.41960000  0.17809000  0.35760000  1.0 -0.0733013932
C  C205  1  0.82191000  0.41960000  0.35760000  1.0 -0.0733013932
C  C206  1  0.67809000  0.91960000  0.14240000  1.0 -0.0733013932
C  C207  1  0.32191000  0.08040000  0.14240000  1.0 -0.0733013932
C  C208  1  0.17809000  0.58040000  0.35760000  1.0 -0.0733013932
C  C209  1  0.37405000  0.87218000  0.68465000  1.0 -0.1875134609
C  C210  1  0.12595000  0.37218000  0.81535000  1.0 -0.1828125205
C  C211  1  0.62595000  0.12782000  0.68465000  1.0 -0.1828125205
C  C212  1  0.87405000  0.62782000  0.81535000  1.0 -0.1828125205
C  C213  1  0.37218000  0.87405000  0.81535000  1.0 -0.1828125205
C  C214  1  0.12782000  0.37405000  0.68465000  1.0 -0.1828125205
C  C215  1  0.87218000  0.62595000  0.68465000  1.0 -0.1828125205
C  C216  1  0.62782000  0.12595000  0.81535000  1.0 -0.1828125205
C  C217  1  0.62595000  0.12782000  0.31535000  1.0 -0.1828125205
C  C218  1  0.87405000  0.62782000  0.18465000  1.0 -0.1828125205
C  C219  1  0.37405000  0.87218000  0.31535000  1.0 -0.1828125205
C  C220  1  0.12595000  0.37218000  0.18465000  1.0 -0.1828125205
C  C221  1  0.62782000  0.12595000  0.18465000  1.0 -0.1828125205
C  C222  1  0.87218000  0.62595000  0.31535000  1.0 -0.1828125205
C  C223  1  0.12782000  0.37405000  0.31535000  1.0 -0.1828125205
C  C224  1  0.37218000  0.87405000  0.18465000  1.0 -0.1828125205
C  C225  1  0.19249000  0.67922000  0.79548000  1.0 -0.1828125205
C  C226  1  0.30751000  0.17922000  0.70452000  1.0 -0.1828125205
C  C227  1  0.80751000  0.32078000  0.79548000  1.0 -0.1828125205
C  C228  1  0.69249000  0.82078000  0.70452000  1.0 -0.1828125205
C  C229  1  0.17922000  0.69249000  0.70452000  1.0 -0.1828125205
C  C230  1  0.32078000  0.19249000  0.79548000  1.0 -0.1828125205
C  C231  1  0.67922000  0.80751000  0.79548000  1.0 -0.1828125205
C  C232  1  0.82078000  0.30751000  0.70452000  1.0 -0.1828125205
C  C233  1  0.80751000  0.32078000  0.20452000  1.0 -0.1828125205
C  C234  1  0.69249000  0.82078000  0.29548000  1.0 -0.1828125205
C  C235  1  0.19249000  0.67922000  0.20452000  1.0 -0.1828125205
C  C236  1  0.30751000  0.17922000  0.29548000  1.0 -0.1828125205
C  C237  1  0.82078000  0.30751000  0.29548000  1.0 -0.1828125205
C  C238  1  0.67922000  0.80751000  0.20452000  1.0 -0.1828125205
C  C239  1  0.32078000  0.19249000  0.20452000  1.0 -0.1828125205
C  C240  1  0.17922000  0.69249000  0.29548000  1.0 -0.1828125205
C  C241  1  0.29143000  0.80086000  0.70317000  1.0 -0.1828125205
C  C242  1  0.20857000  0.30086000  0.79683000  1.0 -0.1828125205
C  C243  1  0.70857000  0.19914000  0.70317000  1.0 -0.1828125205
C  C244  1  0.79143000  0.69914000  0.79683000  1.0 -0.1828125205
C  C245  1  0.30086000  0.79143000  0.79683000  1.0 -0.1828125205
C  C246  1  0.19914000  0.29143000  0.70317000  1.0 -0.1828125205
C  C247  1  0.80086000  0.70857000  0.70317000  1.0 -0.1828125205
C  C248  1  0.69914000  0.20857000  0.79683000  1.0 -0.1828125205
C  C249  1  0.70857000  0.19914000  0.29683000  1.0 -0.1828125205
C  C250  1  0.79143000  0.69914000  0.20317000  1.0 -0.1828125205
C  C251  1  0.29143000  0.80086000  0.29683000  1.0 -0.1828125205
C  C252  1  0.20857000  0.30086000  0.20317000  1.0 -0.1828125205
C  C253  1  0.69914000  0.20857000  0.20317000  1.0 -0.1828125205
C  C254  1  0.80086000  0.70857000  0.29683000  1.0 -0.1828125205
C  C255  1  0.19914000  0.29143000  0.29683000  1.0 -0.1828125205
C  C256  1  0.30086000  0.79143000  0.20317000  1.0 -0.1828125205
C  C257  1  0.10631000  0.67746000  0.81519000  1.0 -0.1875134609
C  C258  1  0.39369000  0.17746000  0.68481000  1.0 -0.1875134609
C  C259  1  0.89369000  0.32254000  0.81519000  1.0 -0.1875134609
C  C260  1  0.60631000  0.82254000  0.68481000  1.0 -0.1875134609
C  C261  1  0.17746000  0.60631000  0.68481000  1.0 -0.1875134609
C  C262  1  0.32254000  0.10631000  0.81519000  1.0 -0.1875134609
C  C263  1  0.67746000  0.89369000  0.81519000  1.0 -0.1875134609
C  C264  1  0.82254000  0.39369000  0.68481000  1.0 -0.1875134609
C  C265  1  0.89369000  0.32254000  0.18481000  1.0 -0.1875134609
C  C266  1  0.60631000  0.82254000  0.31519000  1.0 -0.1875134609
C  C267  1  0.10631000  0.67746000  0.18481000  1.0 -0.1875134609
C  C268  1  0.39369000  0.17746000  0.31519000  1.0 -0.1875134609
C  C269  1  0.82254000  0.39369000  0.31519000  1.0 -0.1875134609
C  C270  1  0.67746000  0.89369000  0.18481000  1.0 -0.1875134609
C  C271  1  0.32254000  0.10631000  0.18481000  1.0 -0.1875134609
C  C272  1  0.17746000  0.60631000  0.31519000  1.0 -0.1875134609
C  C273  1  0.37827000  0.80755000  0.68390000  1.0 -0.1875134609
C  C274  1  0.12173000  0.30755000  0.81610000  1.0 -0.1875134609
C  C275  1  0.62173000  0.19245000  0.68390000  1.0 -0.1875134609
C  C276  1  0.87827000  0.69245000  0.81610000  1.0 -0.1875134609
C  C277  1  0.30755000  0.87827000  0.81610000  1.0 -0.1875134609
C  C278  1  0.19245000  0.37827000  0.68390000  1.0 -0.1875134609
C  C279  1  0.80755000  0.62173000  0.68390000  1.0 -0.1875134609
C  C280  1  0.69245000  0.12173000  0.81610000  1.0 -0.1875134609
C  C281  1  0.62173000  0.19245000  0.31610000  1.0 -0.1875134609
C  C282  1  0.87827000  0.69245000  0.18390000  1.0 -0.1875134609
C  C283  1  0.37827000  0.80755000  0.31610000  1.0 -0.1875134609
C  C284  1  0.12173000  0.30755000  0.18390000  1.0 -0.1875134609
C  C285  1  0.69245000  0.12173000  0.18390000  1.0 -0.1875134609
C  C286  1  0.80755000  0.62173000  0.31610000  1.0 -0.1875134609
C  C287  1  0.19245000  0.37827000  0.31610000  1.0 -0.1875134609
C  C288  1  0.30755000  0.87827000  0.18390000  1.0 -0.1875134609
C  C289  1  0.44255000  0.84462000  0.57517000  1.0 0.5732250055
C  C290  1  0.05745000  0.34462000  0.92483000  1.0 0.5751245621
C  C291  1  0.55745000  0.15538000  0.57517000  1.0 0.5751245621
C  C292  1  0.94255000  0.65538000  0.92483000  1.0 0.5751245621
C  C293  1  0.34462000  0.94255000  0.92483000  1.0 0.5751245621
C  C294  1  0.15538000  0.44255000  0.57517000  1.0 0.5751245621
C  C295  1  0.84462000  0.55745000  0.57517000  1.0 0.5732250055
C  C296  1  0.65538000  0.05745000  0.92483000  1.0 0.5751245621
C  C297  1  0.55745000  0.15538000  0.42483000  1.0 0.5751245621
C  C298  1  0.94255000  0.65538000  0.07517000  1.0 0.5732250055
C  C299  1  0.44255000  0.84462000  0.42483000  1.0 0.5732250055
C  C300  1  0.05745000  0.34462000  0.07517000  1.0 0.5751245621
C  C301  1  0.65538000  0.05745000  0.07517000  1.0 0.5732250055
C  C302  1  0.84462000  0.55745000  0.42483000  1.0 0.5732250055
C  C303  1  0.15538000  0.44255000  0.42483000  1.0 0.5751245621
C  C304  1  0.34462000  0.94255000  0.07517000  1.0 0.5751245621
C  C305  1  0.03950000  0.64638000  0.92448000  1.0 0.5732250055
C  C306  1  0.46050000  0.14638000  0.57552000  1.0 0.5732250055
C  C307  1  0.96050000  0.35362000  0.92448000  1.0 0.5732250055
C  C308  1  0.53950000  0.85362000  0.57552000  1.0 0.5732250055
C  C309  1  0.14638000  0.53950000  0.57552000  1.0 0.5732250055
C  C310  1  0.35362000  0.03950000  0.92448000  1.0 0.5732250055
C  C311  1  0.64638000  0.96050000  0.92448000  1.0 0.5732250055
C  C312  1  0.85362000  0.46050000  0.57552000  1.0 0.5732250055
C  C313  1  0.96050000  0.35362000  0.07552000  1.0 0.5732250055
C  C314  1  0.53950000  0.85362000  0.42448000  1.0 0.5732250055
C  C315  1  0.03950000  0.64638000  0.07552000  1.0 0.5732250055
C  C316  1  0.46050000  0.14638000  0.42448000  1.0 0.5732250055
C  C317  1  0.85362000  0.46050000  0.42448000  1.0 0.5732250055
C  C318  1  0.64638000  0.96050000  0.07552000  1.0 0.5732250055
C  C319  1  0.35362000  0.03950000  0.07552000  1.0 0.5732250055
C  C320  1  0.14638000  0.53950000  0.42448000  1.0 0.5732250055
N  N1  1  0.14484000  0.64484000  0.75000000  1.0 -0.1828125205
N  N2  1  0.35516000  0.14484000  0.75000000  1.0 -0.1828125205
N  N3  1  0.85516000  0.35516000  0.75000000  1.0 -0.1828125205
N  N4  1  0.64484000  0.85516000  0.75000000  1.0 -0.1828125205
N  N5  1  0.85516000  0.35516000  0.25000000  1.0 -0.1828125205
N  N6  1  0.64484000  0.85516000  0.25000000  1.0 -0.1828125205
N  N7  1  0.14484000  0.64484000  0.25000000  1.0 -0.1828125205
N  N8  1  0.35516000  0.14484000  0.25000000  1.0 -0.1828125205
N  N9  1  0.33751000  0.83751000  0.75000000  1.0 -0.1715941276
N  N10  1  0.16249000  0.33751000  0.75000000  1.0 -0.1715941276
N  N11  1  0.66249000  0.16249000  0.75000000  1.0 -0.1715941276
N  N12  1  0.83751000  0.66249000  0.75000000  1.0 -0.1715941276
N  N13  1  0.66249000  0.16249000  0.25000000  1.0 -0.1715941276
N  N14  1  0.83751000  0.66249000  0.25000000  1.0 -0.1715941276
N  N15  1  0.33751000  0.83751000  0.25000000  1.0 -0.1715941276
N  N16  1  0.16249000  0.33751000  0.25000000  1.0 -0.1715941276
O  O1  1  0.45530000  0.81463000  0.55759000  1.0 -0.5100766696
O  O2  1  0.04470000  0.31463000  0.94241000  1.0 -0.5100766696
O  O3  1  0.54470000  0.18537000  0.55759000  1.0 -0.5100766696
O  O4  1  0.95530000  0.68537000  0.94241000  1.0 -0.5100766696
O  O5  1  0.31463000  0.95530000  0.94241000  1.0 -0.5100766696
O  O6  1  0.18537000  0.45530000  0.55759000  1.0 -0.5100766696
O  O7  1  0.81463000  0.54470000  0.55759000  1.0 -0.5100766696
O  O8  1  0.68537000  0.04470000  0.94241000  1.0 -0.5100766696
O  O9  1  0.54470000  0.18537000  0.44241000  1.0 -0.5100766696
O  O10  1  0.95530000  0.68537000  0.05759000  1.0 -0.5100766696
O  O11  1  0.45530000  0.81463000  0.44241000  1.0 -0.5100766696
O  O12  1  0.04470000  0.31463000  0.05759000  1.0 -0.5100766696
O  O13  1  0.68537000  0.04470000  0.05759000  1.0 -0.5100766696
O  O14  1  0.81463000  0.54470000  0.44241000  1.0 -0.5100766696
O  O15  1  0.18537000  0.45530000  0.44241000  1.0 -0.5100766696
O  O16  1  0.31463000  0.95530000  0.05759000  1.0 -0.5100766696
O  O17  1  0.02682000  0.61686000  0.94211000  1.0 -0.4973140951
O  O18  1  0.47318000  0.11686000  0.55789000  1.0 -0.4973140951
O  O19  1  0.97318000  0.38314000  0.94211000  1.0 -0.4973140951
O  O20  1  0.52682000  0.88314000  0.55789000  1.0 -0.4973140951
O  O21  1  0.11686000  0.52682000  0.55789000  1.0 -0.4973140951
O  O22  1  0.38314000  0.02682000  0.94211000  1.0 -0.4973140951
O  O23  1  0.61686000  0.97318000  0.94211000  1.0 -0.4973140951
O  O24  1  0.88314000  0.47318000  0.55789000  1.0 -0.4973140951
O  O25  1  0.97318000  0.38314000  0.05789000  1.0 -0.4973140951
O  O26  1  0.52682000  0.88314000  0.44211000  1.0 -0.4973140951
O  O27  1  0.02682000  0.61686000  0.05789000  1.0 -0.4973140951
O  O28  1  0.47318000  0.11686000  0.44211000  1.0 -0.4973140951
O  O29  1  0.88314000  0.47318000  0.44211000  1.0 -0.4973140951
O  O30  1  0.61686000  0.97318000  0.05789000  1.0 -0.4973140951
O  O31  1  0.38314000  0.02682000  0.05789000  1.0 -0.4973140951
O  O32  1  0.11686000  0.52682000  0.44211000  1.0 -0.4973140951
O  O33  1  0.45184000  0.87560000  0.55798000  1.0 -0.5100766696
O  O34  1  0.04816000  0.37560000  0.94202000  1.0 -0.5100766696
O  O35  1  0.54816000  0.12440000  0.55798000  1.0 -0.5100766696
O  O36  1  0.95184000  0.62440000  0.94202000  1.0 -0.5100766696
O  O37  1  0.37560000  0.95184000  0.94202000  1.0 -0.5100766696
O  O38  1  0.12440000  0.45184000  0.55798000  1.0 -0.5100766696
O  O39  1  0.87560000  0.54816000  0.55798000  1.0 -0.5100766696
O  O40  1  0.62440000  0.04816000  0.94202000  1.0 -0.5100766696
O  O41  1  0.54816000  0.12440000  0.44202000  1.0 -0.5100766696
O  O42  1  0.95184000  0.62440000  0.05798000  1.0 -0.5100766696
O  O43  1  0.45184000  0.87560000  0.44202000  1.0 -0.5100766696
O  O44  1  0.04816000  0.37560000  0.05798000  1.0 -0.5100766696
O  O45  1  0.62440000  0.04816000  0.05798000  1.0 -0.5100766696
O  O46  1  0.87560000  0.54816000  0.44202000  1.0 -0.5100766696
O  O47  1  0.12440000  0.45184000  0.44202000  1.0 -0.5100766696
O  O48  1  0.37560000  0.95184000  0.05798000  1.0 -0.5100766696
O  O49  1  0.03044000  0.67803000  0.94231000  1.0 -0.5254539099
O  O50  1  0.46956000  0.17803000  0.55769000  1.0 -0.5254539099
O  O51  1  0.96956000  0.32197000  0.94231000  1.0 -0.5254539099
O  O52  1  0.53044000  0.82197000  0.55769000  1.0 -0.5254539099
O  O53  1  0.17803000  0.53044000  0.55769000  1.0 -0.5254539099
O  O54  1  0.32197000  0.03044000  0.94231000  1.0 -0.5254539099
O  O55  1  0.67803000  0.96956000  0.94231000  1.0 -0.5254539099
O  O56  1  0.82197000  0.46956000  0.55769000  1.0 -0.5254539099
O  O57  1  0.96956000  0.32197000  0.05769000  1.0 -0.5254539099
O  O58  1  0.53044000  0.82197000  0.44231000  1.0 -0.5254539099
O  O59  1  0.03044000  0.67803000  0.05769000  1.0 -0.5254539099
O  O60  1  0.46956000  0.17803000  0.44231000  1.0 -0.5254539099
O  O61  1  0.82197000  0.46956000  0.44231000  1.0 -0.5254539099
O  O62  1  0.67803000  0.96956000  0.05769000  1.0 -0.5254539099
O  O63  1  0.32197000  0.03044000  0.05769000  1.0 -0.5254539099
O  O64  1  0.17803000  0.53044000  0.44231000  1.0 -0.5254539099
