# DDEC6 charges by PACMAN v1.1 (https://github.com/mtap-research/PACMAN-charge/)
data_XAFTUX_ASR_pacman
_symmetry_space_group_name_H-M   'P 1'
_cell_length_a   43.05640000
_cell_length_b   43.05640000
_cell_length_c   43.05640000
_cell_angle_alpha   60.00000000
_cell_angle_beta   60.00000000
_cell_angle_gamma   60.00000000
_symmetry_Int_Tables_number   1
_chemical_formula_structural   Zr3H20C32(NO2)6
_chemical_formula_sum   'Zr36 H240 C384 N72 O144'
_cell_volume   56441.44805775
_cell_formula_units_Z   12
loop_
 _symmetry_equiv_pos_site_id
 _symmetry_equiv_pos_as_xyz
  1  'x, y, z'
loop_
 _atom_site_type_symbol
 _atom_site_label
 _atom_site_symmetry_multiplicity
 _atom_site_fract_x
 _atom_site_fract_y
 _atom_site_fract_z
 _atom_site_occupancy
 _atom_site_charge
Zr  Zr1  1  0.05696000  0.94304000  0.50000000  1.0 2.3371610522
Zr  Zr2  1  0.50000000  0.50000000  0.05696000  1.0 2.3371610522
Zr  Zr3  1  0.94304000  0.05696000  0.50000000  1.0 2.3371610522
Zr  Zr4  1  0.50000000  0.50000000  0.94304000  1.0 2.334520179
Zr  Zr5  1  0.94304000  0.50000000  0.05696000  1.0 2.3371610522
Zr  Zr6  1  0.50000000  0.05696000  0.50000000  1.0 2.3371610522
Zr  Zr7  1  0.05696000  0.50000000  0.94304000  1.0 2.334520179
Zr  Zr8  1  0.50000000  0.94304000  0.50000000  1.0 2.334520179
Zr  Zr9  1  0.50000000  0.05696000  0.94304000  1.0 2.334520179
Zr  Zr10  1  0.05696000  0.50000000  0.50000000  1.0 2.3371610522
Zr  Zr11  1  0.50000000  0.94304000  0.05696000  1.0 2.3371610522
Zr  Zr12  1  0.94304000  0.50000000  0.50000000  1.0 2.3371610522
Zr  Zr13  1  0.97109000  0.97109000  0.56993000  1.0 2.4470453015
Zr  Zr14  1  0.56993000  0.48789000  0.97109000  1.0 2.4406598949
Zr  Zr15  1  0.97109000  0.97109000  0.48789000  1.0 2.4406598949
Zr  Zr16  1  0.48789000  0.56993000  0.97109000  1.0 2.4406598949
Zr  Zr17  1  0.97109000  0.56993000  0.97109000  1.0 2.4406598949
Zr  Zr18  1  0.48789000  0.97109000  0.56993000  1.0 2.4470453015
Zr  Zr19  1  0.97109000  0.48789000  0.97109000  1.0 2.4406598949
Zr  Zr20  1  0.56993000  0.97109000  0.48789000  1.0 2.4470453015
Zr  Zr21  1  0.56993000  0.97109000  0.97109000  1.0 2.4406598949
Zr  Zr22  1  0.97109000  0.56993000  0.48789000  1.0 2.4406598949
Zr  Zr23  1  0.48789000  0.97109000  0.97109000  1.0 2.4406598949
Zr  Zr24  1  0.97109000  0.48789000  0.56993000  1.0 2.4406598949
Zr  Zr25  1  0.02891000  0.51211000  0.43007000  1.0 2.4406598949
Zr  Zr26  1  0.43007000  0.02891000  0.02891000  1.0 2.4470453015
Zr  Zr27  1  0.02891000  0.43007000  0.51211000  1.0 2.4406598949
Zr  Zr28  1  0.51211000  0.02891000  0.02891000  1.0 2.4470453015
Zr  Zr29  1  0.02891000  0.51211000  0.02891000  1.0 2.4406598949
Zr  Zr30  1  0.51211000  0.02891000  0.43007000  1.0 2.4406598949
Zr  Zr31  1  0.02891000  0.43007000  0.02891000  1.0 2.4470453015
Zr  Zr32  1  0.43007000  0.02891000  0.51211000  1.0 2.4406598949
Zr  Zr33  1  0.43007000  0.51211000  0.02891000  1.0 2.4406598949
Zr  Zr34  1  0.02891000  0.02891000  0.51211000  1.0 2.4406598949
Zr  Zr35  1  0.51211000  0.43007000  0.02891000  1.0 2.4470453015
Zr  Zr36  1  0.02891000  0.02891000  0.43007000  1.0 2.4406598949
H  H1  1  0.00470000  0.85910000  0.47690000  1.0 0.0950799986
H  H2  1  0.02140000  0.79860000  0.47700000  1.0 0.1252001106
H  H3  1  0.10860000  0.76420000  0.51360000  1.0 0.0924934771
H  H4  1  0.09420000  0.82980000  0.50240000  1.0 0.1218653831
H  H5  1  0.12830000  0.71070000  0.50230000  1.0 0.2396123898
H  H6  1  0.47690000  0.65930000  0.00470000  1.0 0.0924934771
H  H7  1  0.47700000  0.70300000  0.02140000  1.0 0.1218653831
H  H8  1  0.51360000  0.61360000  0.10860000  1.0 0.0924934771
H  H9  1  0.50240000  0.57360000  0.09420000  1.0 0.1218653831
H  H10  1  0.50230000  0.65870000  0.12830000  1.0 0.2396123898
H  H11  1  0.85910000  0.00470000  0.65930000  1.0 0.0924934771
H  H12  1  0.79860000  0.02140000  0.70300000  1.0 0.1252001106
H  H13  1  0.76420000  0.10860000  0.61360000  1.0 0.0924934771
H  H14  1  0.82980000  0.09420000  0.57360000  1.0 0.1218653831
H  H15  1  0.71070000  0.12830000  0.65870000  1.0 0.2396123898
H  H16  1  0.65930000  0.47690000  0.85910000  1.0 0.0924934771
H  H17  1  0.70300000  0.47700000  0.79860000  1.0 0.1252001106
H  H18  1  0.61360000  0.51360000  0.76420000  1.0 0.0924934771
H  H19  1  0.57360000  0.50240000  0.82980000  1.0 0.1218653831
H  H20  1  0.65870000  0.50230000  0.71070000  1.0 0.2396123898
H  H21  1  0.85910000  0.47690000  0.00470000  1.0 0.0924934771
H  H22  1  0.79860000  0.47700000  0.02140000  1.0 0.1218653831
H  H23  1  0.76420000  0.51360000  0.10860000  1.0 0.0924934771
H  H24  1  0.82980000  0.50240000  0.09420000  1.0 0.1218653831
H  H25  1  0.71070000  0.50230000  0.12830000  1.0 0.2396123898
H  H26  1  0.65930000  0.00470000  0.47690000  1.0 0.0924934771
H  H27  1  0.70300000  0.02140000  0.47700000  1.0 0.1252001106
H  H28  1  0.61360000  0.10860000  0.51360000  1.0 0.0924934771
H  H29  1  0.57360000  0.09420000  0.50240000  1.0 0.1218653831
H  H30  1  0.65870000  0.12830000  0.50230000  1.0 0.2396123898
H  H31  1  0.00470000  0.65930000  0.85910000  1.0 0.0950799986
H  H32  1  0.02140000  0.70300000  0.79860000  1.0 0.1252001106
H  H33  1  0.10860000  0.61360000  0.76420000  1.0 0.0924934771
H  H34  1  0.09420000  0.57360000  0.82980000  1.0 0.1218653831
H  H35  1  0.12830000  0.65870000  0.71070000  1.0 0.2396123898
H  H36  1  0.47690000  0.85910000  0.65930000  1.0 0.0924934771
H  H37  1  0.47700000  0.79860000  0.70300000  1.0 0.1252001106
H  H38  1  0.51360000  0.76420000  0.61360000  1.0 0.0924934771
H  H39  1  0.50240000  0.82980000  0.57360000  1.0 0.1218653831
H  H40  1  0.50230000  0.71070000  0.65870000  1.0 0.2396123898
H  H41  1  0.47690000  0.00470000  0.85910000  1.0 0.0924934771
H  H42  1  0.47700000  0.02140000  0.79860000  1.0 0.1252001106
H  H43  1  0.51360000  0.10860000  0.76420000  1.0 0.0924934771
H  H44  1  0.50240000  0.09420000  0.82980000  1.0 0.1218653831
H  H45  1  0.50230000  0.12830000  0.71070000  1.0 0.2396123898
H  H46  1  0.00470000  0.47690000  0.65930000  1.0 0.0924934771
H  H47  1  0.02140000  0.47700000  0.70300000  1.0 0.1252001106
H  H48  1  0.10860000  0.51360000  0.61360000  1.0 0.0924934771
H  H49  1  0.09420000  0.50240000  0.57360000  1.0 0.1218653831
H  H50  1  0.12830000  0.50230000  0.65870000  1.0 0.2396123898
H  H51  1  0.65930000  0.85910000  0.00470000  1.0 0.0924934771
H  H52  1  0.70300000  0.79860000  0.02140000  1.0 0.1252001106
H  H53  1  0.61360000  0.76420000  0.10860000  1.0 0.0924934771
H  H54  1  0.57360000  0.82980000  0.09420000  1.0 0.1218653831
H  H55  1  0.65870000  0.71070000  0.12830000  1.0 0.2396123898
H  H56  1  0.85910000  0.65930000  0.47690000  1.0 0.0924934771
H  H57  1  0.79860000  0.70300000  0.47700000  1.0 0.1218653831
H  H58  1  0.76420000  0.61360000  0.51360000  1.0 0.0924934771
H  H59  1  0.82980000  0.57360000  0.50240000  1.0 0.1218653831
H  H60  1  0.71070000  0.65870000  0.50230000  1.0 0.2396123898
H  H61  1  0.99530000  0.34070000  0.52310000  1.0 0.0924934771
H  H62  1  0.97860000  0.29700000  0.52300000  1.0 0.1252001106
H  H63  1  0.89140000  0.38640000  0.48640000  1.0 0.0924934771
H  H64  1  0.90580000  0.42640000  0.49760000  1.0 0.1218653831
H  H65  1  0.87170000  0.34130000  0.49770000  1.0 0.2396123898
H  H66  1  0.52310000  0.14090000  0.99530000  1.0 0.0924934771
H  H67  1  0.52300000  0.20140000  0.97860000  1.0 0.1252001106
H  H68  1  0.48640000  0.23580000  0.89140000  1.0 0.0924934771
H  H69  1  0.49760000  0.17020000  0.90580000  1.0 0.1218653831
H  H70  1  0.49770000  0.28930000  0.87170000  1.0 0.2396123898
H  H71  1  0.14090000  0.52310000  0.34070000  1.0 0.0924934771
H  H72  1  0.20140000  0.52300000  0.29700000  1.0 0.1252001106
H  H73  1  0.23580000  0.48640000  0.38640000  1.0 0.0924934771
H  H74  1  0.17020000  0.49760000  0.42640000  1.0 0.1218653831
H  H75  1  0.28930000  0.49770000  0.34130000  1.0 0.2396123898
H  H76  1  0.34070000  0.99530000  0.14090000  1.0 0.0924934771
H  H77  1  0.29700000  0.97860000  0.20140000  1.0 0.1252001106
H  H78  1  0.38640000  0.89140000  0.23580000  1.0 0.0924934771
H  H79  1  0.42640000  0.90580000  0.17020000  1.0 0.1218653831
H  H80  1  0.34130000  0.87170000  0.28930000  1.0 0.2396123898
H  H81  1  0.14090000  0.34070000  0.99530000  1.0 0.0924934771
H  H82  1  0.20140000  0.29700000  0.97860000  1.0 0.1252001106
H  H83  1  0.23580000  0.38640000  0.89140000  1.0 0.0924934771
H  H84  1  0.17020000  0.42640000  0.90580000  1.0 0.1218653831
H  H85  1  0.28930000  0.34130000  0.87170000  1.0 0.2396123898
H  H86  1  0.34070000  0.14090000  0.52310000  1.0 0.0924934771
H  H87  1  0.29700000  0.20140000  0.52300000  1.0 0.1252001106
H  H88  1  0.38640000  0.23580000  0.48640000  1.0 0.0924934771
H  H89  1  0.42640000  0.17020000  0.49760000  1.0 0.1218653831
H  H90  1  0.34130000  0.28930000  0.49770000  1.0 0.2396123898
H  H91  1  0.99530000  0.52310000  0.14090000  1.0 0.0924934771
H  H92  1  0.97860000  0.52300000  0.20140000  1.0 0.1252001106
H  H93  1  0.89140000  0.48640000  0.23580000  1.0 0.0924934771
H  H94  1  0.90580000  0.49760000  0.17020000  1.0 0.1218653831
H  H95  1  0.87170000  0.49770000  0.28930000  1.0 0.2396123898
H  H96  1  0.52310000  0.99530000  0.34070000  1.0 0.0924934771
H  H97  1  0.52300000  0.97860000  0.29700000  1.0 0.1252001106
H  H98  1  0.48640000  0.89140000  0.38640000  1.0 0.0924934771
H  H99  1  0.49760000  0.90580000  0.42640000  1.0 0.1218653831
H  H100  1  0.49770000  0.87170000  0.34130000  1.0 0.2396123898
H  H101  1  0.52310000  0.34070000  0.14090000  1.0 0.0924934771
H  H102  1  0.52300000  0.29700000  0.20140000  1.0 0.1218653831
H  H103  1  0.48640000  0.38640000  0.23580000  1.0 0.0924934771
H  H104  1  0.49760000  0.42640000  0.17020000  1.0 0.1218653831
H  H105  1  0.49770000  0.34130000  0.28930000  1.0 0.2396123898
H  H106  1  0.99530000  0.14090000  0.34070000  1.0 0.0924934771
H  H107  1  0.97860000  0.20140000  0.29700000  1.0 0.1252001106
H  H108  1  0.89140000  0.23580000  0.38640000  1.0 0.0924934771
H  H109  1  0.90580000  0.17020000  0.42640000  1.0 0.1218653831
H  H110  1  0.87170000  0.28930000  0.34130000  1.0 0.2396123898
H  H111  1  0.34070000  0.52310000  0.99530000  1.0 0.0924934771
H  H112  1  0.29700000  0.52300000  0.97860000  1.0 0.1252001106
H  H113  1  0.38640000  0.48640000  0.89140000  1.0 0.0924934771
H  H114  1  0.42640000  0.49760000  0.90580000  1.0 0.1218653831
H  H115  1  0.34130000  0.49770000  0.87170000  1.0 0.2396123898
H  H116  1  0.14090000  0.99530000  0.52310000  1.0 0.0924934771
H  H117  1  0.20140000  0.97860000  0.52300000  1.0 0.1252001106
H  H118  1  0.23580000  0.89140000  0.48640000  1.0 0.0924934771
H  H119  1  0.17020000  0.90580000  0.49760000  1.0 0.1218653831
H  H120  1  0.28930000  0.87170000  0.49770000  1.0 0.2396123898
H  H121  1  0.99530000  0.14090000  0.52310000  1.0 0.0924934771
H  H122  1  0.97860000  0.20140000  0.52300000  1.0 0.1252001106
H  H123  1  0.89140000  0.23580000  0.48640000  1.0 0.0924934771
H  H124  1  0.90580000  0.17020000  0.49760000  1.0 0.1218653831
H  H125  1  0.87170000  0.28930000  0.49770000  1.0 0.2396123898
H  H126  1  0.52310000  0.34070000  0.99530000  1.0 0.0924934771
H  H127  1  0.52300000  0.29700000  0.97860000  1.0 0.1252001106
H  H128  1  0.48640000  0.38640000  0.89140000  1.0 0.0924934771
H  H129  1  0.49760000  0.42640000  0.90580000  1.0 0.1218653831
H  H130  1  0.49770000  0.34130000  0.87170000  1.0 0.2396123898
H  H131  1  0.14090000  0.99530000  0.34070000  1.0 0.0924934771
H  H132  1  0.20140000  0.97860000  0.29700000  1.0 0.1252001106
H  H133  1  0.23580000  0.89140000  0.38640000  1.0 0.0924934771
H  H134  1  0.17020000  0.90580000  0.42640000  1.0 0.1218653831
H  H135  1  0.28930000  0.87170000  0.34130000  1.0 0.2396123898
H  H136  1  0.34070000  0.52310000  0.14090000  1.0 0.0924934771
H  H137  1  0.29700000  0.52300000  0.20140000  1.0 0.1252001106
H  H138  1  0.38640000  0.48640000  0.23580000  1.0 0.0924934771
H  H139  1  0.42640000  0.49760000  0.17020000  1.0 0.1218653831
H  H140  1  0.34130000  0.49770000  0.28930000  1.0 0.2396123898
H  H141  1  0.14090000  0.52310000  0.99530000  1.0 0.0924934771
H  H142  1  0.20140000  0.52300000  0.97860000  1.0 0.1252001106
H  H143  1  0.23580000  0.48640000  0.89140000  1.0 0.0924934771
H  H144  1  0.17020000  0.49760000  0.90580000  1.0 0.1218653831
H  H145  1  0.28930000  0.49770000  0.87170000  1.0 0.2396123898
H  H146  1  0.34070000  0.99530000  0.52310000  1.0 0.0924934771
H  H147  1  0.29700000  0.97860000  0.52300000  1.0 0.1252001106
H  H148  1  0.38640000  0.89140000  0.48640000  1.0 0.0924934771
H  H149  1  0.42640000  0.90580000  0.49760000  1.0 0.1218653831
H  H150  1  0.34130000  0.87170000  0.49770000  1.0 0.2396123898
H  H151  1  0.99530000  0.34070000  0.14090000  1.0 0.0924934771
H  H152  1  0.97860000  0.29700000  0.20140000  1.0 0.1218653831
H  H153  1  0.89140000  0.38640000  0.23580000  1.0 0.0924934771
H  H154  1  0.90580000  0.42640000  0.17020000  1.0 0.1218653831
H  H155  1  0.87170000  0.34130000  0.28930000  1.0 0.2396123898
H  H156  1  0.52310000  0.14090000  0.34070000  1.0 0.0950799986
H  H157  1  0.52300000  0.20140000  0.29700000  1.0 0.1252001106
H  H158  1  0.48640000  0.23580000  0.38640000  1.0 0.0924934771
H  H159  1  0.49760000  0.17020000  0.42640000  1.0 0.1218653831
H  H160  1  0.49770000  0.28930000  0.34130000  1.0 0.2396123898
H  H161  1  0.52310000  0.99530000  0.14090000  1.0 0.0924934771
H  H162  1  0.52300000  0.97860000  0.20140000  1.0 0.1218653831
H  H163  1  0.48640000  0.89140000  0.23580000  1.0 0.0924934771
H  H164  1  0.49760000  0.90580000  0.17020000  1.0 0.1218653831
H  H165  1  0.49770000  0.87170000  0.28930000  1.0 0.2396123898
H  H166  1  0.99530000  0.52310000  0.34070000  1.0 0.0924934771
H  H167  1  0.97860000  0.52300000  0.29700000  1.0 0.1252001106
H  H168  1  0.89140000  0.48640000  0.38640000  1.0 0.0924934771
H  H169  1  0.90580000  0.49760000  0.42640000  1.0 0.1218653831
H  H170  1  0.87170000  0.49770000  0.34130000  1.0 0.2396123898
H  H171  1  0.34070000  0.14090000  0.99530000  1.0 0.0924934771
H  H172  1  0.29700000  0.20140000  0.97860000  1.0 0.1252001106
H  H173  1  0.38640000  0.23580000  0.89140000  1.0 0.0924934771
H  H174  1  0.42640000  0.17020000  0.90580000  1.0 0.1218653831
H  H175  1  0.34130000  0.28930000  0.87170000  1.0 0.2396123898
H  H176  1  0.14090000  0.34070000  0.52310000  1.0 0.0924934771
H  H177  1  0.20140000  0.29700000  0.52300000  1.0 0.1252001106
H  H178  1  0.23580000  0.38640000  0.48640000  1.0 0.0924934771
H  H179  1  0.17020000  0.42640000  0.49760000  1.0 0.1218653831
H  H180  1  0.28930000  0.34130000  0.49770000  1.0 0.2396123898
H  H181  1  0.00470000  0.65930000  0.47690000  1.0 0.0924934771
H  H182  1  0.02140000  0.70300000  0.47700000  1.0 0.1218653831
H  H183  1  0.10860000  0.61360000  0.51360000  1.0 0.0924934771
H  H184  1  0.09420000  0.57360000  0.50240000  1.0 0.1218653831
H  H185  1  0.12830000  0.65870000  0.50230000  1.0 0.2396123898
H  H186  1  0.47690000  0.85910000  0.00470000  1.0 0.0924934771
H  H187  1  0.47700000  0.79860000  0.02140000  1.0 0.1252001106
H  H188  1  0.51360000  0.76420000  0.10860000  1.0 0.0924934771
H  H189  1  0.50240000  0.82980000  0.09420000  1.0 0.1218653831
H  H190  1  0.50230000  0.71070000  0.12830000  1.0 0.2396123898
H  H191  1  0.85910000  0.47690000  0.65930000  1.0 0.0924934771
H  H192  1  0.79860000  0.47700000  0.70300000  1.0 0.1252001106
H  H193  1  0.76420000  0.51360000  0.61360000  1.0 0.0924934771
H  H194  1  0.82980000  0.50240000  0.57360000  1.0 0.1218653831
H  H195  1  0.71070000  0.50230000  0.65870000  1.0 0.2396123898
H  H196  1  0.65930000  0.00470000  0.85910000  1.0 0.0924934771
H  H197  1  0.70300000  0.02140000  0.79860000  1.0 0.1218653831
H  H198  1  0.61360000  0.10860000  0.76420000  1.0 0.0924934771
H  H199  1  0.57360000  0.09420000  0.82980000  1.0 0.1218653831
H  H200  1  0.65870000  0.12830000  0.71070000  1.0 0.2396123898
H  H201  1  0.85910000  0.65930000  0.00470000  1.0 0.0924934771
H  H202  1  0.79860000  0.70300000  0.02140000  1.0 0.1218653831
H  H203  1  0.76420000  0.61360000  0.10860000  1.0 0.0924934771
H  H204  1  0.82980000  0.57360000  0.09420000  1.0 0.1218653831
H  H205  1  0.71070000  0.65870000  0.12830000  1.0 0.2396123898
H  H206  1  0.65930000  0.85910000  0.47690000  1.0 0.0924934771
H  H207  1  0.70300000  0.79860000  0.47700000  1.0 0.1252001106
H  H208  1  0.61360000  0.76420000  0.51360000  1.0 0.0924934771
H  H209  1  0.57360000  0.82980000  0.50240000  1.0 0.1218653831
H  H210  1  0.65870000  0.71070000  0.50230000  1.0 0.2396123898
H  H211  1  0.00470000  0.47690000  0.85910000  1.0 0.0924934771
H  H212  1  0.02140000  0.47700000  0.79860000  1.0 0.1252001106
H  H213  1  0.10860000  0.51360000  0.76420000  1.0 0.0924934771
H  H214  1  0.09420000  0.50240000  0.82980000  1.0 0.1218653831
H  H215  1  0.12830000  0.50230000  0.71070000  1.0 0.2396123898
H  H216  1  0.47690000  0.00470000  0.65930000  1.0 0.0924934771
H  H217  1  0.47700000  0.02140000  0.70300000  1.0 0.1252001106
H  H218  1  0.51360000  0.10860000  0.61360000  1.0 0.0924934771
H  H219  1  0.50240000  0.09420000  0.57360000  1.0 0.1218653831
H  H220  1  0.50230000  0.12830000  0.65870000  1.0 0.2396123898
H  H221  1  0.47690000  0.65930000  0.85910000  1.0 0.0924934771
H  H222  1  0.47700000  0.70300000  0.79860000  1.0 0.1252001106
H  H223  1  0.51360000  0.61360000  0.76420000  1.0 0.0924934771
H  H224  1  0.50240000  0.57360000  0.82980000  1.0 0.1218653831
H  H225  1  0.50230000  0.65870000  0.71070000  1.0 0.2396123898
H  H226  1  0.00470000  0.85910000  0.65930000  1.0 0.0924934771
H  H227  1  0.02140000  0.79860000  0.70300000  1.0 0.1252001106
H  H228  1  0.10860000  0.76420000  0.61360000  1.0 0.0924934771
H  H229  1  0.09420000  0.82980000  0.57360000  1.0 0.1218653831
H  H230  1  0.12830000  0.71070000  0.65870000  1.0 0.2396123898
H  H231  1  0.65930000  0.47690000  0.00470000  1.0 0.0924934771
H  H232  1  0.70300000  0.47700000  0.02140000  1.0 0.1218653831
H  H233  1  0.61360000  0.51360000  0.10860000  1.0 0.0924934771
H  H234  1  0.57360000  0.50240000  0.09420000  1.0 0.1218653831
H  H235  1  0.65870000  0.50230000  0.12830000  1.0 0.2396123898
H  H236  1  0.85910000  0.00470000  0.47690000  1.0 0.0924934771
H  H237  1  0.79860000  0.02140000  0.47700000  1.0 0.1252001106
H  H238  1  0.76420000  0.10860000  0.51360000  1.0 0.0924934771
H  H239  1  0.82980000  0.09420000  0.50240000  1.0 0.1218653831
H  H240  1  0.71070000  0.12830000  0.50230000  1.0 0.2396123898
C  C1  1  0.03747000  0.88857000  0.48761000  1.0 0.6197793401
C  C2  1  0.04794000  0.85046000  0.48914000  1.0 -0.1029791328
C  C3  1  0.02681000  0.84019000  0.48259000  1.0 -0.0685739148
C  C4  1  0.03560000  0.80380000  0.48380000  1.0 -0.1499589209
C  C5  1  0.06570000  0.77630000  0.49530000  1.0 0.0337033555
C  C6  1  0.08850000  0.78370000  0.50450000  1.0 -0.1984043546
C  C7  1  0.07860000  0.82320000  0.49900000  1.0 -0.0892492439
C  C8  1  0.07270000  0.73550000  0.50550000  1.0 0.2199665893
C  C9  1  0.48761000  0.58635000  0.03747000  1.0 0.6197793401
C  C10  1  0.48914000  0.61246000  0.04794000  1.0 -0.1029791328
C  C11  1  0.48259000  0.65041000  0.02681000  1.0 -0.0685739148
C  C12  1  0.48380000  0.67680000  0.03560000  1.0 -0.1499589209
C  C13  1  0.49530000  0.66270000  0.06570000  1.0 0.0337033555
C  C14  1  0.50450000  0.62330000  0.08850000  1.0 -0.1984043546
C  C15  1  0.49900000  0.59920000  0.07860000  1.0 -0.0892492439
C  C16  1  0.50550000  0.68630000  0.07270000  1.0 0.2199665893
C  C17  1  0.88857000  0.03747000  0.58635000  1.0 0.6197793401
C  C18  1  0.85046000  0.04794000  0.61246000  1.0 -0.1029791328
C  C19  1  0.84019000  0.02681000  0.65041000  1.0 -0.0685739148
C  C20  1  0.80380000  0.03560000  0.67680000  1.0 -0.1499589209
C  C21  1  0.77630000  0.06570000  0.66270000  1.0 0.0337033555
C  C22  1  0.78370000  0.08850000  0.62330000  1.0 -0.1984043546
C  C23  1  0.82320000  0.07860000  0.59920000  1.0 -0.0892492439
C  C24  1  0.73550000  0.07270000  0.68630000  1.0 0.2199665893
C  C25  1  0.58635000  0.48761000  0.88857000  1.0 0.6197793401
C  C26  1  0.61246000  0.48914000  0.85046000  1.0 -0.1029791328
C  C27  1  0.65041000  0.48259000  0.84019000  1.0 -0.0685739148
C  C28  1  0.67680000  0.48380000  0.80380000  1.0 -0.1499589209
C  C29  1  0.66270000  0.49530000  0.77630000  1.0 0.0337033555
C  C30  1  0.62330000  0.50450000  0.78370000  1.0 -0.1984043546
C  C31  1  0.59920000  0.49900000  0.82320000  1.0 -0.0892492439
C  C32  1  0.68630000  0.50550000  0.73550000  1.0 0.2199665893
C  C33  1  0.88857000  0.48761000  0.03747000  1.0 0.6197793401
C  C34  1  0.85046000  0.48914000  0.04794000  1.0 -0.1029791328
C  C35  1  0.84019000  0.48259000  0.02681000  1.0 -0.0685739148
C  C36  1  0.80380000  0.48380000  0.03560000  1.0 -0.1499589209
C  C37  1  0.77630000  0.49530000  0.06570000  1.0 0.0337033555
C  C38  1  0.78370000  0.50450000  0.08850000  1.0 -0.1984043546
C  C39  1  0.82320000  0.49900000  0.07860000  1.0 -0.0892492439
C  C40  1  0.73550000  0.50550000  0.07270000  1.0 0.2199665893
C  C41  1  0.58635000  0.03747000  0.48761000  1.0 0.6197793401
C  C42  1  0.61246000  0.04794000  0.48914000  1.0 -0.1029791328
C  C43  1  0.65041000  0.02681000  0.48259000  1.0 -0.0685739148
C  C44  1  0.67680000  0.03560000  0.48380000  1.0 -0.1499589209
C  C45  1  0.66270000  0.06570000  0.49530000  1.0 0.0337033555
C  C46  1  0.62330000  0.08850000  0.50450000  1.0 -0.1984043546
C  C47  1  0.59920000  0.07860000  0.49900000  1.0 -0.0892492439
C  C48  1  0.68630000  0.07270000  0.50550000  1.0 0.2199665893
C  C49  1  0.03747000  0.58635000  0.88857000  1.0 0.6197793401
C  C50  1  0.04794000  0.61246000  0.85046000  1.0 -0.1029791328
C  C51  1  0.02681000  0.65041000  0.84019000  1.0 -0.0685739148
C  C52  1  0.03560000  0.67680000  0.80380000  1.0 -0.1499589209
C  C53  1  0.06570000  0.66270000  0.77630000  1.0 0.0337033555
C  C54  1  0.08850000  0.62330000  0.78370000  1.0 -0.1984043546
C  C55  1  0.07860000  0.59920000  0.82320000  1.0 -0.0892492439
C  C56  1  0.07270000  0.68630000  0.73550000  1.0 0.2199665893
C  C57  1  0.48761000  0.88857000  0.58635000  1.0 0.6197793401
C  C58  1  0.48914000  0.85046000  0.61246000  1.0 -0.1029791328
C  C59  1  0.48259000  0.84019000  0.65041000  1.0 -0.0685739148
C  C60  1  0.48380000  0.80380000  0.67680000  1.0 -0.1499589209
C  C61  1  0.49530000  0.77630000  0.66270000  1.0 0.0337033555
C  C62  1  0.50450000  0.78370000  0.62330000  1.0 -0.1984043546
C  C63  1  0.49900000  0.82320000  0.59920000  1.0 -0.0892492439
C  C64  1  0.50550000  0.73550000  0.68630000  1.0 0.2199665893
C  C65  1  0.48761000  0.03747000  0.88857000  1.0 0.6197793401
C  C66  1  0.48914000  0.04794000  0.85046000  1.0 -0.1029791328
C  C67  1  0.48259000  0.02681000  0.84019000  1.0 -0.0685739148
C  C68  1  0.48380000  0.03560000  0.80380000  1.0 -0.1499589209
C  C69  1  0.49530000  0.06570000  0.77630000  1.0 0.0337033555
C  C70  1  0.50450000  0.08850000  0.78370000  1.0 -0.1984043546
C  C71  1  0.49900000  0.07860000  0.82320000  1.0 -0.0892492439
C  C72  1  0.50550000  0.07270000  0.73550000  1.0 0.2199665893
C  C73  1  0.03747000  0.48761000  0.58635000  1.0 0.6197793401
C  C74  1  0.04794000  0.48914000  0.61246000  1.0 -0.1029791328
C  C75  1  0.02681000  0.48259000  0.65041000  1.0 -0.0685739148
C  C76  1  0.03560000  0.48380000  0.67680000  1.0 -0.1499589209
C  C77  1  0.06570000  0.49530000  0.66270000  1.0 0.0337033555
C  C78  1  0.08850000  0.50450000  0.62330000  1.0 -0.1984043546
C  C79  1  0.07860000  0.49900000  0.59920000  1.0 -0.0892492439
C  C80  1  0.07270000  0.50550000  0.68630000  1.0 0.2199665893
C  C81  1  0.58635000  0.88857000  0.03747000  1.0 0.6197793401
C  C82  1  0.61246000  0.85046000  0.04794000  1.0 -0.1029791328
C  C83  1  0.65041000  0.84019000  0.02681000  1.0 -0.0685739148
C  C84  1  0.67680000  0.80380000  0.03560000  1.0 -0.1499589209
C  C85  1  0.66270000  0.77630000  0.06570000  1.0 0.0337033555
C  C86  1  0.62330000  0.78370000  0.08850000  1.0 -0.1984043546
C  C87  1  0.59920000  0.82320000  0.07860000  1.0 -0.0892492439
C  C88  1  0.68630000  0.73550000  0.07270000  1.0 0.2199665893
C  C89  1  0.88857000  0.58635000  0.48761000  1.0 0.6197793401
C  C90  1  0.85046000  0.61246000  0.48914000  1.0 -0.1029791328
C  C91  1  0.84019000  0.65041000  0.48259000  1.0 -0.0685739148
C  C92  1  0.80380000  0.67680000  0.48380000  1.0 -0.1499589209
C  C93  1  0.77630000  0.66270000  0.49530000  1.0 0.0337033555
C  C94  1  0.78370000  0.62330000  0.50450000  1.0 -0.1984043546
C  C95  1  0.82320000  0.59920000  0.49900000  1.0 -0.0892492439
C  C96  1  0.73550000  0.68630000  0.50550000  1.0 0.2199665893
C  C97  1  0.96253000  0.41365000  0.51239000  1.0 0.6197793401
C  C98  1  0.95206000  0.38754000  0.51086000  1.0 -0.1029791328
C  C99  1  0.97319000  0.34959000  0.51741000  1.0 -0.0685739148
C  C100  1  0.96440000  0.32320000  0.51620000  1.0 -0.1499589209
C  C101  1  0.93430000  0.33730000  0.50470000  1.0 0.0350553274
C  C102  1  0.91150000  0.37670000  0.49550000  1.0 -0.1984043546
C  C103  1  0.92140000  0.40080000  0.50100000  1.0 -0.0892492439
C  C104  1  0.92730000  0.31370000  0.49450000  1.0 0.2199665893
C  C105  1  0.51239000  0.11143000  0.96253000  1.0 0.6197793401
C  C106  1  0.51086000  0.14954000  0.95206000  1.0 -0.1029791328
C  C107  1  0.51741000  0.15981000  0.97319000  1.0 -0.0685739148
C  C108  1  0.51620000  0.19620000  0.96440000  1.0 -0.1499589209
C  C109  1  0.50470000  0.22370000  0.93430000  1.0 0.0337033555
C  C110  1  0.49550000  0.21630000  0.91150000  1.0 -0.1984043546
C  C111  1  0.50100000  0.17680000  0.92140000  1.0 -0.0892492439
C  C112  1  0.49450000  0.26450000  0.92730000  1.0 0.2199665893
C  C113  1  0.11143000  0.51239000  0.41365000  1.0 0.6197793401
C  C114  1  0.14954000  0.51086000  0.38754000  1.0 -0.1029791328
C  C115  1  0.15981000  0.51741000  0.34959000  1.0 -0.0685739148
C  C116  1  0.19620000  0.51620000  0.32320000  1.0 -0.1499589209
C  C117  1  0.22370000  0.50470000  0.33730000  1.0 0.0337033555
C  C118  1  0.21630000  0.49550000  0.37670000  1.0 -0.1984043546
C  C119  1  0.17680000  0.50100000  0.40080000  1.0 -0.0892492439
C  C120  1  0.26450000  0.49450000  0.31370000  1.0 0.2199665893
C  C121  1  0.41365000  0.96253000  0.11143000  1.0 0.6197793401
C  C122  1  0.38754000  0.95206000  0.14954000  1.0 -0.1029791328
C  C123  1  0.34959000  0.97319000  0.15981000  1.0 -0.0685739148
C  C124  1  0.32320000  0.96440000  0.19620000  1.0 -0.1499589209
C  C125  1  0.33730000  0.93430000  0.22370000  1.0 0.0337033555
C  C126  1  0.37670000  0.91150000  0.21630000  1.0 -0.1984043546
C  C127  1  0.40080000  0.92140000  0.17680000  1.0 -0.0892492439
C  C128  1  0.31370000  0.92730000  0.26450000  1.0 0.2199665893
C  C129  1  0.11143000  0.41365000  0.96253000  1.0 0.6197793401
C  C130  1  0.14954000  0.38754000  0.95206000  1.0 -0.1029791328
C  C131  1  0.15981000  0.34959000  0.97319000  1.0 -0.0685739148
C  C132  1  0.19620000  0.32320000  0.96440000  1.0 -0.1499589209
C  C133  1  0.22370000  0.33730000  0.93430000  1.0 0.0337033555
C  C134  1  0.21630000  0.37670000  0.91150000  1.0 -0.1984043546
C  C135  1  0.17680000  0.40080000  0.92140000  1.0 -0.0892492439
C  C136  1  0.26450000  0.31370000  0.92730000  1.0 0.2199665893
C  C137  1  0.41365000  0.11143000  0.51239000  1.0 0.6197793401
C  C138  1  0.38754000  0.14954000  0.51086000  1.0 -0.1029791328
C  C139  1  0.34959000  0.15981000  0.51741000  1.0 -0.0685739148
C  C140  1  0.32320000  0.19620000  0.51620000  1.0 -0.1499589209
C  C141  1  0.33730000  0.22370000  0.50470000  1.0 0.0337033555
C  C142  1  0.37670000  0.21630000  0.49550000  1.0 -0.1984043546
C  C143  1  0.40080000  0.17680000  0.50100000  1.0 -0.0892492439
C  C144  1  0.31370000  0.26450000  0.49450000  1.0 0.2199665893
C  C145  1  0.96253000  0.51239000  0.11143000  1.0 0.6197793401
C  C146  1  0.95206000  0.51086000  0.14954000  1.0 -0.1029791328
C  C147  1  0.97319000  0.51741000  0.15981000  1.0 -0.0685739148
C  C148  1  0.96440000  0.51620000  0.19620000  1.0 -0.1499589209
C  C149  1  0.93430000  0.50470000  0.22370000  1.0 0.0337033555
C  C150  1  0.91150000  0.49550000  0.21630000  1.0 -0.1984043546
C  C151  1  0.92140000  0.50100000  0.17680000  1.0 -0.0892492439
C  C152  1  0.92730000  0.49450000  0.26450000  1.0 0.2199665893
C  C153  1  0.51239000  0.96253000  0.41365000  1.0 0.6197793401
C  C154  1  0.51086000  0.95206000  0.38754000  1.0 -0.1029791328
C  C155  1  0.51741000  0.97319000  0.34959000  1.0 -0.0685739148
C  C156  1  0.51620000  0.96440000  0.32320000  1.0 -0.1499589209
C  C157  1  0.50470000  0.93430000  0.33730000  1.0 0.0337033555
C  C158  1  0.49550000  0.91150000  0.37670000  1.0 -0.1984043546
C  C159  1  0.50100000  0.92140000  0.40080000  1.0 -0.0892492439
C  C160  1  0.49450000  0.92730000  0.31370000  1.0 0.2199665893
C  C161  1  0.51239000  0.41365000  0.11143000  1.0 0.6197793401
C  C162  1  0.51086000  0.38754000  0.14954000  1.0 -0.1029791328
C  C163  1  0.51741000  0.34959000  0.15981000  1.0 -0.0685739148
C  C164  1  0.51620000  0.32320000  0.19620000  1.0 -0.1499589209
C  C165  1  0.50470000  0.33730000  0.22370000  1.0 0.0337033555
C  C166  1  0.49550000  0.37670000  0.21630000  1.0 -0.1984043546
C  C167  1  0.50100000  0.40080000  0.17680000  1.0 -0.0892492439
C  C168  1  0.49450000  0.31370000  0.26450000  1.0 0.2199665893
C  C169  1  0.96253000  0.11143000  0.41365000  1.0 0.6197793401
C  C170  1  0.95206000  0.14954000  0.38754000  1.0 -0.1029791328
C  C171  1  0.97319000  0.15981000  0.34959000  1.0 -0.0685739148
C  C172  1  0.96440000  0.19620000  0.32320000  1.0 -0.1445153773
C  C173  1  0.93430000  0.22370000  0.33730000  1.0 0.0337033555
C  C174  1  0.91150000  0.21630000  0.37670000  1.0 -0.1984043546
C  C175  1  0.92140000  0.17680000  0.40080000  1.0 -0.0892492439
C  C176  1  0.92730000  0.26450000  0.31370000  1.0 0.2199665893
C  C177  1  0.41365000  0.51239000  0.96253000  1.0 0.6197793401
C  C178  1  0.38754000  0.51086000  0.95206000  1.0 -0.1029791328
C  C179  1  0.34959000  0.51741000  0.97319000  1.0 -0.0685739148
C  C180  1  0.32320000  0.51620000  0.96440000  1.0 -0.1499589209
C  C181  1  0.33730000  0.50470000  0.93430000  1.0 0.0350553274
C  C182  1  0.37670000  0.49550000  0.91150000  1.0 -0.1984043546
C  C183  1  0.40080000  0.50100000  0.92140000  1.0 -0.0892492439
C  C184  1  0.31370000  0.49450000  0.92730000  1.0 0.2199665893
C  C185  1  0.11143000  0.96253000  0.51239000  1.0 0.6197793401
C  C186  1  0.14954000  0.95206000  0.51086000  1.0 -0.1029791328
C  C187  1  0.15981000  0.97319000  0.51741000  1.0 -0.0685739148
C  C188  1  0.19620000  0.96440000  0.51620000  1.0 -0.1499589209
C  C189  1  0.22370000  0.93430000  0.50470000  1.0 0.0337033555
C  C190  1  0.21630000  0.91150000  0.49550000  1.0 -0.1984043546
C  C191  1  0.17680000  0.92140000  0.50100000  1.0 -0.0892492439
C  C192  1  0.26450000  0.92730000  0.49450000  1.0 0.2199665893
C  C193  1  0.96253000  0.11143000  0.51239000  1.0 0.6197793401
C  C194  1  0.95206000  0.14954000  0.51086000  1.0 -0.1029791328
C  C195  1  0.97319000  0.15981000  0.51741000  1.0 -0.0685739148
C  C196  1  0.96440000  0.19620000  0.51620000  1.0 -0.1499589209
C  C197  1  0.93430000  0.22370000  0.50470000  1.0 0.0337033555
C  C198  1  0.91150000  0.21630000  0.49550000  1.0 -0.1984043546
C  C199  1  0.92140000  0.17680000  0.50100000  1.0 -0.0892492439
C  C200  1  0.92730000  0.26450000  0.49450000  1.0 0.2199665893
C  C201  1  0.51239000  0.41365000  0.96253000  1.0 0.6197793401
C  C202  1  0.51086000  0.38754000  0.95206000  1.0 -0.1029791328
C  C203  1  0.51741000  0.34959000  0.97319000  1.0 -0.0685739148
C  C204  1  0.51620000  0.32320000  0.96440000  1.0 -0.1499589209
C  C205  1  0.50470000  0.33730000  0.93430000  1.0 0.0337033555
C  C206  1  0.49550000  0.37670000  0.91150000  1.0 -0.1984043546
C  C207  1  0.50100000  0.40080000  0.92140000  1.0 -0.0892492439
C  C208  1  0.49450000  0.31370000  0.92730000  1.0 0.2199665893
C  C209  1  0.11143000  0.96253000  0.41365000  1.0 0.6197793401
C  C210  1  0.14954000  0.95206000  0.38754000  1.0 -0.1029791328
C  C211  1  0.15981000  0.97319000  0.34959000  1.0 -0.0685739148
C  C212  1  0.19620000  0.96440000  0.32320000  1.0 -0.1499589209
C  C213  1  0.22370000  0.93430000  0.33730000  1.0 0.0337033555
C  C214  1  0.21630000  0.91150000  0.37670000  1.0 -0.1984043546
C  C215  1  0.17680000  0.92140000  0.40080000  1.0 -0.0892492439
C  C216  1  0.26450000  0.92730000  0.31370000  1.0 0.2199665893
C  C217  1  0.41365000  0.51239000  0.11143000  1.0 0.6197793401
C  C218  1  0.38754000  0.51086000  0.14954000  1.0 -0.1029791328
C  C219  1  0.34959000  0.51741000  0.15981000  1.0 -0.0685739148
C  C220  1  0.32320000  0.51620000  0.19620000  1.0 -0.1499589209
C  C221  1  0.33730000  0.50470000  0.22370000  1.0 0.0337033555
C  C222  1  0.37670000  0.49550000  0.21630000  1.0 -0.1984043546
C  C223  1  0.40080000  0.50100000  0.17680000  1.0 -0.0892492439
C  C224  1  0.31370000  0.49450000  0.26450000  1.0 0.2199665893
C  C225  1  0.11143000  0.51239000  0.96253000  1.0 0.6197793401
C  C226  1  0.14954000  0.51086000  0.95206000  1.0 -0.1029791328
C  C227  1  0.15981000  0.51741000  0.97319000  1.0 -0.0685739148
C  C228  1  0.19620000  0.51620000  0.96440000  1.0 -0.1499589209
C  C229  1  0.22370000  0.50470000  0.93430000  1.0 0.0337033555
C  C230  1  0.21630000  0.49550000  0.91150000  1.0 -0.1984043546
C  C231  1  0.17680000  0.50100000  0.92140000  1.0 -0.0892492439
C  C232  1  0.26450000  0.49450000  0.92730000  1.0 0.2199665893
C  C233  1  0.41365000  0.96253000  0.51239000  1.0 0.6197793401
C  C234  1  0.38754000  0.95206000  0.51086000  1.0 -0.1029791328
C  C235  1  0.34959000  0.97319000  0.51741000  1.0 -0.0685739148
C  C236  1  0.32320000  0.96440000  0.51620000  1.0 -0.1499589209
C  C237  1  0.33730000  0.93430000  0.50470000  1.0 0.0337033555
C  C238  1  0.37670000  0.91150000  0.49550000  1.0 -0.1984043546
C  C239  1  0.40080000  0.92140000  0.50100000  1.0 -0.0892492439
C  C240  1  0.31370000  0.92730000  0.49450000  1.0 0.2199665893
C  C241  1  0.96253000  0.41365000  0.11143000  1.0 0.6197793401
C  C242  1  0.95206000  0.38754000  0.14954000  1.0 -0.1029791328
C  C243  1  0.97319000  0.34959000  0.15981000  1.0 -0.0685739148
C  C244  1  0.96440000  0.32320000  0.19620000  1.0 -0.1499589209
C  C245  1  0.93430000  0.33730000  0.22370000  1.0 0.0337033555
C  C246  1  0.91150000  0.37670000  0.21630000  1.0 -0.1984043546
C  C247  1  0.92140000  0.40080000  0.17680000  1.0 -0.0892492439
C  C248  1  0.92730000  0.31370000  0.26450000  1.0 0.2199665893
C  C249  1  0.51239000  0.11143000  0.41365000  1.0 0.6197793401
C  C250  1  0.51086000  0.14954000  0.38754000  1.0 -0.1029791328
C  C251  1  0.51741000  0.15981000  0.34959000  1.0 -0.0685739148
C  C252  1  0.51620000  0.19620000  0.32320000  1.0 -0.1445153773
C  C253  1  0.50470000  0.22370000  0.33730000  1.0 0.0337033555
C  C254  1  0.49550000  0.21630000  0.37670000  1.0 -0.1984043546
C  C255  1  0.50100000  0.17680000  0.40080000  1.0 -0.0892492439
C  C256  1  0.49450000  0.26450000  0.31370000  1.0 0.2199665893
C  C257  1  0.51239000  0.96253000  0.11143000  1.0 0.6197793401
C  C258  1  0.51086000  0.95206000  0.14954000  1.0 -0.1029791328
C  C259  1  0.51741000  0.97319000  0.15981000  1.0 -0.0685739148
C  C260  1  0.51620000  0.96440000  0.19620000  1.0 -0.1499589209
C  C261  1  0.50470000  0.93430000  0.22370000  1.0 0.0337033555
C  C262  1  0.49550000  0.91150000  0.21630000  1.0 -0.1984043546
C  C263  1  0.50100000  0.92140000  0.17680000  1.0 -0.0892492439
C  C264  1  0.49450000  0.92730000  0.26450000  1.0 0.2199665893
C  C265  1  0.96253000  0.51239000  0.41365000  1.0 0.6197793401
C  C266  1  0.95206000  0.51086000  0.38754000  1.0 -0.1029791328
C  C267  1  0.97319000  0.51741000  0.34959000  1.0 -0.0685739148
C  C268  1  0.96440000  0.51620000  0.32320000  1.0 -0.1499589209
C  C269  1  0.93430000  0.50470000  0.33730000  1.0 0.0337033555
C  C270  1  0.91150000  0.49550000  0.37670000  1.0 -0.1984043546
C  C271  1  0.92140000  0.50100000  0.40080000  1.0 -0.0892492439
C  C272  1  0.92730000  0.49450000  0.31370000  1.0 0.2199665893
C  C273  1  0.41365000  0.11143000  0.96253000  1.0 0.6197793401
C  C274  1  0.38754000  0.14954000  0.95206000  1.0 -0.1029791328
C  C275  1  0.34959000  0.15981000  0.97319000  1.0 -0.0685739148
C  C276  1  0.32320000  0.19620000  0.96440000  1.0 -0.1499589209
C  C277  1  0.33730000  0.22370000  0.93430000  1.0 0.0337033555
C  C278  1  0.37670000  0.21630000  0.91150000  1.0 -0.1984043546
C  C279  1  0.40080000  0.17680000  0.92140000  1.0 -0.0892492439
C  C280  1  0.31370000  0.26450000  0.92730000  1.0 0.2199665893
C  C281  1  0.11143000  0.41365000  0.51239000  1.0 0.6197793401
C  C282  1  0.14954000  0.38754000  0.51086000  1.0 -0.1029791328
C  C283  1  0.15981000  0.34959000  0.51741000  1.0 -0.0685739148
C  C284  1  0.19620000  0.32320000  0.51620000  1.0 -0.1499589209
C  C285  1  0.22370000  0.33730000  0.50470000  1.0 0.0337033555
C  C286  1  0.21630000  0.37670000  0.49550000  1.0 -0.1984043546
C  C287  1  0.17680000  0.40080000  0.50100000  1.0 -0.0892492439
C  C288  1  0.26450000  0.31370000  0.49450000  1.0 0.2199665893
C  C289  1  0.03747000  0.58635000  0.48761000  1.0 0.6197793401
C  C290  1  0.04794000  0.61246000  0.48914000  1.0 -0.1029791328
C  C291  1  0.02681000  0.65041000  0.48259000  1.0 -0.0685739148
C  C292  1  0.03560000  0.67680000  0.48380000  1.0 -0.1499589209
C  C293  1  0.06570000  0.66270000  0.49530000  1.0 0.0337033555
C  C294  1  0.08850000  0.62330000  0.50450000  1.0 -0.1984043546
C  C295  1  0.07860000  0.59920000  0.49900000  1.0 -0.0892492439
C  C296  1  0.07270000  0.68630000  0.50550000  1.0 0.2199665893
C  C297  1  0.48761000  0.88857000  0.03747000  1.0 0.6197793401
C  C298  1  0.48914000  0.85046000  0.04794000  1.0 -0.1029791328
C  C299  1  0.48259000  0.84019000  0.02681000  1.0 -0.0685739148
C  C300  1  0.48380000  0.80380000  0.03560000  1.0 -0.1499589209
C  C301  1  0.49530000  0.77630000  0.06570000  1.0 0.0337033555
C  C302  1  0.50450000  0.78370000  0.08850000  1.0 -0.1984043546
C  C303  1  0.49900000  0.82320000  0.07860000  1.0 -0.0892492439
C  C304  1  0.50550000  0.73550000  0.07270000  1.0 0.2199665893
C  C305  1  0.88857000  0.48761000  0.58635000  1.0 0.6197793401
C  C306  1  0.85046000  0.48914000  0.61246000  1.0 -0.1029791328
C  C307  1  0.84019000  0.48259000  0.65041000  1.0 -0.0685739148
C  C308  1  0.80380000  0.48380000  0.67680000  1.0 -0.1499589209
C  C309  1  0.77630000  0.49530000  0.66270000  1.0 0.0337033555
C  C310  1  0.78370000  0.50450000  0.62330000  1.0 -0.1984043546
C  C311  1  0.82320000  0.49900000  0.59920000  1.0 -0.0892492439
C  C312  1  0.73550000  0.50550000  0.68630000  1.0 0.2199665893
C  C313  1  0.58635000  0.03747000  0.88857000  1.0 0.6197793401
C  C314  1  0.61246000  0.04794000  0.85046000  1.0 -0.1029791328
C  C315  1  0.65041000  0.02681000  0.84019000  1.0 -0.0685739148
C  C316  1  0.67680000  0.03560000  0.80380000  1.0 -0.1499589209
C  C317  1  0.66270000  0.06570000  0.77630000  1.0 0.0337033555
C  C318  1  0.62330000  0.08850000  0.78370000  1.0 -0.1984043546
C  C319  1  0.59920000  0.07860000  0.82320000  1.0 -0.0892492439
C  C320  1  0.68630000  0.07270000  0.73550000  1.0 0.2199665893
C  C321  1  0.88857000  0.58635000  0.03747000  1.0 0.6197793401
C  C322  1  0.85046000  0.61246000  0.04794000  1.0 -0.1029791328
C  C323  1  0.84019000  0.65041000  0.02681000  1.0 -0.0685739148
C  C324  1  0.80380000  0.67680000  0.03560000  1.0 -0.1499589209
C  C325  1  0.77630000  0.66270000  0.06570000  1.0 0.0337033555
C  C326  1  0.78370000  0.62330000  0.08850000  1.0 -0.1984043546
C  C327  1  0.82320000  0.59920000  0.07860000  1.0 -0.0892492439
C  C328  1  0.73550000  0.68630000  0.07270000  1.0 0.2199665893
C  C329  1  0.58635000  0.88857000  0.48761000  1.0 0.6197793401
C  C330  1  0.61246000  0.85046000  0.48914000  1.0 -0.1029791328
C  C331  1  0.65041000  0.84019000  0.48259000  1.0 -0.0685739148
C  C332  1  0.67680000  0.80380000  0.48380000  1.0 -0.1499589209
C  C333  1  0.66270000  0.77630000  0.49530000  1.0 0.0337033555
C  C334  1  0.62330000  0.78370000  0.50450000  1.0 -0.1984043546
C  C335  1  0.59920000  0.82320000  0.49900000  1.0 -0.0892492439
C  C336  1  0.68630000  0.73550000  0.50550000  1.0 0.2199665893
C  C337  1  0.03747000  0.48761000  0.88857000  1.0 0.6197793401
C  C338  1  0.04794000  0.48914000  0.85046000  1.0 -0.1029791328
C  C339  1  0.02681000  0.48259000  0.84019000  1.0 -0.0685739148
C  C340  1  0.03560000  0.48380000  0.80380000  1.0 -0.1499589209
C  C341  1  0.06570000  0.49530000  0.77630000  1.0 0.0337033555
C  C342  1  0.08850000  0.50450000  0.78370000  1.0 -0.1984043546
C  C343  1  0.07860000  0.49900000  0.82320000  1.0 -0.0892492439
C  C344  1  0.07270000  0.50550000  0.73550000  1.0 0.2199665893
C  C345  1  0.48761000  0.03747000  0.58635000  1.0 0.6197793401
C  C346  1  0.48914000  0.04794000  0.61246000  1.0 -0.1029791328
C  C347  1  0.48259000  0.02681000  0.65041000  1.0 -0.0685739148
C  C348  1  0.48380000  0.03560000  0.67680000  1.0 -0.1445153773
C  C349  1  0.49530000  0.06570000  0.66270000  1.0 0.0337033555
C  C350  1  0.50450000  0.08850000  0.62330000  1.0 -0.1984043546
C  C351  1  0.49900000  0.07860000  0.59920000  1.0 -0.0892492439
C  C352  1  0.50550000  0.07270000  0.68630000  1.0 0.2199665893
C  C353  1  0.48761000  0.58635000  0.88857000  1.0 0.6197793401
C  C354  1  0.48914000  0.61246000  0.85046000  1.0 -0.1029791328
C  C355  1  0.48259000  0.65041000  0.84019000  1.0 -0.0685739148
C  C356  1  0.48380000  0.67680000  0.80380000  1.0 -0.1499589209
C  C357  1  0.49530000  0.66270000  0.77630000  1.0 0.0337033555
C  C358  1  0.50450000  0.62330000  0.78370000  1.0 -0.1984043546
C  C359  1  0.49900000  0.59920000  0.82320000  1.0 -0.0892492439
C  C360  1  0.50550000  0.68630000  0.73550000  1.0 0.2199665893
C  C361  1  0.03747000  0.88857000  0.58635000  1.0 0.6197793401
C  C362  1  0.04794000  0.85046000  0.61246000  1.0 -0.1029791328
C  C363  1  0.02681000  0.84019000  0.65041000  1.0 -0.0685739148
C  C364  1  0.03560000  0.80380000  0.67680000  1.0 -0.1499589209
C  C365  1  0.06570000  0.77630000  0.66270000  1.0 0.0337033555
C  C366  1  0.08850000  0.78370000  0.62330000  1.0 -0.1984043546
C  C367  1  0.07860000  0.82320000  0.59920000  1.0 -0.0892492439
C  C368  1  0.07270000  0.73550000  0.68630000  1.0 0.2199665893
C  C369  1  0.58635000  0.48761000  0.03747000  1.0 0.6197793401
C  C370  1  0.61246000  0.48914000  0.04794000  1.0 -0.1029791328
C  C371  1  0.65041000  0.48259000  0.02681000  1.0 -0.0685739148
C  C372  1  0.67680000  0.48380000  0.03560000  1.0 -0.1499589209
C  C373  1  0.66270000  0.49530000  0.06570000  1.0 0.0337033555
C  C374  1  0.62330000  0.50450000  0.08850000  1.0 -0.1984043546
C  C375  1  0.59920000  0.49900000  0.07860000  1.0 -0.0892492439
C  C376  1  0.68630000  0.50550000  0.07270000  1.0 0.2199665893
C  C377  1  0.88857000  0.03747000  0.48761000  1.0 0.6197793401
C  C378  1  0.85046000  0.04794000  0.48914000  1.0 -0.1029791328
C  C379  1  0.84019000  0.02681000  0.48259000  1.0 -0.0685739148
C  C380  1  0.80380000  0.03560000  0.48380000  1.0 -0.1499589209
C  C381  1  0.77630000  0.06570000  0.49530000  1.0 0.0337033555
C  C382  1  0.78370000  0.08850000  0.50450000  1.0 -0.1984043546
C  C383  1  0.82320000  0.07860000  0.49900000  1.0 -0.0892492439
C  C384  1  0.73550000  0.07270000  0.50550000  1.0 0.2199665893
N  N1  1  0.10900000  0.70800000  0.50340000  1.0 -0.1799924835
N  N2  1  0.50340000  0.67960000  0.10900000  1.0 -0.1735987145
N  N3  1  0.70800000  0.10900000  0.67960000  1.0 -0.1799924835
N  N4  1  0.67960000  0.50340000  0.70800000  1.0 -0.1799924835
N  N5  1  0.70800000  0.50340000  0.10900000  1.0 -0.1799924835
N  N6  1  0.67960000  0.10900000  0.50340000  1.0 -0.1799924835
N  N7  1  0.10900000  0.67960000  0.70800000  1.0 -0.1799924835
N  N8  1  0.50340000  0.70800000  0.67960000  1.0 -0.1799924835
N  N9  1  0.50340000  0.10900000  0.70800000  1.0 -0.1799924835
N  N10  1  0.10900000  0.50340000  0.67960000  1.0 -0.1799924835
N  N11  1  0.67960000  0.70800000  0.10900000  1.0 -0.1735987145
N  N12  1  0.70800000  0.67960000  0.50340000  1.0 -0.1799924835
N  N13  1  0.89100000  0.32040000  0.49660000  1.0 -0.1735987145
N  N14  1  0.49660000  0.29200000  0.89100000  1.0 -0.1799924835
N  N15  1  0.29200000  0.49660000  0.32040000  1.0 -0.1799924835
N  N16  1  0.32040000  0.89100000  0.29200000  1.0 -0.1799924835
N  N17  1  0.29200000  0.32040000  0.89100000  1.0 -0.1799924835
N  N18  1  0.32040000  0.29200000  0.49660000  1.0 -0.1735987145
N  N19  1  0.89100000  0.49660000  0.29200000  1.0 -0.1799924835
N  N20  1  0.49660000  0.89100000  0.32040000  1.0 -0.1799924835
N  N21  1  0.49660000  0.32040000  0.29200000  1.0 -0.1735987145
N  N22  1  0.89100000  0.29200000  0.32040000  1.0 -0.1799924835
N  N23  1  0.32040000  0.49660000  0.89100000  1.0 -0.1799924835
N  N24  1  0.29200000  0.89100000  0.49660000  1.0 -0.1799924835
N  N25  1  0.89100000  0.29200000  0.49660000  1.0 -0.1799924835
N  N26  1  0.49660000  0.32040000  0.89100000  1.0 -0.1799924835
N  N27  1  0.29200000  0.89100000  0.32040000  1.0 -0.1799924835
N  N28  1  0.32040000  0.49660000  0.29200000  1.0 -0.1735987145
N  N29  1  0.29200000  0.49660000  0.89100000  1.0 -0.1799924835
N  N30  1  0.32040000  0.89100000  0.49660000  1.0 -0.1799924835
N  N31  1  0.89100000  0.32040000  0.29200000  1.0 -0.1799924835
N  N32  1  0.49660000  0.29200000  0.32040000  1.0 -0.1799924835
N  N33  1  0.49660000  0.89100000  0.29200000  1.0 -0.1799924835
N  N34  1  0.89100000  0.49660000  0.32040000  1.0 -0.1799924835
N  N35  1  0.32040000  0.29200000  0.89100000  1.0 -0.1799924835
N  N36  1  0.29200000  0.32040000  0.49660000  1.0 -0.1799924835
N  N37  1  0.10900000  0.67960000  0.50340000  1.0 -0.1799924835
N  N38  1  0.50340000  0.70800000  0.10900000  1.0 -0.1799924835
N  N39  1  0.70800000  0.50340000  0.67960000  1.0 -0.1799924835
N  N40  1  0.67960000  0.10900000  0.70800000  1.0 -0.1799924835
N  N41  1  0.70800000  0.67960000  0.10900000  1.0 -0.1799924835
N  N42  1  0.67960000  0.70800000  0.50340000  1.0 -0.1799924835
N  N43  1  0.10900000  0.50340000  0.70800000  1.0 -0.1799924835
N  N44  1  0.50340000  0.10900000  0.67960000  1.0 -0.1735987145
N  N45  1  0.50340000  0.67960000  0.70800000  1.0 -0.1799924835
N  N46  1  0.10900000  0.70800000  0.67960000  1.0 -0.1799924835
N  N47  1  0.67960000  0.50340000  0.10900000  1.0 -0.1799924835
N  N48  1  0.70800000  0.10900000  0.50340000  1.0 -0.1799924835
N  N49  1  0.05650000  0.72650000  0.49050000  1.0 -0.4623981663
N  N50  1  0.49050000  0.72650000  0.05650000  1.0 -0.4664651812
N  N51  1  0.72650000  0.05650000  0.72650000  1.0 -0.4664651812
N  N52  1  0.72650000  0.49050000  0.72650000  1.0 -0.4623981663
N  N53  1  0.72650000  0.49050000  0.05650000  1.0 -0.4664651812
N  N54  1  0.72650000  0.05650000  0.49050000  1.0 -0.4664651812
N  N55  1  0.05650000  0.72650000  0.72650000  1.0 -0.4623981663
N  N56  1  0.49050000  0.72650000  0.72650000  1.0 -0.4623981663
N  N57  1  0.49050000  0.05650000  0.72650000  1.0 -0.4664651812
N  N58  1  0.05650000  0.49050000  0.72650000  1.0 -0.4623981663
N  N59  1  0.72650000  0.72650000  0.05650000  1.0 -0.4623981663
N  N60  1  0.72650000  0.72650000  0.49050000  1.0 -0.4623981663
N  N61  1  0.94350000  0.27350000  0.50950000  1.0 -0.4664651812
N  N62  1  0.50950000  0.27350000  0.94350000  1.0 -0.4623981663
N  N63  1  0.27350000  0.50950000  0.27350000  1.0 -0.4664651812
N  N64  1  0.27350000  0.94350000  0.27350000  1.0 -0.4623981663
N  N65  1  0.27350000  0.27350000  0.94350000  1.0 -0.4623981663
N  N66  1  0.27350000  0.27350000  0.50950000  1.0 -0.4664651812
N  N67  1  0.94350000  0.50950000  0.27350000  1.0 -0.4623981663
N  N68  1  0.50950000  0.94350000  0.27350000  1.0 -0.4623981663
N  N69  1  0.50950000  0.27350000  0.27350000  1.0 -0.4664651812
N  N70  1  0.94350000  0.27350000  0.27350000  1.0 -0.4623981663
N  N71  1  0.27350000  0.50950000  0.94350000  1.0 -0.4623981663
N  N72  1  0.27350000  0.94350000  0.50950000  1.0 -0.4664651812
O  O1  1  0.06090000  0.89548000  0.49082000  1.0 -0.575882806
O  O2  1  0.00642000  0.91246000  0.48312000  1.0 -0.5940242828
O  O3  1  0.49082000  0.55280000  0.06090000  1.0 -0.575882806
O  O4  1  0.48312000  0.59800000  0.00642000  1.0 -0.5968191927
O  O5  1  0.89548000  0.06090000  0.55280000  1.0 -0.5742570148
O  O6  1  0.91246000  0.00642000  0.59800000  1.0 -0.5940242828
O  O7  1  0.55280000  0.49082000  0.89548000  1.0 -0.575882806
O  O8  1  0.59800000  0.48312000  0.91246000  1.0 -0.5940242828
O  O9  1  0.89548000  0.49082000  0.06090000  1.0 -0.5742570148
O  O10  1  0.91246000  0.48312000  0.00642000  1.0 -0.5968191927
O  O11  1  0.55280000  0.06090000  0.49082000  1.0 -0.5742570148
O  O12  1  0.59800000  0.00642000  0.48312000  1.0 -0.5940242828
O  O13  1  0.06090000  0.55280000  0.89548000  1.0 -0.575882806
O  O14  1  0.00642000  0.59800000  0.91246000  1.0 -0.5968191927
O  O15  1  0.49082000  0.89548000  0.55280000  1.0 -0.5742570148
O  O16  1  0.48312000  0.91246000  0.59800000  1.0 -0.5968191927
O  O17  1  0.49082000  0.06090000  0.89548000  1.0 -0.5742570148
O  O18  1  0.48312000  0.00642000  0.91246000  1.0 -0.5968191927
O  O19  1  0.06090000  0.49082000  0.55280000  1.0 -0.575882806
O  O20  1  0.00642000  0.48312000  0.59800000  1.0 -0.5940242828
O  O21  1  0.55280000  0.89548000  0.06090000  1.0 -0.575882806
O  O22  1  0.59800000  0.91246000  0.00642000  1.0 -0.5968191927
O  O23  1  0.89548000  0.55280000  0.49082000  1.0 -0.575882806
O  O24  1  0.91246000  0.59800000  0.48312000  1.0 -0.5940242828
O  O25  1  0.93910000  0.44720000  0.50918000  1.0 -0.5742570148
O  O26  1  0.99358000  0.40200000  0.51688000  1.0 -0.5968191927
O  O27  1  0.50918000  0.10452000  0.93910000  1.0 -0.575882806
O  O28  1  0.51688000  0.08754000  0.99358000  1.0 -0.5968191927
O  O29  1  0.10452000  0.50918000  0.44720000  1.0 -0.575882806
O  O30  1  0.08754000  0.51688000  0.40200000  1.0 -0.5968191927
O  O31  1  0.44720000  0.93910000  0.10452000  1.0 -0.5742570148
O  O32  1  0.40200000  0.99358000  0.08754000  1.0 -0.5968191927
O  O33  1  0.10452000  0.44720000  0.93910000  1.0 -0.5742570148
O  O34  1  0.08754000  0.40200000  0.99358000  1.0 -0.5940242828
O  O35  1  0.44720000  0.10452000  0.50918000  1.0 -0.575882806
O  O36  1  0.40200000  0.08754000  0.51688000  1.0 -0.5968191927
O  O37  1  0.93910000  0.50918000  0.10452000  1.0 -0.5742570148
O  O38  1  0.99358000  0.51688000  0.08754000  1.0 -0.5968191927
O  O39  1  0.50918000  0.93910000  0.44720000  1.0 -0.5742570148
O  O40  1  0.51688000  0.99358000  0.40200000  1.0 -0.5968191927
O  O41  1  0.50918000  0.44720000  0.10452000  1.0 -0.5742570148
O  O42  1  0.51688000  0.40200000  0.08754000  1.0 -0.5968191927
O  O43  1  0.93910000  0.10452000  0.44720000  1.0 -0.5742570148
O  O44  1  0.99358000  0.08754000  0.40200000  1.0 -0.5968191927
O  O45  1  0.44720000  0.50918000  0.93910000  1.0 -0.5742570148
O  O46  1  0.40200000  0.51688000  0.99358000  1.0 -0.5940242828
O  O47  1  0.10452000  0.93910000  0.50918000  1.0 -0.5742570148
O  O48  1  0.08754000  0.99358000  0.51688000  1.0 -0.5940242828
O  O49  1  0.93910000  0.10452000  0.50918000  1.0 -0.5742570148
O  O50  1  0.99358000  0.08754000  0.51688000  1.0 -0.5968191927
O  O51  1  0.50918000  0.44720000  0.93910000  1.0 -0.5742570148
O  O52  1  0.51688000  0.40200000  0.99358000  1.0 -0.5940242828
O  O53  1  0.10452000  0.93910000  0.44720000  1.0 -0.575882806
O  O54  1  0.08754000  0.99358000  0.40200000  1.0 -0.5968191927
O  O55  1  0.44720000  0.50918000  0.10452000  1.0 -0.5742570148
O  O56  1  0.40200000  0.51688000  0.08754000  1.0 -0.5968191927
O  O57  1  0.10452000  0.50918000  0.93910000  1.0 -0.5742570148
O  O58  1  0.08754000  0.51688000  0.99358000  1.0 -0.5940242828
O  O59  1  0.44720000  0.93910000  0.50918000  1.0 -0.5742570148
O  O60  1  0.40200000  0.99358000  0.51688000  1.0 -0.5940242828
O  O61  1  0.93910000  0.44720000  0.10452000  1.0 -0.5742570148
O  O62  1  0.99358000  0.40200000  0.08754000  1.0 -0.5940242828
O  O63  1  0.50918000  0.10452000  0.44720000  1.0 -0.5742570148
O  O64  1  0.51688000  0.08754000  0.40200000  1.0 -0.5968191927
O  O65  1  0.50918000  0.93910000  0.10452000  1.0 -0.5742570148
O  O66  1  0.51688000  0.99358000  0.08754000  1.0 -0.5940242828
O  O67  1  0.93910000  0.50918000  0.44720000  1.0 -0.575882806
O  O68  1  0.99358000  0.51688000  0.40200000  1.0 -0.5940242828
O  O69  1  0.44720000  0.10452000  0.93910000  1.0 -0.575882806
O  O70  1  0.40200000  0.08754000  0.99358000  1.0 -0.5968191927
O  O71  1  0.10452000  0.44720000  0.50918000  1.0 -0.575882806
O  O72  1  0.08754000  0.40200000  0.51688000  1.0 -0.5968191927
O  O73  1  0.06090000  0.55280000  0.49082000  1.0 -0.575882806
O  O74  1  0.00642000  0.59800000  0.48312000  1.0 -0.5940242828
O  O75  1  0.49082000  0.89548000  0.06090000  1.0 -0.575882806
O  O76  1  0.48312000  0.91246000  0.00642000  1.0 -0.5968191927
O  O77  1  0.89548000  0.49082000  0.55280000  1.0 -0.5742570148
O  O78  1  0.91246000  0.48312000  0.59800000  1.0 -0.5940242828
O  O79  1  0.55280000  0.06090000  0.89548000  1.0 -0.5742570148
O  O80  1  0.59800000  0.00642000  0.91246000  1.0 -0.5968191927
O  O81  1  0.89548000  0.55280000  0.06090000  1.0 -0.575882806
O  O82  1  0.91246000  0.59800000  0.00642000  1.0 -0.5940242828
O  O83  1  0.55280000  0.89548000  0.49082000  1.0 -0.5742570148
O  O84  1  0.59800000  0.91246000  0.48312000  1.0 -0.5940242828
O  O85  1  0.06090000  0.49082000  0.89548000  1.0 -0.575882806
O  O86  1  0.00642000  0.48312000  0.91246000  1.0 -0.5940242828
O  O87  1  0.49082000  0.06090000  0.55280000  1.0 -0.5742570148
O  O88  1  0.48312000  0.00642000  0.59800000  1.0 -0.5940242828
O  O89  1  0.49082000  0.55280000  0.89548000  1.0 -0.575882806
O  O90  1  0.48312000  0.59800000  0.91246000  1.0 -0.5968191927
O  O91  1  0.06090000  0.89548000  0.55280000  1.0 -0.5742570148
O  O92  1  0.00642000  0.91246000  0.59800000  1.0 -0.5968191927
O  O93  1  0.55280000  0.49082000  0.06090000  1.0 -0.5742570148
O  O94  1  0.59800000  0.48312000  0.00642000  1.0 -0.5968191927
O  O95  1  0.89548000  0.06090000  0.49082000  1.0 -0.5742570148
O  O96  1  0.91246000  0.00642000  0.48312000  1.0 -0.5940242828
O  O97  1  0.02741000  0.97259000  0.54027000  1.0 -1.1693433643
O  O98  1  0.54027000  0.45973000  0.02741000  1.0 -1.1693433643
O  O99  1  0.97259000  0.02741000  0.45973000  1.0 -1.1601788368
O  O100  1  0.45973000  0.54027000  0.97259000  1.0 -1.1601788368
O  O101  1  0.97259000  0.54027000  0.02741000  1.0 -1.1601788368
O  O102  1  0.45973000  0.02741000  0.54027000  1.0 -1.1601788368
O  O103  1  0.02741000  0.45973000  0.97259000  1.0 -1.1601788368
O  O104  1  0.54027000  0.97259000  0.45973000  1.0 -1.1601788368
O  O105  1  0.54027000  0.02741000  0.97259000  1.0 -1.1601788368
O  O106  1  0.02741000  0.54027000  0.45973000  1.0 -1.1601788368
O  O107  1  0.45973000  0.97259000  0.02741000  1.0 -1.1601788368
O  O108  1  0.97259000  0.45973000  0.54027000  1.0 -1.1601788368
O  O109  1  0.97259000  0.54027000  0.45973000  1.0 -1.1601788368
O  O110  1  0.45973000  0.02741000  0.97259000  1.0 -1.1601788368
O  O111  1  0.02741000  0.45973000  0.54027000  1.0 -1.1601788368
O  O112  1  0.54027000  0.97259000  0.02741000  1.0 -1.1601788368
O  O113  1  0.02741000  0.54027000  0.97259000  1.0 -1.1601788368
O  O114  1  0.54027000  0.02741000  0.45973000  1.0 -1.1601788368
O  O115  1  0.97259000  0.45973000  0.02741000  1.0 -1.1693433643
O  O116  1  0.45973000  0.97259000  0.54027000  1.0 -1.1693433643
O  O117  1  0.45973000  0.54027000  0.02741000  1.0 -1.1601788368
O  O118  1  0.97259000  0.02741000  0.54027000  1.0 -1.1601788368
O  O119  1  0.54027000  0.45973000  0.97259000  1.0 -1.1601788368
O  O120  1  0.02741000  0.97259000  0.45973000  1.0 -1.1601788368
O  O121  1  0.94397000  0.99845000  0.52879000  1.0 -1.1601788368
O  O122  1  0.52879000  0.52879000  0.94397000  1.0 -1.1543125441
O  O123  1  0.99845000  0.94397000  0.52879000  1.0 -1.1601788368
O  O124  1  0.52879000  0.52879000  0.99845000  1.0 -1.1543125441
O  O125  1  0.99845000  0.52879000  0.94397000  1.0 -1.1543125441
O  O126  1  0.52879000  0.94397000  0.52879000  1.0 -1.1543125441
O  O127  1  0.94397000  0.52879000  0.99845000  1.0 -1.1543125441
O  O128  1  0.52879000  0.99845000  0.52879000  1.0 -1.1601788368
O  O129  1  0.52879000  0.94397000  0.99845000  1.0 -1.1543125441
O  O130  1  0.94397000  0.52879000  0.52879000  1.0 -1.1601788368
O  O131  1  0.52879000  0.99845000  0.94397000  1.0 -1.1601788368
O  O132  1  0.99845000  0.52879000  0.52879000  1.0 -1.1601788368
O  O133  1  0.05603000  0.47121000  0.47121000  1.0 -1.1601788368
O  O134  1  0.47121000  0.00155000  0.05603000  1.0 -1.1601788368
O  O135  1  0.00155000  0.47121000  0.47121000  1.0 -1.1601788368
O  O136  1  0.47121000  0.05603000  0.00155000  1.0 -1.1601788368
O  O137  1  0.00155000  0.47121000  0.05603000  1.0 -1.1543125441
O  O138  1  0.47121000  0.00155000  0.47121000  1.0 -1.1543125441
O  O139  1  0.05603000  0.47121000  0.00155000  1.0 -1.1601788368
O  O140  1  0.47121000  0.05603000  0.47121000  1.0 -1.1543125441
O  O141  1  0.47121000  0.47121000  0.00155000  1.0 -1.1601788368
O  O142  1  0.05603000  0.00155000  0.47121000  1.0 -1.1543125441
O  O143  1  0.47121000  0.47121000  0.05603000  1.0 -1.1543125441
O  O144  1  0.00155000  0.05603000  0.47121000  1.0 -1.1601788368
