# DDEC6 charges by PACMAN v1.1 (https://github.com/mtap-research/PACMAN-charge/)
data_XAFVAF_ASR_pacman
_symmetry_space_group_name_H-M   'P 1'
_cell_length_a   71.92600000
_cell_length_b   71.92600000
_cell_length_c   71.92600000
_cell_angle_alpha   109.47100000
_cell_angle_beta   109.47100000
_cell_angle_gamma   109.47100000
_symmetry_Int_Tables_number   1
_chemical_formula_structural   Zr3H16C32(NO2)6
_chemical_formula_sum   'Zr180 H960 C1920 N360 O720'
_cell_volume   286443.77123499
_cell_formula_units_Z   60
loop_
 _symmetry_equiv_pos_site_id
 _symmetry_equiv_pos_as_xyz
  1  'x, y, z'
loop_
 _atom_site_type_symbol
 _atom_site_label
 _atom_site_symmetry_multiplicity
 _atom_site_fract_x
 _atom_site_fract_y
 _atom_site_fract_z
 _atom_site_occupancy
 _atom_site_charge
Zr  Zr1  1  0.17152000  0.20165000  0.72037000  1.0 2.4322869302
Zr  Zr2  1  0.16076000  0.19081000  0.76117000  1.0 2.4380927493
Zr  Zr3  1  0.51872000  0.79835000  0.96987000  1.0 2.4322869302
Zr  Zr4  1  0.57036000  0.80919000  0.96995000  1.0 2.4322869302
Zr  Zr5  1  0.82848000  0.54885000  0.03013000  1.0 2.4322869302
Zr  Zr6  1  0.83924000  0.60041000  0.03005000  1.0 2.4380927493
Zr  Zr7  1  0.48128000  0.45115000  0.27963000  1.0 2.4322869302
Zr  Zr8  1  0.42964000  0.39959000  0.23883000  1.0 2.4380927493
Zr  Zr9  1  0.96987000  0.51872000  0.79835000  1.0 2.4322869302
Zr  Zr10  1  0.96995000  0.57036000  0.80919000  1.0 2.4380927493
Zr  Zr11  1  0.72037000  0.17152000  0.20165000  1.0 2.4322869302
Zr  Zr12  1  0.76117000  0.16076000  0.19081000  1.0 2.4380927493
Zr  Zr13  1  0.27963000  0.48128000  0.45115000  1.0 2.4322869302
Zr  Zr14  1  0.23883000  0.42964000  0.39959000  1.0 2.4380927493
Zr  Zr15  1  0.03013000  0.82848000  0.54885000  1.0 2.4322869302
Zr  Zr16  1  0.03005000  0.83924000  0.60041000  1.0 2.4380927493
Zr  Zr17  1  0.45115000  0.27963000  0.48128000  1.0 2.4322869302
Zr  Zr18  1  0.39959000  0.23883000  0.42964000  1.0 2.4380927493
Zr  Zr19  1  0.54885000  0.03013000  0.82848000  1.0 2.4322869302
Zr  Zr20  1  0.60041000  0.03005000  0.83924000  1.0 2.4380927493
Zr  Zr21  1  0.79835000  0.96987000  0.51872000  1.0 2.4322869302
Zr  Zr22  1  0.80919000  0.96995000  0.57036000  1.0 2.4380927493
Zr  Zr23  1  0.20165000  0.72037000  0.17152000  1.0 2.4322869302
Zr  Zr24  1  0.19081000  0.76117000  0.16076000  1.0 2.4380927493
Zr  Zr25  1  0.27963000  0.79835000  0.82848000  1.0 2.4322869302
Zr  Zr26  1  0.23883000  0.80919000  0.83924000  1.0 2.4380927493
Zr  Zr27  1  0.03013000  0.20165000  0.48128000  1.0 2.4322869302
Zr  Zr28  1  0.03005000  0.19081000  0.42964000  1.0 2.4380927493
Zr  Zr29  1  0.96987000  0.45115000  0.17152000  1.0 2.4322869302
Zr  Zr30  1  0.96995000  0.39959000  0.16076000  1.0 2.4380927493
Zr  Zr31  1  0.72037000  0.54885000  0.51872000  1.0 2.4322869302
Zr  Zr32  1  0.76117000  0.60041000  0.57036000  1.0 2.4380927493
Zr  Zr33  1  0.20165000  0.48128000  0.03013000  1.0 2.4322869302
Zr  Zr34  1  0.19081000  0.42964000  0.03005000  1.0 2.4380927493
Zr  Zr35  1  0.79835000  0.82848000  0.27963000  1.0 2.4322869302
Zr  Zr36  1  0.80919000  0.83924000  0.23883000  1.0 2.4380927493
Zr  Zr37  1  0.54885000  0.51872000  0.72037000  1.0 2.4322869302
Zr  Zr38  1  0.60041000  0.57036000  0.76117000  1.0 2.4380927493
Zr  Zr39  1  0.45115000  0.17152000  0.96987000  1.0 2.4322869302
Zr  Zr40  1  0.39959000  0.16076000  0.96995000  1.0 2.4380927493
Zr  Zr41  1  0.51872000  0.72037000  0.54885000  1.0 2.4380927493
Zr  Zr42  1  0.57036000  0.76117000  0.60041000  1.0 2.4380927493
Zr  Zr43  1  0.17152000  0.96987000  0.45115000  1.0 2.4322869302
Zr  Zr44  1  0.16076000  0.96995000  0.39959000  1.0 2.4380927493
Zr  Zr45  1  0.48128000  0.03013000  0.20165000  1.0 2.4322869302
Zr  Zr46  1  0.42964000  0.03005000  0.19081000  1.0 2.4380927493
Zr  Zr47  1  0.82848000  0.27963000  0.79835000  1.0 2.4322869302
Zr  Zr48  1  0.83924000  0.23883000  0.80919000  1.0 2.4380927493
Zr  Zr49  1  0.82848000  0.79835000  0.27963000  1.0 2.4322869302
Zr  Zr50  1  0.83924000  0.80919000  0.23883000  1.0 2.4380927493
Zr  Zr51  1  0.48128000  0.20165000  0.03013000  1.0 2.4380927493
Zr  Zr52  1  0.42964000  0.19081000  0.03005000  1.0 2.4380927493
Zr  Zr53  1  0.17152000  0.45115000  0.96987000  1.0 2.4322869302
Zr  Zr54  1  0.16076000  0.39959000  0.96995000  1.0 2.4380927493
Zr  Zr55  1  0.51872000  0.54885000  0.72037000  1.0 2.4322869302
Zr  Zr56  1  0.57036000  0.60041000  0.76117000  1.0 2.4380927493
Zr  Zr57  1  0.03013000  0.48128000  0.20165000  1.0 2.4322869302
Zr  Zr58  1  0.03005000  0.42964000  0.19081000  1.0 2.4380927493
Zr  Zr59  1  0.27963000  0.82848000  0.79835000  1.0 2.4322869302
Zr  Zr60  1  0.23883000  0.83924000  0.80919000  1.0 2.4380927493
Zr  Zr61  1  0.72037000  0.51872000  0.54885000  1.0 2.4322869302
Zr  Zr62  1  0.76117000  0.57036000  0.60041000  1.0 2.4380927493
Zr  Zr63  1  0.96987000  0.17152000  0.45115000  1.0 2.4322869302
Zr  Zr64  1  0.96995000  0.16076000  0.39959000  1.0 2.4380927493
Zr  Zr65  1  0.54885000  0.72037000  0.51872000  1.0 2.4322869302
Zr  Zr66  1  0.60041000  0.76117000  0.57036000  1.0 2.4380927493
Zr  Zr67  1  0.45115000  0.96987000  0.17152000  1.0 2.4322869302
Zr  Zr68  1  0.39959000  0.96995000  0.16076000  1.0 2.4380927493
Zr  Zr69  1  0.20165000  0.03013000  0.48128000  1.0 2.4322869302
Zr  Zr70  1  0.19081000  0.03005000  0.42964000  1.0 2.4380927493
Zr  Zr71  1  0.79835000  0.27963000  0.82848000  1.0 2.4322869302
Zr  Zr72  1  0.80919000  0.23883000  0.83924000  1.0 2.4380927493
Zr  Zr73  1  0.72037000  0.20165000  0.17152000  1.0 2.4322869302
Zr  Zr74  1  0.76117000  0.19081000  0.16076000  1.0 2.4380927493
Zr  Zr75  1  0.96987000  0.79835000  0.51872000  1.0 2.4322869302
Zr  Zr76  1  0.96995000  0.80919000  0.57036000  1.0 2.4380927493
Zr  Zr77  1  0.03013000  0.54885000  0.82848000  1.0 2.4322869302
Zr  Zr78  1  0.03005000  0.60041000  0.83924000  1.0 2.4380927493
Zr  Zr79  1  0.27963000  0.45115000  0.48128000  1.0 2.4322869302
Zr  Zr80  1  0.23883000  0.39959000  0.42964000  1.0 2.4380927493
Zr  Zr81  1  0.79835000  0.51872000  0.96987000  1.0 2.4322869302
Zr  Zr82  1  0.80919000  0.57036000  0.96995000  1.0 2.4322869302
Zr  Zr83  1  0.20165000  0.17152000  0.72037000  1.0 2.4322869302
Zr  Zr84  1  0.19081000  0.16076000  0.76117000  1.0 2.4380927493
Zr  Zr85  1  0.45115000  0.48128000  0.27963000  1.0 2.4322869302
Zr  Zr86  1  0.39959000  0.42964000  0.23883000  1.0 2.4380927493
Zr  Zr87  1  0.54885000  0.82848000  0.03013000  1.0 2.4322869302
Zr  Zr88  1  0.60041000  0.83924000  0.03005000  1.0 2.4322869302
Zr  Zr89  1  0.48128000  0.27963000  0.45115000  1.0 2.4322869302
Zr  Zr90  1  0.42964000  0.23883000  0.39959000  1.0 2.4380927493
Zr  Zr91  1  0.82848000  0.03013000  0.54885000  1.0 2.4322869302
Zr  Zr92  1  0.83924000  0.03005000  0.60041000  1.0 2.4380927493
Zr  Zr93  1  0.51872000  0.96987000  0.79835000  1.0 2.4322869302
Zr  Zr94  1  0.57036000  0.96995000  0.80919000  1.0 2.4380927493
Zr  Zr95  1  0.17152000  0.72037000  0.20165000  1.0 2.4322869302
Zr  Zr96  1  0.16076000  0.76117000  0.19081000  1.0 2.4380927493
Zr  Zr97  1  0.21658000  0.21658000  0.77134000  1.0 2.3238988719
Zr  Zr98  1  0.14566000  0.14566000  0.71000000  1.0 2.3268224574
Zr  Zr99  1  0.55476000  0.78342000  0.00000000  1.0 2.3238988719
Zr  Zr100  1  0.56434000  0.85434000  0.00000000  1.0 2.3238988719
Zr  Zr101  1  0.78342000  0.55476000  0.00000000  1.0 2.3238988719
Zr  Zr102  1  0.85434000  0.56434000  0.00000000  1.0 2.3268224574
Zr  Zr103  1  0.44524000  0.44524000  0.22866000  1.0 2.3238988719
Zr  Zr104  1  0.43566000  0.43566000  0.29000000  1.0 2.3268224574
Zr  Zr105  1  0.00000000  0.55476000  0.78342000  1.0 2.3238988719
Zr  Zr106  1  0.00000000  0.56434000  0.85434000  1.0 2.3238988719
Zr  Zr107  1  0.77134000  0.21658000  0.21658000  1.0 2.3238988719
Zr  Zr108  1  0.71000000  0.14566000  0.14566000  1.0 2.3268224574
Zr  Zr109  1  0.22866000  0.44524000  0.44524000  1.0 2.3238988719
Zr  Zr110  1  0.29000000  0.43566000  0.43566000  1.0 2.3268224574
Zr  Zr111  1  0.00000000  0.78342000  0.55476000  1.0 2.3238988719
Zr  Zr112  1  0.00000000  0.85434000  0.56434000  1.0 2.3238988719
Zr  Zr113  1  0.44524000  0.22866000  0.44524000  1.0 2.3238988719
Zr  Zr114  1  0.43566000  0.29000000  0.43566000  1.0 2.3268224574
Zr  Zr115  1  0.55476000  0.00000000  0.78342000  1.0 2.3238988719
Zr  Zr116  1  0.56434000  0.00000000  0.85434000  1.0 2.3238988719
Zr  Zr117  1  0.78342000  0.00000000  0.55476000  1.0 2.3238988719
Zr  Zr118  1  0.85434000  0.00000000  0.56434000  1.0 2.3238988719
Zr  Zr119  1  0.21658000  0.77134000  0.21658000  1.0 2.3238988719
Zr  Zr120  1  0.14566000  0.71000000  0.14566000  1.0 2.3268224574
Zr  Zr121  1  0.22866000  0.78342000  0.78342000  1.0 2.3238988719
Zr  Zr122  1  0.29000000  0.85434000  0.85434000  1.0 2.3238988719
Zr  Zr123  1  0.00000000  0.21658000  0.44524000  1.0 2.3238988719
Zr  Zr124  1  0.00000000  0.14566000  0.43566000  1.0 2.3268224574
Zr  Zr125  1  0.00000000  0.44524000  0.21658000  1.0 2.3238988719
Zr  Zr126  1  0.00000000  0.43566000  0.14566000  1.0 2.3238988719
Zr  Zr127  1  0.77134000  0.55476000  0.55476000  1.0 2.3268224574
Zr  Zr128  1  0.71000000  0.56434000  0.56434000  1.0 2.3268224574
Zr  Zr129  1  0.21658000  0.44524000  0.00000000  1.0 2.3268224574
Zr  Zr130  1  0.14566000  0.43566000  0.00000000  1.0 2.3268224574
Zr  Zr131  1  0.78342000  0.78342000  0.22866000  1.0 2.3238988719
Zr  Zr132  1  0.85434000  0.85434000  0.29000000  1.0 2.3238988719
Zr  Zr133  1  0.55476000  0.55476000  0.77134000  1.0 2.3238988719
Zr  Zr134  1  0.56434000  0.56434000  0.71000000  1.0 2.3238988719
Zr  Zr135  1  0.44524000  0.21658000  0.00000000  1.0 2.3238988719
Zr  Zr136  1  0.43566000  0.14566000  0.00000000  1.0 2.3268224574
Zr  Zr137  1  0.55476000  0.77134000  0.55476000  1.0 2.3268224574
Zr  Zr138  1  0.56434000  0.71000000  0.56434000  1.0 2.3238988719
Zr  Zr139  1  0.21658000  0.00000000  0.44524000  1.0 2.3238988719
Zr  Zr140  1  0.14566000  0.00000000  0.43566000  1.0 2.3268224574
Zr  Zr141  1  0.44524000  0.00000000  0.21658000  1.0 2.3238988719
Zr  Zr142  1  0.43566000  0.00000000  0.14566000  1.0 2.3268224574
Zr  Zr143  1  0.78342000  0.22866000  0.78342000  1.0 2.3238988719
Zr  Zr144  1  0.85434000  0.29000000  0.85434000  1.0 2.3238988719
Zr  Zr145  1  0.50000000  0.27968000  0.77968000  1.0 2.3370225854
Zr  Zr146  1  0.50000000  0.72032000  0.22032000  1.0 2.3370225854
Zr  Zr147  1  0.22032000  0.50000000  0.72032000  1.0 2.3370225854
Zr  Zr148  1  0.77968000  0.50000000  0.27968000  1.0 2.3370225854
Zr  Zr149  1  0.72032000  0.22032000  0.50000000  1.0 2.3370225854
Zr  Zr150  1  0.27968000  0.77968000  0.50000000  1.0 2.3370225854
Zr  Zr151  1  0.22032000  0.72032000  0.50000000  1.0 2.3370225854
Zr  Zr152  1  0.77968000  0.27968000  0.50000000  1.0 2.3370225854
Zr  Zr153  1  0.27968000  0.50000000  0.77968000  1.0 2.3370225854
Zr  Zr154  1  0.72032000  0.50000000  0.22032000  1.0 2.3370225854
Zr  Zr155  1  0.50000000  0.77968000  0.27968000  1.0 2.3370225854
Zr  Zr156  1  0.50000000  0.22032000  0.72032000  1.0 2.3370225854
Zr  Zr157  1  0.54246000  0.27123000  0.77123000  1.0 2.4380927493
Zr  Zr158  1  0.50000000  0.72877000  0.27123000  1.0 2.4380927493
Zr  Zr159  1  0.45754000  0.22877000  0.72877000  1.0 2.4380927493
Zr  Zr160  1  0.50000000  0.77123000  0.22877000  1.0 2.4380927493
Zr  Zr161  1  0.27123000  0.50000000  0.72877000  1.0 2.4380927493
Zr  Zr162  1  0.77123000  0.54246000  0.27123000  1.0 2.4380927493
Zr  Zr163  1  0.22877000  0.50000000  0.77123000  1.0 2.4380927493
Zr  Zr164  1  0.72877000  0.45754000  0.22877000  1.0 2.4380927493
Zr  Zr165  1  0.77123000  0.22877000  0.50000000  1.0 2.4380927493
Zr  Zr166  1  0.22877000  0.72877000  0.45754000  1.0 2.4380927493
Zr  Zr167  1  0.72877000  0.27123000  0.50000000  1.0 2.4380927493
Zr  Zr168  1  0.27123000  0.77123000  0.54246000  1.0 2.4380927493
Zr  Zr169  1  0.45754000  0.72877000  0.22877000  1.0 2.4380927493
Zr  Zr170  1  0.50000000  0.27123000  0.72877000  1.0 2.4380927493
Zr  Zr171  1  0.54246000  0.77123000  0.27123000  1.0 2.4380927493
Zr  Zr172  1  0.50000000  0.22877000  0.77123000  1.0 2.4380927493
Zr  Zr173  1  0.72877000  0.50000000  0.27123000  1.0 2.4380927493
Zr  Zr174  1  0.22877000  0.45754000  0.72877000  1.0 2.4380927493
Zr  Zr175  1  0.77123000  0.50000000  0.22877000  1.0 2.4380927493
Zr  Zr176  1  0.27123000  0.54246000  0.77123000  1.0 2.4380927493
Zr  Zr177  1  0.22877000  0.77123000  0.50000000  1.0 2.4380927493
Zr  Zr178  1  0.77123000  0.27123000  0.54246000  1.0 2.4380927493
Zr  Zr179  1  0.27123000  0.72877000  0.50000000  1.0 2.4380927493
Zr  Zr180  1  0.72877000  0.22877000  0.45754000  1.0 2.4380927493
H  H1  1  0.27580000  0.20250000  0.73690000  1.0 0.1019897651
H  H2  1  0.31420000  0.21830000  0.74950000  1.0 0.1197081902
H  H3  1  0.32710000  0.26400000  0.80990000  1.0 0.1103984632
H  H4  1  0.28830000  0.24750000  0.79660000  1.0 0.1197081902
H  H5  1  0.37590000  0.23550000  0.75140000  1.0 0.1197081902
H  H6  1  0.40300000  0.23370000  0.74150000  1.0 0.1103984632
H  H7  1  0.45240000  0.28740000  0.80300000  1.0 0.1197081902
H  H8  1  0.42570000  0.28830000  0.81400000  1.0 0.1019897651
H  H9  1  0.28010000  0.23880000  0.82630000  1.0 0.1280803836
H  H10  1  0.31620000  0.24840000  0.85380000  1.0 0.1019897651
H  H11  1  0.28740000  0.18860000  0.85120000  1.0 0.1197081902
H  H12  1  0.25330000  0.17860000  0.82230000  1.0 0.1103984632
H  H13  1  0.09340000  0.15850000  0.75150000  1.0 0.1103984632
H  H14  1  0.05520000  0.14540000  0.74540000  1.0 0.1019897651
H  H15  1  0.03580000  0.09460000  0.68360000  1.0 0.1197081902
H  H16  1  0.07320000  0.10950000  0.69150000  1.0 0.1280803836
H  H17  1  0.34830000  0.25250000  0.87380000  1.0 0.2696112048
H  H18  1  0.02220000  0.12820000  0.73720000  1.0 0.2608283804
H  H19  1  0.05350000  0.09290000  0.56440000  1.0 0.242918622
H  H20  1  0.39920000  0.27870000  0.82410000  1.0 0.2608283804
H  H21  1  0.53440000  0.79750000  0.07330000  1.0 0.1019897651
H  H22  1  0.53120000  0.78170000  0.09590000  1.0 0.1197081902
H  H23  1  0.54590000  0.73600000  0.06310000  1.0 0.1103984632
H  H24  1  0.54910000  0.75250000  0.04080000  1.0 0.1197081902
H  H25  1  0.51590000  0.76450000  0.14040000  1.0 0.1197081902
H  H26  1  0.50780000  0.76630000  0.16930000  1.0 0.1103984632
H  H27  1  0.51560000  0.71260000  0.16500000  1.0 0.1197081902
H  H28  1  0.52570000  0.71170000  0.13740000  1.0 0.1019897651
H  H29  1  0.58750000  0.76120000  0.04130000  1.0 0.1280803836
H  H30  1  0.60540000  0.75160000  0.06780000  1.0 0.1019897651
H  H31  1  0.66260000  0.81140000  0.09880000  1.0 0.1197081902
H  H32  1  0.64370000  0.82140000  0.07470000  1.0 0.1103984632
H  H33  1  0.59300000  0.84150000  0.93490000  1.0 0.1103984632
H  H34  1  0.60000000  0.85460000  0.90980000  1.0 0.1019897651
H  H35  1  0.58900000  0.90540000  0.94120000  1.0 0.1197081902
H  H36  1  0.58200000  0.89050000  0.96370000  1.0 0.1280803836
H  H37  1  0.62130000  0.74750000  0.09580000  1.0 0.2696112048
H  H38  1  0.60900000  0.87180000  0.89400000  1.0 0.2608283804
H  H39  1  0.47150000  0.90710000  0.96060000  1.0 0.242918622
H  H40  1  0.54540000  0.72130000  0.12050000  1.0 0.2608283804
H  H41  1  0.72420000  0.46110000  0.92670000  1.0 0.1019897651
H  H42  1  0.68580000  0.43530000  0.90410000  1.0 0.1197081902
H  H43  1  0.67290000  0.48280000  0.93690000  1.0 0.1103984632
H  H44  1  0.71170000  0.50830000  0.95920000  1.0 0.1197081902
H  H45  1  0.62410000  0.37550000  0.85960000  1.0 0.1197081902
H  H46  1  0.59700000  0.33850000  0.83070000  1.0 0.1019897651
H  H47  1  0.54760000  0.35060000  0.83500000  1.0 0.1197081902
H  H48  1  0.57430000  0.38830000  0.86260000  1.0 0.1019897651
H  H49  1  0.71990000  0.54620000  0.95870000  1.0 0.1280803836
H  H50  1  0.68380000  0.53760000  0.93220000  1.0 0.1019897651
H  H51  1  0.71260000  0.56380000  0.90120000  1.0 0.1197081902
H  H52  1  0.74670000  0.56900000  0.92530000  1.0 0.1103984632
H  H53  1  0.90660000  0.65810000  0.06510000  1.0 0.1103984632
H  H54  1  0.94480000  0.69020000  0.09020000  1.0 0.1019897651
H  H55  1  0.96420000  0.64780000  0.05880000  1.0 0.1197081902
H  H56  1  0.92680000  0.61830000  0.03630000  1.0 0.1280803836
H  H57  1  0.65170000  0.52550000  0.90420000  1.0 0.2696112048
H  H58  1  0.97780000  0.71500000  0.10600000  1.0 0.2608283804
H  H59  1  0.94650000  0.51090000  0.03940000  1.0 0.242918622
H  H60  1  0.60080000  0.42490000  0.87950000  1.0 0.2608283804
H  H61  1  0.46560000  0.53890000  0.26310000  1.0 0.1019897651
H  H62  1  0.46880000  0.56470000  0.25050000  1.0 0.1197081902
H  H63  1  0.45410000  0.51720000  0.19010000  1.0 0.1103984632
H  H64  1  0.45090000  0.49170000  0.20340000  1.0 0.1197081902
H  H65  1  0.48410000  0.62450000  0.24860000  1.0 0.1197081902
H  H66  1  0.49220000  0.66150000  0.25850000  1.0 0.1103984632
H  H67  1  0.48440000  0.64940000  0.19700000  1.0 0.1197081902
H  H68  1  0.47430000  0.61170000  0.18600000  1.0 0.1019897651
H  H69  1  0.41250000  0.45380000  0.17370000  1.0 0.1280803836
H  H70  1  0.39460000  0.46240000  0.14620000  1.0 0.1019897651
H  H71  1  0.33740000  0.43620000  0.14880000  1.0 0.1197081902
H  H72  1  0.35630000  0.43100000  0.17770000  1.0 0.1103984632
H  H73  1  0.40700000  0.34190000  0.24850000  1.0 0.1103984632
H  H74  1  0.40000000  0.30980000  0.25460000  1.0 0.1019897651
H  H75  1  0.41100000  0.35220000  0.31640000  1.0 0.1197081902
H  H76  1  0.41800000  0.38170000  0.30850000  1.0 0.1280803836
H  H77  1  0.37870000  0.47450000  0.12620000  1.0 0.2696112048
H  H78  1  0.39100000  0.28500000  0.26280000  1.0 0.2608283804
H  H79  1  0.52850000  0.48910000  0.43560000  1.0 0.242918622
H  H80  1  0.45460000  0.57510000  0.17590000  1.0 0.2608283804
H  H81  1  0.07330000  0.53440000  0.79750000  1.0 0.1019897651
H  H82  1  0.09590000  0.53120000  0.78170000  1.0 0.1197081902
H  H83  1  0.06310000  0.54590000  0.73600000  1.0 0.1103984632
H  H84  1  0.04080000  0.54910000  0.75250000  1.0 0.1197081902
H  H85  1  0.14040000  0.51590000  0.76450000  1.0 0.1197081902
H  H86  1  0.16930000  0.50780000  0.76630000  1.0 0.1103984632
H  H87  1  0.16500000  0.51560000  0.71260000  1.0 0.1197081902
H  H88  1  0.13740000  0.52570000  0.71170000  1.0 0.1019897651
H  H89  1  0.04130000  0.58750000  0.76120000  1.0 0.1280803836
H  H90  1  0.06780000  0.60540000  0.75160000  1.0 0.1019897651
H  H91  1  0.09880000  0.66260000  0.81140000  1.0 0.1197081902
H  H92  1  0.07470000  0.64370000  0.82140000  1.0 0.1103984632
H  H93  1  0.93490000  0.59300000  0.84150000  1.0 0.1103984632
H  H94  1  0.90980000  0.60000000  0.85460000  1.0 0.1019897651
H  H95  1  0.94120000  0.58900000  0.90540000  1.0 0.1197081902
H  H96  1  0.96370000  0.58200000  0.89050000  1.0 0.1280803836
H  H97  1  0.09580000  0.62130000  0.74750000  1.0 0.2696112048
H  H98  1  0.89400000  0.60900000  0.87180000  1.0 0.2608283804
H  H99  1  0.96060000  0.47150000  0.90710000  1.0 0.242918622
H  H100  1  0.12050000  0.54540000  0.72130000  1.0 0.2608283804
H  H101  1  0.73690000  0.27580000  0.20250000  1.0 0.1019897651
H  H102  1  0.74950000  0.31420000  0.21830000  1.0 0.1197081902
H  H103  1  0.80990000  0.32710000  0.26400000  1.0 0.1103984632
H  H104  1  0.79660000  0.28830000  0.24750000  1.0 0.1197081902
H  H105  1  0.75140000  0.37590000  0.23550000  1.0 0.1197081902
H  H106  1  0.74150000  0.40300000  0.23370000  1.0 0.1103984632
H  H107  1  0.80300000  0.45240000  0.28740000  1.0 0.1197081902
H  H108  1  0.81400000  0.42570000  0.28830000  1.0 0.1019897651
H  H109  1  0.82630000  0.28010000  0.23880000  1.0 0.1280803836
H  H110  1  0.85380000  0.31620000  0.24840000  1.0 0.1019897651
H  H111  1  0.85120000  0.28740000  0.18860000  1.0 0.1197081902
H  H112  1  0.82230000  0.25330000  0.17860000  1.0 0.1103984632
H  H113  1  0.75150000  0.09340000  0.15850000  1.0 0.1103984632
H  H114  1  0.74540000  0.05520000  0.14540000  1.0 0.1019897651
H  H115  1  0.68360000  0.03580000  0.09460000  1.0 0.1197081902
H  H116  1  0.69150000  0.07320000  0.10950000  1.0 0.1280803836
H  H117  1  0.87380000  0.34830000  0.25250000  1.0 0.2696112048
H  H118  1  0.73720000  0.02220000  0.12820000  1.0 0.2608283804
H  H119  1  0.56440000  0.05350000  0.09290000  1.0 0.242918622
H  H120  1  0.82410000  0.39920000  0.27870000  1.0 0.2608283804
H  H121  1  0.26310000  0.46560000  0.53890000  1.0 0.1019897651
H  H122  1  0.25050000  0.46880000  0.56470000  1.0 0.1197081902
H  H123  1  0.19010000  0.45410000  0.51720000  1.0 0.1103984632
H  H124  1  0.20340000  0.45090000  0.49170000  1.0 0.1197081902
H  H125  1  0.24860000  0.48410000  0.62450000  1.0 0.1197081902
H  H126  1  0.25850000  0.49220000  0.66150000  1.0 0.1103984632
H  H127  1  0.19700000  0.48440000  0.64940000  1.0 0.1197081902
H  H128  1  0.18600000  0.47430000  0.61170000  1.0 0.1019897651
H  H129  1  0.17370000  0.41250000  0.45380000  1.0 0.1280803836
H  H130  1  0.14620000  0.39460000  0.46240000  1.0 0.1019897651
H  H131  1  0.14880000  0.33740000  0.43620000  1.0 0.1197081902
H  H132  1  0.17770000  0.35630000  0.43100000  1.0 0.1103984632
H  H133  1  0.24850000  0.40700000  0.34190000  1.0 0.1103984632
H  H134  1  0.25460000  0.40000000  0.30980000  1.0 0.1019897651
H  H135  1  0.31640000  0.41100000  0.35220000  1.0 0.1197081902
H  H136  1  0.30850000  0.41800000  0.38170000  1.0 0.1280803836
H  H137  1  0.12620000  0.37870000  0.47450000  1.0 0.2696112048
H  H138  1  0.26280000  0.39100000  0.28500000  1.0 0.2608283804
H  H139  1  0.43560000  0.52850000  0.48910000  1.0 0.242918622
H  H140  1  0.17590000  0.45460000  0.57510000  1.0 0.2608283804
H  H141  1  0.92670000  0.72420000  0.46110000  1.0 0.1019897651
H  H142  1  0.90410000  0.68580000  0.43530000  1.0 0.1197081902
H  H143  1  0.93690000  0.67290000  0.48280000  1.0 0.1103984632
H  H144  1  0.95920000  0.71170000  0.50830000  1.0 0.1197081902
H  H145  1  0.85960000  0.62410000  0.37550000  1.0 0.1197081902
H  H146  1  0.83070000  0.59700000  0.33850000  1.0 0.1103984632
H  H147  1  0.83500000  0.54760000  0.35060000  1.0 0.1197081902
H  H148  1  0.86260000  0.57430000  0.38830000  1.0 0.1019897651
H  H149  1  0.95870000  0.71990000  0.54620000  1.0 0.1280803836
H  H150  1  0.93220000  0.68380000  0.53760000  1.0 0.1019897651
H  H151  1  0.90120000  0.71260000  0.56380000  1.0 0.1197081902
H  H152  1  0.92530000  0.74670000  0.56900000  1.0 0.1103984632
H  H153  1  0.06510000  0.90660000  0.65810000  1.0 0.1103984632
H  H154  1  0.09020000  0.94480000  0.69020000  1.0 0.1019897651
H  H155  1  0.05880000  0.96420000  0.64780000  1.0 0.1197081902
H  H156  1  0.03630000  0.92680000  0.61830000  1.0 0.1280803836
H  H157  1  0.90420000  0.65170000  0.52550000  1.0 0.2696112048
H  H158  1  0.10600000  0.97780000  0.71500000  1.0 0.2608283804
H  H159  1  0.03940000  0.94650000  0.51090000  1.0 0.242918622
H  H160  1  0.87950000  0.60080000  0.42490000  1.0 0.2608283804
H  H161  1  0.53890000  0.26310000  0.46560000  1.0 0.1019897651
H  H162  1  0.56470000  0.25050000  0.46880000  1.0 0.1197081902
H  H163  1  0.51720000  0.19010000  0.45410000  1.0 0.1103984632
H  H164  1  0.49170000  0.20340000  0.45090000  1.0 0.1197081902
H  H165  1  0.62450000  0.24860000  0.48410000  1.0 0.1197081902
H  H166  1  0.66150000  0.25850000  0.49220000  1.0 0.1103984632
H  H167  1  0.64940000  0.19700000  0.48440000  1.0 0.1197081902
H  H168  1  0.61170000  0.18600000  0.47430000  1.0 0.1019897651
H  H169  1  0.45380000  0.17370000  0.41250000  1.0 0.1280803836
H  H170  1  0.46240000  0.14620000  0.39460000  1.0 0.1019897651
H  H171  1  0.43620000  0.14880000  0.33740000  1.0 0.1197081902
H  H172  1  0.43100000  0.17770000  0.35630000  1.0 0.1103984632
H  H173  1  0.34190000  0.24850000  0.40700000  1.0 0.1103984632
H  H174  1  0.30980000  0.25460000  0.40000000  1.0 0.1019897651
H  H175  1  0.35220000  0.31640000  0.41100000  1.0 0.1197081902
H  H176  1  0.38170000  0.30850000  0.41800000  1.0 0.1280803836
H  H177  1  0.47450000  0.12620000  0.37870000  1.0 0.2696112048
H  H178  1  0.28500000  0.26280000  0.39100000  1.0 0.2608283804
H  H179  1  0.48910000  0.43560000  0.52850000  1.0 0.242918622
H  H180  1  0.57510000  0.17590000  0.45460000  1.0 0.2608283804
H  H181  1  0.46110000  0.92670000  0.72420000  1.0 0.1019897651
H  H182  1  0.43530000  0.90410000  0.68580000  1.0 0.1197081902
H  H183  1  0.48280000  0.93690000  0.67290000  1.0 0.1103984632
H  H184  1  0.50830000  0.95920000  0.71170000  1.0 0.1197081902
H  H185  1  0.37550000  0.85960000  0.62410000  1.0 0.1197081902
H  H186  1  0.33850000  0.83070000  0.59700000  1.0 0.1103984632
H  H187  1  0.35060000  0.83500000  0.54760000  1.0 0.1197081902
H  H188  1  0.38830000  0.86260000  0.57430000  1.0 0.1019897651
H  H189  1  0.54620000  0.95870000  0.71990000  1.0 0.1280803836
H  H190  1  0.53760000  0.93220000  0.68380000  1.0 0.1019897651
H  H191  1  0.56380000  0.90120000  0.71260000  1.0 0.1197081902
H  H192  1  0.56900000  0.92530000  0.74670000  1.0 0.1103984632
H  H193  1  0.65810000  0.06510000  0.90660000  1.0 0.1103984632
H  H194  1  0.69020000  0.09020000  0.94480000  1.0 0.1019897651
H  H195  1  0.64780000  0.05880000  0.96420000  1.0 0.1197081902
H  H196  1  0.61830000  0.03630000  0.92680000  1.0 0.1280803836
H  H197  1  0.52550000  0.90420000  0.65170000  1.0 0.2696112048
H  H198  1  0.71500000  0.10600000  0.97780000  1.0 0.2608283804
H  H199  1  0.51090000  0.03940000  0.94650000  1.0 0.242918622
H  H200  1  0.42490000  0.87950000  0.60080000  1.0 0.2608283804
H  H201  1  0.79750000  0.07330000  0.53440000  1.0 0.1019897651
H  H202  1  0.78170000  0.09590000  0.53120000  1.0 0.1197081902
H  H203  1  0.73600000  0.06310000  0.54590000  1.0 0.1103984632
H  H204  1  0.75250000  0.04080000  0.54910000  1.0 0.1197081902
H  H205  1  0.76450000  0.14040000  0.51590000  1.0 0.1197081902
H  H206  1  0.76630000  0.16930000  0.50780000  1.0 0.1103984632
H  H207  1  0.71260000  0.16500000  0.51560000  1.0 0.1197081902
H  H208  1  0.71170000  0.13740000  0.52570000  1.0 0.1019897651
H  H209  1  0.76120000  0.04130000  0.58750000  1.0 0.1280803836
H  H210  1  0.75160000  0.06780000  0.60540000  1.0 0.1019897651
H  H211  1  0.81140000  0.09880000  0.66260000  1.0 0.1197081902
H  H212  1  0.82140000  0.07470000  0.64370000  1.0 0.1103984632
H  H213  1  0.84150000  0.93490000  0.59300000  1.0 0.1103984632
H  H214  1  0.85460000  0.90980000  0.60000000  1.0 0.1019897651
H  H215  1  0.90540000  0.94120000  0.58900000  1.0 0.1197081902
H  H216  1  0.89050000  0.96370000  0.58200000  1.0 0.1280803836
H  H217  1  0.74750000  0.09580000  0.62130000  1.0 0.2696112048
H  H218  1  0.87180000  0.89400000  0.60900000  1.0 0.2608283804
H  H219  1  0.90710000  0.96060000  0.47150000  1.0 0.242918622
H  H220  1  0.72130000  0.12050000  0.54540000  1.0 0.2608283804
H  H221  1  0.20250000  0.73690000  0.27580000  1.0 0.1019897651
H  H222  1  0.21830000  0.74950000  0.31420000  1.0 0.1197081902
H  H223  1  0.26400000  0.80990000  0.32710000  1.0 0.1103984632
H  H224  1  0.24750000  0.79660000  0.28830000  1.0 0.1197081902
H  H225  1  0.23550000  0.75140000  0.37590000  1.0 0.1197081902
H  H226  1  0.23370000  0.74150000  0.40300000  1.0 0.1103984632
H  H227  1  0.28740000  0.80300000  0.45240000  1.0 0.1197081902
H  H228  1  0.28830000  0.81400000  0.42570000  1.0 0.1019897651
H  H229  1  0.23880000  0.82630000  0.28010000  1.0 0.1280803836
H  H230  1  0.24840000  0.85380000  0.31620000  1.0 0.1019897651
H  H231  1  0.18860000  0.85120000  0.28740000  1.0 0.1197081902
H  H232  1  0.17860000  0.82230000  0.25330000  1.0 0.1103984632
H  H233  1  0.15850000  0.75150000  0.09340000  1.0 0.1103984632
H  H234  1  0.14540000  0.74540000  0.05520000  1.0 0.1019897651
H  H235  1  0.09460000  0.68360000  0.03580000  1.0 0.1197081902
H  H236  1  0.10950000  0.69150000  0.07320000  1.0 0.1280803836
H  H237  1  0.25250000  0.87380000  0.34830000  1.0 0.2696112048
H  H238  1  0.12820000  0.73720000  0.02220000  1.0 0.2608283804
H  H239  1  0.09290000  0.56440000  0.05350000  1.0 0.242918622
H  H240  1  0.27870000  0.82410000  0.39920000  1.0 0.2608283804
H  H241  1  0.26310000  0.79750000  0.72420000  1.0 0.1019897651
H  H242  1  0.25050000  0.78170000  0.68580000  1.0 0.1197081902
H  H243  1  0.19010000  0.73600000  0.67290000  1.0 0.1103984632
H  H244  1  0.20340000  0.75250000  0.71170000  1.0 0.1197081902
H  H245  1  0.24860000  0.76450000  0.62410000  1.0 0.1197081902
H  H246  1  0.25850000  0.76630000  0.59700000  1.0 0.1103984632
H  H247  1  0.19700000  0.71260000  0.54760000  1.0 0.1197081902
H  H248  1  0.18600000  0.71170000  0.57430000  1.0 0.1019897651
H  H249  1  0.17370000  0.76120000  0.71990000  1.0 0.1280803836
H  H250  1  0.14620000  0.75160000  0.68380000  1.0 0.1019897651
H  H251  1  0.14880000  0.81140000  0.71260000  1.0 0.1197081902
H  H252  1  0.17770000  0.82140000  0.74670000  1.0 0.1103984632
H  H253  1  0.24850000  0.84150000  0.90660000  1.0 0.1103984632
H  H254  1  0.25460000  0.85460000  0.94480000  1.0 0.1019897651
H  H255  1  0.31640000  0.90540000  0.96420000  1.0 0.1197081902
H  H256  1  0.30850000  0.89050000  0.92680000  1.0 0.1280803836
H  H257  1  0.12620000  0.74750000  0.65170000  1.0 0.2696112048
H  H258  1  0.26280000  0.87180000  0.97780000  1.0 0.2608283804
H  H259  1  0.43560000  0.90710000  0.94650000  1.0 0.242918622
H  H260  1  0.17590000  0.72130000  0.60080000  1.0 0.2608283804
H  H261  1  0.92670000  0.20250000  0.46560000  1.0 0.1019897651
H  H262  1  0.90410000  0.21830000  0.46880000  1.0 0.1197081902
H  H263  1  0.93690000  0.26400000  0.45410000  1.0 0.1103984632
H  H264  1  0.95920000  0.24750000  0.45090000  1.0 0.1197081902
H  H265  1  0.85960000  0.23550000  0.48410000  1.0 0.1197081902
H  H266  1  0.83070000  0.23370000  0.49220000  1.0 0.1103984632
H  H267  1  0.83500000  0.28740000  0.48440000  1.0 0.1197081902
H  H268  1  0.86260000  0.28830000  0.47430000  1.0 0.1019897651
H  H269  1  0.95870000  0.23880000  0.41250000  1.0 0.1280803836
H  H270  1  0.93220000  0.24840000  0.39460000  1.0 0.1019897651
H  H271  1  0.90120000  0.18860000  0.33740000  1.0 0.1197081902
H  H272  1  0.92530000  0.17860000  0.35630000  1.0 0.1103984632
H  H273  1  0.06510000  0.15850000  0.40700000  1.0 0.1103984632
H  H274  1  0.09020000  0.14540000  0.40000000  1.0 0.1019897651
H  H275  1  0.05880000  0.09460000  0.41100000  1.0 0.1197081902
H  H276  1  0.03630000  0.10950000  0.41800000  1.0 0.1280803836
H  H277  1  0.90420000  0.25250000  0.37870000  1.0 0.2696112048
H  H278  1  0.10600000  0.12820000  0.39100000  1.0 0.2608283804
H  H279  1  0.03940000  0.09290000  0.52850000  1.0 0.242918622
H  H280  1  0.87950000  0.27870000  0.45460000  1.0 0.2608283804
H  H281  1  0.07330000  0.53890000  0.27580000  1.0 0.1019897651
H  H282  1  0.09590000  0.56470000  0.31420000  1.0 0.1197081902
H  H283  1  0.06310000  0.51720000  0.32710000  1.0 0.1103984632
H  H284  1  0.04080000  0.49170000  0.28830000  1.0 0.1197081902
H  H285  1  0.14040000  0.62450000  0.37590000  1.0 0.1197081902
H  H286  1  0.16930000  0.66150000  0.40300000  1.0 0.1103984632
H  H287  1  0.16500000  0.64940000  0.45240000  1.0 0.1197081902
H  H288  1  0.13740000  0.61170000  0.42570000  1.0 0.1019897651
H  H289  1  0.04130000  0.45380000  0.28010000  1.0 0.1280803836
H  H290  1  0.06780000  0.46240000  0.31620000  1.0 0.1019897651
H  H291  1  0.09880000  0.43620000  0.28740000  1.0 0.1197081902
H  H292  1  0.07470000  0.43100000  0.25330000  1.0 0.1103984632
H  H293  1  0.93490000  0.34190000  0.09340000  1.0 0.1103984632
H  H294  1  0.90980000  0.30980000  0.05520000  1.0 0.1019897651
H  H295  1  0.94120000  0.35220000  0.03580000  1.0 0.1197081902
H  H296  1  0.96370000  0.38170000  0.07320000  1.0 0.1280803836
H  H297  1  0.09580000  0.47450000  0.34830000  1.0 0.2696112048
H  H298  1  0.89400000  0.28500000  0.02220000  1.0 0.2608283804
H  H299  1  0.96060000  0.48910000  0.05350000  1.0 0.242918622
H  H300  1  0.12050000  0.57510000  0.39920000  1.0 0.2608283804
H  H301  1  0.73690000  0.46110000  0.53440000  1.0 0.1019897651
H  H302  1  0.74950000  0.43530000  0.53120000  1.0 0.1197081902
H  H303  1  0.80990000  0.48280000  0.54590000  1.0 0.1103984632
H  H304  1  0.79660000  0.50830000  0.54910000  1.0 0.1197081902
H  H305  1  0.75140000  0.37550000  0.51590000  1.0 0.1197081902
H  H306  1  0.74150000  0.33850000  0.50780000  1.0 0.1103984632
H  H307  1  0.80300000  0.35060000  0.51560000  1.0 0.1197081902
H  H308  1  0.81400000  0.38830000  0.52570000  1.0 0.1019897651
H  H309  1  0.82630000  0.54620000  0.58750000  1.0 0.1280803836
H  H310  1  0.85380000  0.53760000  0.60540000  1.0 0.1019897651
H  H311  1  0.85120000  0.56380000  0.66260000  1.0 0.1197081902
H  H312  1  0.82230000  0.56900000  0.64370000  1.0 0.1103984632
H  H313  1  0.75150000  0.65810000  0.59300000  1.0 0.1103984632
H  H314  1  0.74540000  0.69020000  0.60000000  1.0 0.1019897651
H  H315  1  0.68360000  0.64780000  0.58900000  1.0 0.1197081902
H  H316  1  0.69150000  0.61830000  0.58200000  1.0 0.1280803836
H  H317  1  0.87380000  0.52550000  0.62130000  1.0 0.2696112048
H  H318  1  0.73720000  0.71500000  0.60900000  1.0 0.2608283804
H  H319  1  0.56440000  0.51090000  0.47150000  1.0 0.242918622
H  H320  1  0.82410000  0.42490000  0.54540000  1.0 0.2608283804
H  H321  1  0.20250000  0.46560000  0.92670000  1.0 0.1019897651
H  H322  1  0.21830000  0.46880000  0.90410000  1.0 0.1197081902
H  H323  1  0.26400000  0.45410000  0.93690000  1.0 0.1103984632
H  H324  1  0.24750000  0.45090000  0.95920000  1.0 0.1197081902
H  H325  1  0.23550000  0.48410000  0.85960000  1.0 0.1197081902
H  H326  1  0.23370000  0.49220000  0.83070000  1.0 0.1103984632
H  H327  1  0.28740000  0.48440000  0.83500000  1.0 0.1197081902
H  H328  1  0.28830000  0.47430000  0.86260000  1.0 0.1019897651
H  H329  1  0.23880000  0.41250000  0.95870000  1.0 0.1280803836
H  H330  1  0.24840000  0.39460000  0.93220000  1.0 0.1019897651
H  H331  1  0.18860000  0.33740000  0.90120000  1.0 0.1197081902
H  H332  1  0.17860000  0.35630000  0.92530000  1.0 0.1103984632
H  H333  1  0.15850000  0.40700000  0.06510000  1.0 0.1103984632
H  H334  1  0.14540000  0.40000000  0.09020000  1.0 0.1019897651
H  H335  1  0.09460000  0.41100000  0.05880000  1.0 0.1197081902
H  H336  1  0.10950000  0.41800000  0.03630000  1.0 0.1280803836
H  H337  1  0.25250000  0.37870000  0.90420000  1.0 0.2696112048
H  H338  1  0.12820000  0.39100000  0.10600000  1.0 0.2608283804
H  H339  1  0.09290000  0.52850000  0.03940000  1.0 0.242918622
H  H340  1  0.27870000  0.45460000  0.87950000  1.0 0.2608283804
H  H341  1  0.79750000  0.72420000  0.26310000  1.0 0.1019897651
H  H342  1  0.78170000  0.68580000  0.25050000  1.0 0.1197081902
H  H343  1  0.73600000  0.67290000  0.19010000  1.0 0.1103984632
H  H344  1  0.75250000  0.71170000  0.20340000  1.0 0.1197081902
H  H345  1  0.76450000  0.62410000  0.24860000  1.0 0.1197081902
H  H346  1  0.76630000  0.59700000  0.25850000  1.0 0.1103984632
H  H347  1  0.71260000  0.54760000  0.19700000  1.0 0.1197081902
H  H348  1  0.71170000  0.57430000  0.18600000  1.0 0.1019897651
H  H349  1  0.76120000  0.71990000  0.17370000  1.0 0.1280803836
H  H350  1  0.75160000  0.68380000  0.14620000  1.0 0.1019897651
H  H351  1  0.81140000  0.71260000  0.14880000  1.0 0.1197081902
H  H352  1  0.82140000  0.74670000  0.17770000  1.0 0.1103984632
H  H353  1  0.84150000  0.90660000  0.24850000  1.0 0.1103984632
H  H354  1  0.85460000  0.94480000  0.25460000  1.0 0.1019897651
H  H355  1  0.90540000  0.96420000  0.31640000  1.0 0.1197081902
H  H356  1  0.89050000  0.92680000  0.30850000  1.0 0.1280803836
H  H357  1  0.74750000  0.65170000  0.12620000  1.0 0.2696112048
H  H358  1  0.87180000  0.97780000  0.26280000  1.0 0.2608283804
H  H359  1  0.90710000  0.94650000  0.43560000  1.0 0.242918622
H  H360  1  0.72130000  0.60080000  0.17590000  1.0 0.2608283804
H  H361  1  0.46110000  0.53440000  0.73690000  1.0 0.1019897651
H  H362  1  0.43530000  0.53120000  0.74950000  1.0 0.1197081902
H  H363  1  0.48280000  0.54590000  0.80990000  1.0 0.1103984632
H  H364  1  0.50830000  0.54910000  0.79660000  1.0 0.1197081902
H  H365  1  0.37550000  0.51590000  0.75140000  1.0 0.1197081902
H  H366  1  0.33850000  0.50780000  0.74150000  1.0 0.1103984632
H  H367  1  0.35060000  0.51560000  0.80300000  1.0 0.1197081902
H  H368  1  0.38830000  0.52570000  0.81400000  1.0 0.1019897651
H  H369  1  0.54620000  0.58750000  0.82630000  1.0 0.1280803836
H  H370  1  0.53760000  0.60540000  0.85380000  1.0 0.1019897651
H  H371  1  0.56380000  0.66260000  0.85120000  1.0 0.1197081902
H  H372  1  0.56900000  0.64370000  0.82230000  1.0 0.1103984632
H  H373  1  0.65810000  0.59300000  0.75150000  1.0 0.1103984632
H  H374  1  0.69020000  0.60000000  0.74540000  1.0 0.1019897651
H  H375  1  0.64780000  0.58900000  0.68360000  1.0 0.1197081902
H  H376  1  0.61830000  0.58200000  0.69150000  1.0 0.1280803836
H  H377  1  0.52550000  0.62130000  0.87380000  1.0 0.2696112048
H  H378  1  0.71500000  0.60900000  0.73720000  1.0 0.2608283804
H  H379  1  0.51090000  0.47150000  0.56440000  1.0 0.242918622
H  H380  1  0.42490000  0.54540000  0.82410000  1.0 0.2608283804
H  H381  1  0.53890000  0.27580000  0.07330000  1.0 0.1019897651
H  H382  1  0.56470000  0.31420000  0.09590000  1.0 0.1197081902
H  H383  1  0.51720000  0.32710000  0.06310000  1.0 0.1103984632
H  H384  1  0.49170000  0.28830000  0.04080000  1.0 0.1197081902
H  H385  1  0.62450000  0.37590000  0.14040000  1.0 0.1197081902
H  H386  1  0.66150000  0.40300000  0.16930000  1.0 0.1103984632
H  H387  1  0.64940000  0.45240000  0.16500000  1.0 0.1197081902
H  H388  1  0.61170000  0.42570000  0.13740000  1.0 0.1019897651
H  H389  1  0.45380000  0.28010000  0.04130000  1.0 0.1280803836
H  H390  1  0.46240000  0.31620000  0.06780000  1.0 0.1019897651
H  H391  1  0.43620000  0.28740000  0.09880000  1.0 0.1197081902
H  H392  1  0.43100000  0.25330000  0.07470000  1.0 0.1103984632
H  H393  1  0.34190000  0.09340000  0.93490000  1.0 0.1103984632
H  H394  1  0.30980000  0.05520000  0.90980000  1.0 0.1019897651
H  H395  1  0.35220000  0.03580000  0.94120000  1.0 0.1197081902
H  H396  1  0.38170000  0.07320000  0.96370000  1.0 0.1280803836
H  H397  1  0.47450000  0.34830000  0.09580000  1.0 0.2696112048
H  H398  1  0.28500000  0.02220000  0.89400000  1.0 0.2608283804
H  H399  1  0.48910000  0.05350000  0.96060000  1.0 0.242918622
H  H400  1  0.57510000  0.39920000  0.12050000  1.0 0.2608283804
H  H401  1  0.53440000  0.73690000  0.46110000  1.0 0.1019897651
H  H402  1  0.53120000  0.74950000  0.43530000  1.0 0.1197081902
H  H403  1  0.54590000  0.80990000  0.48280000  1.0 0.1103984632
H  H404  1  0.54910000  0.79660000  0.50830000  1.0 0.1197081902
H  H405  1  0.51590000  0.75140000  0.37550000  1.0 0.1197081902
H  H406  1  0.50780000  0.74150000  0.33850000  1.0 0.1103984632
H  H407  1  0.51560000  0.80300000  0.35060000  1.0 0.1197081902
H  H408  1  0.52570000  0.81400000  0.38830000  1.0 0.1019897651
H  H409  1  0.58750000  0.82630000  0.54620000  1.0 0.1280803836
H  H410  1  0.60540000  0.85380000  0.53760000  1.0 0.1019897651
H  H411  1  0.66260000  0.85120000  0.56380000  1.0 0.1197081902
H  H412  1  0.64370000  0.82230000  0.56900000  1.0 0.1103984632
H  H413  1  0.59300000  0.75150000  0.65810000  1.0 0.1103984632
H  H414  1  0.60000000  0.74540000  0.69020000  1.0 0.1019897651
H  H415  1  0.58900000  0.68360000  0.64780000  1.0 0.1197081902
H  H416  1  0.58200000  0.69150000  0.61830000  1.0 0.1280803836
H  H417  1  0.62130000  0.87380000  0.52550000  1.0 0.2696112048
H  H418  1  0.60900000  0.73720000  0.71500000  1.0 0.2608283804
H  H419  1  0.47150000  0.56440000  0.51090000  1.0 0.242918622
H  H420  1  0.54540000  0.82410000  0.42490000  1.0 0.2608283804
H  H421  1  0.27580000  0.07330000  0.53890000  1.0 0.1019897651
H  H422  1  0.31420000  0.09590000  0.56470000  1.0 0.1197081902
H  H423  1  0.32710000  0.06310000  0.51720000  1.0 0.1103984632
H  H424  1  0.28830000  0.04080000  0.49170000  1.0 0.1197081902
H  H425  1  0.37590000  0.14040000  0.62450000  1.0 0.1197081902
H  H426  1  0.40300000  0.16930000  0.66150000  1.0 0.1103984632
H  H427  1  0.45240000  0.16500000  0.64940000  1.0 0.1197081902
H  H428  1  0.42570000  0.13740000  0.61170000  1.0 0.1019897651
H  H429  1  0.28010000  0.04130000  0.45380000  1.0 0.1280803836
H  H430  1  0.31620000  0.06780000  0.46240000  1.0 0.1019897651
H  H431  1  0.28740000  0.09880000  0.43620000  1.0 0.1197081902
H  H432  1  0.25330000  0.07470000  0.43100000  1.0 0.1103984632
H  H433  1  0.09340000  0.93490000  0.34190000  1.0 0.1103984632
H  H434  1  0.05520000  0.90980000  0.30980000  1.0 0.1019897651
H  H435  1  0.03580000  0.94120000  0.35220000  1.0 0.1197081902
H  H436  1  0.07320000  0.96370000  0.38170000  1.0 0.1280803836
H  H437  1  0.34830000  0.09580000  0.47450000  1.0 0.2696112048
H  H438  1  0.02220000  0.89400000  0.28500000  1.0 0.2608283804
H  H439  1  0.05350000  0.96060000  0.48910000  1.0 0.242918622
H  H440  1  0.39920000  0.12050000  0.57510000  1.0 0.2608283804
H  H441  1  0.46560000  0.92670000  0.20250000  1.0 0.1019897651
H  H442  1  0.46880000  0.90410000  0.21830000  1.0 0.1197081902
H  H443  1  0.45410000  0.93690000  0.26400000  1.0 0.1103984632
H  H444  1  0.45090000  0.95920000  0.24750000  1.0 0.1197081902
H  H445  1  0.48410000  0.85960000  0.23550000  1.0 0.1197081902
H  H446  1  0.49220000  0.83070000  0.23370000  1.0 0.1103984632
H  H447  1  0.48440000  0.83500000  0.28740000  1.0 0.1197081902
H  H448  1  0.47430000  0.86260000  0.28830000  1.0 0.1019897651
H  H449  1  0.41250000  0.95870000  0.23880000  1.0 0.1280803836
H  H450  1  0.39460000  0.93220000  0.24840000  1.0 0.1019897651
H  H451  1  0.33740000  0.90120000  0.18860000  1.0 0.1197081902
H  H452  1  0.35630000  0.92530000  0.17860000  1.0 0.1103984632
H  H453  1  0.40700000  0.06510000  0.15850000  1.0 0.1103984632
H  H454  1  0.40000000  0.09020000  0.14540000  1.0 0.1019897651
H  H455  1  0.41100000  0.05880000  0.09460000  1.0 0.1197081902
H  H456  1  0.41800000  0.03630000  0.10950000  1.0 0.1280803836
H  H457  1  0.37870000  0.90420000  0.25250000  1.0 0.2696112048
H  H458  1  0.39100000  0.10600000  0.12820000  1.0 0.2608283804
H  H459  1  0.52850000  0.03940000  0.09290000  1.0 0.242918622
H  H460  1  0.45460000  0.87950000  0.27870000  1.0 0.2608283804
H  H461  1  0.72420000  0.26310000  0.79750000  1.0 0.1019897651
H  H462  1  0.68580000  0.25050000  0.78170000  1.0 0.1197081902
H  H463  1  0.67290000  0.19010000  0.73600000  1.0 0.1103984632
H  H464  1  0.71170000  0.20340000  0.75250000  1.0 0.1197081902
H  H465  1  0.62410000  0.24860000  0.76450000  1.0 0.1197081902
H  H466  1  0.59700000  0.25850000  0.76630000  1.0 0.1103984632
H  H467  1  0.54760000  0.19700000  0.71260000  1.0 0.1197081902
H  H468  1  0.57430000  0.18600000  0.71170000  1.0 0.1019897651
H  H469  1  0.71990000  0.17370000  0.76120000  1.0 0.1280803836
H  H470  1  0.68380000  0.14620000  0.75160000  1.0 0.1019897651
H  H471  1  0.71260000  0.14880000  0.81140000  1.0 0.1197081902
H  H472  1  0.74670000  0.17770000  0.82140000  1.0 0.1103984632
H  H473  1  0.90660000  0.24850000  0.84150000  1.0 0.1103984632
H  H474  1  0.94480000  0.25460000  0.85460000  1.0 0.1019897651
H  H475  1  0.96420000  0.31640000  0.90540000  1.0 0.1197081902
H  H476  1  0.92680000  0.30850000  0.89050000  1.0 0.1280803836
H  H477  1  0.65170000  0.12620000  0.74750000  1.0 0.2696112048
H  H478  1  0.97780000  0.26280000  0.87180000  1.0 0.2608283804
H  H479  1  0.94650000  0.43560000  0.90710000  1.0 0.242918622
H  H480  1  0.60080000  0.17590000  0.72130000  1.0 0.2608283804
H  H481  1  0.72420000  0.79750000  0.26310000  1.0 0.1019897651
H  H482  1  0.68580000  0.78170000  0.25050000  1.0 0.1197081902
H  H483  1  0.67290000  0.73600000  0.19010000  1.0 0.1103984632
H  H484  1  0.71170000  0.75250000  0.20340000  1.0 0.1197081902
H  H485  1  0.62410000  0.76450000  0.24860000  1.0 0.1197081902
H  H486  1  0.59700000  0.76630000  0.25850000  1.0 0.1103984632
H  H487  1  0.54760000  0.71260000  0.19700000  1.0 0.1197081902
H  H488  1  0.57430000  0.71170000  0.18600000  1.0 0.1019897651
H  H489  1  0.71990000  0.76120000  0.17370000  1.0 0.1280803836
H  H490  1  0.68380000  0.75160000  0.14620000  1.0 0.1019897651
H  H491  1  0.71260000  0.81140000  0.14880000  1.0 0.1197081902
H  H492  1  0.74670000  0.82140000  0.17770000  1.0 0.1103984632
H  H493  1  0.90660000  0.84150000  0.24850000  1.0 0.1103984632
H  H494  1  0.94480000  0.85460000  0.25460000  1.0 0.1019897651
H  H495  1  0.96420000  0.90540000  0.31640000  1.0 0.1197081902
H  H496  1  0.92680000  0.89050000  0.30850000  1.0 0.1280803836
H  H497  1  0.65170000  0.74750000  0.12620000  1.0 0.2696112048
H  H498  1  0.97780000  0.87180000  0.26280000  1.0 0.2608283804
H  H499  1  0.94650000  0.90710000  0.43560000  1.0 0.242918622
H  H500  1  0.60080000  0.72130000  0.17590000  1.0 0.2608283804
H  H501  1  0.46560000  0.20250000  0.92670000  1.0 0.1019897651
H  H502  1  0.46880000  0.21830000  0.90410000  1.0 0.1197081902
H  H503  1  0.45410000  0.26400000  0.93690000  1.0 0.1103984632
H  H504  1  0.45090000  0.24750000  0.95920000  1.0 0.1197081902
H  H505  1  0.48410000  0.23550000  0.85960000  1.0 0.1197081902
H  H506  1  0.49220000  0.23370000  0.83070000  1.0 0.1103984632
H  H507  1  0.48440000  0.28740000  0.83500000  1.0 0.1197081902
H  H508  1  0.47430000  0.28830000  0.86260000  1.0 0.1019897651
H  H509  1  0.41250000  0.23880000  0.95870000  1.0 0.1280803836
H  H510  1  0.39460000  0.24840000  0.93220000  1.0 0.1019897651
H  H511  1  0.33740000  0.18860000  0.90120000  1.0 0.1197081902
H  H512  1  0.35630000  0.17860000  0.92530000  1.0 0.1103984632
H  H513  1  0.40700000  0.15850000  0.06510000  1.0 0.1103984632
H  H514  1  0.40000000  0.14540000  0.09020000  1.0 0.1019897651
H  H515  1  0.41100000  0.09460000  0.05880000  1.0 0.1197081902
H  H516  1  0.41800000  0.10950000  0.03630000  1.0 0.1280803836
H  H517  1  0.37870000  0.25250000  0.90420000  1.0 0.2696112048
H  H518  1  0.39100000  0.12820000  0.10600000  1.0 0.2608283804
H  H519  1  0.52850000  0.09290000  0.03940000  1.0 0.242918622
H  H520  1  0.45460000  0.27870000  0.87950000  1.0 0.2608283804
H  H521  1  0.27580000  0.53890000  0.07330000  1.0 0.1019897651
H  H522  1  0.31420000  0.56470000  0.09590000  1.0 0.1197081902
H  H523  1  0.32710000  0.51720000  0.06310000  1.0 0.1103984632
H  H524  1  0.28830000  0.49170000  0.04080000  1.0 0.1197081902
H  H525  1  0.37590000  0.62450000  0.14040000  1.0 0.1197081902
H  H526  1  0.40300000  0.66150000  0.16930000  1.0 0.1103984632
H  H527  1  0.45240000  0.64940000  0.16500000  1.0 0.1197081902
H  H528  1  0.42570000  0.61170000  0.13740000  1.0 0.1019897651
H  H529  1  0.28010000  0.45380000  0.04130000  1.0 0.1280803836
H  H530  1  0.31620000  0.46240000  0.06780000  1.0 0.1019897651
H  H531  1  0.28740000  0.43620000  0.09880000  1.0 0.1197081902
H  H532  1  0.25330000  0.43100000  0.07470000  1.0 0.1103984632
H  H533  1  0.09340000  0.34190000  0.93490000  1.0 0.1103984632
H  H534  1  0.05520000  0.30980000  0.90980000  1.0 0.1019897651
H  H535  1  0.03580000  0.35220000  0.94120000  1.0 0.1197081902
H  H536  1  0.07320000  0.38170000  0.96370000  1.0 0.1280803836
H  H537  1  0.34830000  0.47450000  0.09580000  1.0 0.2696112048
H  H538  1  0.02220000  0.28500000  0.89400000  1.0 0.2608283804
H  H539  1  0.05350000  0.48910000  0.96060000  1.0 0.242918622
H  H540  1  0.39920000  0.57510000  0.12050000  1.0 0.2608283804
H  H541  1  0.53440000  0.46110000  0.73690000  1.0 0.1019897651
H  H542  1  0.53120000  0.43530000  0.74950000  1.0 0.1197081902
H  H543  1  0.54590000  0.48280000  0.80990000  1.0 0.1103984632
H  H544  1  0.54910000  0.50830000  0.79660000  1.0 0.1197081902
H  H545  1  0.51590000  0.37550000  0.75140000  1.0 0.1197081902
H  H546  1  0.50780000  0.33850000  0.74150000  1.0 0.1103984632
H  H547  1  0.51560000  0.35060000  0.80300000  1.0 0.1197081902
H  H548  1  0.52570000  0.38830000  0.81400000  1.0 0.1019897651
H  H549  1  0.58750000  0.54620000  0.82630000  1.0 0.1280803836
H  H550  1  0.60540000  0.53760000  0.85380000  1.0 0.1019897651
H  H551  1  0.66260000  0.56380000  0.85120000  1.0 0.1197081902
H  H552  1  0.64370000  0.56900000  0.82230000  1.0 0.1103984632
H  H553  1  0.59300000  0.65810000  0.75150000  1.0 0.1103984632
H  H554  1  0.60000000  0.69020000  0.74540000  1.0 0.1019897651
H  H555  1  0.58900000  0.64780000  0.68360000  1.0 0.1197081902
H  H556  1  0.58200000  0.61830000  0.69150000  1.0 0.1280803836
H  H557  1  0.62130000  0.52550000  0.87380000  1.0 0.2696112048
H  H558  1  0.60900000  0.71500000  0.73720000  1.0 0.2608283804
H  H559  1  0.47150000  0.51090000  0.56440000  1.0 0.242918622
H  H560  1  0.54540000  0.42490000  0.82410000  1.0 0.2608283804
H  H561  1  0.92670000  0.46560000  0.20250000  1.0 0.1019897651
H  H562  1  0.90410000  0.46880000  0.21830000  1.0 0.1197081902
H  H563  1  0.93690000  0.45410000  0.26400000  1.0 0.1103984632
H  H564  1  0.95920000  0.45090000  0.24750000  1.0 0.1197081902
H  H565  1  0.85960000  0.48410000  0.23550000  1.0 0.1197081902
H  H566  1  0.83070000  0.49220000  0.23370000  1.0 0.1103984632
H  H567  1  0.83500000  0.48440000  0.28740000  1.0 0.1197081902
H  H568  1  0.86260000  0.47430000  0.28830000  1.0 0.1019897651
H  H569  1  0.95870000  0.41250000  0.23880000  1.0 0.1280803836
H  H570  1  0.93220000  0.39460000  0.24840000  1.0 0.1019897651
H  H571  1  0.90120000  0.33740000  0.18860000  1.0 0.1197081902
H  H572  1  0.92530000  0.35630000  0.17860000  1.0 0.1103984632
H  H573  1  0.06510000  0.40700000  0.15850000  1.0 0.1103984632
H  H574  1  0.09020000  0.40000000  0.14540000  1.0 0.1019897651
H  H575  1  0.05880000  0.41100000  0.09460000  1.0 0.1197081902
H  H576  1  0.03630000  0.41800000  0.10950000  1.0 0.1280803836
H  H577  1  0.90420000  0.37870000  0.25250000  1.0 0.2696112048
H  H578  1  0.10600000  0.39100000  0.12820000  1.0 0.2608283804
H  H579  1  0.03940000  0.52850000  0.09290000  1.0 0.242918622
H  H580  1  0.87950000  0.45460000  0.27870000  1.0 0.2608283804
H  H581  1  0.26310000  0.72420000  0.79750000  1.0 0.1019897651
H  H582  1  0.25050000  0.68580000  0.78170000  1.0 0.1197081902
H  H583  1  0.19010000  0.67290000  0.73600000  1.0 0.1103984632
H  H584  1  0.20340000  0.71170000  0.75250000  1.0 0.1197081902
H  H585  1  0.24860000  0.62410000  0.76450000  1.0 0.1197081902
H  H586  1  0.25850000  0.59700000  0.76630000  1.0 0.1103984632
H  H587  1  0.19700000  0.54760000  0.71260000  1.0 0.1197081902
H  H588  1  0.18600000  0.57430000  0.71170000  1.0 0.1019897651
H  H589  1  0.17370000  0.71990000  0.76120000  1.0 0.1280803836
H  H590  1  0.14620000  0.68380000  0.75160000  1.0 0.1019897651
H  H591  1  0.14880000  0.71260000  0.81140000  1.0 0.1197081902
H  H592  1  0.17770000  0.74670000  0.82140000  1.0 0.1103984632
H  H593  1  0.24850000  0.90660000  0.84150000  1.0 0.1103984632
H  H594  1  0.25460000  0.94480000  0.85460000  1.0 0.1019897651
H  H595  1  0.31640000  0.96420000  0.90540000  1.0 0.1197081902
H  H596  1  0.30850000  0.92680000  0.89050000  1.0 0.1280803836
H  H597  1  0.12620000  0.65170000  0.74750000  1.0 0.2696112048
H  H598  1  0.26280000  0.97780000  0.87180000  1.0 0.2608283804
H  H599  1  0.43560000  0.94650000  0.90710000  1.0 0.242918622
H  H600  1  0.17590000  0.60080000  0.72130000  1.0 0.2608283804
H  H601  1  0.73690000  0.53440000  0.46110000  1.0 0.1019897651
H  H602  1  0.74950000  0.53120000  0.43530000  1.0 0.1197081902
H  H603  1  0.80990000  0.54590000  0.48280000  1.0 0.1103984632
H  H604  1  0.79660000  0.54910000  0.50830000  1.0 0.1197081902
H  H605  1  0.75140000  0.51590000  0.37550000  1.0 0.1197081902
H  H606  1  0.74150000  0.50780000  0.33850000  1.0 0.1019897651
H  H607  1  0.80300000  0.51560000  0.35060000  1.0 0.1197081902
H  H608  1  0.81400000  0.52570000  0.38830000  1.0 0.1019897651
H  H609  1  0.82630000  0.58750000  0.54620000  1.0 0.1280803836
H  H610  1  0.85380000  0.60540000  0.53760000  1.0 0.1019897651
H  H611  1  0.85120000  0.66260000  0.56380000  1.0 0.1197081902
H  H612  1  0.82230000  0.64370000  0.56900000  1.0 0.1103984632
H  H613  1  0.75150000  0.59300000  0.65810000  1.0 0.1103984632
H  H614  1  0.74540000  0.60000000  0.69020000  1.0 0.1019897651
H  H615  1  0.68360000  0.58900000  0.64780000  1.0 0.1197081902
H  H616  1  0.69150000  0.58200000  0.61830000  1.0 0.1280803836
H  H617  1  0.87380000  0.62130000  0.52550000  1.0 0.2696112048
H  H618  1  0.73720000  0.60900000  0.71500000  1.0 0.2696112048
H  H619  1  0.56440000  0.47150000  0.51090000  1.0 0.242918622
H  H620  1  0.82410000  0.54540000  0.42490000  1.0 0.2608283804
H  H621  1  0.07330000  0.27580000  0.53890000  1.0 0.1019897651
H  H622  1  0.09590000  0.31420000  0.56470000  1.0 0.1197081902
H  H623  1  0.06310000  0.32710000  0.51720000  1.0 0.1103984632
H  H624  1  0.04080000  0.28830000  0.49170000  1.0 0.1197081902
H  H625  1  0.14040000  0.37590000  0.62450000  1.0 0.1197081902
H  H626  1  0.16930000  0.40300000  0.66150000  1.0 0.1103984632
H  H627  1  0.16500000  0.45240000  0.64940000  1.0 0.1197081902
H  H628  1  0.13740000  0.42570000  0.61170000  1.0 0.1019897651
H  H629  1  0.04130000  0.28010000  0.45380000  1.0 0.1280803836
H  H630  1  0.06780000  0.31620000  0.46240000  1.0 0.1019897651
H  H631  1  0.09880000  0.28740000  0.43620000  1.0 0.1197081902
H  H632  1  0.07470000  0.25330000  0.43100000  1.0 0.1103984632
H  H633  1  0.93490000  0.09340000  0.34190000  1.0 0.1103984632
H  H634  1  0.90980000  0.05520000  0.30980000  1.0 0.1019897651
H  H635  1  0.94120000  0.03580000  0.35220000  1.0 0.1197081902
H  H636  1  0.96370000  0.07320000  0.38170000  1.0 0.1280803836
H  H637  1  0.09580000  0.34830000  0.47450000  1.0 0.2696112048
H  H638  1  0.89400000  0.02220000  0.28500000  1.0 0.2608283804
H  H639  1  0.96060000  0.05350000  0.48910000  1.0 0.242918622
H  H640  1  0.12050000  0.39920000  0.57510000  1.0 0.2608283804
H  H641  1  0.46110000  0.73690000  0.53440000  1.0 0.1019897651
H  H642  1  0.43530000  0.74950000  0.53120000  1.0 0.1197081902
H  H643  1  0.48280000  0.80990000  0.54590000  1.0 0.1103984632
H  H644  1  0.50830000  0.79660000  0.54910000  1.0 0.1197081902
H  H645  1  0.37550000  0.75140000  0.51590000  1.0 0.1197081902
H  H646  1  0.33850000  0.74150000  0.50780000  1.0 0.1103984632
H  H647  1  0.35060000  0.80300000  0.51560000  1.0 0.1197081902
H  H648  1  0.38830000  0.81400000  0.52570000  1.0 0.1019897651
H  H649  1  0.54620000  0.82630000  0.58750000  1.0 0.1280803836
H  H650  1  0.53760000  0.85380000  0.60540000  1.0 0.1019897651
H  H651  1  0.56380000  0.85120000  0.66260000  1.0 0.1197081902
H  H652  1  0.56900000  0.82230000  0.64370000  1.0 0.1103984632
H  H653  1  0.65810000  0.75150000  0.59300000  1.0 0.1103984632
H  H654  1  0.69020000  0.74540000  0.60000000  1.0 0.1019897651
H  H655  1  0.64780000  0.68360000  0.58900000  1.0 0.1197081902
H  H656  1  0.61830000  0.69150000  0.58200000  1.0 0.1280803836
H  H657  1  0.52550000  0.87380000  0.62130000  1.0 0.2696112048
H  H658  1  0.71500000  0.73720000  0.60900000  1.0 0.2696112048
H  H659  1  0.51090000  0.56440000  0.47150000  1.0 0.242918622
H  H660  1  0.42490000  0.82410000  0.54540000  1.0 0.2608283804
H  H661  1  0.53890000  0.07330000  0.27580000  1.0 0.1019897651
H  H662  1  0.56470000  0.09590000  0.31420000  1.0 0.1197081902
H  H663  1  0.51720000  0.06310000  0.32710000  1.0 0.1103984632
H  H664  1  0.49170000  0.04080000  0.28830000  1.0 0.1197081902
H  H665  1  0.62450000  0.14040000  0.37590000  1.0 0.1197081902
H  H666  1  0.66150000  0.16930000  0.40300000  1.0 0.1103984632
H  H667  1  0.64940000  0.16500000  0.45240000  1.0 0.1197081902
H  H668  1  0.61170000  0.13740000  0.42570000  1.0 0.1019897651
H  H669  1  0.45380000  0.04130000  0.28010000  1.0 0.1280803836
H  H670  1  0.46240000  0.06780000  0.31620000  1.0 0.1019897651
H  H671  1  0.43620000  0.09880000  0.28740000  1.0 0.1197081902
H  H672  1  0.43100000  0.07470000  0.25330000  1.0 0.1103984632
H  H673  1  0.34190000  0.93490000  0.09340000  1.0 0.1103984632
H  H674  1  0.30980000  0.90980000  0.05520000  1.0 0.1019897651
H  H675  1  0.35220000  0.94120000  0.03580000  1.0 0.1197081902
H  H676  1  0.38170000  0.96370000  0.07320000  1.0 0.1280803836
H  H677  1  0.47450000  0.09580000  0.34830000  1.0 0.2696112048
H  H678  1  0.28500000  0.89400000  0.02220000  1.0 0.2608283804
H  H679  1  0.48910000  0.96060000  0.05350000  1.0 0.242918622
H  H680  1  0.57510000  0.12050000  0.39920000  1.0 0.2608283804
H  H681  1  0.20250000  0.92670000  0.46560000  1.0 0.1019897651
H  H682  1  0.21830000  0.90410000  0.46880000  1.0 0.1197081902
H  H683  1  0.26400000  0.93690000  0.45410000  1.0 0.1103984632
H  H684  1  0.24750000  0.95920000  0.45090000  1.0 0.1197081902
H  H685  1  0.23550000  0.85960000  0.48410000  1.0 0.1197081902
H  H686  1  0.23370000  0.83070000  0.49220000  1.0 0.1103984632
H  H687  1  0.28740000  0.83500000  0.48440000  1.0 0.1197081902
H  H688  1  0.28830000  0.86260000  0.47430000  1.0 0.1019897651
H  H689  1  0.23880000  0.95870000  0.41250000  1.0 0.1280803836
H  H690  1  0.24840000  0.93220000  0.39460000  1.0 0.1019897651
H  H691  1  0.18860000  0.90120000  0.33740000  1.0 0.1197081902
H  H692  1  0.17860000  0.92530000  0.35630000  1.0 0.1103984632
H  H693  1  0.15850000  0.06510000  0.40700000  1.0 0.1103984632
H  H694  1  0.14540000  0.09020000  0.40000000  1.0 0.1019897651
H  H695  1  0.09460000  0.05880000  0.41100000  1.0 0.1197081902
H  H696  1  0.10950000  0.03630000  0.41800000  1.0 0.1280803836
H  H697  1  0.25250000  0.90420000  0.37870000  1.0 0.2696112048
H  H698  1  0.12820000  0.10600000  0.39100000  1.0 0.2608283804
H  H699  1  0.09290000  0.03940000  0.52850000  1.0 0.242918622
H  H700  1  0.27870000  0.87950000  0.45460000  1.0 0.2608283804
H  H701  1  0.79750000  0.26310000  0.72420000  1.0 0.1019897651
H  H702  1  0.78170000  0.25050000  0.68580000  1.0 0.1197081902
H  H703  1  0.73600000  0.19010000  0.67290000  1.0 0.1103984632
H  H704  1  0.75250000  0.20340000  0.71170000  1.0 0.1197081902
H  H705  1  0.76450000  0.24860000  0.62410000  1.0 0.1197081902
H  H706  1  0.76630000  0.25850000  0.59700000  1.0 0.1103984632
H  H707  1  0.71260000  0.19700000  0.54760000  1.0 0.1197081902
H  H708  1  0.71170000  0.18600000  0.57430000  1.0 0.1019897651
H  H709  1  0.76120000  0.17370000  0.71990000  1.0 0.1280803836
H  H710  1  0.75160000  0.14620000  0.68380000  1.0 0.1019897651
H  H711  1  0.81140000  0.14880000  0.71260000  1.0 0.1197081902
H  H712  1  0.82140000  0.17770000  0.74670000  1.0 0.1103984632
H  H713  1  0.84150000  0.24850000  0.90660000  1.0 0.1103984632
H  H714  1  0.85460000  0.25460000  0.94480000  1.0 0.1019897651
H  H715  1  0.90540000  0.31640000  0.96420000  1.0 0.1197081902
H  H716  1  0.89050000  0.30850000  0.92680000  1.0 0.1280803836
H  H717  1  0.74750000  0.12620000  0.65170000  1.0 0.2696112048
H  H718  1  0.87180000  0.26280000  0.97780000  1.0 0.2608283804
H  H719  1  0.90710000  0.43560000  0.94650000  1.0 0.242918622
H  H720  1  0.72130000  0.17590000  0.60080000  1.0 0.2608283804
H  H721  1  0.73690000  0.20250000  0.27580000  1.0 0.1019897651
H  H722  1  0.74950000  0.21830000  0.31420000  1.0 0.1197081902
H  H723  1  0.80990000  0.26400000  0.32710000  1.0 0.1103984632
H  H724  1  0.79660000  0.24750000  0.28830000  1.0 0.1197081902
H  H725  1  0.75140000  0.23550000  0.37590000  1.0 0.1197081902
H  H726  1  0.74150000  0.23370000  0.40300000  1.0 0.1103984632
H  H727  1  0.80300000  0.28740000  0.45240000  1.0 0.1197081902
H  H728  1  0.81400000  0.28830000  0.42570000  1.0 0.1019897651
H  H729  1  0.82630000  0.23880000  0.28010000  1.0 0.1280803836
H  H730  1  0.85380000  0.24840000  0.31620000  1.0 0.1019897651
H  H731  1  0.85120000  0.18860000  0.28740000  1.0 0.1197081902
H  H732  1  0.82230000  0.17860000  0.25330000  1.0 0.1103984632
H  H733  1  0.75150000  0.15850000  0.09340000  1.0 0.1103984632
H  H734  1  0.74540000  0.14540000  0.05520000  1.0 0.1019897651
H  H735  1  0.68360000  0.09460000  0.03580000  1.0 0.1197081902
H  H736  1  0.69150000  0.10950000  0.07320000  1.0 0.1280803836
H  H737  1  0.87380000  0.25250000  0.34830000  1.0 0.2696112048
H  H738  1  0.73720000  0.12820000  0.02220000  1.0 0.2608283804
H  H739  1  0.56440000  0.09290000  0.05350000  1.0 0.242918622
H  H740  1  0.82410000  0.27870000  0.39920000  1.0 0.2608283804
H  H741  1  0.07330000  0.79750000  0.53440000  1.0 0.1019897651
H  H742  1  0.09590000  0.78170000  0.53120000  1.0 0.1197081902
H  H743  1  0.06310000  0.73600000  0.54590000  1.0 0.1103984632
H  H744  1  0.04080000  0.75250000  0.54910000  1.0 0.1197081902
H  H745  1  0.14040000  0.76450000  0.51590000  1.0 0.1197081902
H  H746  1  0.16930000  0.76630000  0.50780000  1.0 0.1103984632
H  H747  1  0.16500000  0.71260000  0.51560000  1.0 0.1197081902
H  H748  1  0.13740000  0.71170000  0.52570000  1.0 0.1019897651
H  H749  1  0.04130000  0.76120000  0.58750000  1.0 0.1280803836
H  H750  1  0.06780000  0.75160000  0.60540000  1.0 0.1019897651
H  H751  1  0.09880000  0.81140000  0.66260000  1.0 0.1197081902
H  H752  1  0.07470000  0.82140000  0.64370000  1.0 0.1103984632
H  H753  1  0.93490000  0.84150000  0.59300000  1.0 0.1103984632
H  H754  1  0.90980000  0.85460000  0.60000000  1.0 0.1019897651
H  H755  1  0.94120000  0.90540000  0.58900000  1.0 0.1197081902
H  H756  1  0.96370000  0.89050000  0.58200000  1.0 0.1280803836
H  H757  1  0.09580000  0.74750000  0.62130000  1.0 0.2696112048
H  H758  1  0.89400000  0.87180000  0.60900000  1.0 0.2608283804
H  H759  1  0.96060000  0.90710000  0.47150000  1.0 0.242918622
H  H760  1  0.12050000  0.72130000  0.54540000  1.0 0.2608283804
H  H761  1  0.92670000  0.46110000  0.72420000  1.0 0.1019897651
H  H762  1  0.90410000  0.43530000  0.68580000  1.0 0.1197081902
H  H763  1  0.93690000  0.48280000  0.67290000  1.0 0.1103984632
H  H764  1  0.95920000  0.50830000  0.71170000  1.0 0.1197081902
H  H765  1  0.85960000  0.37550000  0.62410000  1.0 0.1197081902
H  H766  1  0.83070000  0.33850000  0.59700000  1.0 0.1103984632
H  H767  1  0.83500000  0.35060000  0.54760000  1.0 0.1197081902
H  H768  1  0.86260000  0.38830000  0.57430000  1.0 0.1019897651
H  H769  1  0.95870000  0.54620000  0.71990000  1.0 0.1280803836
H  H770  1  0.93220000  0.53760000  0.68380000  1.0 0.1019897651
H  H771  1  0.90120000  0.56380000  0.71260000  1.0 0.1197081902
H  H772  1  0.92530000  0.56900000  0.74670000  1.0 0.1103984632
H  H773  1  0.06510000  0.65810000  0.90660000  1.0 0.1103984632
H  H774  1  0.09020000  0.69020000  0.94480000  1.0 0.1019897651
H  H775  1  0.05880000  0.64780000  0.96420000  1.0 0.1197081902
H  H776  1  0.03630000  0.61830000  0.92680000  1.0 0.1280803836
H  H777  1  0.90420000  0.52550000  0.65170000  1.0 0.2696112048
H  H778  1  0.10600000  0.71500000  0.97780000  1.0 0.2608283804
H  H779  1  0.03940000  0.51090000  0.94650000  1.0 0.242918622
H  H780  1  0.87950000  0.42490000  0.60080000  1.0 0.2608283804
H  H781  1  0.26310000  0.53890000  0.46560000  1.0 0.1019897651
H  H782  1  0.25050000  0.56470000  0.46880000  1.0 0.1197081902
H  H783  1  0.19010000  0.51720000  0.45410000  1.0 0.1103984632
H  H784  1  0.20340000  0.49170000  0.45090000  1.0 0.1197081902
H  H785  1  0.24860000  0.62450000  0.48410000  1.0 0.1197081902
H  H786  1  0.25850000  0.66150000  0.49220000  1.0 0.1103984632
H  H787  1  0.19700000  0.64940000  0.48440000  1.0 0.1197081902
H  H788  1  0.18600000  0.61170000  0.47430000  1.0 0.1019897651
H  H789  1  0.17370000  0.45380000  0.41250000  1.0 0.1280803836
H  H790  1  0.14620000  0.46240000  0.39460000  1.0 0.1019897651
H  H791  1  0.14880000  0.43620000  0.33740000  1.0 0.1197081902
H  H792  1  0.17770000  0.43100000  0.35630000  1.0 0.1103984632
H  H793  1  0.24850000  0.34190000  0.40700000  1.0 0.1103984632
H  H794  1  0.25460000  0.30980000  0.40000000  1.0 0.1019897651
H  H795  1  0.31640000  0.35220000  0.41100000  1.0 0.1197081902
H  H796  1  0.30850000  0.38170000  0.41800000  1.0 0.1280803836
H  H797  1  0.12620000  0.47450000  0.37870000  1.0 0.2696112048
H  H798  1  0.26280000  0.28500000  0.39100000  1.0 0.2608283804
H  H799  1  0.43560000  0.48910000  0.52850000  1.0 0.242918622
H  H800  1  0.17590000  0.57510000  0.45460000  1.0 0.2608283804
H  H801  1  0.79750000  0.53440000  0.07330000  1.0 0.1019897651
H  H802  1  0.78170000  0.53120000  0.09590000  1.0 0.1197081902
H  H803  1  0.73600000  0.54590000  0.06310000  1.0 0.1103984632
H  H804  1  0.75250000  0.54910000  0.04080000  1.0 0.1197081902
H  H805  1  0.76450000  0.51590000  0.14040000  1.0 0.1197081902
H  H806  1  0.76630000  0.50780000  0.16930000  1.0 0.1103984632
H  H807  1  0.71260000  0.51560000  0.16500000  1.0 0.1197081902
H  H808  1  0.71170000  0.52570000  0.13740000  1.0 0.1019897651
H  H809  1  0.76120000  0.58750000  0.04130000  1.0 0.1280803836
H  H810  1  0.75160000  0.60540000  0.06780000  1.0 0.1019897651
H  H811  1  0.81140000  0.66260000  0.09880000  1.0 0.1197081902
H  H812  1  0.82140000  0.64370000  0.07470000  1.0 0.1103984632
H  H813  1  0.84150000  0.59300000  0.93490000  1.0 0.1103984632
H  H814  1  0.85460000  0.60000000  0.90980000  1.0 0.1019897651
H  H815  1  0.90540000  0.58900000  0.94120000  1.0 0.1197081902
H  H816  1  0.89050000  0.58200000  0.96370000  1.0 0.1280803836
H  H817  1  0.74750000  0.62130000  0.09580000  1.0 0.2696112048
H  H818  1  0.87180000  0.60900000  0.89400000  1.0 0.2608283804
H  H819  1  0.90710000  0.47150000  0.96060000  1.0 0.242918622
H  H820  1  0.72130000  0.54540000  0.12050000  1.0 0.2608283804
H  H821  1  0.20250000  0.27580000  0.73690000  1.0 0.1019897651
H  H822  1  0.21830000  0.31420000  0.74950000  1.0 0.1197081902
H  H823  1  0.26400000  0.32710000  0.80990000  1.0 0.1103984632
H  H824  1  0.24750000  0.28830000  0.79660000  1.0 0.1197081902
H  H825  1  0.23550000  0.37590000  0.75140000  1.0 0.1197081902
H  H826  1  0.23370000  0.40300000  0.74150000  1.0 0.1103984632
H  H827  1  0.28740000  0.45240000  0.80300000  1.0 0.1197081902
H  H828  1  0.28830000  0.42570000  0.81400000  1.0 0.1019897651
H  H829  1  0.23880000  0.28010000  0.82630000  1.0 0.1280803836
H  H830  1  0.24840000  0.31620000  0.85380000  1.0 0.1019897651
H  H831  1  0.18860000  0.28740000  0.85120000  1.0 0.1197081902
H  H832  1  0.17860000  0.25330000  0.82230000  1.0 0.1103984632
H  H833  1  0.15850000  0.09340000  0.75150000  1.0 0.1103984632
H  H834  1  0.14540000  0.05520000  0.74540000  1.0 0.1019897651
H  H835  1  0.09460000  0.03580000  0.68360000  1.0 0.1197081902
H  H836  1  0.10950000  0.07320000  0.69150000  1.0 0.1280803836
H  H837  1  0.25250000  0.34830000  0.87380000  1.0 0.2696112048
H  H838  1  0.12820000  0.02220000  0.73720000  1.0 0.2608283804
H  H839  1  0.09290000  0.05350000  0.56440000  1.0 0.242918622
H  H840  1  0.27870000  0.39920000  0.82410000  1.0 0.2608283804
H  H841  1  0.53890000  0.46560000  0.26310000  1.0 0.1019897651
H  H842  1  0.56470000  0.46880000  0.25050000  1.0 0.1197081902
H  H843  1  0.51720000  0.45410000  0.19010000  1.0 0.1103984632
H  H844  1  0.49170000  0.45090000  0.20340000  1.0 0.1197081902
H  H845  1  0.62450000  0.48410000  0.24860000  1.0 0.1197081902
H  H846  1  0.66150000  0.49220000  0.25850000  1.0 0.1103984632
H  H847  1  0.64940000  0.48440000  0.19700000  1.0 0.1197081902
H  H848  1  0.61170000  0.47430000  0.18600000  1.0 0.1019897651
H  H849  1  0.45380000  0.41250000  0.17370000  1.0 0.1280803836
H  H850  1  0.46240000  0.39460000  0.14620000  1.0 0.1019897651
H  H851  1  0.43620000  0.33740000  0.14880000  1.0 0.1197081902
H  H852  1  0.43100000  0.35630000  0.17770000  1.0 0.1103984632
H  H853  1  0.34190000  0.40700000  0.24850000  1.0 0.1103984632
H  H854  1  0.30980000  0.40000000  0.25460000  1.0 0.1019897651
H  H855  1  0.35220000  0.41100000  0.31640000  1.0 0.1197081902
H  H856  1  0.38170000  0.41800000  0.30850000  1.0 0.1280803836
H  H857  1  0.47450000  0.37870000  0.12620000  1.0 0.2696112048
H  H858  1  0.28500000  0.39100000  0.26280000  1.0 0.2608283804
H  H859  1  0.48910000  0.52850000  0.43560000  1.0 0.242918622
H  H860  1  0.57510000  0.45460000  0.17590000  1.0 0.2608283804
H  H861  1  0.46110000  0.72420000  0.92670000  1.0 0.1019897651
H  H862  1  0.43530000  0.68580000  0.90410000  1.0 0.1197081902
H  H863  1  0.48280000  0.67290000  0.93690000  1.0 0.1103984632
H  H864  1  0.50830000  0.71170000  0.95920000  1.0 0.1197081902
H  H865  1  0.37550000  0.62410000  0.85960000  1.0 0.1197081902
H  H866  1  0.33850000  0.59700000  0.83070000  1.0 0.1103984632
H  H867  1  0.35060000  0.54760000  0.83500000  1.0 0.1197081902
H  H868  1  0.38830000  0.57430000  0.86260000  1.0 0.1019897651
H  H869  1  0.54620000  0.71990000  0.95870000  1.0 0.1280803836
H  H870  1  0.53760000  0.68380000  0.93220000  1.0 0.1019897651
H  H871  1  0.56380000  0.71260000  0.90120000  1.0 0.1197081902
H  H872  1  0.56900000  0.74670000  0.92530000  1.0 0.1103984632
H  H873  1  0.65810000  0.90660000  0.06510000  1.0 0.1103984632
H  H874  1  0.69020000  0.94480000  0.09020000  1.0 0.1019897651
H  H875  1  0.64780000  0.96420000  0.05880000  1.0 0.1197081902
H  H876  1  0.61830000  0.92680000  0.03630000  1.0 0.1280803836
H  H877  1  0.52550000  0.65170000  0.90420000  1.0 0.2696112048
H  H878  1  0.71500000  0.97780000  0.10600000  1.0 0.2608283804
H  H879  1  0.51090000  0.94650000  0.03940000  1.0 0.242918622
H  H880  1  0.42490000  0.60080000  0.87950000  1.0 0.2608283804
H  H881  1  0.46560000  0.26310000  0.53890000  1.0 0.1019897651
H  H882  1  0.46880000  0.25050000  0.56470000  1.0 0.1197081902
H  H883  1  0.45410000  0.19010000  0.51720000  1.0 0.1103984632
H  H884  1  0.45090000  0.20340000  0.49170000  1.0 0.1197081902
H  H885  1  0.48410000  0.24860000  0.62450000  1.0 0.1197081902
H  H886  1  0.49220000  0.25850000  0.66150000  1.0 0.1103984632
H  H887  1  0.48440000  0.19700000  0.64940000  1.0 0.1197081902
H  H888  1  0.47430000  0.18600000  0.61170000  1.0 0.1019897651
H  H889  1  0.41250000  0.17370000  0.45380000  1.0 0.1280803836
H  H890  1  0.39460000  0.14620000  0.46240000  1.0 0.1019897651
H  H891  1  0.33740000  0.14880000  0.43620000  1.0 0.1197081902
H  H892  1  0.35630000  0.17770000  0.43100000  1.0 0.1103984632
H  H893  1  0.40700000  0.24850000  0.34190000  1.0 0.1103984632
H  H894  1  0.40000000  0.25460000  0.30980000  1.0 0.1019897651
H  H895  1  0.41100000  0.31640000  0.35220000  1.0 0.1197081902
H  H896  1  0.41800000  0.30850000  0.38170000  1.0 0.1280803836
H  H897  1  0.37870000  0.12620000  0.47450000  1.0 0.2696112048
H  H898  1  0.39100000  0.26280000  0.28500000  1.0 0.2608283804
H  H899  1  0.52850000  0.43560000  0.48910000  1.0 0.242918622
H  H900  1  0.45460000  0.17590000  0.57510000  1.0 0.2608283804
H  H901  1  0.72420000  0.92670000  0.46110000  1.0 0.1019897651
H  H902  1  0.68580000  0.90410000  0.43530000  1.0 0.1197081902
H  H903  1  0.67290000  0.93690000  0.48280000  1.0 0.1103984632
H  H904  1  0.71170000  0.95920000  0.50830000  1.0 0.1197081902
H  H905  1  0.62410000  0.85960000  0.37550000  1.0 0.1197081902
H  H906  1  0.59700000  0.83070000  0.33850000  1.0 0.1019897651
H  H907  1  0.54760000  0.83500000  0.35060000  1.0 0.1197081902
H  H908  1  0.57430000  0.86260000  0.38830000  1.0 0.1019897651
H  H909  1  0.71990000  0.95870000  0.54620000  1.0 0.1280803836
H  H910  1  0.68380000  0.93220000  0.53760000  1.0 0.1019897651
H  H911  1  0.71260000  0.90120000  0.56380000  1.0 0.1197081902
H  H912  1  0.74670000  0.92530000  0.56900000  1.0 0.1103984632
H  H913  1  0.90660000  0.06510000  0.65810000  1.0 0.1103984632
H  H914  1  0.94480000  0.09020000  0.69020000  1.0 0.1019897651
H  H915  1  0.96420000  0.05880000  0.64780000  1.0 0.1197081902
H  H916  1  0.92680000  0.03630000  0.61830000  1.0 0.1280803836
H  H917  1  0.65170000  0.90420000  0.52550000  1.0 0.2696112048
H  H918  1  0.97780000  0.10600000  0.71500000  1.0 0.2608283804
H  H919  1  0.94650000  0.03940000  0.51090000  1.0 0.242918622
H  H920  1  0.60080000  0.87950000  0.42490000  1.0 0.2608283804
H  H921  1  0.53440000  0.07330000  0.79750000  1.0 0.1019897651
H  H922  1  0.53120000  0.09590000  0.78170000  1.0 0.1197081902
H  H923  1  0.54590000  0.06310000  0.73600000  1.0 0.1103984632
H  H924  1  0.54910000  0.04080000  0.75250000  1.0 0.1197081902
H  H925  1  0.51590000  0.14040000  0.76450000  1.0 0.1197081902
H  H926  1  0.50780000  0.16930000  0.76630000  1.0 0.1103984632
H  H927  1  0.51560000  0.16500000  0.71260000  1.0 0.1197081902
H  H928  1  0.52570000  0.13740000  0.71170000  1.0 0.1019897651
H  H929  1  0.58750000  0.04130000  0.76120000  1.0 0.1280803836
H  H930  1  0.60540000  0.06780000  0.75160000  1.0 0.1019897651
H  H931  1  0.66260000  0.09880000  0.81140000  1.0 0.1197081902
H  H932  1  0.64370000  0.07470000  0.82140000  1.0 0.1103984632
H  H933  1  0.59300000  0.93490000  0.84150000  1.0 0.1103984632
H  H934  1  0.60000000  0.90980000  0.85460000  1.0 0.1019897651
H  H935  1  0.58900000  0.94120000  0.90540000  1.0 0.1197081902
H  H936  1  0.58200000  0.96370000  0.89050000  1.0 0.1280803836
H  H937  1  0.62130000  0.09580000  0.74750000  1.0 0.2696112048
H  H938  1  0.60900000  0.89400000  0.87180000  1.0 0.2608283804
H  H939  1  0.47150000  0.96060000  0.90710000  1.0 0.242918622
H  H940  1  0.54540000  0.12050000  0.72130000  1.0 0.2608283804
H  H941  1  0.27580000  0.73690000  0.20250000  1.0 0.1019897651
H  H942  1  0.31420000  0.74950000  0.21830000  1.0 0.1197081902
H  H943  1  0.32710000  0.80990000  0.26400000  1.0 0.1103984632
H  H944  1  0.28830000  0.79660000  0.24750000  1.0 0.1197081902
H  H945  1  0.37590000  0.75140000  0.23550000  1.0 0.1197081902
H  H946  1  0.40300000  0.74150000  0.23370000  1.0 0.1103984632
H  H947  1  0.45240000  0.80300000  0.28740000  1.0 0.1197081902
H  H948  1  0.42570000  0.81400000  0.28830000  1.0 0.1019897651
H  H949  1  0.28010000  0.82630000  0.23880000  1.0 0.1280803836
H  H950  1  0.31620000  0.85380000  0.24840000  1.0 0.1019897651
H  H951  1  0.28740000  0.85120000  0.18860000  1.0 0.1197081902
H  H952  1  0.25330000  0.82230000  0.17860000  1.0 0.1103984632
H  H953  1  0.09340000  0.75150000  0.15850000  1.0 0.1103984632
H  H954  1  0.05520000  0.74540000  0.14540000  1.0 0.1019897651
H  H955  1  0.03580000  0.68360000  0.09460000  1.0 0.1197081902
H  H956  1  0.07320000  0.69150000  0.10950000  1.0 0.1280803836
H  H957  1  0.34830000  0.87380000  0.25250000  1.0 0.2696112048
H  H958  1  0.02220000  0.73720000  0.12820000  1.0 0.2608283804
H  H959  1  0.05350000  0.56440000  0.09290000  1.0 0.242918622
H  H960  1  0.39920000  0.82410000  0.27870000  1.0 0.2608283804
C  C1  1  0.25334000  0.21357000  0.75779000  1.0 0.6259705164
C  C2  1  0.27842000  0.22369000  0.76583000  1.0 -0.0342103263
C  C3  1  0.28622000  0.21491000  0.75167000  1.0 -0.0911348855
C  C4  1  0.30917000  0.22433000  0.75918000  1.0 -0.1105137151
C  C5  1  0.32480000  0.24265000  0.78097000  1.0 0.0297287658
C  C6  1  0.31680000  0.25153000  0.79515000  1.0 -0.1304455674
C  C7  1  0.29361000  0.24162000  0.78709000  1.0 -0.1105137151
C  C8  1  0.34951000  0.25241000  0.78892000  1.0 0.3022607126
C  C9  1  0.38053000  0.25989000  0.78976000  1.0 0.2608283804
C  C10  1  0.39812000  0.26086000  0.78416000  1.0 0.012429044
C  C11  1  0.39148000  0.24556000  0.76220000  1.0 -0.1105137151
C  C12  1  0.40754000  0.24489000  0.75603000  1.0 -0.0911348855
C  C13  1  0.43034000  0.26065000  0.77121000  1.0 -0.0454077434
C  C14  1  0.43680000  0.27661000  0.79269000  1.0 -0.0981857934
C  C15  1  0.42107000  0.27714000  0.79941000  1.0 -0.1842769534
C  C16  1  0.44787000  0.26032000  0.76475000  1.0 0.6242175824
C  C17  1  0.24138000  0.20131000  0.80349000  1.0 0.6242175824
C  C18  1  0.26362000  0.20771000  0.82201000  1.0 -0.0362889079
C  C19  1  0.28179000  0.22843000  0.83104000  1.0 -0.0981857934
C  C20  1  0.30339000  0.23430000  0.84779000  1.0 -0.1697123239
C  C21  1  0.30577000  0.21931000  0.85532000  1.0 -0.0130735305
C  C22  1  0.28649000  0.19885000  0.84594000  1.0 -0.1105137151
C  C23  1  0.26597000  0.19311000  0.82904000  1.0 -0.0981857934
C  C24  1  0.32685000  0.22530000  0.87269000  1.0 0.2696112048
C  C25  1  0.11003000  0.14585000  0.72710000  1.0 0.6381326617
C  C26  1  0.08616000  0.13532000  0.72214000  1.0 -0.0630705643
C  C27  1  0.08127000  0.14553000  0.73764000  1.0 -0.0790157113
C  C28  1  0.05851000  0.13803000  0.73454000  1.0 -0.1697123239
C  C29  1  0.04182000  0.11817000  0.71303000  1.0 0.012429044
C  C30  1  0.04730000  0.10777000  0.69753000  1.0 -0.1304455674
C  C31  1  0.06967000  0.11669000  0.70232000  1.0 -0.0911348855
C  C32  1  0.01700000  0.10799000  0.70605000  1.0 0.2873855117
C  C33  1  0.12591000  0.15912000  0.67337000  1.0 0.6643248863
C  C34  1  0.11064000  0.15017000  0.64895000  1.0 -0.0981857934
C  C35  1  0.09581000  0.12760000  0.63431000  1.0 0.0217965257
C  C36  1  0.08144000  0.11891000  0.61137000  1.0 -0.1697123239
C  C37  1  0.08419000  0.13474000  0.60315000  1.0 0.0365421665
C  C38  1  0.09808000  0.15763000  0.61753000  1.0 -0.0362889079
C  C39  1  0.11237000  0.16571000  0.64138000  1.0 0.0674115572
C  C40  1  0.07031000  0.12639000  0.57882000  1.0 0.2873855117
C  C41  1  0.54422000  0.78643000  0.03977000  1.0 0.6242175824
C  C42  1  0.54214000  0.77631000  0.05473000  1.0 -0.0342103263
C  C43  1  0.53676000  0.78509000  0.07131000  1.0 -0.0911348855
C  C44  1  0.53485000  0.77567000  0.08484000  1.0 -0.1105137151
C  C45  1  0.53832000  0.75735000  0.08215000  1.0 0.0297287658
C  C46  1  0.54362000  0.74847000  0.06527000  1.0 -0.1304455674
C  C47  1  0.54547000  0.75838000  0.05199000  1.0 -0.1105137151
C  C48  1  0.53651000  0.74759000  0.09710000  1.0 0.3022607126
C  C49  1  0.52987000  0.74011000  0.12064000  1.0 0.2608283804
C  C50  1  0.52330000  0.73914000  0.13726000  1.0 0.012429044
C  C51  1  0.51664000  0.75444000  0.14592000  1.0 -0.1105137151
C  C52  1  0.51114000  0.75511000  0.16265000  1.0 -0.0911348855
C  C53  1  0.51056000  0.73935000  0.16969000  1.0 -0.0454077434
C  C54  1  0.51608000  0.72339000  0.16019000  1.0 -0.0981857934
C  C55  1  0.52227000  0.72286000  0.14393000  1.0 -0.1842769534
C  C56  1  0.50443000  0.73968000  0.18755000  1.0 0.6242175824
C  C57  1  0.60218000  0.79869000  0.04007000  1.0 0.6242175824
C  C58  1  0.61430000  0.79229000  0.05591000  1.0 -0.0362889079
C  C59  1  0.60261000  0.77157000  0.05336000  1.0 -0.0981857934
C  C60  1  0.61349000  0.76570000  0.06909000  1.0 -0.1697123239
C  C61  1  0.63601000  0.78069000  0.08646000  1.0 -0.0130735305
C  C62  1  0.64709000  0.80115000  0.08764000  1.0 -0.115069183
C  C63  1  0.63593000  0.80689000  0.07286000  1.0 -0.0981857934
C  C64  1  0.64739000  0.77470000  0.10155000  1.0 0.2696112048
C  C65  1  0.58125000  0.85415000  0.96418000  1.0 0.6381326617
C  C66  1  0.58682000  0.86468000  0.95084000  1.0 -0.0630705643
C  C67  1  0.59211000  0.85447000  0.93574000  1.0 -0.0790157113
C  C68  1  0.59651000  0.86197000  0.92048000  1.0 -0.1697123239
C  C69  1  0.59486000  0.88183000  0.92365000  1.0 0.012429044
C  C70  1  0.58976000  0.89223000  0.93953000  1.0 -0.1304455674
C  C71  1  0.58563000  0.88331000  0.95298000  1.0 -0.0911348855
C  C72  1  0.59806000  0.89201000  0.90901000  1.0 0.2830184487
C  C73  1  0.51425000  0.84088000  0.96679000  1.0 0.6643248863
C  C74  1  0.49878000  0.84983000  0.96047000  1.0 -0.0981857934
C  C75  1  0.50671000  0.87240000  0.96821000  1.0 0.0217965257
C  C76  1  0.49246000  0.88109000  0.96253000  1.0 -0.1697123239
C  C77  1  0.46841000  0.86526000  0.94945000  1.0 0.0365421665
C  C78  1  0.45990000  0.84237000  0.94045000  1.0 -0.0362889079
C  C79  1  0.47567000  0.83429000  0.94666000  1.0 0.0674115572
C  C80  1  0.45243000  0.87361000  0.94392000  1.0 0.2873855117
C  C81  1  0.74666000  0.50445000  0.96023000  1.0 0.6259705164
C  C82  1  0.72158000  0.48741000  0.94527000  1.0 -0.0342103263
C  C83  1  0.71378000  0.46545000  0.92869000  1.0 -0.0911348855
C  C84  1  0.69083000  0.45001000  0.91516000  1.0 -0.1105137151
C  C85  1  0.67520000  0.45617000  0.91785000  1.0 0.0297287658
C  C86  1  0.68320000  0.47835000  0.93473000  1.0 -0.1304455674
C  C87  1  0.70639000  0.49348000  0.94801000  1.0 -0.1105137151
C  C88  1  0.65049000  0.43941000  0.90290000  1.0 0.3022607126
C  C89  1  0.61947000  0.40923000  0.87936000  1.0 0.2608283804
C  C90  1  0.60188000  0.38604000  0.86274000  1.0 0.012429044
C  C91  1  0.60852000  0.37072000  0.85408000  1.0 -0.1105137151
C  C92  1  0.59246000  0.34849000  0.83735000  1.0 -0.0911348855
C  C93  1  0.56966000  0.34087000  0.83031000  1.0 -0.0454077434
C  C94  1  0.56320000  0.35589000  0.83981000  1.0 -0.0981857934
C  C95  1  0.57893000  0.37834000  0.85607000  1.0 -0.1842769534
C  C96  1  0.55213000  0.31688000  0.81245000  1.0 0.6242175824
C  C97  1  0.75862000  0.56211000  0.95993000  1.0 0.6242175824
C  C98  1  0.73638000  0.55839000  0.94409000  1.0 -0.0362889079
C  C99  1  0.71821000  0.54925000  0.94664000  1.0 -0.0981857934
C  C100  1  0.69661000  0.54440000  0.93091000  1.0 -0.1697123239
C  C101  1  0.69423000  0.54955000  0.91354000  1.0 -0.0130735305
C  C102  1  0.71351000  0.55945000  0.91236000  1.0 -0.1105137151
C  C103  1  0.73403000  0.56307000  0.92714000  1.0 -0.0981857934
C  C104  1  0.67315000  0.54584000  0.89845000  1.0 0.2696112048
C  C105  1  0.88997000  0.61707000  0.03582000  1.0 0.6381326617
C  C106  1  0.91384000  0.63598000  0.04916000  1.0 -0.0630705643
C  C107  1  0.91873000  0.65637000  0.06426000  1.0 -0.0790157113
C  C108  1  0.94149000  0.67603000  0.07952000  1.0 -0.1697123239
C  C109  1  0.95818000  0.67121000  0.07635000  1.0 0.012429044
C  C110  1  0.95270000  0.65023000  0.06047000  1.0 -0.1304455674
C  C111  1  0.93033000  0.63265000  0.04702000  1.0 -0.0911348855
C  C112  1  0.98300000  0.68905000  0.09099000  1.0 0.2873855117
C  C113  1  0.87409000  0.54746000  0.03321000  1.0 0.6643248863
C  C114  1  0.88936000  0.53831000  0.03953000  1.0 -0.0981857934
C  C115  1  0.90419000  0.53850000  0.03179000  1.0 0.0217965257
C  C116  1  0.91856000  0.52993000  0.03747000  1.0 -0.1697123239
C  C117  1  0.91581000  0.51896000  0.05055000  1.0 0.0365421665
C  C118  1  0.90192000  0.51945000  0.05955000  1.0 -0.0362889079
C  C119  1  0.88763000  0.52901000  0.05334000  1.0 0.0674115572
C  C120  1  0.92969000  0.50851000  0.05608000  1.0 0.2873855117
C  C121  1  0.45578000  0.49555000  0.24221000  1.0 0.6259705164
C  C122  1  0.45786000  0.51259000  0.23417000  1.0 -0.0342103263
C  C123  1  0.46324000  0.53455000  0.24833000  1.0 -0.0911348855
C  C124  1  0.46515000  0.54999000  0.24082000  1.0 -0.1105137151
C  C125  1  0.46168000  0.54383000  0.21903000  1.0 0.0297287658
C  C126  1  0.45638000  0.52165000  0.20485000  1.0 -0.1304455674
C  C127  1  0.45453000  0.50652000  0.21291000  1.0 -0.1105137151
C  C128  1  0.46349000  0.56059000  0.21108000  1.0 0.3022607126
C  C129  1  0.47013000  0.59077000  0.21024000  1.0 0.2608283804
C  C130  1  0.47670000  0.61396000  0.21584000  1.0 0.012429044
C  C131  1  0.48336000  0.62928000  0.23780000  1.0 -0.1105137151
C  C132  1  0.48886000  0.65151000  0.24397000  1.0 -0.0911348855
C  C133  1  0.48944000  0.65913000  0.22879000  1.0 -0.0454077434
C  C134  1  0.48392000  0.64411000  0.20731000  1.0 -0.0981857934
C  C135  1  0.47773000  0.62166000  0.20059000  1.0 -0.1842769534
C  C136  1  0.49557000  0.68312000  0.23525000  1.0 0.6259705164
C  C137  1  0.39782000  0.43789000  0.19651000  1.0 0.6242175824
C  C138  1  0.38570000  0.44161000  0.17799000  1.0 -0.0362889079
C  C139  1  0.39739000  0.45075000  0.16896000  1.0 -0.0981857934
C  C140  1  0.38651000  0.45560000  0.15221000  1.0 -0.1697123239
C  C141  1  0.36399000  0.45045000  0.14468000  1.0 -0.0130735305
C  C142  1  0.35291000  0.44055000  0.15406000  1.0 -0.1105137151
C  C143  1  0.36407000  0.43693000  0.17096000  1.0 -0.0981857934
C  C144  1  0.35261000  0.45416000  0.12731000  1.0 0.2696112048
C  C145  1  0.41875000  0.38293000  0.27290000  1.0 0.6381326617
C  C146  1  0.41318000  0.36402000  0.27786000  1.0 -0.0630705643
C  C147  1  0.40789000  0.34363000  0.26236000  1.0 -0.0790157113
C  C148  1  0.40349000  0.32397000  0.26546000  1.0 -0.1697123239
C  C149  1  0.40514000  0.32879000  0.28697000  1.0 0.012429044
C  C150  1  0.41024000  0.34977000  0.30247000  1.0 -0.1304455674
C  C151  1  0.41437000  0.36735000  0.29768000  1.0 -0.0911348855
C  C152  1  0.40194000  0.31095000  0.29395000  1.0 0.2873855117
C  C153  1  0.48575000  0.45254000  0.32663000  1.0 0.6643248863
C  C154  1  0.50122000  0.46169000  0.35105000  1.0 -0.0981857934
C  C155  1  0.49329000  0.46150000  0.36569000  1.0 0.0217965257
C  C156  1  0.50754000  0.47007000  0.38863000  1.0 -0.1697123239
C  C157  1  0.53159000  0.48104000  0.39685000  1.0 0.0365421665
C  C158  1  0.54010000  0.48055000  0.38247000  1.0 -0.0342103263
C  C159  1  0.52433000  0.47099000  0.35862000  1.0 0.0674115572
C  C160  1  0.54757000  0.49149000  0.42118000  1.0 0.2873855117
C  C161  1  0.03977000  0.54422000  0.78643000  1.0 0.6259705164
C  C162  1  0.05473000  0.54214000  0.77631000  1.0 -0.0362889079
C  C163  1  0.07131000  0.53676000  0.78509000  1.0 -0.0911348855
C  C164  1  0.08484000  0.53485000  0.77567000  1.0 -0.1105137151
C  C165  1  0.08215000  0.53832000  0.75735000  1.0 0.0297287658
C  C166  1  0.06527000  0.54362000  0.74847000  1.0 -0.1304455674
C  C167  1  0.05199000  0.54547000  0.75838000  1.0 -0.1105137151
C  C168  1  0.09710000  0.53651000  0.74759000  1.0 0.3022607126
C  C169  1  0.12064000  0.52987000  0.74011000  1.0 0.2608283804
C  C170  1  0.13726000  0.52330000  0.73914000  1.0 0.012429044
C  C171  1  0.14592000  0.51664000  0.75444000  1.0 -0.1105137151
C  C172  1  0.16265000  0.51114000  0.75511000  1.0 -0.0911348855
C  C173  1  0.16969000  0.51056000  0.73935000  1.0 -0.0454077434
C  C174  1  0.16019000  0.51608000  0.72339000  1.0 -0.0981857934
C  C175  1  0.14393000  0.52227000  0.72286000  1.0 -0.1842769534
C  C176  1  0.18755000  0.50443000  0.73968000  1.0 0.6242175824
C  C177  1  0.04007000  0.60218000  0.79869000  1.0 0.6242175824
C  C178  1  0.05591000  0.61430000  0.79229000  1.0 -0.0362889079
C  C179  1  0.05336000  0.60261000  0.77157000  1.0 -0.0981857934
C  C180  1  0.06909000  0.61349000  0.76570000  1.0 -0.1697123239
C  C181  1  0.08646000  0.63601000  0.78069000  1.0 -0.0130735305
C  C182  1  0.08764000  0.64709000  0.80115000  1.0 -0.1105137151
C  C183  1  0.07286000  0.63593000  0.80689000  1.0 -0.0981857934
C  C184  1  0.10155000  0.64739000  0.77470000  1.0 0.2696112048
C  C185  1  0.96418000  0.58125000  0.85415000  1.0 0.6381326617
C  C186  1  0.95084000  0.58682000  0.86468000  1.0 -0.0630705643
C  C187  1  0.93574000  0.59211000  0.85447000  1.0 -0.0790157113
C  C188  1  0.92048000  0.59651000  0.86197000  1.0 -0.1697123239
C  C189  1  0.92365000  0.59486000  0.88183000  1.0 0.0217965257
C  C190  1  0.93953000  0.58976000  0.89223000  1.0 -0.1304455674
C  C191  1  0.95298000  0.58563000  0.88331000  1.0 -0.0911348855
C  C192  1  0.90901000  0.59806000  0.89201000  1.0 0.2830184487
C  C193  1  0.96679000  0.51425000  0.84088000  1.0 0.6643248863
C  C194  1  0.96047000  0.49878000  0.84983000  1.0 -0.0981857934
C  C195  1  0.96821000  0.50671000  0.87240000  1.0 0.0217965257
C  C196  1  0.96253000  0.49246000  0.88109000  1.0 -0.1697123239
C  C197  1  0.94945000  0.46841000  0.86526000  1.0 0.0365421665
C  C198  1  0.94045000  0.45990000  0.84237000  1.0 -0.0362889079
C  C199  1  0.94666000  0.47567000  0.83429000  1.0 0.0674115572
C  C200  1  0.94392000  0.45243000  0.87361000  1.0 0.2873855117
C  C201  1  0.75779000  0.25334000  0.21357000  1.0 0.6259705164
C  C202  1  0.76583000  0.27842000  0.22369000  1.0 -0.0342103263
C  C203  1  0.75167000  0.28622000  0.21491000  1.0 -0.0911348855
C  C204  1  0.75918000  0.30917000  0.22433000  1.0 -0.1105137151
C  C205  1  0.78097000  0.32480000  0.24265000  1.0 0.0297287658
C  C206  1  0.79515000  0.31680000  0.25153000  1.0 -0.1304455674
C  C207  1  0.78709000  0.29361000  0.24162000  1.0 -0.1105137151
C  C208  1  0.78892000  0.34951000  0.25241000  1.0 0.3022607126
C  C209  1  0.78976000  0.38053000  0.25989000  1.0 0.2608283804
C  C210  1  0.78416000  0.39812000  0.26086000  1.0 0.012429044
C  C211  1  0.76220000  0.39148000  0.24556000  1.0 -0.1105137151
C  C212  1  0.75603000  0.40754000  0.24489000  1.0 -0.0911348855
C  C213  1  0.77121000  0.43034000  0.26065000  1.0 -0.0454077434
C  C214  1  0.79269000  0.43680000  0.27661000  1.0 -0.0981857934
C  C215  1  0.79941000  0.42107000  0.27714000  1.0 -0.1842769534
C  C216  1  0.76475000  0.44787000  0.26032000  1.0 0.6242175824
C  C217  1  0.80349000  0.24138000  0.20131000  1.0 0.6242175824
C  C218  1  0.82201000  0.26362000  0.20771000  1.0 -0.0362889079
C  C219  1  0.83104000  0.28179000  0.22843000  1.0 -0.0981857934
C  C220  1  0.84779000  0.30339000  0.23430000  1.0 -0.1697123239
C  C221  1  0.85532000  0.30577000  0.21931000  1.0 -0.0130735305
C  C222  1  0.84594000  0.28649000  0.19885000  1.0 -0.1105137151
C  C223  1  0.82904000  0.26597000  0.19311000  1.0 -0.0981857934
C  C224  1  0.87269000  0.32685000  0.22530000  1.0 0.2696112048
C  C225  1  0.72710000  0.11003000  0.14585000  1.0 0.6381326617
C  C226  1  0.72214000  0.08616000  0.13532000  1.0 -0.0630705643
C  C227  1  0.73764000  0.08127000  0.14553000  1.0 -0.0790157113
C  C228  1  0.73454000  0.05851000  0.13803000  1.0 -0.1697123239
C  C229  1  0.71303000  0.04182000  0.11817000  1.0 0.012429044
C  C230  1  0.69753000  0.04730000  0.10777000  1.0 -0.1304455674
C  C231  1  0.70232000  0.06967000  0.11669000  1.0 -0.0911348855
C  C232  1  0.70605000  0.01700000  0.10799000  1.0 0.2873855117
C  C233  1  0.67337000  0.12591000  0.15912000  1.0 0.6643248863
C  C234  1  0.64895000  0.11064000  0.15017000  1.0 -0.0981857934
C  C235  1  0.63431000  0.09581000  0.12760000  1.0 0.0217965257
C  C236  1  0.61137000  0.08144000  0.11891000  1.0 -0.1697123239
C  C237  1  0.60315000  0.08419000  0.13474000  1.0 0.0365421665
C  C238  1  0.61753000  0.09808000  0.15763000  1.0 -0.0362889079
C  C239  1  0.64138000  0.11237000  0.16571000  1.0 0.0674115572
C  C240  1  0.57882000  0.07031000  0.12639000  1.0 0.2873855117
C  C241  1  0.24221000  0.45578000  0.49555000  1.0 0.6259705164
C  C242  1  0.23417000  0.45786000  0.51259000  1.0 -0.0342103263
C  C243  1  0.24833000  0.46324000  0.53455000  1.0 -0.0911348855
C  C244  1  0.24082000  0.46515000  0.54999000  1.0 -0.1105137151
C  C245  1  0.21903000  0.46168000  0.54383000  1.0 0.0297287658
C  C246  1  0.20485000  0.45638000  0.52165000  1.0 -0.1304455674
C  C247  1  0.21291000  0.45453000  0.50652000  1.0 -0.1105137151
C  C248  1  0.21108000  0.46349000  0.56059000  1.0 0.3022607126
C  C249  1  0.21024000  0.47013000  0.59077000  1.0 0.2608283804
C  C250  1  0.21584000  0.47670000  0.61396000  1.0 0.012429044
C  C251  1  0.23780000  0.48336000  0.62928000  1.0 -0.1105137151
C  C252  1  0.24397000  0.48886000  0.65151000  1.0 -0.0911348855
C  C253  1  0.22879000  0.48944000  0.65913000  1.0 -0.0454077434
C  C254  1  0.20731000  0.48392000  0.64411000  1.0 -0.0981857934
C  C255  1  0.20059000  0.47773000  0.62166000  1.0 -0.1842769534
C  C256  1  0.23525000  0.49557000  0.68312000  1.0 0.6242175824
C  C257  1  0.19651000  0.39782000  0.43789000  1.0 0.6242175824
C  C258  1  0.17799000  0.38570000  0.44161000  1.0 -0.0362889079
C  C259  1  0.16896000  0.39739000  0.45075000  1.0 -0.0981857934
C  C260  1  0.15221000  0.38651000  0.45560000  1.0 -0.1697123239
C  C261  1  0.14468000  0.36399000  0.45045000  1.0 -0.0130735305
C  C262  1  0.15406000  0.35291000  0.44055000  1.0 -0.1105137151
C  C263  1  0.17096000  0.36407000  0.43693000  1.0 -0.0981857934
C  C264  1  0.12731000  0.35261000  0.45416000  1.0 0.2696112048
C  C265  1  0.27290000  0.41875000  0.38293000  1.0 0.6381326617
C  C266  1  0.27786000  0.41318000  0.36402000  1.0 -0.0630705643
C  C267  1  0.26236000  0.40789000  0.34363000  1.0 -0.0790157113
C  C268  1  0.26546000  0.40349000  0.32397000  1.0 -0.1697123239
C  C269  1  0.28697000  0.40514000  0.32879000  1.0 0.012429044
C  C270  1  0.30247000  0.41024000  0.34977000  1.0 -0.1304455674
C  C271  1  0.29768000  0.41437000  0.36735000  1.0 -0.0911348855
C  C272  1  0.29395000  0.40194000  0.31095000  1.0 0.2873855117
C  C273  1  0.32663000  0.48575000  0.45254000  1.0 0.6643248863
C  C274  1  0.35105000  0.50122000  0.46169000  1.0 -0.0981857934
C  C275  1  0.36569000  0.49329000  0.46150000  1.0 0.0217965257
C  C276  1  0.38863000  0.50754000  0.47007000  1.0 -0.1697123239
C  C277  1  0.39685000  0.53159000  0.48104000  1.0 0.0365421665
C  C278  1  0.38247000  0.54010000  0.48055000  1.0 -0.0362889079
C  C279  1  0.35862000  0.52433000  0.47099000  1.0 0.0674115572
C  C280  1  0.42118000  0.54757000  0.49149000  1.0 0.2873855117
C  C281  1  0.96023000  0.74666000  0.50445000  1.0 0.6259705164
C  C282  1  0.94527000  0.72158000  0.48741000  1.0 -0.0342103263
C  C283  1  0.92869000  0.71378000  0.46545000  1.0 -0.0911348855
C  C284  1  0.91516000  0.69083000  0.45001000  1.0 -0.1105137151
C  C285  1  0.91785000  0.67520000  0.45617000  1.0 0.0297287658
C  C286  1  0.93473000  0.68320000  0.47835000  1.0 -0.1304455674
C  C287  1  0.94801000  0.70639000  0.49348000  1.0 -0.1105137151
C  C288  1  0.90290000  0.65049000  0.43941000  1.0 0.3022607126
C  C289  1  0.87936000  0.61947000  0.40923000  1.0 0.2608283804
C  C290  1  0.86274000  0.60188000  0.38604000  1.0 0.012429044
C  C291  1  0.85408000  0.60852000  0.37072000  1.0 -0.1105137151
C  C292  1  0.83735000  0.59246000  0.34849000  1.0 -0.0981857934
C  C293  1  0.83031000  0.56966000  0.34087000  1.0 -0.0362889079
C  C294  1  0.83981000  0.56320000  0.35589000  1.0 -0.0981857934
C  C295  1  0.85607000  0.57893000  0.37834000  1.0 -0.1859341883
C  C296  1  0.81245000  0.55213000  0.31688000  1.0 0.6242175824
C  C297  1  0.95993000  0.75862000  0.56211000  1.0 0.6242175824
C  C298  1  0.94409000  0.73638000  0.55839000  1.0 -0.0362889079
C  C299  1  0.94664000  0.71821000  0.54925000  1.0 -0.0981857934
C  C300  1  0.93091000  0.69661000  0.54440000  1.0 -0.1697123239
C  C301  1  0.91354000  0.69423000  0.54955000  1.0 -0.0130735305
C  C302  1  0.91236000  0.71351000  0.55945000  1.0 -0.1105137151
C  C303  1  0.92714000  0.73403000  0.56307000  1.0 -0.0981857934
C  C304  1  0.89845000  0.67315000  0.54584000  1.0 0.2696112048
C  C305  1  0.03582000  0.88997000  0.61707000  1.0 0.6381326617
C  C306  1  0.04916000  0.91384000  0.63598000  1.0 -0.0630705643
C  C307  1  0.06426000  0.91873000  0.65637000  1.0 -0.0790157113
C  C308  1  0.07952000  0.94149000  0.67603000  1.0 -0.1697123239
C  C309  1  0.07635000  0.95818000  0.67121000  1.0 0.012429044
C  C310  1  0.06047000  0.95270000  0.65023000  1.0 -0.1304455674
C  C311  1  0.04702000  0.93033000  0.63265000  1.0 -0.0911348855
C  C312  1  0.09099000  0.98300000  0.68905000  1.0 0.2873855117
C  C313  1  0.03321000  0.87409000  0.54746000  1.0 0.6643248863
C  C314  1  0.03953000  0.88936000  0.53831000  1.0 -0.0981857934
C  C315  1  0.03179000  0.90419000  0.53850000  1.0 0.0217965257
C  C316  1  0.03747000  0.91856000  0.52993000  1.0 -0.1697123239
C  C317  1  0.05055000  0.91581000  0.51896000  1.0 0.0365421665
C  C318  1  0.05955000  0.90192000  0.51945000  1.0 -0.0362889079
C  C319  1  0.05334000  0.88763000  0.52901000  1.0 0.0674115572
C  C320  1  0.05608000  0.92969000  0.50851000  1.0 0.2873855117
C  C321  1  0.49555000  0.24221000  0.45578000  1.0 0.6259705164
C  C322  1  0.51259000  0.23417000  0.45786000  1.0 -0.0342103263
C  C323  1  0.53455000  0.24833000  0.46324000  1.0 -0.0911348855
C  C324  1  0.54999000  0.24082000  0.46515000  1.0 -0.1105137151
C  C325  1  0.54383000  0.21903000  0.46168000  1.0 0.0297287658
C  C326  1  0.52165000  0.20485000  0.45638000  1.0 -0.1304455674
C  C327  1  0.50652000  0.21291000  0.45453000  1.0 -0.1105137151
C  C328  1  0.56059000  0.21108000  0.46349000  1.0 0.3022607126
C  C329  1  0.59077000  0.21024000  0.47013000  1.0 0.2608283804
C  C330  1  0.61396000  0.21584000  0.47670000  1.0 0.012429044
C  C331  1  0.62928000  0.23780000  0.48336000  1.0 -0.1105137151
C  C332  1  0.65151000  0.24397000  0.48886000  1.0 -0.0911348855
C  C333  1  0.65913000  0.22879000  0.48944000  1.0 -0.0454077434
C  C334  1  0.64411000  0.20731000  0.48392000  1.0 -0.0981857934
C  C335  1  0.62166000  0.20059000  0.47773000  1.0 -0.1842769534
C  C336  1  0.68312000  0.23525000  0.49557000  1.0 0.6242175824
C  C337  1  0.43789000  0.19651000  0.39782000  1.0 0.6242175824
C  C338  1  0.44161000  0.17799000  0.38570000  1.0 -0.0362889079
C  C339  1  0.45075000  0.16896000  0.39739000  1.0 -0.0981857934
C  C340  1  0.45560000  0.15221000  0.38651000  1.0 -0.1697123239
C  C341  1  0.45045000  0.14468000  0.36399000  1.0 -0.0130735305
C  C342  1  0.44055000  0.15406000  0.35291000  1.0 -0.1105137151
C  C343  1  0.43693000  0.17096000  0.36407000  1.0 -0.0981857934
C  C344  1  0.45416000  0.12731000  0.35261000  1.0 0.2696112048
C  C345  1  0.38293000  0.27290000  0.41875000  1.0 0.6381326617
C  C346  1  0.36402000  0.27786000  0.41318000  1.0 -0.0630705643
C  C347  1  0.34363000  0.26236000  0.40789000  1.0 -0.0790157113
C  C348  1  0.32397000  0.26546000  0.40349000  1.0 -0.1697123239
C  C349  1  0.32879000  0.28697000  0.40514000  1.0 0.012429044
C  C350  1  0.34977000  0.30247000  0.41024000  1.0 -0.1304455674
C  C351  1  0.36735000  0.29768000  0.41437000  1.0 -0.0911348855
C  C352  1  0.31095000  0.29395000  0.40194000  1.0 0.2873855117
C  C353  1  0.45254000  0.32663000  0.48575000  1.0 0.6643248863
C  C354  1  0.46169000  0.35105000  0.50122000  1.0 -0.0981857934
C  C355  1  0.46150000  0.36569000  0.49329000  1.0 0.0217965257
C  C356  1  0.47007000  0.38863000  0.50754000  1.0 -0.1697123239
C  C357  1  0.48104000  0.39685000  0.53159000  1.0 0.0365421665
C  C358  1  0.48055000  0.38247000  0.54010000  1.0 -0.0362889079
C  C359  1  0.47099000  0.35862000  0.52433000  1.0 0.0674115572
C  C360  1  0.49149000  0.42118000  0.54757000  1.0 0.2873855117
C  C361  1  0.50445000  0.96023000  0.74666000  1.0 0.6259705164
C  C362  1  0.48741000  0.94527000  0.72158000  1.0 -0.0362889079
C  C363  1  0.46545000  0.92869000  0.71378000  1.0 -0.0911348855
C  C364  1  0.45001000  0.91516000  0.69083000  1.0 -0.1105137151
C  C365  1  0.45617000  0.91785000  0.67520000  1.0 0.0297287658
C  C366  1  0.47835000  0.93473000  0.68320000  1.0 -0.1304455674
C  C367  1  0.49348000  0.94801000  0.70639000  1.0 -0.1105137151
C  C368  1  0.43941000  0.90290000  0.65049000  1.0 0.3022607126
C  C369  1  0.40923000  0.87936000  0.61947000  1.0 0.2608283804
C  C370  1  0.38604000  0.86274000  0.60188000  1.0 0.012429044
C  C371  1  0.37072000  0.85408000  0.60852000  1.0 -0.1105137151
C  C372  1  0.34849000  0.83735000  0.59246000  1.0 -0.0911348855
C  C373  1  0.34087000  0.83031000  0.56966000  1.0 -0.0454077434
C  C374  1  0.35589000  0.83981000  0.56320000  1.0 -0.0981857934
C  C375  1  0.37834000  0.85607000  0.57893000  1.0 -0.1842769534
C  C376  1  0.31688000  0.81245000  0.55213000  1.0 0.6242175824
C  C377  1  0.56211000  0.95993000  0.75862000  1.0 0.6242175824
C  C378  1  0.55839000  0.94409000  0.73638000  1.0 -0.0362889079
C  C379  1  0.54925000  0.94664000  0.71821000  1.0 -0.0981857934
C  C380  1  0.54440000  0.93091000  0.69661000  1.0 -0.1697123239
C  C381  1  0.54955000  0.91354000  0.69423000  1.0 -0.0130735305
C  C382  1  0.55945000  0.91236000  0.71351000  1.0 -0.1105137151
C  C383  1  0.56307000  0.92714000  0.73403000  1.0 -0.0981857934
C  C384  1  0.54584000  0.89845000  0.67315000  1.0 0.2696112048
C  C385  1  0.61707000  0.03582000  0.88997000  1.0 0.6381326617
C  C386  1  0.63598000  0.04916000  0.91384000  1.0 -0.0630705643
C  C387  1  0.65637000  0.06426000  0.91873000  1.0 -0.0790157113
C  C388  1  0.67603000  0.07952000  0.94149000  1.0 -0.1697123239
C  C389  1  0.67121000  0.07635000  0.95818000  1.0 0.0217965257
C  C390  1  0.65023000  0.06047000  0.95270000  1.0 -0.1304455674
C  C391  1  0.63265000  0.04702000  0.93033000  1.0 -0.0911348855
C  C392  1  0.68905000  0.09099000  0.98300000  1.0 0.2873855117
C  C393  1  0.54746000  0.03321000  0.87409000  1.0 0.6662948357
C  C394  1  0.53831000  0.03953000  0.88936000  1.0 -0.0981857934
C  C395  1  0.53850000  0.03179000  0.90419000  1.0 0.0217965257
C  C396  1  0.52993000  0.03747000  0.91856000  1.0 -0.1697123239
C  C397  1  0.51896000  0.05055000  0.91581000  1.0 0.0365421665
C  C398  1  0.51945000  0.05955000  0.90192000  1.0 -0.0342103263
C  C399  1  0.52901000  0.05334000  0.88763000  1.0 0.0674115572
C  C400  1  0.50851000  0.05608000  0.92969000  1.0 0.2873855117
C  C401  1  0.78643000  0.03977000  0.54422000  1.0 0.6259705164
C  C402  1  0.77631000  0.05473000  0.54214000  1.0 -0.0342103263
C  C403  1  0.78509000  0.07131000  0.53676000  1.0 -0.0911348855
C  C404  1  0.77567000  0.08484000  0.53485000  1.0 -0.1105137151
C  C405  1  0.75735000  0.08215000  0.53832000  1.0 0.0297287658
C  C406  1  0.74847000  0.06527000  0.54362000  1.0 -0.1304455674
C  C407  1  0.75838000  0.05199000  0.54547000  1.0 -0.1105137151
C  C408  1  0.74759000  0.09710000  0.53651000  1.0 0.3022607126
C  C409  1  0.74011000  0.12064000  0.52987000  1.0 0.2608283804
C  C410  1  0.73914000  0.13726000  0.52330000  1.0 0.012429044
C  C411  1  0.75444000  0.14592000  0.51664000  1.0 -0.1105137151
C  C412  1  0.75511000  0.16265000  0.51114000  1.0 -0.0911348855
C  C413  1  0.73935000  0.16969000  0.51056000  1.0 -0.0454077434
C  C414  1  0.72339000  0.16019000  0.51608000  1.0 -0.0981857934
C  C415  1  0.72286000  0.14393000  0.52227000  1.0 -0.1842769534
C  C416  1  0.73968000  0.18755000  0.50443000  1.0 0.6242175824
C  C417  1  0.79869000  0.04007000  0.60218000  1.0 0.6242175824
C  C418  1  0.79229000  0.05591000  0.61430000  1.0 -0.0362889079
C  C419  1  0.77157000  0.05336000  0.60261000  1.0 -0.0981857934
C  C420  1  0.76570000  0.06909000  0.61349000  1.0 -0.1697123239
C  C421  1  0.78069000  0.08646000  0.63601000  1.0 -0.0130735305
C  C422  1  0.80115000  0.08764000  0.64709000  1.0 -0.1105137151
C  C423  1  0.80689000  0.07286000  0.63593000  1.0 -0.0981857934
C  C424  1  0.77470000  0.10155000  0.64739000  1.0 0.2696112048
C  C425  1  0.85415000  0.96418000  0.58125000  1.0 0.6381326617
C  C426  1  0.86468000  0.95084000  0.58682000  1.0 -0.0630705643
C  C427  1  0.85447000  0.93574000  0.59211000  1.0 -0.0790157113
C  C428  1  0.86197000  0.92048000  0.59651000  1.0 -0.1697123239
C  C429  1  0.88183000  0.92365000  0.59486000  1.0 0.0217965257
C  C430  1  0.89223000  0.93953000  0.58976000  1.0 -0.1304455674
C  C431  1  0.88331000  0.95298000  0.58563000  1.0 -0.0911348855
C  C432  1  0.89201000  0.90901000  0.59806000  1.0 0.2873855117
C  C433  1  0.84088000  0.96679000  0.51425000  1.0 0.6643248863
C  C434  1  0.84983000  0.96047000  0.49878000  1.0 -0.0981857934
C  C435  1  0.87240000  0.96821000  0.50671000  1.0 0.0217965257
C  C436  1  0.88109000  0.96253000  0.49246000  1.0 -0.1697123239
C  C437  1  0.86526000  0.94945000  0.46841000  1.0 0.0365421665
C  C438  1  0.84237000  0.94045000  0.45990000  1.0 -0.0362889079
C  C439  1  0.83429000  0.94666000  0.47567000  1.0 0.0674115572
C  C440  1  0.87361000  0.94392000  0.45243000  1.0 0.2873855117
C  C441  1  0.21357000  0.75779000  0.25334000  1.0 0.6259705164
C  C442  1  0.22369000  0.76583000  0.27842000  1.0 -0.0362889079
C  C443  1  0.21491000  0.75167000  0.28622000  1.0 -0.0911348855
C  C444  1  0.22433000  0.75918000  0.30917000  1.0 -0.1105137151
C  C445  1  0.24265000  0.78097000  0.32480000  1.0 0.0297287658
C  C446  1  0.25153000  0.79515000  0.31680000  1.0 -0.1304455674
C  C447  1  0.24162000  0.78709000  0.29361000  1.0 -0.1105137151
C  C448  1  0.25241000  0.78892000  0.34951000  1.0 0.3022607126
C  C449  1  0.25989000  0.78976000  0.38053000  1.0 0.2608283804
C  C450  1  0.26086000  0.78416000  0.39812000  1.0 0.012429044
C  C451  1  0.24556000  0.76220000  0.39148000  1.0 -0.1105137151
C  C452  1  0.24489000  0.75603000  0.40754000  1.0 -0.0911348855
C  C453  1  0.26065000  0.77121000  0.43034000  1.0 -0.0454077434
C  C454  1  0.27661000  0.79269000  0.43680000  1.0 -0.0981857934
C  C455  1  0.27714000  0.79941000  0.42107000  1.0 -0.1842769534
C  C456  1  0.26032000  0.76475000  0.44787000  1.0 0.6242175824
C  C457  1  0.20131000  0.80349000  0.24138000  1.0 0.6242175824
C  C458  1  0.20771000  0.82201000  0.26362000  1.0 -0.0362889079
C  C459  1  0.22843000  0.83104000  0.28179000  1.0 -0.0981857934
C  C460  1  0.23430000  0.84779000  0.30339000  1.0 -0.1697123239
C  C461  1  0.21931000  0.85532000  0.30577000  1.0 -0.0150755322
C  C462  1  0.19885000  0.84594000  0.28649000  1.0 -0.115069183
C  C463  1  0.19311000  0.82904000  0.26597000  1.0 -0.0981857934
C  C464  1  0.22530000  0.87269000  0.32685000  1.0 0.2830184487
C  C465  1  0.14585000  0.72710000  0.11003000  1.0 0.6381326617
C  C466  1  0.13532000  0.72214000  0.08616000  1.0 -0.0630705643
C  C467  1  0.14553000  0.73764000  0.08127000  1.0 -0.0790157113
C  C468  1  0.13803000  0.73454000  0.05851000  1.0 -0.1697123239
C  C469  1  0.11817000  0.71303000  0.04182000  1.0 0.012429044
C  C470  1  0.10777000  0.69753000  0.04730000  1.0 -0.1304455674
C  C471  1  0.11669000  0.70232000  0.06967000  1.0 -0.0911348855
C  C472  1  0.10799000  0.70605000  0.01700000  1.0 0.2873855117
C  C473  1  0.15912000  0.67337000  0.12591000  1.0 0.6643248863
C  C474  1  0.15017000  0.64895000  0.11064000  1.0 -0.0981857934
C  C475  1  0.12760000  0.63431000  0.09581000  1.0 0.0217965257
C  C476  1  0.11891000  0.61137000  0.08144000  1.0 -0.1697123239
C  C477  1  0.13474000  0.60315000  0.08419000  1.0 0.0365421665
C  C478  1  0.15763000  0.61753000  0.09808000  1.0 -0.0362889079
C  C479  1  0.16571000  0.64138000  0.11237000  1.0 0.0674115572
C  C480  1  0.12639000  0.57882000  0.07031000  1.0 0.2873855117
C  C481  1  0.24221000  0.78643000  0.74666000  1.0 0.6259705164
C  C482  1  0.23417000  0.77631000  0.72158000  1.0 -0.0362889079
C  C483  1  0.24833000  0.78509000  0.71378000  1.0 -0.0911348855
C  C484  1  0.24082000  0.77567000  0.69083000  1.0 -0.1105137151
C  C485  1  0.21903000  0.75735000  0.67520000  1.0 0.0297287658
C  C486  1  0.20485000  0.74847000  0.68320000  1.0 -0.1304455674
C  C487  1  0.21291000  0.75838000  0.70639000  1.0 -0.1105137151
C  C488  1  0.21108000  0.74759000  0.65049000  1.0 0.3022607126
C  C489  1  0.21024000  0.74011000  0.61947000  1.0 0.2608283804
C  C490  1  0.21584000  0.73914000  0.60188000  1.0 0.012429044
C  C491  1  0.23780000  0.75444000  0.60852000  1.0 -0.1105137151
C  C492  1  0.24397000  0.75511000  0.59246000  1.0 -0.0911348855
C  C493  1  0.22879000  0.73935000  0.56966000  1.0 -0.0454077434
C  C494  1  0.20731000  0.72339000  0.56320000  1.0 -0.0981857934
C  C495  1  0.20059000  0.72286000  0.57893000  1.0 -0.1842769534
C  C496  1  0.23525000  0.73968000  0.55213000  1.0 0.6242175824
C  C497  1  0.19651000  0.79869000  0.75862000  1.0 0.6242175824
C  C498  1  0.17799000  0.79229000  0.73638000  1.0 -0.0362889079
C  C499  1  0.16896000  0.77157000  0.71821000  1.0 -0.0981857934
C  C500  1  0.15221000  0.76570000  0.69661000  1.0 -0.1697123239
C  C501  1  0.14468000  0.78069000  0.69423000  1.0 -0.0130735305
C  C502  1  0.15406000  0.80115000  0.71351000  1.0 -0.1105137151
C  C503  1  0.17096000  0.80689000  0.73403000  1.0 -0.0981857934
C  C504  1  0.12731000  0.77470000  0.67315000  1.0 0.2696112048
C  C505  1  0.27290000  0.85415000  0.88997000  1.0 0.6381326617
C  C506  1  0.27786000  0.86468000  0.91384000  1.0 -0.0630705643
C  C507  1  0.26236000  0.85447000  0.91873000  1.0 -0.0790157113
C  C508  1  0.26546000  0.86197000  0.94149000  1.0 -0.1697123239
C  C509  1  0.28697000  0.88183000  0.95818000  1.0 0.012429044
C  C510  1  0.30247000  0.89223000  0.95270000  1.0 -0.1304455674
C  C511  1  0.29768000  0.88331000  0.93033000  1.0 -0.0911348855
C  C512  1  0.29395000  0.89201000  0.98300000  1.0 0.2830184487
C  C513  1  0.32663000  0.84088000  0.87409000  1.0 0.6643248863
C  C514  1  0.35105000  0.84983000  0.88936000  1.0 -0.0981857934
C  C515  1  0.36569000  0.87240000  0.90419000  1.0 0.0217965257
C  C516  1  0.38863000  0.88109000  0.91856000  1.0 -0.1697123239
C  C517  1  0.39685000  0.86526000  0.91581000  1.0 0.0365421665
C  C518  1  0.38247000  0.84237000  0.90192000  1.0 -0.0362889079
C  C519  1  0.35862000  0.83429000  0.88763000  1.0 0.0674115572
C  C520  1  0.42118000  0.87361000  0.92969000  1.0 0.2873855117
C  C521  1  0.96023000  0.21357000  0.45578000  1.0 0.6259705164
C  C522  1  0.94527000  0.22369000  0.45786000  1.0 -0.0342103263
C  C523  1  0.92869000  0.21491000  0.46324000  1.0 -0.0911348855
C  C524  1  0.91516000  0.22433000  0.46515000  1.0 -0.1105137151
C  C525  1  0.91785000  0.24265000  0.46168000  1.0 0.0297287658
C  C526  1  0.93473000  0.25153000  0.45638000  1.0 -0.1304455674
C  C527  1  0.94801000  0.24162000  0.45453000  1.0 -0.1105137151
C  C528  1  0.90290000  0.25241000  0.46349000  1.0 0.3022607126
C  C529  1  0.87936000  0.25989000  0.47013000  1.0 0.2608283804
C  C530  1  0.86274000  0.26086000  0.47670000  1.0 0.012429044
C  C531  1  0.85408000  0.24556000  0.48336000  1.0 -0.1105137151
C  C532  1  0.83735000  0.24489000  0.48886000  1.0 -0.0911348855
C  C533  1  0.83031000  0.26065000  0.48944000  1.0 -0.0454077434
C  C534  1  0.83981000  0.27661000  0.48392000  1.0 -0.0981857934
C  C535  1  0.85607000  0.27714000  0.47773000  1.0 -0.1842769534
C  C536  1  0.81245000  0.26032000  0.49557000  1.0 0.6242175824
C  C537  1  0.95993000  0.20131000  0.39782000  1.0 0.6242175824
C  C538  1  0.94409000  0.20771000  0.38570000  1.0 -0.0362889079
C  C539  1  0.94664000  0.22843000  0.39739000  1.0 -0.0981857934
C  C540  1  0.93091000  0.23430000  0.38651000  1.0 -0.1697123239
C  C541  1  0.91354000  0.21931000  0.36399000  1.0 -0.0130735305
C  C542  1  0.91236000  0.19885000  0.35291000  1.0 -0.1105137151
C  C543  1  0.92714000  0.19311000  0.36407000  1.0 -0.0981857934
C  C544  1  0.89845000  0.22530000  0.35261000  1.0 0.2696112048
C  C545  1  0.03582000  0.14585000  0.41875000  1.0 0.6381326617
C  C546  1  0.04916000  0.13532000  0.41318000  1.0 -0.0630705643
C  C547  1  0.06426000  0.14553000  0.40789000  1.0 -0.0790157113
C  C548  1  0.07952000  0.13803000  0.40349000  1.0 -0.1697123239
C  C549  1  0.07635000  0.11817000  0.40514000  1.0 0.012429044
C  C550  1  0.06047000  0.10777000  0.41024000  1.0 -0.1304455674
C  C551  1  0.04702000  0.11669000  0.41437000  1.0 -0.0911348855
C  C552  1  0.09099000  0.10799000  0.40194000  1.0 0.2873855117
C  C553  1  0.03321000  0.15912000  0.48575000  1.0 0.6643248863
C  C554  1  0.03953000  0.15017000  0.50122000  1.0 -0.0981857934
C  C555  1  0.03179000  0.12760000  0.49329000  1.0 0.0217965257
C  C556  1  0.03747000  0.11891000  0.50754000  1.0 -0.1697123239
C  C557  1  0.05055000  0.13474000  0.53159000  1.0 0.0365421665
C  C558  1  0.05955000  0.15763000  0.54010000  1.0 -0.0362889079
C  C559  1  0.05334000  0.16571000  0.52433000  1.0 0.0674115572
C  C560  1  0.05608000  0.12639000  0.54757000  1.0 0.2873855117
C  C561  1  0.03977000  0.49555000  0.25334000  1.0 0.6259705164
C  C562  1  0.05473000  0.51259000  0.27842000  1.0 -0.0342103263
C  C563  1  0.07131000  0.53455000  0.28622000  1.0 -0.0911348855
C  C564  1  0.08484000  0.54999000  0.30917000  1.0 -0.1105137151
C  C565  1  0.08215000  0.54383000  0.32480000  1.0 0.0297287658
C  C566  1  0.06527000  0.52165000  0.31680000  1.0 -0.1304455674
C  C567  1  0.05199000  0.50652000  0.29361000  1.0 -0.1105137151
C  C568  1  0.09710000  0.56059000  0.34951000  1.0 0.3022607126
C  C569  1  0.12064000  0.59077000  0.38053000  1.0 0.2608283804
C  C570  1  0.13726000  0.61396000  0.39812000  1.0 0.012429044
C  C571  1  0.14592000  0.62928000  0.39148000  1.0 -0.1105137151
C  C572  1  0.16265000  0.65151000  0.40754000  1.0 -0.0911348855
C  C573  1  0.16969000  0.65913000  0.43034000  1.0 -0.0454077434
C  C574  1  0.16019000  0.64411000  0.43680000  1.0 -0.0981857934
C  C575  1  0.14393000  0.62166000  0.42107000  1.0 -0.1859341883
C  C576  1  0.18755000  0.68312000  0.44787000  1.0 0.6242175824
C  C577  1  0.04007000  0.43789000  0.24138000  1.0 0.6242175824
C  C578  1  0.05591000  0.44161000  0.26362000  1.0 -0.0362889079
C  C579  1  0.05336000  0.45075000  0.28179000  1.0 -0.0981857934
C  C580  1  0.06909000  0.45560000  0.30339000  1.0 -0.1697123239
C  C581  1  0.08646000  0.45045000  0.30577000  1.0 -0.0130735305
C  C582  1  0.08764000  0.44055000  0.28649000  1.0 -0.1105137151
C  C583  1  0.07286000  0.43693000  0.26597000  1.0 -0.0981857934
C  C584  1  0.10155000  0.45416000  0.32685000  1.0 0.2696112048
C  C585  1  0.96418000  0.38293000  0.11003000  1.0 0.6381326617
C  C586  1  0.95084000  0.36402000  0.08616000  1.0 -0.0630705643
C  C587  1  0.93574000  0.34363000  0.08127000  1.0 -0.0790157113
C  C588  1  0.92048000  0.32397000  0.05851000  1.0 -0.1697123239
C  C589  1  0.92365000  0.32879000  0.04182000  1.0 0.012429044
C  C590  1  0.93953000  0.34977000  0.04730000  1.0 -0.1304455674
C  C591  1  0.95298000  0.36735000  0.06967000  1.0 -0.0911348855
C  C592  1  0.90901000  0.31095000  0.01700000  1.0 0.2873855117
C  C593  1  0.96679000  0.45254000  0.12591000  1.0 0.6643248863
C  C594  1  0.96047000  0.46169000  0.11064000  1.0 -0.0981857934
C  C595  1  0.96821000  0.46150000  0.09581000  1.0 0.0217965257
C  C596  1  0.96253000  0.47007000  0.08144000  1.0 -0.1697123239
C  C597  1  0.94945000  0.48104000  0.08419000  1.0 0.0365421665
C  C598  1  0.94045000  0.48055000  0.09808000  1.0 -0.0362889079
C  C599  1  0.94666000  0.47099000  0.11237000  1.0 0.0674115572
C  C600  1  0.94392000  0.49149000  0.07031000  1.0 0.2873855117
C  C601  1  0.75779000  0.50445000  0.54422000  1.0 0.6259705164
C  C602  1  0.76583000  0.48741000  0.54214000  1.0 -0.0342103263
C  C603  1  0.75167000  0.46545000  0.53676000  1.0 -0.0911348855
C  C604  1  0.75918000  0.45001000  0.53485000  1.0 -0.1105137151
C  C605  1  0.78097000  0.45617000  0.53832000  1.0 0.0297287658
C  C606  1  0.79515000  0.47835000  0.54362000  1.0 -0.1304455674
C  C607  1  0.78709000  0.49348000  0.54547000  1.0 -0.1105137151
C  C608  1  0.78892000  0.43941000  0.53651000  1.0 0.3022607126
C  C609  1  0.78976000  0.40923000  0.52987000  1.0 0.2608283804
C  C610  1  0.78416000  0.38604000  0.52330000  1.0 0.012429044
C  C611  1  0.76220000  0.37072000  0.51664000  1.0 -0.1105137151
C  C612  1  0.75603000  0.34849000  0.51114000  1.0 -0.0911348855
C  C613  1  0.77121000  0.34087000  0.51056000  1.0 -0.0454077434
C  C614  1  0.79269000  0.35589000  0.51608000  1.0 -0.0981857934
C  C615  1  0.79941000  0.37834000  0.52227000  1.0 -0.1842769534
C  C616  1  0.76475000  0.31688000  0.50443000  1.0 0.6242175824
C  C617  1  0.80349000  0.56211000  0.60218000  1.0 0.6242175824
C  C618  1  0.82201000  0.55839000  0.61430000  1.0 -0.0362889079
C  C619  1  0.83104000  0.54925000  0.60261000  1.0 -0.0981857934
C  C620  1  0.84779000  0.54440000  0.61349000  1.0 -0.1697123239
C  C621  1  0.85532000  0.54955000  0.63601000  1.0 -0.0130735305
C  C622  1  0.84594000  0.55945000  0.64709000  1.0 -0.1105137151
C  C623  1  0.82904000  0.56307000  0.63593000  1.0 -0.0981857934
C  C624  1  0.87269000  0.54584000  0.64739000  1.0 0.2696112048
C  C625  1  0.72710000  0.61707000  0.58125000  1.0 0.6381326617
C  C626  1  0.72214000  0.63598000  0.58682000  1.0 -0.0630705643
C  C627  1  0.73764000  0.65637000  0.59211000  1.0 -0.0790157113
C  C628  1  0.73454000  0.67603000  0.59651000  1.0 -0.1697123239
C  C629  1  0.71303000  0.67121000  0.59486000  1.0 0.012429044
C  C630  1  0.69753000  0.65023000  0.58976000  1.0 -0.1304455674
C  C631  1  0.70232000  0.63265000  0.58563000  1.0 -0.0911348855
C  C632  1  0.70605000  0.68905000  0.59806000  1.0 0.2873855117
C  C633  1  0.67337000  0.54746000  0.51425000  1.0 0.6643248863
C  C634  1  0.64895000  0.53831000  0.49878000  1.0 -0.0981857934
C  C635  1  0.63431000  0.53850000  0.50671000  1.0 0.0217965257
C  C636  1  0.61137000  0.52993000  0.49246000  1.0 -0.1618976452
C  C637  1  0.60315000  0.51896000  0.46841000  1.0 0.0365421665
C  C638  1  0.61753000  0.51945000  0.45990000  1.0 -0.0362889079
C  C639  1  0.64138000  0.52901000  0.47567000  1.0 0.0674115572
C  C640  1  0.57882000  0.50851000  0.45243000  1.0 0.2873855117
C  C641  1  0.21357000  0.45578000  0.96023000  1.0 0.6259705164
C  C642  1  0.22369000  0.45786000  0.94527000  1.0 -0.0362889079
C  C643  1  0.21491000  0.46324000  0.92869000  1.0 -0.0911348855
C  C644  1  0.22433000  0.46515000  0.91516000  1.0 -0.1105137151
C  C645  1  0.24265000  0.46168000  0.91785000  1.0 0.0297287658
C  C646  1  0.25153000  0.45638000  0.93473000  1.0 -0.1304455674
C  C647  1  0.24162000  0.45453000  0.94801000  1.0 -0.1105137151
C  C648  1  0.25241000  0.46349000  0.90290000  1.0 0.3022607126
C  C649  1  0.25989000  0.47013000  0.87936000  1.0 0.2608283804
C  C650  1  0.26086000  0.47670000  0.86274000  1.0 0.012429044
C  C651  1  0.24556000  0.48336000  0.85408000  1.0 -0.1105137151
C  C652  1  0.24489000  0.48886000  0.83735000  1.0 -0.0911348855
C  C653  1  0.26065000  0.48944000  0.83031000  1.0 -0.0454077434
C  C654  1  0.27661000  0.48392000  0.83981000  1.0 -0.0981857934
C  C655  1  0.27714000  0.47773000  0.85607000  1.0 -0.1842769534
C  C656  1  0.26032000  0.49557000  0.81245000  1.0 0.6242175824
C  C657  1  0.20131000  0.39782000  0.95993000  1.0 0.6242175824
C  C658  1  0.20771000  0.38570000  0.94409000  1.0 -0.0362889079
C  C659  1  0.22843000  0.39739000  0.94664000  1.0 -0.0981857934
C  C660  1  0.23430000  0.38651000  0.93091000  1.0 -0.1697123239
C  C661  1  0.21931000  0.36399000  0.91354000  1.0 -0.0130735305
C  C662  1  0.19885000  0.35291000  0.91236000  1.0 -0.1105137151
C  C663  1  0.19311000  0.36407000  0.92714000  1.0 -0.0981857934
C  C664  1  0.22530000  0.35261000  0.89845000  1.0 0.2696112048
C  C665  1  0.14585000  0.41875000  0.03582000  1.0 0.6381326617
C  C666  1  0.13532000  0.41318000  0.04916000  1.0 -0.0630705643
C  C667  1  0.14553000  0.40789000  0.06426000  1.0 -0.0790157113
C  C668  1  0.13803000  0.40349000  0.07952000  1.0 -0.1697123239
C  C669  1  0.11817000  0.40514000  0.07635000  1.0 0.012429044
C  C670  1  0.10777000  0.41024000  0.06047000  1.0 -0.1304455674
C  C671  1  0.11669000  0.41437000  0.04702000  1.0 -0.0911348855
C  C672  1  0.10799000  0.40194000  0.09099000  1.0 0.2830184487
C  C673  1  0.15912000  0.48575000  0.03321000  1.0 0.6643248863
C  C674  1  0.15017000  0.50122000  0.03953000  1.0 -0.0981857934
C  C675  1  0.12760000  0.49329000  0.03179000  1.0 0.0217965257
C  C676  1  0.11891000  0.50754000  0.03747000  1.0 -0.1697123239
C  C677  1  0.13474000  0.53159000  0.05055000  1.0 0.0365421665
C  C678  1  0.15763000  0.54010000  0.05955000  1.0 -0.0362889079
C  C679  1  0.16571000  0.52433000  0.05334000  1.0 0.0674115572
C  C680  1  0.12639000  0.54757000  0.05608000  1.0 0.2873855117
C  C681  1  0.78643000  0.74666000  0.24221000  1.0 0.6259705164
C  C682  1  0.77631000  0.72158000  0.23417000  1.0 -0.0362889079
C  C683  1  0.78509000  0.71378000  0.24833000  1.0 -0.0911348855
C  C684  1  0.77567000  0.69083000  0.24082000  1.0 -0.1105137151
C  C685  1  0.75735000  0.67520000  0.21903000  1.0 0.0297287658
C  C686  1  0.74847000  0.68320000  0.20485000  1.0 -0.1304455674
C  C687  1  0.75838000  0.70639000  0.21291000  1.0 -0.1105137151
C  C688  1  0.74759000  0.65049000  0.21108000  1.0 0.3022607126
C  C689  1  0.74011000  0.61947000  0.21024000  1.0 0.2608283804
C  C690  1  0.73914000  0.60188000  0.21584000  1.0 0.012429044
C  C691  1  0.75444000  0.60852000  0.23780000  1.0 -0.1105137151
C  C692  1  0.75511000  0.59246000  0.24397000  1.0 -0.0911348855
C  C693  1  0.73935000  0.56966000  0.22879000  1.0 -0.0454077434
C  C694  1  0.72339000  0.56320000  0.20731000  1.0 -0.0981857934
C  C695  1  0.72286000  0.57893000  0.20059000  1.0 -0.1842769534
C  C696  1  0.73968000  0.55213000  0.23525000  1.0 0.6259705164
C  C697  1  0.79869000  0.75862000  0.19651000  1.0 0.6242175824
C  C698  1  0.79229000  0.73638000  0.17799000  1.0 -0.0362889079
C  C699  1  0.77157000  0.71821000  0.16896000  1.0 -0.0981857934
C  C700  1  0.76570000  0.69661000  0.15221000  1.0 -0.1697123239
C  C701  1  0.78069000  0.69423000  0.14468000  1.0 -0.0130735305
C  C702  1  0.80115000  0.71351000  0.15406000  1.0 -0.1105137151
C  C703  1  0.80689000  0.73403000  0.17096000  1.0 -0.0981857934
C  C704  1  0.77470000  0.67315000  0.12731000  1.0 0.2696112048
C  C705  1  0.85415000  0.88997000  0.27290000  1.0 0.6381326617
C  C706  1  0.86468000  0.91384000  0.27786000  1.0 -0.0630705643
C  C707  1  0.85447000  0.91873000  0.26236000  1.0 -0.0790157113
C  C708  1  0.86197000  0.94149000  0.26546000  1.0 -0.1697123239
C  C709  1  0.88183000  0.95818000  0.28697000  1.0 0.012429044
C  C710  1  0.89223000  0.95270000  0.30247000  1.0 -0.1304455674
C  C711  1  0.88331000  0.93033000  0.29768000  1.0 -0.0911348855
C  C712  1  0.89201000  0.98300000  0.29395000  1.0 0.2873855117
C  C713  1  0.84088000  0.87409000  0.32663000  1.0 0.6643248863
C  C714  1  0.84983000  0.88936000  0.35105000  1.0 -0.0981857934
C  C715  1  0.87240000  0.90419000  0.36569000  1.0 0.0217965257
C  C716  1  0.88109000  0.91856000  0.38863000  1.0 -0.1697123239
C  C717  1  0.86526000  0.91581000  0.39685000  1.0 0.0365421665
C  C718  1  0.84237000  0.90192000  0.38247000  1.0 -0.0362889079
C  C719  1  0.83429000  0.88763000  0.35862000  1.0 0.0674115572
C  C720  1  0.87361000  0.92969000  0.42118000  1.0 0.2873855117
C  C721  1  0.50445000  0.54422000  0.75779000  1.0 0.6259705164
C  C722  1  0.48741000  0.54214000  0.76583000  1.0 -0.0342103263
C  C723  1  0.46545000  0.53676000  0.75167000  1.0 -0.0911348855
C  C724  1  0.45001000  0.53485000  0.75918000  1.0 -0.1105137151
C  C725  1  0.45617000  0.53832000  0.78097000  1.0 0.0297287658
C  C726  1  0.47835000  0.54362000  0.79515000  1.0 -0.1304455674
C  C727  1  0.49348000  0.54547000  0.78709000  1.0 -0.1105137151
C  C728  1  0.43941000  0.53651000  0.78892000  1.0 0.3022607126
C  C729  1  0.40923000  0.52987000  0.78976000  1.0 0.2608283804
C  C730  1  0.38604000  0.52330000  0.78416000  1.0 0.012429044
C  C731  1  0.37072000  0.51664000  0.76220000  1.0 -0.1105137151
C  C732  1  0.34849000  0.51114000  0.75603000  1.0 -0.0911348855
C  C733  1  0.34087000  0.51056000  0.77121000  1.0 -0.0454077434
C  C734  1  0.35589000  0.51608000  0.79269000  1.0 -0.0981857934
C  C735  1  0.37834000  0.52227000  0.79941000  1.0 -0.1842769534
C  C736  1  0.31688000  0.50443000  0.76475000  1.0 0.6242175824
C  C737  1  0.56211000  0.60218000  0.80349000  1.0 0.6242175824
C  C738  1  0.55839000  0.61430000  0.82201000  1.0 -0.0362889079
C  C739  1  0.54925000  0.60261000  0.83104000  1.0 -0.0981857934
C  C740  1  0.54440000  0.61349000  0.84779000  1.0 -0.1697123239
C  C741  1  0.54955000  0.63601000  0.85532000  1.0 -0.0130735305
C  C742  1  0.55945000  0.64709000  0.84594000  1.0 -0.1105137151
C  C743  1  0.56307000  0.63593000  0.82904000  1.0 -0.0981857934
C  C744  1  0.54584000  0.64739000  0.87269000  1.0 0.2696112048
C  C745  1  0.61707000  0.58125000  0.72710000  1.0 0.6381326617
C  C746  1  0.63598000  0.58682000  0.72214000  1.0 -0.0630705643
C  C747  1  0.65637000  0.59211000  0.73764000  1.0 -0.0790157113
C  C748  1  0.67603000  0.59651000  0.73454000  1.0 -0.1697123239
C  C749  1  0.67121000  0.59486000  0.71303000  1.0 0.012429044
C  C750  1  0.65023000  0.58976000  0.69753000  1.0 -0.1304455674
C  C751  1  0.63265000  0.58563000  0.70232000  1.0 -0.0911348855
C  C752  1  0.68905000  0.59806000  0.70605000  1.0 0.2873855117
C  C753  1  0.54746000  0.51425000  0.67337000  1.0 0.6643248863
C  C754  1  0.53831000  0.49878000  0.64895000  1.0 -0.0981857934
C  C755  1  0.53850000  0.50671000  0.63431000  1.0 0.0217965257
C  C756  1  0.52993000  0.49246000  0.61137000  1.0 -0.1697123239
C  C757  1  0.51896000  0.46841000  0.60315000  1.0 0.0365421665
C  C758  1  0.51945000  0.45990000  0.61753000  1.0 -0.0362889079
C  C759  1  0.52901000  0.47567000  0.64138000  1.0 0.0674115572
C  C760  1  0.50851000  0.45243000  0.57882000  1.0 0.2873855117
C  C761  1  0.49555000  0.25334000  0.03977000  1.0 0.6259705164
C  C762  1  0.51259000  0.27842000  0.05473000  1.0 -0.0342103263
C  C763  1  0.53455000  0.28622000  0.07131000  1.0 -0.0911348855
C  C764  1  0.54999000  0.30917000  0.08484000  1.0 -0.1105137151
C  C765  1  0.54383000  0.32480000  0.08215000  1.0 0.0297287658
C  C766  1  0.52165000  0.31680000  0.06527000  1.0 -0.1304455674
C  C767  1  0.50652000  0.29361000  0.05199000  1.0 -0.1105137151
C  C768  1  0.56059000  0.34951000  0.09710000  1.0 0.3022607126
C  C769  1  0.59077000  0.38053000  0.12064000  1.0 0.2608283804
C  C770  1  0.61396000  0.39812000  0.13726000  1.0 0.012429044
C  C771  1  0.62928000  0.39148000  0.14592000  1.0 -0.1105137151
C  C772  1  0.65151000  0.40754000  0.16265000  1.0 -0.0911348855
C  C773  1  0.65913000  0.43034000  0.16969000  1.0 -0.0454077434
C  C774  1  0.64411000  0.43680000  0.16019000  1.0 -0.0981857934
C  C775  1  0.62166000  0.42107000  0.14393000  1.0 -0.1842769534
C  C776  1  0.68312000  0.44787000  0.18755000  1.0 0.6242175824
C  C777  1  0.43789000  0.24138000  0.04007000  1.0 0.6242175824
C  C778  1  0.44161000  0.26362000  0.05591000  1.0 -0.0362889079
C  C779  1  0.45075000  0.28179000  0.05336000  1.0 -0.0981857934
C  C780  1  0.45560000  0.30339000  0.06909000  1.0 -0.1697123239
C  C781  1  0.45045000  0.30577000  0.08646000  1.0 -0.0130735305
C  C782  1  0.44055000  0.28649000  0.08764000  1.0 -0.1105137151
C  C783  1  0.43693000  0.26597000  0.07286000  1.0 -0.0981857934
C  C784  1  0.45416000  0.32685000  0.10155000  1.0 0.2696112048
C  C785  1  0.38293000  0.11003000  0.96418000  1.0 0.6381326617
C  C786  1  0.36402000  0.08616000  0.95084000  1.0 -0.0630705643
C  C787  1  0.34363000  0.08127000  0.93574000  1.0 -0.0790157113
C  C788  1  0.32397000  0.05851000  0.92048000  1.0 -0.1697123239
C  C789  1  0.32879000  0.04182000  0.92365000  1.0 0.012429044
C  C790  1  0.34977000  0.04730000  0.93953000  1.0 -0.1304455674
C  C791  1  0.36735000  0.06967000  0.95298000  1.0 -0.0911348855
C  C792  1  0.31095000  0.01700000  0.90901000  1.0 0.2873855117
C  C793  1  0.45254000  0.12591000  0.96679000  1.0 0.6643248863
C  C794  1  0.46169000  0.11064000  0.96047000  1.0 -0.0981857934
C  C795  1  0.46150000  0.09581000  0.96821000  1.0 0.0217965257
C  C796  1  0.47007000  0.08144000  0.96253000  1.0 -0.1697123239
C  C797  1  0.48104000  0.08419000  0.94945000  1.0 0.0365421665
C  C798  1  0.48055000  0.09808000  0.94045000  1.0 -0.0362889079
C  C799  1  0.47099000  0.11237000  0.94666000  1.0 0.0674115572
C  C800  1  0.49149000  0.07031000  0.94392000  1.0 0.2873855117
C  C801  1  0.54422000  0.75779000  0.50445000  1.0 0.6259705164
C  C802  1  0.54214000  0.76583000  0.48741000  1.0 -0.0362889079
C  C803  1  0.53676000  0.75167000  0.46545000  1.0 -0.0911348855
C  C804  1  0.53485000  0.75918000  0.45001000  1.0 -0.1105137151
C  C805  1  0.53832000  0.78097000  0.45617000  1.0 0.0297287658
C  C806  1  0.54362000  0.79515000  0.47835000  1.0 -0.1304455674
C  C807  1  0.54547000  0.78709000  0.49348000  1.0 -0.1105137151
C  C808  1  0.53651000  0.78892000  0.43941000  1.0 0.3022607126
C  C809  1  0.52987000  0.78976000  0.40923000  1.0 0.2608283804
C  C810  1  0.52330000  0.78416000  0.38604000  1.0 0.012429044
C  C811  1  0.51664000  0.76220000  0.37072000  1.0 -0.1105137151
C  C812  1  0.51114000  0.75603000  0.34849000  1.0 -0.0911348855
C  C813  1  0.51056000  0.77121000  0.34087000  1.0 -0.0454077434
C  C814  1  0.51608000  0.79269000  0.35589000  1.0 -0.0981857934
C  C815  1  0.52227000  0.79941000  0.37834000  1.0 -0.1842769534
C  C816  1  0.50443000  0.76475000  0.31688000  1.0 0.6259705164
C  C817  1  0.60218000  0.80349000  0.56211000  1.0 0.6242175824
C  C818  1  0.61430000  0.82201000  0.55839000  1.0 -0.0362889079
C  C819  1  0.60261000  0.83104000  0.54925000  1.0 -0.0981857934
C  C820  1  0.61349000  0.84779000  0.54440000  1.0 -0.1697123239
C  C821  1  0.63601000  0.85532000  0.54955000  1.0 -0.0130735305
C  C822  1  0.64709000  0.84594000  0.55945000  1.0 -0.1105137151
C  C823  1  0.63593000  0.82904000  0.56307000  1.0 -0.0981857934
C  C824  1  0.64739000  0.87269000  0.54584000  1.0 0.2696112048
C  C825  1  0.58125000  0.72710000  0.61707000  1.0 0.6381326617
C  C826  1  0.58682000  0.72214000  0.63598000  1.0 -0.0630705643
C  C827  1  0.59211000  0.73764000  0.65637000  1.0 -0.0790157113
C  C828  1  0.59651000  0.73454000  0.67603000  1.0 -0.1697123239
C  C829  1  0.59486000  0.71303000  0.67121000  1.0 0.012429044
C  C830  1  0.58976000  0.69753000  0.65023000  1.0 -0.1304455674
C  C831  1  0.58563000  0.70232000  0.63265000  1.0 -0.0911348855
C  C832  1  0.59806000  0.70605000  0.68905000  1.0 0.2873855117
C  C833  1  0.51425000  0.67337000  0.54746000  1.0 0.6643248863
C  C834  1  0.49878000  0.64895000  0.53831000  1.0 -0.0981857934
C  C835  1  0.50671000  0.63431000  0.53850000  1.0 0.0217965257
C  C836  1  0.49246000  0.61137000  0.52993000  1.0 -0.1697123239
C  C837  1  0.46841000  0.60315000  0.51896000  1.0 0.0365421665
C  C838  1  0.45990000  0.61753000  0.51945000  1.0 -0.0362889079
C  C839  1  0.47567000  0.64138000  0.52901000  1.0 0.0674115572
C  C840  1  0.45243000  0.57882000  0.50851000  1.0 0.2873855117
C  C841  1  0.25334000  0.03977000  0.49555000  1.0 0.6259705164
C  C842  1  0.27842000  0.05473000  0.51259000  1.0 -0.0342103263
C  C843  1  0.28622000  0.07131000  0.53455000  1.0 -0.0911348855
C  C844  1  0.30917000  0.08484000  0.54999000  1.0 -0.1105137151
C  C845  1  0.32480000  0.08215000  0.54383000  1.0 0.0297287658
C  C846  1  0.31680000  0.06527000  0.52165000  1.0 -0.1304455674
C  C847  1  0.29361000  0.05199000  0.50652000  1.0 -0.1105137151
C  C848  1  0.34951000  0.09710000  0.56059000  1.0 0.3022607126
C  C849  1  0.38053000  0.12064000  0.59077000  1.0 0.2608283804
C  C850  1  0.39812000  0.13726000  0.61396000  1.0 0.012429044
C  C851  1  0.39148000  0.14592000  0.62928000  1.0 -0.1105137151
C  C852  1  0.40754000  0.16265000  0.65151000  1.0 -0.0911348855
C  C853  1  0.43034000  0.16969000  0.65913000  1.0 -0.0454077434
C  C854  1  0.43680000  0.16019000  0.64411000  1.0 -0.0981857934
C  C855  1  0.42107000  0.14393000  0.62166000  1.0 -0.1842769534
C  C856  1  0.44787000  0.18755000  0.68312000  1.0 0.6242175824
C  C857  1  0.24138000  0.04007000  0.43789000  1.0 0.6242175824
C  C858  1  0.26362000  0.05591000  0.44161000  1.0 -0.0362889079
C  C859  1  0.28179000  0.05336000  0.45075000  1.0 -0.0981857934
C  C860  1  0.30339000  0.06909000  0.45560000  1.0 -0.1697123239
C  C861  1  0.30577000  0.08646000  0.45045000  1.0 -0.0130735305
C  C862  1  0.28649000  0.08764000  0.44055000  1.0 -0.1105137151
C  C863  1  0.26597000  0.07286000  0.43693000  1.0 -0.0981857934
C  C864  1  0.32685000  0.10155000  0.45416000  1.0 0.2696112048
C  C865  1  0.11003000  0.96418000  0.38293000  1.0 0.6381326617
C  C866  1  0.08616000  0.95084000  0.36402000  1.0 -0.0630705643
C  C867  1  0.08127000  0.93574000  0.34363000  1.0 -0.0790157113
C  C868  1  0.05851000  0.92048000  0.32397000  1.0 -0.1697123239
C  C869  1  0.04182000  0.92365000  0.32879000  1.0 0.012429044
C  C870  1  0.04730000  0.93953000  0.34977000  1.0 -0.1304455674
C  C871  1  0.06967000  0.95298000  0.36735000  1.0 -0.0911348855
C  C872  1  0.01700000  0.90901000  0.31095000  1.0 0.2873855117
C  C873  1  0.12591000  0.96679000  0.45254000  1.0 0.6643248863
C  C874  1  0.11064000  0.96047000  0.46169000  1.0 -0.0981857934
C  C875  1  0.09581000  0.96821000  0.46150000  1.0 0.0217965257
C  C876  1  0.08144000  0.96253000  0.47007000  1.0 -0.1697123239
C  C877  1  0.08419000  0.94945000  0.48104000  1.0 0.0365421665
C  C878  1  0.09808000  0.94045000  0.48055000  1.0 -0.0362889079
C  C879  1  0.11237000  0.94666000  0.47099000  1.0 0.0674115572
C  C880  1  0.07031000  0.94392000  0.49149000  1.0 0.2873855117
C  C881  1  0.45578000  0.96023000  0.21357000  1.0 0.6259705164
C  C882  1  0.45786000  0.94527000  0.22369000  1.0 -0.0342103263
C  C883  1  0.46324000  0.92869000  0.21491000  1.0 -0.0911348855
C  C884  1  0.46515000  0.91516000  0.22433000  1.0 -0.1105137151
C  C885  1  0.46168000  0.91785000  0.24265000  1.0 0.0297287658
C  C886  1  0.45638000  0.93473000  0.25153000  1.0 -0.1304455674
C  C887  1  0.45453000  0.94801000  0.24162000  1.0 -0.1105137151
C  C888  1  0.46349000  0.90290000  0.25241000  1.0 0.3022607126
C  C889  1  0.47013000  0.87936000  0.25989000  1.0 0.2608283804
C  C890  1  0.47670000  0.86274000  0.26086000  1.0 0.012429044
C  C891  1  0.48336000  0.85408000  0.24556000  1.0 -0.1105137151
C  C892  1  0.48886000  0.83735000  0.24489000  1.0 -0.0911348855
C  C893  1  0.48944000  0.83031000  0.26065000  1.0 -0.0454077434
C  C894  1  0.48392000  0.83981000  0.27661000  1.0 -0.0981857934
C  C895  1  0.47773000  0.85607000  0.27714000  1.0 -0.1842769534
C  C896  1  0.49557000  0.81245000  0.26032000  1.0 0.6242175824
C  C897  1  0.39782000  0.95993000  0.20131000  1.0 0.6242175824
C  C898  1  0.38570000  0.94409000  0.20771000  1.0 -0.0362889079
C  C899  1  0.39739000  0.94664000  0.22843000  1.0 -0.0981857934
C  C900  1  0.38651000  0.93091000  0.23430000  1.0 -0.1697123239
C  C901  1  0.36399000  0.91354000  0.21931000  1.0 -0.0130735305
C  C902  1  0.35291000  0.91236000  0.19885000  1.0 -0.115069183
C  C903  1  0.36407000  0.92714000  0.19311000  1.0 -0.0981857934
C  C904  1  0.35261000  0.89845000  0.22530000  1.0 0.2696112048
C  C905  1  0.41875000  0.03582000  0.14585000  1.0 0.6381326617
C  C906  1  0.41318000  0.04916000  0.13532000  1.0 -0.0630705643
C  C907  1  0.40789000  0.06426000  0.14553000  1.0 -0.0790157113
C  C908  1  0.40349000  0.07952000  0.13803000  1.0 -0.1697123239
C  C909  1  0.40514000  0.07635000  0.11817000  1.0 0.012429044
C  C910  1  0.41024000  0.06047000  0.10777000  1.0 -0.1304455674
C  C911  1  0.41437000  0.04702000  0.11669000  1.0 -0.0911348855
C  C912  1  0.40194000  0.09099000  0.10799000  1.0 0.2873855117
C  C913  1  0.48575000  0.03321000  0.15912000  1.0 0.6643248863
C  C914  1  0.50122000  0.03953000  0.15017000  1.0 -0.0981857934
C  C915  1  0.49329000  0.03179000  0.12760000  1.0 0.0217965257
C  C916  1  0.50754000  0.03747000  0.11891000  1.0 -0.1697123239
C  C917  1  0.53159000  0.05055000  0.13474000  1.0 0.0365421665
C  C918  1  0.54010000  0.05955000  0.15763000  1.0 -0.0362889079
C  C919  1  0.52433000  0.05334000  0.16571000  1.0 0.0674115572
C  C920  1  0.54757000  0.05608000  0.12639000  1.0 0.2873855117
C  C921  1  0.74666000  0.24221000  0.78643000  1.0 0.6259705164
C  C922  1  0.72158000  0.23417000  0.77631000  1.0 -0.0362889079
C  C923  1  0.71378000  0.24833000  0.78509000  1.0 -0.0911348855
C  C924  1  0.69083000  0.24082000  0.77567000  1.0 -0.1105137151
C  C925  1  0.67520000  0.21903000  0.75735000  1.0 0.0297287658
C  C926  1  0.68320000  0.20485000  0.74847000  1.0 -0.1304455674
C  C927  1  0.70639000  0.21291000  0.75838000  1.0 -0.1105137151
C  C928  1  0.65049000  0.21108000  0.74759000  1.0 0.3022607126
C  C929  1  0.61947000  0.21024000  0.74011000  1.0 0.2608283804
C  C930  1  0.60188000  0.21584000  0.73914000  1.0 0.012429044
C  C931  1  0.60852000  0.23780000  0.75444000  1.0 -0.1105137151
C  C932  1  0.59246000  0.24397000  0.75511000  1.0 -0.0911348855
C  C933  1  0.56966000  0.22879000  0.73935000  1.0 -0.0454077434
C  C934  1  0.56320000  0.20731000  0.72339000  1.0 -0.0981857934
C  C935  1  0.57893000  0.20059000  0.72286000  1.0 -0.1842769534
C  C936  1  0.55213000  0.23525000  0.73968000  1.0 0.6259705164
C  C937  1  0.75862000  0.19651000  0.79869000  1.0 0.6242175824
C  C938  1  0.73638000  0.17799000  0.79229000  1.0 -0.0362889079
C  C939  1  0.71821000  0.16896000  0.77157000  1.0 -0.0981857934
C  C940  1  0.69661000  0.15221000  0.76570000  1.0 -0.1697123239
C  C941  1  0.69423000  0.14468000  0.78069000  1.0 -0.0130735305
C  C942  1  0.71351000  0.15406000  0.80115000  1.0 -0.1105137151
C  C943  1  0.73403000  0.17096000  0.80689000  1.0 -0.0981857934
C  C944  1  0.67315000  0.12731000  0.77470000  1.0 0.2696112048
C  C945  1  0.88997000  0.27290000  0.85415000  1.0 0.6381326617
C  C946  1  0.91384000  0.27786000  0.86468000  1.0 -0.0630705643
C  C947  1  0.91873000  0.26236000  0.85447000  1.0 -0.0790157113
C  C948  1  0.94149000  0.26546000  0.86197000  1.0 -0.1697123239
C  C949  1  0.95818000  0.28697000  0.88183000  1.0 0.0217965257
C  C950  1  0.95270000  0.30247000  0.89223000  1.0 -0.1304455674
C  C951  1  0.93033000  0.29768000  0.88331000  1.0 -0.0911348855
C  C952  1  0.98300000  0.29395000  0.89201000  1.0 0.2830184487
C  C953  1  0.87409000  0.32663000  0.84088000  1.0 0.6643248863
C  C954  1  0.88936000  0.35105000  0.84983000  1.0 -0.0981857934
C  C955  1  0.90419000  0.36569000  0.87240000  1.0 0.0217965257
C  C956  1  0.91856000  0.38863000  0.88109000  1.0 -0.1697123239
C  C957  1  0.91581000  0.39685000  0.86526000  1.0 0.0365421665
C  C958  1  0.90192000  0.38247000  0.84237000  1.0 -0.0362889079
C  C959  1  0.88763000  0.35862000  0.83429000  1.0 0.0674115572
C  C960  1  0.92969000  0.42118000  0.87361000  1.0 0.2873855117
C  C961  1  0.74666000  0.78643000  0.24221000  1.0 0.6259705164
C  C962  1  0.72158000  0.77631000  0.23417000  1.0 -0.0362889079
C  C963  1  0.71378000  0.78509000  0.24833000  1.0 -0.0911348855
C  C964  1  0.69083000  0.77567000  0.24082000  1.0 -0.1105137151
C  C965  1  0.67520000  0.75735000  0.21903000  1.0 0.0297287658
C  C966  1  0.68320000  0.74847000  0.20485000  1.0 -0.1304455674
C  C967  1  0.70639000  0.75838000  0.21291000  1.0 -0.1105137151
C  C968  1  0.65049000  0.74759000  0.21108000  1.0 0.3022607126
C  C969  1  0.61947000  0.74011000  0.21024000  1.0 0.2608283804
C  C970  1  0.60188000  0.73914000  0.21584000  1.0 0.012429044
C  C971  1  0.60852000  0.75444000  0.23780000  1.0 -0.1105137151
C  C972  1  0.59246000  0.75511000  0.24397000  1.0 -0.0911348855
C  C973  1  0.56966000  0.73935000  0.22879000  1.0 -0.0454077434
C  C974  1  0.56320000  0.72339000  0.20731000  1.0 -0.0981857934
C  C975  1  0.57893000  0.72286000  0.20059000  1.0 -0.1842769534
C  C976  1  0.55213000  0.73968000  0.23525000  1.0 0.6259705164
C  C977  1  0.75862000  0.79869000  0.19651000  1.0 0.6242175824
C  C978  1  0.73638000  0.79229000  0.17799000  1.0 -0.0362889079
C  C979  1  0.71821000  0.77157000  0.16896000  1.0 -0.0981857934
C  C980  1  0.69661000  0.76570000  0.15221000  1.0 -0.1618976452
C  C981  1  0.69423000  0.78069000  0.14468000  1.0 -0.0130735305
C  C982  1  0.71351000  0.80115000  0.15406000  1.0 -0.115069183
C  C983  1  0.73403000  0.80689000  0.17096000  1.0 -0.0981857934
C  C984  1  0.67315000  0.77470000  0.12731000  1.0 0.2696112048
C  C985  1  0.88997000  0.85415000  0.27290000  1.0 0.6381326617
C  C986  1  0.91384000  0.86468000  0.27786000  1.0 -0.0630705643
C  C987  1  0.91873000  0.85447000  0.26236000  1.0 -0.0790157113
C  C988  1  0.94149000  0.86197000  0.26546000  1.0 -0.1697123239
C  C989  1  0.95818000  0.88183000  0.28697000  1.0 0.0217965257
C  C990  1  0.95270000  0.89223000  0.30247000  1.0 -0.1304455674
C  C991  1  0.93033000  0.88331000  0.29768000  1.0 -0.0911348855
C  C992  1  0.98300000  0.89201000  0.29395000  1.0 0.2830184487
C  C993  1  0.87409000  0.84088000  0.32663000  1.0 0.6662948357
C  C994  1  0.88936000  0.84983000  0.35105000  1.0 -0.0981857934
C  C995  1  0.90419000  0.87240000  0.36569000  1.0 0.0217965257
C  C996  1  0.91856000  0.88109000  0.38863000  1.0 -0.1618976452
C  C997  1  0.91581000  0.86526000  0.39685000  1.0 0.0365421665
C  C998  1  0.90192000  0.84237000  0.38247000  1.0 -0.0342103263
C  C999  1  0.88763000  0.83429000  0.35862000  1.0 0.0674115572
C  C1000  1  0.92969000  0.87361000  0.42118000  1.0 0.2873855117
C  C1001  1  0.45578000  0.21357000  0.96023000  1.0 0.6259705164
C  C1002  1  0.45786000  0.22369000  0.94527000  1.0 -0.0342103263
C  C1003  1  0.46324000  0.21491000  0.92869000  1.0 -0.0911348855
C  C1004  1  0.46515000  0.22433000  0.91516000  1.0 -0.1105137151
C  C1005  1  0.46168000  0.24265000  0.91785000  1.0 0.0297287658
C  C1006  1  0.45638000  0.25153000  0.93473000  1.0 -0.1304455674
C  C1007  1  0.45453000  0.24162000  0.94801000  1.0 -0.1105137151
C  C1008  1  0.46349000  0.25241000  0.90290000  1.0 0.3022607126
C  C1009  1  0.47013000  0.25989000  0.87936000  1.0 0.2608283804
C  C1010  1  0.47670000  0.26086000  0.86274000  1.0 0.012429044
C  C1011  1  0.48336000  0.24556000  0.85408000  1.0 -0.1105137151
C  C1012  1  0.48886000  0.24489000  0.83735000  1.0 -0.0911348855
C  C1013  1  0.48944000  0.26065000  0.83031000  1.0 -0.0454077434
C  C1014  1  0.48392000  0.27661000  0.83981000  1.0 -0.0981857934
C  C1015  1  0.47773000  0.27714000  0.85607000  1.0 -0.1842769534
C  C1016  1  0.49557000  0.26032000  0.81245000  1.0 0.6242175824
C  C1017  1  0.39782000  0.20131000  0.95993000  1.0 0.6242175824
C  C1018  1  0.38570000  0.20771000  0.94409000  1.0 -0.0362889079
C  C1019  1  0.39739000  0.22843000  0.94664000  1.0 -0.0981857934
C  C1020  1  0.38651000  0.23430000  0.93091000  1.0 -0.1697123239
C  C1021  1  0.36399000  0.21931000  0.91354000  1.0 -0.0130735305
C  C1022  1  0.35291000  0.19885000  0.91236000  1.0 -0.1105137151
C  C1023  1  0.36407000  0.19311000  0.92714000  1.0 -0.0981857934
C  C1024  1  0.35261000  0.22530000  0.89845000  1.0 0.2696112048
C  C1025  1  0.41875000  0.14585000  0.03582000  1.0 0.6381326617
C  C1026  1  0.41318000  0.13532000  0.04916000  1.0 -0.0630705643
C  C1027  1  0.40789000  0.14553000  0.06426000  1.0 -0.0790157113
C  C1028  1  0.40349000  0.13803000  0.07952000  1.0 -0.1697123239
C  C1029  1  0.40514000  0.11817000  0.07635000  1.0 0.012429044
C  C1030  1  0.41024000  0.10777000  0.06047000  1.0 -0.1304455674
C  C1031  1  0.41437000  0.11669000  0.04702000  1.0 -0.0911348855
C  C1032  1  0.40194000  0.10799000  0.09099000  1.0 0.2873855117
C  C1033  1  0.48575000  0.15912000  0.03321000  1.0 0.6643248863
C  C1034  1  0.50122000  0.15017000  0.03953000  1.0 -0.0981857934
C  C1035  1  0.49329000  0.12760000  0.03179000  1.0 0.0217965257
C  C1036  1  0.50754000  0.11891000  0.03747000  1.0 -0.1697123239
C  C1037  1  0.53159000  0.13474000  0.05055000  1.0 0.0365421665
C  C1038  1  0.54010000  0.15763000  0.05955000  1.0 -0.0342103263
C  C1039  1  0.52433000  0.16571000  0.05334000  1.0 0.0674115572
C  C1040  1  0.54757000  0.12639000  0.05608000  1.0 0.2873855117
C  C1041  1  0.25334000  0.49555000  0.03977000  1.0 0.6259705164
C  C1042  1  0.27842000  0.51259000  0.05473000  1.0 -0.0362889079
C  C1043  1  0.28622000  0.53455000  0.07131000  1.0 -0.0911348855
C  C1044  1  0.30917000  0.54999000  0.08484000  1.0 -0.1105137151
C  C1045  1  0.32480000  0.54383000  0.08215000  1.0 0.0297287658
C  C1046  1  0.31680000  0.52165000  0.06527000  1.0 -0.1304455674
C  C1047  1  0.29361000  0.50652000  0.05199000  1.0 -0.1105137151
C  C1048  1  0.34951000  0.56059000  0.09710000  1.0 0.3022607126
C  C1049  1  0.38053000  0.59077000  0.12064000  1.0 0.2608283804
C  C1050  1  0.39812000  0.61396000  0.13726000  1.0 0.012429044
C  C1051  1  0.39148000  0.62928000  0.14592000  1.0 -0.1105137151
C  C1052  1  0.40754000  0.65151000  0.16265000  1.0 -0.0981857934
C  C1053  1  0.43034000  0.65913000  0.16969000  1.0 -0.0454077434
C  C1054  1  0.43680000  0.64411000  0.16019000  1.0 -0.0981857934
C  C1055  1  0.42107000  0.62166000  0.14393000  1.0 -0.1842769534
C  C1056  1  0.44787000  0.68312000  0.18755000  1.0 0.6242175824
C  C1057  1  0.24138000  0.43789000  0.04007000  1.0 0.6242175824
C  C1058  1  0.26362000  0.44161000  0.05591000  1.0 -0.0362889079
C  C1059  1  0.28179000  0.45075000  0.05336000  1.0 -0.0981857934
C  C1060  1  0.30339000  0.45560000  0.06909000  1.0 -0.1697123239
C  C1061  1  0.30577000  0.45045000  0.08646000  1.0 -0.0130735305
C  C1062  1  0.28649000  0.44055000  0.08764000  1.0 -0.1105137151
C  C1063  1  0.26597000  0.43693000  0.07286000  1.0 -0.0981857934
C  C1064  1  0.32685000  0.45416000  0.10155000  1.0 0.2696112048
C  C1065  1  0.11003000  0.38293000  0.96418000  1.0 0.6381326617
C  C1066  1  0.08616000  0.36402000  0.95084000  1.0 -0.0630705643
C  C1067  1  0.08127000  0.34363000  0.93574000  1.0 -0.0790157113
C  C1068  1  0.05851000  0.32397000  0.92048000  1.0 -0.1697123239
C  C1069  1  0.04182000  0.32879000  0.92365000  1.0 0.012429044
C  C1070  1  0.04730000  0.34977000  0.93953000  1.0 -0.1304455674
C  C1071  1  0.06967000  0.36735000  0.95298000  1.0 -0.0911348855
C  C1072  1  0.01700000  0.31095000  0.90901000  1.0 0.2873855117
C  C1073  1  0.12591000  0.45254000  0.96679000  1.0 0.6643248863
C  C1074  1  0.11064000  0.46169000  0.96047000  1.0 -0.0981857934
C  C1075  1  0.09581000  0.46150000  0.96821000  1.0 0.0217965257
C  C1076  1  0.08144000  0.47007000  0.96253000  1.0 -0.1697123239
C  C1077  1  0.08419000  0.48104000  0.94945000  1.0 0.0365421665
C  C1078  1  0.09808000  0.48055000  0.94045000  1.0 -0.0362889079
C  C1079  1  0.11237000  0.47099000  0.94666000  1.0 0.0674115572
C  C1080  1  0.07031000  0.49149000  0.94392000  1.0 0.2873855117
C  C1081  1  0.54422000  0.50445000  0.75779000  1.0 0.6259705164
C  C1082  1  0.54214000  0.48741000  0.76583000  1.0 -0.0342103263
C  C1083  1  0.53676000  0.46545000  0.75167000  1.0 -0.0911348855
C  C1084  1  0.53485000  0.45001000  0.75918000  1.0 -0.1105137151
C  C1085  1  0.53832000  0.45617000  0.78097000  1.0 0.0297287658
C  C1086  1  0.54362000  0.47835000  0.79515000  1.0 -0.1304455674
C  C1087  1  0.54547000  0.49348000  0.78709000  1.0 -0.1105137151
C  C1088  1  0.53651000  0.43941000  0.78892000  1.0 0.3022607126
C  C1089  1  0.52987000  0.40923000  0.78976000  1.0 0.2608283804
C  C1090  1  0.52330000  0.38604000  0.78416000  1.0 0.012429044
C  C1091  1  0.51664000  0.37072000  0.76220000  1.0 -0.1105137151
C  C1092  1  0.51114000  0.34849000  0.75603000  1.0 -0.0911348855
C  C1093  1  0.51056000  0.34087000  0.77121000  1.0 -0.0454077434
C  C1094  1  0.51608000  0.35589000  0.79269000  1.0 -0.0981857934
C  C1095  1  0.52227000  0.37834000  0.79941000  1.0 -0.1842769534
C  C1096  1  0.50443000  0.31688000  0.76475000  1.0 0.6242175824
C  C1097  1  0.60218000  0.56211000  0.80349000  1.0 0.6242175824
C  C1098  1  0.61430000  0.55839000  0.82201000  1.0 -0.0362889079
C  C1099  1  0.60261000  0.54925000  0.83104000  1.0 -0.0981857934
C  C1100  1  0.61349000  0.54440000  0.84779000  1.0 -0.1697123239
C  C1101  1  0.63601000  0.54955000  0.85532000  1.0 -0.0130735305
C  C1102  1  0.64709000  0.55945000  0.84594000  1.0 -0.1105137151
C  C1103  1  0.63593000  0.56307000  0.82904000  1.0 -0.0981857934
C  C1104  1  0.64739000  0.54584000  0.87269000  1.0 0.2696112048
C  C1105  1  0.58125000  0.61707000  0.72710000  1.0 0.6381326617
C  C1106  1  0.58682000  0.63598000  0.72214000  1.0 -0.0630705643
C  C1107  1  0.59211000  0.65637000  0.73764000  1.0 -0.0790157113
C  C1108  1  0.59651000  0.67603000  0.73454000  1.0 -0.1697123239
C  C1109  1  0.59486000  0.67121000  0.71303000  1.0 0.012429044
C  C1110  1  0.58976000  0.65023000  0.69753000  1.0 -0.1304455674
C  C1111  1  0.58563000  0.63265000  0.70232000  1.0 -0.0911348855
C  C1112  1  0.59806000  0.68905000  0.70605000  1.0 0.2873855117
C  C1113  1  0.51425000  0.54746000  0.67337000  1.0 0.6643248863
C  C1114  1  0.49878000  0.53831000  0.64895000  1.0 -0.0981857934
C  C1115  1  0.50671000  0.53850000  0.63431000  1.0 0.0217965257
C  C1116  1  0.49246000  0.52993000  0.61137000  1.0 -0.1697123239
C  C1117  1  0.46841000  0.51896000  0.60315000  1.0 0.0365421665
C  C1118  1  0.45990000  0.51945000  0.61753000  1.0 -0.0362889079
C  C1119  1  0.47567000  0.52901000  0.64138000  1.0 0.0674115572
C  C1120  1  0.45243000  0.50851000  0.57882000  1.0 0.2873855117
C  C1121  1  0.96023000  0.45578000  0.21357000  1.0 0.6259705164
C  C1122  1  0.94527000  0.45786000  0.22369000  1.0 -0.0342103263
C  C1123  1  0.92869000  0.46324000  0.21491000  1.0 -0.0911348855
C  C1124  1  0.91516000  0.46515000  0.22433000  1.0 -0.1105137151
C  C1125  1  0.91785000  0.46168000  0.24265000  1.0 0.0297287658
C  C1126  1  0.93473000  0.45638000  0.25153000  1.0 -0.1304455674
C  C1127  1  0.94801000  0.45453000  0.24162000  1.0 -0.1105137151
C  C1128  1  0.90290000  0.46349000  0.25241000  1.0 0.3022607126
C  C1129  1  0.87936000  0.47013000  0.25989000  1.0 0.2608283804
C  C1130  1  0.86274000  0.47670000  0.26086000  1.0 0.012429044
C  C1131  1  0.85408000  0.48336000  0.24556000  1.0 -0.1105137151
C  C1132  1  0.83735000  0.48886000  0.24489000  1.0 -0.0981857934
C  C1133  1  0.83031000  0.48944000  0.26065000  1.0 -0.0454077434
C  C1134  1  0.83981000  0.48392000  0.27661000  1.0 -0.0981857934
C  C1135  1  0.85607000  0.47773000  0.27714000  1.0 -0.1842769534
C  C1136  1  0.81245000  0.49557000  0.26032000  1.0 0.6242175824
C  C1137  1  0.95993000  0.39782000  0.20131000  1.0 0.6242175824
C  C1138  1  0.94409000  0.38570000  0.20771000  1.0 -0.0362889079
C  C1139  1  0.94664000  0.39739000  0.22843000  1.0 -0.0981857934
C  C1140  1  0.93091000  0.38651000  0.23430000  1.0 -0.1697123239
C  C1141  1  0.91354000  0.36399000  0.21931000  1.0 -0.0130735305
C  C1142  1  0.91236000  0.35291000  0.19885000  1.0 -0.1105137151
C  C1143  1  0.92714000  0.36407000  0.19311000  1.0 -0.0981857934
C  C1144  1  0.89845000  0.35261000  0.22530000  1.0 0.2830184487
C  C1145  1  0.03582000  0.41875000  0.14585000  1.0 0.6381326617
C  C1146  1  0.04916000  0.41318000  0.13532000  1.0 -0.0630705643
C  C1147  1  0.06426000  0.40789000  0.14553000  1.0 -0.0790157113
C  C1148  1  0.07952000  0.40349000  0.13803000  1.0 -0.1697123239
C  C1149  1  0.07635000  0.40514000  0.11817000  1.0 0.012429044
C  C1150  1  0.06047000  0.41024000  0.10777000  1.0 -0.1304455674
C  C1151  1  0.04702000  0.41437000  0.11669000  1.0 -0.0911348855
C  C1152  1  0.09099000  0.40194000  0.10799000  1.0 0.2873855117
C  C1153  1  0.03321000  0.48575000  0.15912000  1.0 0.6643248863
C  C1154  1  0.03953000  0.50122000  0.15017000  1.0 -0.0981857934
C  C1155  1  0.03179000  0.49329000  0.12760000  1.0 0.0217965257
C  C1156  1  0.03747000  0.50754000  0.11891000  1.0 -0.1697123239
C  C1157  1  0.05055000  0.53159000  0.13474000  1.0 0.0365421665
C  C1158  1  0.05955000  0.54010000  0.15763000  1.0 -0.0362889079
C  C1159  1  0.05334000  0.52433000  0.16571000  1.0 0.0674115572
C  C1160  1  0.05608000  0.54757000  0.12639000  1.0 0.2873855117
C  C1161  1  0.24221000  0.74666000  0.78643000  1.0 0.6259705164
C  C1162  1  0.23417000  0.72158000  0.77631000  1.0 -0.0362889079
C  C1163  1  0.24833000  0.71378000  0.78509000  1.0 -0.0911348855
C  C1164  1  0.24082000  0.69083000  0.77567000  1.0 -0.1105137151
C  C1165  1  0.21903000  0.67520000  0.75735000  1.0 0.0297287658
C  C1166  1  0.20485000  0.68320000  0.74847000  1.0 -0.1304455674
C  C1167  1  0.21291000  0.70639000  0.75838000  1.0 -0.1105137151
C  C1168  1  0.21108000  0.65049000  0.74759000  1.0 0.3022607126
C  C1169  1  0.21024000  0.61947000  0.74011000  1.0 0.2608283804
C  C1170  1  0.21584000  0.60188000  0.73914000  1.0 0.012429044
C  C1171  1  0.23780000  0.60852000  0.75444000  1.0 -0.1105137151
C  C1172  1  0.24397000  0.59246000  0.75511000  1.0 -0.0911348855
C  C1173  1  0.22879000  0.56966000  0.73935000  1.0 -0.0454077434
C  C1174  1  0.20731000  0.56320000  0.72339000  1.0 -0.0981857934
C  C1175  1  0.20059000  0.57893000  0.72286000  1.0 -0.1842769534
C  C1176  1  0.23525000  0.55213000  0.73968000  1.0 0.6242175824
C  C1177  1  0.19651000  0.75862000  0.79869000  1.0 0.6242175824
C  C1178  1  0.17799000  0.73638000  0.79229000  1.0 -0.0362889079
C  C1179  1  0.16896000  0.71821000  0.77157000  1.0 -0.0981857934
C  C1180  1  0.15221000  0.69661000  0.76570000  1.0 -0.1697123239
C  C1181  1  0.14468000  0.69423000  0.78069000  1.0 -0.0130735305
C  C1182  1  0.15406000  0.71351000  0.80115000  1.0 -0.1105137151
C  C1183  1  0.17096000  0.73403000  0.80689000  1.0 -0.0981857934
C  C1184  1  0.12731000  0.67315000  0.77470000  1.0 0.2696112048
C  C1185  1  0.27290000  0.88997000  0.85415000  1.0 0.6381326617
C  C1186  1  0.27786000  0.91384000  0.86468000  1.0 -0.0630705643
C  C1187  1  0.26236000  0.91873000  0.85447000  1.0 -0.0790157113
C  C1188  1  0.26546000  0.94149000  0.86197000  1.0 -0.1697123239
C  C1189  1  0.28697000  0.95818000  0.88183000  1.0 0.012429044
C  C1190  1  0.30247000  0.95270000  0.89223000  1.0 -0.1304455674
C  C1191  1  0.29768000  0.93033000  0.88331000  1.0 -0.0911348855
C  C1192  1  0.29395000  0.98300000  0.89201000  1.0 0.2873855117
C  C1193  1  0.32663000  0.87409000  0.84088000  1.0 0.6643248863
C  C1194  1  0.35105000  0.88936000  0.84983000  1.0 -0.0981857934
C  C1195  1  0.36569000  0.90419000  0.87240000  1.0 0.0217965257
C  C1196  1  0.38863000  0.91856000  0.88109000  1.0 -0.1697123239
C  C1197  1  0.39685000  0.91581000  0.86526000  1.0 0.0365421665
C  C1198  1  0.38247000  0.90192000  0.84237000  1.0 -0.0362889079
C  C1199  1  0.35862000  0.88763000  0.83429000  1.0 0.0674115572
C  C1200  1  0.42118000  0.92969000  0.87361000  1.0 0.2873855117
C  C1201  1  0.75779000  0.54422000  0.50445000  1.0 0.6259705164
C  C1202  1  0.76583000  0.54214000  0.48741000  1.0 -0.0342103263
C  C1203  1  0.75167000  0.53676000  0.46545000  1.0 -0.0911348855
C  C1204  1  0.75918000  0.53485000  0.45001000  1.0 -0.1105137151
C  C1205  1  0.78097000  0.53832000  0.45617000  1.0 0.0297287658
C  C1206  1  0.79515000  0.54362000  0.47835000  1.0 -0.1304455674
C  C1207  1  0.78709000  0.54547000  0.49348000  1.0 -0.1105137151
C  C1208  1  0.78892000  0.53651000  0.43941000  1.0 0.3022607126
C  C1209  1  0.78976000  0.52987000  0.40923000  1.0 0.2608283804
C  C1210  1  0.78416000  0.52330000  0.38604000  1.0 0.012429044
C  C1211  1  0.76220000  0.51664000  0.37072000  1.0 -0.1105137151
C  C1212  1  0.75603000  0.51114000  0.34849000  1.0 -0.0911348855
C  C1213  1  0.77121000  0.51056000  0.34087000  1.0 -0.0454077434
C  C1214  1  0.79269000  0.51608000  0.35589000  1.0 -0.0981857934
C  C1215  1  0.79941000  0.52227000  0.37834000  1.0 -0.1842769534
C  C1216  1  0.76475000  0.50443000  0.31688000  1.0 0.6259705164
C  C1217  1  0.80349000  0.60218000  0.56211000  1.0 0.6242175824
C  C1218  1  0.82201000  0.61430000  0.55839000  1.0 -0.0362889079
C  C1219  1  0.83104000  0.60261000  0.54925000  1.0 -0.0981857934
C  C1220  1  0.84779000  0.61349000  0.54440000  1.0 -0.1697123239
C  C1221  1  0.85532000  0.63601000  0.54955000  1.0 -0.0130735305
C  C1222  1  0.84594000  0.64709000  0.55945000  1.0 -0.1105137151
C  C1223  1  0.82904000  0.63593000  0.56307000  1.0 -0.0981857934
C  C1224  1  0.87269000  0.64739000  0.54584000  1.0 0.2696112048
C  C1225  1  0.72710000  0.58125000  0.61707000  1.0 0.6381326617
C  C1226  1  0.72214000  0.58682000  0.63598000  1.0 -0.0630705643
C  C1227  1  0.73764000  0.59211000  0.65637000  1.0 -0.0790157113
C  C1228  1  0.73454000  0.59651000  0.67603000  1.0 -0.1697123239
C  C1229  1  0.71303000  0.59486000  0.67121000  1.0 0.012429044
C  C1230  1  0.69753000  0.58976000  0.65023000  1.0 -0.1304455674
C  C1231  1  0.70232000  0.58563000  0.63265000  1.0 -0.0911348855
C  C1232  1  0.70605000  0.59806000  0.68905000  1.0 0.2873855117
C  C1233  1  0.67337000  0.51425000  0.54746000  1.0 0.6643248863
C  C1234  1  0.64895000  0.49878000  0.53831000  1.0 -0.0981857934
C  C1235  1  0.63431000  0.50671000  0.53850000  1.0 0.0217965257
C  C1236  1  0.61137000  0.49246000  0.52993000  1.0 -0.1697123239
C  C1237  1  0.60315000  0.46841000  0.51896000  1.0 0.0365421665
C  C1238  1  0.61753000  0.45990000  0.51945000  1.0 -0.0362889079
C  C1239  1  0.64138000  0.47567000  0.52901000  1.0 0.0674115572
C  C1240  1  0.57882000  0.45243000  0.50851000  1.0 0.2873855117
C  C1241  1  0.03977000  0.25334000  0.49555000  1.0 0.6259705164
C  C1242  1  0.05473000  0.27842000  0.51259000  1.0 -0.0342103263
C  C1243  1  0.07131000  0.28622000  0.53455000  1.0 -0.0911348855
C  C1244  1  0.08484000  0.30917000  0.54999000  1.0 -0.1105137151
C  C1245  1  0.08215000  0.32480000  0.54383000  1.0 0.0297287658
C  C1246  1  0.06527000  0.31680000  0.52165000  1.0 -0.1304455674
C  C1247  1  0.05199000  0.29361000  0.50652000  1.0 -0.1105137151
C  C1248  1  0.09710000  0.34951000  0.56059000  1.0 0.3022607126
C  C1249  1  0.12064000  0.38053000  0.59077000  1.0 0.2608283804
C  C1250  1  0.13726000  0.39812000  0.61396000  1.0 0.012429044
C  C1251  1  0.14592000  0.39148000  0.62928000  1.0 -0.1105137151
C  C1252  1  0.16265000  0.40754000  0.65151000  1.0 -0.0911348855
C  C1253  1  0.16969000  0.43034000  0.65913000  1.0 -0.0454077434
C  C1254  1  0.16019000  0.43680000  0.64411000  1.0 -0.0981857934
C  C1255  1  0.14393000  0.42107000  0.62166000  1.0 -0.1842769534
C  C1256  1  0.18755000  0.44787000  0.68312000  1.0 0.6242175824
C  C1257  1  0.04007000  0.24138000  0.43789000  1.0 0.6242175824
C  C1258  1  0.05591000  0.26362000  0.44161000  1.0 -0.0362889079
C  C1259  1  0.05336000  0.28179000  0.45075000  1.0 -0.0981857934
C  C1260  1  0.06909000  0.30339000  0.45560000  1.0 -0.1697123239
C  C1261  1  0.08646000  0.30577000  0.45045000  1.0 -0.0130735305
C  C1262  1  0.08764000  0.28649000  0.44055000  1.0 -0.1105137151
C  C1263  1  0.07286000  0.26597000  0.43693000  1.0 -0.0981857934
C  C1264  1  0.10155000  0.32685000  0.45416000  1.0 0.2696112048
C  C1265  1  0.96418000  0.11003000  0.38293000  1.0 0.6381326617
C  C1266  1  0.95084000  0.08616000  0.36402000  1.0 -0.0630705643
C  C1267  1  0.93574000  0.08127000  0.34363000  1.0 -0.0790157113
C  C1268  1  0.92048000  0.05851000  0.32397000  1.0 -0.1697123239
C  C1269  1  0.92365000  0.04182000  0.32879000  1.0 0.0217965257
C  C1270  1  0.93953000  0.04730000  0.34977000  1.0 -0.1304455674
C  C1271  1  0.95298000  0.06967000  0.36735000  1.0 -0.0911348855
C  C1272  1  0.90901000  0.01700000  0.31095000  1.0 0.2830184487
C  C1273  1  0.96679000  0.12591000  0.45254000  1.0 0.6643248863
C  C1274  1  0.96047000  0.11064000  0.46169000  1.0 -0.0981857934
C  C1275  1  0.96821000  0.09581000  0.46150000  1.0 0.0217965257
C  C1276  1  0.96253000  0.08144000  0.47007000  1.0 -0.1697123239
C  C1277  1  0.94945000  0.08419000  0.48104000  1.0 0.0365421665
C  C1278  1  0.94045000  0.09808000  0.48055000  1.0 -0.0362889079
C  C1279  1  0.94666000  0.11237000  0.47099000  1.0 0.0674115572
C  C1280  1  0.94392000  0.07031000  0.49149000  1.0 0.2873855117
C  C1281  1  0.50445000  0.75779000  0.54422000  1.0 0.6259705164
C  C1282  1  0.48741000  0.76583000  0.54214000  1.0 -0.0362889079
C  C1283  1  0.46545000  0.75167000  0.53676000  1.0 -0.0911348855
C  C1284  1  0.45001000  0.75918000  0.53485000  1.0 -0.1105137151
C  C1285  1  0.45617000  0.78097000  0.53832000  1.0 0.0297287658
C  C1286  1  0.47835000  0.79515000  0.54362000  1.0 -0.1304455674
C  C1287  1  0.49348000  0.78709000  0.54547000  1.0 -0.1105137151
C  C1288  1  0.43941000  0.78892000  0.53651000  1.0 0.3022607126
C  C1289  1  0.40923000  0.78976000  0.52987000  1.0 0.2608283804
C  C1290  1  0.38604000  0.78416000  0.52330000  1.0 0.012429044
C  C1291  1  0.37072000  0.76220000  0.51664000  1.0 -0.1105137151
C  C1292  1  0.34849000  0.75603000  0.51114000  1.0 -0.0911348855
C  C1293  1  0.34087000  0.77121000  0.51056000  1.0 -0.0454077434
C  C1294  1  0.35589000  0.79269000  0.51608000  1.0 -0.0981857934
C  C1295  1  0.37834000  0.79941000  0.52227000  1.0 -0.1842769534
C  C1296  1  0.31688000  0.76475000  0.50443000  1.0 0.6242175824
C  C1297  1  0.56211000  0.80349000  0.60218000  1.0 0.6242175824
C  C1298  1  0.55839000  0.82201000  0.61430000  1.0 -0.0362889079
C  C1299  1  0.54925000  0.83104000  0.60261000  1.0 -0.0981857934
C  C1300  1  0.54440000  0.84779000  0.61349000  1.0 -0.1697123239
C  C1301  1  0.54955000  0.85532000  0.63601000  1.0 -0.0130735305
C  C1302  1  0.55945000  0.84594000  0.64709000  1.0 -0.115069183
C  C1303  1  0.56307000  0.82904000  0.63593000  1.0 -0.0981857934
C  C1304  1  0.54584000  0.87269000  0.64739000  1.0 0.2830184487
C  C1305  1  0.61707000  0.72710000  0.58125000  1.0 0.6381326617
C  C1306  1  0.63598000  0.72214000  0.58682000  1.0 -0.0630705643
C  C1307  1  0.65637000  0.73764000  0.59211000  1.0 -0.0790157113
C  C1308  1  0.67603000  0.73454000  0.59651000  1.0 -0.1842769534
C  C1309  1  0.67121000  0.71303000  0.59486000  1.0 0.012429044
C  C1310  1  0.65023000  0.69753000  0.58976000  1.0 -0.1304455674
C  C1311  1  0.63265000  0.70232000  0.58563000  1.0 -0.0911348855
C  C1312  1  0.68905000  0.70605000  0.59806000  1.0 0.2873855117
C  C1313  1  0.54746000  0.67337000  0.51425000  1.0 0.6643248863
C  C1314  1  0.53831000  0.64895000  0.49878000  1.0 -0.0981857934
C  C1315  1  0.53850000  0.63431000  0.50671000  1.0 0.0217965257
C  C1316  1  0.52993000  0.61137000  0.49246000  1.0 -0.1697123239
C  C1317  1  0.51896000  0.60315000  0.46841000  1.0 0.0365421665
C  C1318  1  0.51945000  0.61753000  0.45990000  1.0 -0.0342103263
C  C1319  1  0.52901000  0.64138000  0.47567000  1.0 0.0674115572
C  C1320  1  0.50851000  0.57882000  0.45243000  1.0 0.2873855117
C  C1321  1  0.49555000  0.03977000  0.25334000  1.0 0.6259705164
C  C1322  1  0.51259000  0.05473000  0.27842000  1.0 -0.0342103263
C  C1323  1  0.53455000  0.07131000  0.28622000  1.0 -0.0911348855
C  C1324  1  0.54999000  0.08484000  0.30917000  1.0 -0.1105137151
C  C1325  1  0.54383000  0.08215000  0.32480000  1.0 0.0297287658
C  C1326  1  0.52165000  0.06527000  0.31680000  1.0 -0.1304455674
C  C1327  1  0.50652000  0.05199000  0.29361000  1.0 -0.1105137151
C  C1328  1  0.56059000  0.09710000  0.34951000  1.0 0.3022607126
C  C1329  1  0.59077000  0.12064000  0.38053000  1.0 0.2608283804
C  C1330  1  0.61396000  0.13726000  0.39812000  1.0 0.012429044
C  C1331  1  0.62928000  0.14592000  0.39148000  1.0 -0.1105137151
C  C1332  1  0.65151000  0.16265000  0.40754000  1.0 -0.0911348855
C  C1333  1  0.65913000  0.16969000  0.43034000  1.0 -0.0454077434
C  C1334  1  0.64411000  0.16019000  0.43680000  1.0 -0.0981857934
C  C1335  1  0.62166000  0.14393000  0.42107000  1.0 -0.1842769534
C  C1336  1  0.68312000  0.18755000  0.44787000  1.0 0.6242175824
C  C1337  1  0.43789000  0.04007000  0.24138000  1.0 0.6242175824
C  C1338  1  0.44161000  0.05591000  0.26362000  1.0 -0.0362889079
C  C1339  1  0.45075000  0.05336000  0.28179000  1.0 -0.0981857934
C  C1340  1  0.45560000  0.06909000  0.30339000  1.0 -0.1697123239
C  C1341  1  0.45045000  0.08646000  0.30577000  1.0 -0.0130735305
C  C1342  1  0.44055000  0.08764000  0.28649000  1.0 -0.1105137151
C  C1343  1  0.43693000  0.07286000  0.26597000  1.0 -0.0981857934
C  C1344  1  0.45416000  0.10155000  0.32685000  1.0 0.2696112048
C  C1345  1  0.38293000  0.96418000  0.11003000  1.0 0.6381326617
C  C1346  1  0.36402000  0.95084000  0.08616000  1.0 -0.0630705643
C  C1347  1  0.34363000  0.93574000  0.08127000  1.0 -0.0790157113
C  C1348  1  0.32397000  0.92048000  0.05851000  1.0 -0.1697123239
C  C1349  1  0.32879000  0.92365000  0.04182000  1.0 0.012429044
C  C1350  1  0.34977000  0.93953000  0.04730000  1.0 -0.1304455674
C  C1351  1  0.36735000  0.95298000  0.06967000  1.0 -0.0911348855
C  C1352  1  0.31095000  0.90901000  0.01700000  1.0 0.2873855117
C  C1353  1  0.45254000  0.96679000  0.12591000  1.0 0.6643248863
C  C1354  1  0.46169000  0.96047000  0.11064000  1.0 -0.0981857934
C  C1355  1  0.46150000  0.96821000  0.09581000  1.0 0.0217965257
C  C1356  1  0.47007000  0.96253000  0.08144000  1.0 -0.1697123239
C  C1357  1  0.48104000  0.94945000  0.08419000  1.0 0.0365421665
C  C1358  1  0.48055000  0.94045000  0.09808000  1.0 -0.0362889079
C  C1359  1  0.47099000  0.94666000  0.11237000  1.0 0.0674115572
C  C1360  1  0.49149000  0.94392000  0.07031000  1.0 0.2830184487
C  C1361  1  0.21357000  0.96023000  0.45578000  1.0 0.6259705164
C  C1362  1  0.22369000  0.94527000  0.45786000  1.0 -0.0362889079
C  C1363  1  0.21491000  0.92869000  0.46324000  1.0 -0.0911348855
C  C1364  1  0.22433000  0.91516000  0.46515000  1.0 -0.1105137151
C  C1365  1  0.24265000  0.91785000  0.46168000  1.0 0.0297287658
C  C1366  1  0.25153000  0.93473000  0.45638000  1.0 -0.1304455674
C  C1367  1  0.24162000  0.94801000  0.45453000  1.0 -0.1105137151
C  C1368  1  0.25241000  0.90290000  0.46349000  1.0 0.3022607126
C  C1369  1  0.25989000  0.87936000  0.47013000  1.0 0.2608283804
C  C1370  1  0.26086000  0.86274000  0.47670000  1.0 0.012429044
C  C1371  1  0.24556000  0.85408000  0.48336000  1.0 -0.1105137151
C  C1372  1  0.24489000  0.83735000  0.48886000  1.0 -0.0911348855
C  C1373  1  0.26065000  0.83031000  0.48944000  1.0 -0.0454077434
C  C1374  1  0.27661000  0.83981000  0.48392000  1.0 -0.0981857934
C  C1375  1  0.27714000  0.85607000  0.47773000  1.0 -0.1842769534
C  C1376  1  0.26032000  0.81245000  0.49557000  1.0 0.6242175824
C  C1377  1  0.20131000  0.95993000  0.39782000  1.0 0.6242175824
C  C1378  1  0.20771000  0.94409000  0.38570000  1.0 -0.0362889079
C  C1379  1  0.22843000  0.94664000  0.39739000  1.0 -0.0981857934
C  C1380  1  0.23430000  0.93091000  0.38651000  1.0 -0.1697123239
C  C1381  1  0.21931000  0.91354000  0.36399000  1.0 -0.0130735305
C  C1382  1  0.19885000  0.91236000  0.35291000  1.0 -0.1105137151
C  C1383  1  0.19311000  0.92714000  0.36407000  1.0 -0.0981857934
C  C1384  1  0.22530000  0.89845000  0.35261000  1.0 0.2696112048
C  C1385  1  0.14585000  0.03582000  0.41875000  1.0 0.6381326617
C  C1386  1  0.13532000  0.04916000  0.41318000  1.0 -0.0630705643
C  C1387  1  0.14553000  0.06426000  0.40789000  1.0 -0.0790157113
C  C1388  1  0.13803000  0.07952000  0.40349000  1.0 -0.1697123239
C  C1389  1  0.11817000  0.07635000  0.40514000  1.0 0.012429044
C  C1390  1  0.10777000  0.06047000  0.41024000  1.0 -0.1304455674
C  C1391  1  0.11669000  0.04702000  0.41437000  1.0 -0.0911348855
C  C1392  1  0.10799000  0.09099000  0.40194000  1.0 0.2873855117
C  C1393  1  0.15912000  0.03321000  0.48575000  1.0 0.6643248863
C  C1394  1  0.15017000  0.03953000  0.50122000  1.0 -0.0981857934
C  C1395  1  0.12760000  0.03179000  0.49329000  1.0 0.0217965257
C  C1396  1  0.11891000  0.03747000  0.50754000  1.0 -0.1697123239
C  C1397  1  0.13474000  0.05055000  0.53159000  1.0 0.0365421665
C  C1398  1  0.15763000  0.05955000  0.54010000  1.0 -0.0342103263
C  C1399  1  0.16571000  0.05334000  0.52433000  1.0 0.0674115572
C  C1400  1  0.12639000  0.05608000  0.54757000  1.0 0.2873855117
C  C1401  1  0.78643000  0.24221000  0.74666000  1.0 0.6259705164
C  C1402  1  0.77631000  0.23417000  0.72158000  1.0 -0.0342103263
C  C1403  1  0.78509000  0.24833000  0.71378000  1.0 -0.0911348855
C  C1404  1  0.77567000  0.24082000  0.69083000  1.0 -0.1105137151
C  C1405  1  0.75735000  0.21903000  0.67520000  1.0 0.0297287658
C  C1406  1  0.74847000  0.20485000  0.68320000  1.0 -0.1304455674
C  C1407  1  0.75838000  0.21291000  0.70639000  1.0 -0.1105137151
C  C1408  1  0.74759000  0.21108000  0.65049000  1.0 0.3022607126
C  C1409  1  0.74011000  0.21024000  0.61947000  1.0 0.2608283804
C  C1410  1  0.73914000  0.21584000  0.60188000  1.0 0.012429044
C  C1411  1  0.75444000  0.23780000  0.60852000  1.0 -0.1105137151
C  C1412  1  0.75511000  0.24397000  0.59246000  1.0 -0.0981857934
C  C1413  1  0.73935000  0.22879000  0.56966000  1.0 -0.0454077434
C  C1414  1  0.72339000  0.20731000  0.56320000  1.0 -0.0981857934
C  C1415  1  0.72286000  0.20059000  0.57893000  1.0 -0.1842769534
C  C1416  1  0.73968000  0.23525000  0.55213000  1.0 0.6242175824
C  C1417  1  0.79869000  0.19651000  0.75862000  1.0 0.6242175824
C  C1418  1  0.79229000  0.17799000  0.73638000  1.0 -0.0362889079
C  C1419  1  0.77157000  0.16896000  0.71821000  1.0 -0.0981857934
C  C1420  1  0.76570000  0.15221000  0.69661000  1.0 -0.1697123239
C  C1421  1  0.78069000  0.14468000  0.69423000  1.0 -0.0130735305
C  C1422  1  0.80115000  0.15406000  0.71351000  1.0 -0.1105137151
C  C1423  1  0.80689000  0.17096000  0.73403000  1.0 -0.0981857934
C  C1424  1  0.77470000  0.12731000  0.67315000  1.0 0.2696112048
C  C1425  1  0.85415000  0.27290000  0.88997000  1.0 0.6381326617
C  C1426  1  0.86468000  0.27786000  0.91384000  1.0 -0.0630705643
C  C1427  1  0.85447000  0.26236000  0.91873000  1.0 -0.0790157113
C  C1428  1  0.86197000  0.26546000  0.94149000  1.0 -0.1697123239
C  C1429  1  0.88183000  0.28697000  0.95818000  1.0 0.012429044
C  C1430  1  0.89223000  0.30247000  0.95270000  1.0 -0.1304455674
C  C1431  1  0.88331000  0.29768000  0.93033000  1.0 -0.0911348855
C  C1432  1  0.89201000  0.29395000  0.98300000  1.0 0.2830184487
C  C1433  1  0.84088000  0.32663000  0.87409000  1.0 0.6643248863
C  C1434  1  0.84983000  0.35105000  0.88936000  1.0 -0.0981857934
C  C1435  1  0.87240000  0.36569000  0.90419000  1.0 0.0217965257
C  C1436  1  0.88109000  0.38863000  0.91856000  1.0 -0.1697123239
C  C1437  1  0.86526000  0.39685000  0.91581000  1.0 0.0365421665
C  C1438  1  0.84237000  0.38247000  0.90192000  1.0 -0.0362889079
C  C1439  1  0.83429000  0.35862000  0.88763000  1.0 0.0674115572
C  C1440  1  0.87361000  0.42118000  0.92969000  1.0 0.2873855117
C  C1441  1  0.75779000  0.21357000  0.25334000  1.0 0.6259705164
C  C1442  1  0.76583000  0.22369000  0.27842000  1.0 -0.0342103263
C  C1443  1  0.75167000  0.21491000  0.28622000  1.0 -0.0911348855
C  C1444  1  0.75918000  0.22433000  0.30917000  1.0 -0.1105137151
C  C1445  1  0.78097000  0.24265000  0.32480000  1.0 0.0297287658
C  C1446  1  0.79515000  0.25153000  0.31680000  1.0 -0.1304455674
C  C1447  1  0.78709000  0.24162000  0.29361000  1.0 -0.1105137151
C  C1448  1  0.78892000  0.25241000  0.34951000  1.0 0.3022607126
C  C1449  1  0.78976000  0.25989000  0.38053000  1.0 0.2608283804
C  C1450  1  0.78416000  0.26086000  0.39812000  1.0 0.012429044
C  C1451  1  0.76220000  0.24556000  0.39148000  1.0 -0.1105137151
C  C1452  1  0.75603000  0.24489000  0.40754000  1.0 -0.0911348855
C  C1453  1  0.77121000  0.26065000  0.43034000  1.0 -0.0454077434
C  C1454  1  0.79269000  0.27661000  0.43680000  1.0 -0.0981857934
C  C1455  1  0.79941000  0.27714000  0.42107000  1.0 -0.1842769534
C  C1456  1  0.76475000  0.26032000  0.44787000  1.0 0.6242175824
C  C1457  1  0.80349000  0.20131000  0.24138000  1.0 0.6242175824
C  C1458  1  0.82201000  0.20771000  0.26362000  1.0 -0.0362889079
C  C1459  1  0.83104000  0.22843000  0.28179000  1.0 -0.0981857934
C  C1460  1  0.84779000  0.23430000  0.30339000  1.0 -0.1697123239
C  C1461  1  0.85532000  0.21931000  0.30577000  1.0 -0.0130735305
C  C1462  1  0.84594000  0.19885000  0.28649000  1.0 -0.1105137151
C  C1463  1  0.82904000  0.19311000  0.26597000  1.0 -0.0981857934
C  C1464  1  0.87269000  0.22530000  0.32685000  1.0 0.2696112048
C  C1465  1  0.72710000  0.14585000  0.11003000  1.0 0.6381326617
C  C1466  1  0.72214000  0.13532000  0.08616000  1.0 -0.0630705643
C  C1467  1  0.73764000  0.14553000  0.08127000  1.0 -0.0790157113
C  C1468  1  0.73454000  0.13803000  0.05851000  1.0 -0.1697123239
C  C1469  1  0.71303000  0.11817000  0.04182000  1.0 0.012429044
C  C1470  1  0.69753000  0.10777000  0.04730000  1.0 -0.1304455674
C  C1471  1  0.70232000  0.11669000  0.06967000  1.0 -0.0911348855
C  C1472  1  0.70605000  0.10799000  0.01700000  1.0 0.2873855117
C  C1473  1  0.67337000  0.15912000  0.12591000  1.0 0.6643248863
C  C1474  1  0.64895000  0.15017000  0.11064000  1.0 -0.0981857934
C  C1475  1  0.63431000  0.12760000  0.09581000  1.0 0.0217965257
C  C1476  1  0.61137000  0.11891000  0.08144000  1.0 -0.1697123239
C  C1477  1  0.60315000  0.13474000  0.08419000  1.0 0.0365421665
C  C1478  1  0.61753000  0.15763000  0.09808000  1.0 -0.0362889079
C  C1479  1  0.64138000  0.16571000  0.11237000  1.0 0.0674115572
C  C1480  1  0.57882000  0.12639000  0.07031000  1.0 0.2873855117
C  C1481  1  0.03977000  0.78643000  0.54422000  1.0 0.6259705164
C  C1482  1  0.05473000  0.77631000  0.54214000  1.0 -0.0362889079
C  C1483  1  0.07131000  0.78509000  0.53676000  1.0 -0.0911348855
C  C1484  1  0.08484000  0.77567000  0.53485000  1.0 -0.1105137151
C  C1485  1  0.08215000  0.75735000  0.53832000  1.0 0.0297287658
C  C1486  1  0.06527000  0.74847000  0.54362000  1.0 -0.1304455674
C  C1487  1  0.05199000  0.75838000  0.54547000  1.0 -0.1105137151
C  C1488  1  0.09710000  0.74759000  0.53651000  1.0 0.3022607126
C  C1489  1  0.12064000  0.74011000  0.52987000  1.0 0.2608283804
C  C1490  1  0.13726000  0.73914000  0.52330000  1.0 0.012429044
C  C1491  1  0.14592000  0.75444000  0.51664000  1.0 -0.1105137151
C  C1492  1  0.16265000  0.75511000  0.51114000  1.0 -0.0911348855
C  C1493  1  0.16969000  0.73935000  0.51056000  1.0 -0.0454077434
C  C1494  1  0.16019000  0.72339000  0.51608000  1.0 -0.0981857934
C  C1495  1  0.14393000  0.72286000  0.52227000  1.0 -0.1842769534
C  C1496  1  0.18755000  0.73968000  0.50443000  1.0 0.6242175824
C  C1497  1  0.04007000  0.79869000  0.60218000  1.0 0.6242175824
C  C1498  1  0.05591000  0.79229000  0.61430000  1.0 -0.0362889079
C  C1499  1  0.05336000  0.77157000  0.60261000  1.0 -0.0981857934
C  C1500  1  0.06909000  0.76570000  0.61349000  1.0 -0.1697123239
C  C1501  1  0.08646000  0.78069000  0.63601000  1.0 -0.0150755322
C  C1502  1  0.08764000  0.80115000  0.64709000  1.0 -0.115069183
C  C1503  1  0.07286000  0.80689000  0.63593000  1.0 -0.0981857934
C  C1504  1  0.10155000  0.77470000  0.64739000  1.0 0.2830184487
C  C1505  1  0.96418000  0.85415000  0.58125000  1.0 0.6381326617
C  C1506  1  0.95084000  0.86468000  0.58682000  1.0 -0.0630705643
C  C1507  1  0.93574000  0.85447000  0.59211000  1.0 -0.0790157113
C  C1508  1  0.92048000  0.86197000  0.59651000  1.0 -0.1697123239
C  C1509  1  0.92365000  0.88183000  0.59486000  1.0 0.0217965257
C  C1510  1  0.93953000  0.89223000  0.58976000  1.0 -0.1304455674
C  C1511  1  0.95298000  0.88331000  0.58563000  1.0 -0.0911348855
C  C1512  1  0.90901000  0.89201000  0.59806000  1.0 0.2830184487
C  C1513  1  0.96679000  0.84088000  0.51425000  1.0 0.6643248863
C  C1514  1  0.96047000  0.84983000  0.49878000  1.0 -0.0981857934
C  C1515  1  0.96821000  0.87240000  0.50671000  1.0 0.0217965257
C  C1516  1  0.96253000  0.88109000  0.49246000  1.0 -0.1618976452
C  C1517  1  0.94945000  0.86526000  0.46841000  1.0 0.0297287658
C  C1518  1  0.94045000  0.84237000  0.45990000  1.0 -0.0362889079
C  C1519  1  0.94666000  0.83429000  0.47567000  1.0 0.0674115572
C  C1520  1  0.94392000  0.87361000  0.45243000  1.0 0.2873855117
C  C1521  1  0.96023000  0.50445000  0.74666000  1.0 0.6259705164
C  C1522  1  0.94527000  0.48741000  0.72158000  1.0 -0.0342103263
C  C1523  1  0.92869000  0.46545000  0.71378000  1.0 -0.0911348855
C  C1524  1  0.91516000  0.45001000  0.69083000  1.0 -0.1105137151
C  C1525  1  0.91785000  0.45617000  0.67520000  1.0 0.0297287658
C  C1526  1  0.93473000  0.47835000  0.68320000  1.0 -0.1304455674
C  C1527  1  0.94801000  0.49348000  0.70639000  1.0 -0.1105137151
C  C1528  1  0.90290000  0.43941000  0.65049000  1.0 0.3022607126
C  C1529  1  0.87936000  0.40923000  0.61947000  1.0 0.2608283804
C  C1530  1  0.86274000  0.38604000  0.60188000  1.0 0.012429044
C  C1531  1  0.85408000  0.37072000  0.60852000  1.0 -0.1105137151
C  C1532  1  0.83735000  0.34849000  0.59246000  1.0 -0.0911348855
C  C1533  1  0.83031000  0.34087000  0.56966000  1.0 -0.0454077434
C  C1534  1  0.83981000  0.35589000  0.56320000  1.0 -0.0981857934
C  C1535  1  0.85607000  0.37834000  0.57893000  1.0 -0.1842769534
C  C1536  1  0.81245000  0.31688000  0.55213000  1.0 0.6242175824
C  C1537  1  0.95993000  0.56211000  0.75862000  1.0 0.6242175824
C  C1538  1  0.94409000  0.55839000  0.73638000  1.0 -0.0362889079
C  C1539  1  0.94664000  0.54925000  0.71821000  1.0 -0.0981857934
C  C1540  1  0.93091000  0.54440000  0.69661000  1.0 -0.1618976452
C  C1541  1  0.91354000  0.54955000  0.69423000  1.0 -0.0130735305
C  C1542  1  0.91236000  0.55945000  0.71351000  1.0 -0.1105137151
C  C1543  1  0.92714000  0.56307000  0.73403000  1.0 -0.0981857934
C  C1544  1  0.89845000  0.54584000  0.67315000  1.0 0.2696112048
C  C1545  1  0.03582000  0.61707000  0.88997000  1.0 0.6381326617
C  C1546  1  0.04916000  0.63598000  0.91384000  1.0 -0.0630705643
C  C1547  1  0.06426000  0.65637000  0.91873000  1.0 -0.0790157113
C  C1548  1  0.07952000  0.67603000  0.94149000  1.0 -0.1697123239
C  C1549  1  0.07635000  0.67121000  0.95818000  1.0 0.012429044
C  C1550  1  0.06047000  0.65023000  0.95270000  1.0 -0.1304455674
C  C1551  1  0.04702000  0.63265000  0.93033000  1.0 -0.0911348855
C  C1552  1  0.09099000  0.68905000  0.98300000  1.0 0.2873855117
C  C1553  1  0.03321000  0.54746000  0.87409000  1.0 0.6643248863
C  C1554  1  0.03953000  0.53831000  0.88936000  1.0 -0.0981857934
C  C1555  1  0.03179000  0.53850000  0.90419000  1.0 0.0217965257
C  C1556  1  0.03747000  0.52993000  0.91856000  1.0 -0.1697123239
C  C1557  1  0.05055000  0.51896000  0.91581000  1.0 0.0365421665
C  C1558  1  0.05955000  0.51945000  0.90192000  1.0 -0.0362889079
C  C1559  1  0.05334000  0.52901000  0.88763000  1.0 0.0674115572
C  C1560  1  0.05608000  0.50851000  0.92969000  1.0 0.2873855117
C  C1561  1  0.24221000  0.49555000  0.45578000  1.0 0.6259705164
C  C1562  1  0.23417000  0.51259000  0.45786000  1.0 -0.0342103263
C  C1563  1  0.24833000  0.53455000  0.46324000  1.0 -0.0911348855
C  C1564  1  0.24082000  0.54999000  0.46515000  1.0 -0.1105137151
C  C1565  1  0.21903000  0.54383000  0.46168000  1.0 0.0297287658
C  C1566  1  0.20485000  0.52165000  0.45638000  1.0 -0.1304455674
C  C1567  1  0.21291000  0.50652000  0.45453000  1.0 -0.1105137151
C  C1568  1  0.21108000  0.56059000  0.46349000  1.0 0.3022607126
C  C1569  1  0.21024000  0.59077000  0.47013000  1.0 0.2608283804
C  C1570  1  0.21584000  0.61396000  0.47670000  1.0 0.012429044
C  C1571  1  0.23780000  0.62928000  0.48336000  1.0 -0.1105137151
C  C1572  1  0.24397000  0.65151000  0.48886000  1.0 -0.0911348855
C  C1573  1  0.22879000  0.65913000  0.48944000  1.0 -0.0454077434
C  C1574  1  0.20731000  0.64411000  0.48392000  1.0 -0.0981857934
C  C1575  1  0.20059000  0.62166000  0.47773000  1.0 -0.1842769534
C  C1576  1  0.23525000  0.68312000  0.49557000  1.0 0.6242175824
C  C1577  1  0.19651000  0.43789000  0.39782000  1.0 0.6242175824
C  C1578  1  0.17799000  0.44161000  0.38570000  1.0 -0.0362889079
C  C1579  1  0.16896000  0.45075000  0.39739000  1.0 -0.0981857934
C  C1580  1  0.15221000  0.45560000  0.38651000  1.0 -0.1697123239
C  C1581  1  0.14468000  0.45045000  0.36399000  1.0 -0.0130735305
C  C1582  1  0.15406000  0.44055000  0.35291000  1.0 -0.1105137151
C  C1583  1  0.17096000  0.43693000  0.36407000  1.0 -0.0981857934
C  C1584  1  0.12731000  0.45416000  0.35261000  1.0 0.2696112048
C  C1585  1  0.27290000  0.38293000  0.41875000  1.0 0.6381326617
C  C1586  1  0.27786000  0.36402000  0.41318000  1.0 -0.0630705643
C  C1587  1  0.26236000  0.34363000  0.40789000  1.0 -0.0790157113
C  C1588  1  0.26546000  0.32397000  0.40349000  1.0 -0.1697123239
C  C1589  1  0.28697000  0.32879000  0.40514000  1.0 0.012429044
C  C1590  1  0.30247000  0.34977000  0.41024000  1.0 -0.1304455674
C  C1591  1  0.29768000  0.36735000  0.41437000  1.0 -0.0911348855
C  C1592  1  0.29395000  0.31095000  0.40194000  1.0 0.2873855117
C  C1593  1  0.32663000  0.45254000  0.48575000  1.0 0.6643248863
C  C1594  1  0.35105000  0.46169000  0.50122000  1.0 -0.0981857934
C  C1595  1  0.36569000  0.46150000  0.49329000  1.0 0.0217965257
C  C1596  1  0.38863000  0.47007000  0.50754000  1.0 -0.1697123239
C  C1597  1  0.39685000  0.48104000  0.53159000  1.0 0.0365421665
C  C1598  1  0.38247000  0.48055000  0.54010000  1.0 -0.0362889079
C  C1599  1  0.35862000  0.47099000  0.52433000  1.0 0.0674115572
C  C1600  1  0.42118000  0.49149000  0.54757000  1.0 0.2873855117
C  C1601  1  0.78643000  0.54422000  0.03977000  1.0 0.6242175824
C  C1602  1  0.77631000  0.54214000  0.05473000  1.0 -0.0342103263
C  C1603  1  0.78509000  0.53676000  0.07131000  1.0 -0.0911348855
C  C1604  1  0.77567000  0.53485000  0.08484000  1.0 -0.1105137151
C  C1605  1  0.75735000  0.53832000  0.08215000  1.0 0.0297287658
C  C1606  1  0.74847000  0.54362000  0.06527000  1.0 -0.1304455674
C  C1607  1  0.75838000  0.54547000  0.05199000  1.0 -0.1105137151
C  C1608  1  0.74759000  0.53651000  0.09710000  1.0 0.3022607126
C  C1609  1  0.74011000  0.52987000  0.12064000  1.0 0.2608283804
C  C1610  1  0.73914000  0.52330000  0.13726000  1.0 0.012429044
C  C1611  1  0.75444000  0.51664000  0.14592000  1.0 -0.1105137151
C  C1612  1  0.75511000  0.51114000  0.16265000  1.0 -0.0911348855
C  C1613  1  0.73935000  0.51056000  0.16969000  1.0 -0.0454077434
C  C1614  1  0.72339000  0.51608000  0.16019000  1.0 -0.0981857934
C  C1615  1  0.72286000  0.52227000  0.14393000  1.0 -0.1842769534
C  C1616  1  0.73968000  0.50443000  0.18755000  1.0 0.6242175824
C  C1617  1  0.79869000  0.60218000  0.04007000  1.0 0.6242175824
C  C1618  1  0.79229000  0.61430000  0.05591000  1.0 -0.0362889079
C  C1619  1  0.77157000  0.60261000  0.05336000  1.0 -0.0981857934
C  C1620  1  0.76570000  0.61349000  0.06909000  1.0 -0.1697123239
C  C1621  1  0.78069000  0.63601000  0.08646000  1.0 -0.0130735305
C  C1622  1  0.80115000  0.64709000  0.08764000  1.0 -0.115069183
C  C1623  1  0.80689000  0.63593000  0.07286000  1.0 -0.0981857934
C  C1624  1  0.77470000  0.64739000  0.10155000  1.0 0.2696112048
C  C1625  1  0.85415000  0.58125000  0.96418000  1.0 0.6381326617
C  C1626  1  0.86468000  0.58682000  0.95084000  1.0 -0.0630705643
C  C1627  1  0.85447000  0.59211000  0.93574000  1.0 -0.0790157113
C  C1628  1  0.86197000  0.59651000  0.92048000  1.0 -0.1697123239
C  C1629  1  0.88183000  0.59486000  0.92365000  1.0 0.0217965257
C  C1630  1  0.89223000  0.58976000  0.93953000  1.0 -0.1304455674
C  C1631  1  0.88331000  0.58563000  0.95298000  1.0 -0.0911348855
C  C1632  1  0.89201000  0.59806000  0.90901000  1.0 0.2873855117
C  C1633  1  0.84088000  0.51425000  0.96679000  1.0 0.6643248863
C  C1634  1  0.84983000  0.49878000  0.96047000  1.0 -0.0981857934
C  C1635  1  0.87240000  0.50671000  0.96821000  1.0 0.0217965257
C  C1636  1  0.88109000  0.49246000  0.96253000  1.0 -0.1697123239
C  C1637  1  0.86526000  0.46841000  0.94945000  1.0 0.0365421665
C  C1638  1  0.84237000  0.45990000  0.94045000  1.0 -0.0342103263
C  C1639  1  0.83429000  0.47567000  0.94666000  1.0 0.0674115572
C  C1640  1  0.87361000  0.45243000  0.94392000  1.0 0.2873855117
C  C1641  1  0.21357000  0.25334000  0.75779000  1.0 0.6259705164
C  C1642  1  0.22369000  0.27842000  0.76583000  1.0 -0.0342103263
C  C1643  1  0.21491000  0.28622000  0.75167000  1.0 -0.0911348855
C  C1644  1  0.22433000  0.30917000  0.75918000  1.0 -0.1105137151
C  C1645  1  0.24265000  0.32480000  0.78097000  1.0 0.0297287658
C  C1646  1  0.25153000  0.31680000  0.79515000  1.0 -0.1304455674
C  C1647  1  0.24162000  0.29361000  0.78709000  1.0 -0.1105137151
C  C1648  1  0.25241000  0.34951000  0.78892000  1.0 0.3022607126
C  C1649  1  0.25989000  0.38053000  0.78976000  1.0 0.2608283804
C  C1650  1  0.26086000  0.39812000  0.78416000  1.0 0.012429044
C  C1651  1  0.24556000  0.39148000  0.76220000  1.0 -0.1105137151
C  C1652  1  0.24489000  0.40754000  0.75603000  1.0 -0.0911348855
C  C1653  1  0.26065000  0.43034000  0.77121000  1.0 -0.0454077434
C  C1654  1  0.27661000  0.43680000  0.79269000  1.0 -0.0981857934
C  C1655  1  0.27714000  0.42107000  0.79941000  1.0 -0.1842769534
C  C1656  1  0.26032000  0.44787000  0.76475000  1.0 0.6242175824
C  C1657  1  0.20131000  0.24138000  0.80349000  1.0 0.6242175824
C  C1658  1  0.20771000  0.26362000  0.82201000  1.0 -0.0362889079
C  C1659  1  0.22843000  0.28179000  0.83104000  1.0 -0.0981857934
C  C1660  1  0.23430000  0.30339000  0.84779000  1.0 -0.1697123239
C  C1661  1  0.21931000  0.30577000  0.85532000  1.0 -0.0130735305
C  C1662  1  0.19885000  0.28649000  0.84594000  1.0 -0.1105137151
C  C1663  1  0.19311000  0.26597000  0.82904000  1.0 -0.0981857934
C  C1664  1  0.22530000  0.32685000  0.87269000  1.0 0.2696112048
C  C1665  1  0.14585000  0.11003000  0.72710000  1.0 0.6381326617
C  C1666  1  0.13532000  0.08616000  0.72214000  1.0 -0.0630705643
C  C1667  1  0.14553000  0.08127000  0.73764000  1.0 -0.0790157113
C  C1668  1  0.13803000  0.05851000  0.73454000  1.0 -0.1697123239
C  C1669  1  0.11817000  0.04182000  0.71303000  1.0 0.012429044
C  C1670  1  0.10777000  0.04730000  0.69753000  1.0 -0.1304455674
C  C1671  1  0.11669000  0.06967000  0.70232000  1.0 -0.0911348855
C  C1672  1  0.10799000  0.01700000  0.70605000  1.0 0.2873855117
C  C1673  1  0.15912000  0.12591000  0.67337000  1.0 0.6643248863
C  C1674  1  0.15017000  0.11064000  0.64895000  1.0 -0.0981857934
C  C1675  1  0.12760000  0.09581000  0.63431000  1.0 0.0217965257
C  C1676  1  0.11891000  0.08144000  0.61137000  1.0 -0.1697123239
C  C1677  1  0.13474000  0.08419000  0.60315000  1.0 0.0365421665
C  C1678  1  0.15763000  0.09808000  0.61753000  1.0 -0.0362889079
C  C1679  1  0.16571000  0.11237000  0.64138000  1.0 0.0674115572
C  C1680  1  0.12639000  0.07031000  0.57882000  1.0 0.2873855117
C  C1681  1  0.49555000  0.45578000  0.24221000  1.0 0.6259705164
C  C1682  1  0.51259000  0.45786000  0.23417000  1.0 -0.0342103263
C  C1683  1  0.53455000  0.46324000  0.24833000  1.0 -0.0911348855
C  C1684  1  0.54999000  0.46515000  0.24082000  1.0 -0.1105137151
C  C1685  1  0.54383000  0.46168000  0.21903000  1.0 0.0297287658
C  C1686  1  0.52165000  0.45638000  0.20485000  1.0 -0.1304455674
C  C1687  1  0.50652000  0.45453000  0.21291000  1.0 -0.1105137151
C  C1688  1  0.56059000  0.46349000  0.21108000  1.0 0.3022607126
C  C1689  1  0.59077000  0.47013000  0.21024000  1.0 0.2608283804
C  C1690  1  0.61396000  0.47670000  0.21584000  1.0 0.012429044
C  C1691  1  0.62928000  0.48336000  0.23780000  1.0 -0.1105137151
C  C1692  1  0.65151000  0.48886000  0.24397000  1.0 -0.0981857934
C  C1693  1  0.65913000  0.48944000  0.22879000  1.0 -0.0454077434
C  C1694  1  0.64411000  0.48392000  0.20731000  1.0 -0.0981857934
C  C1695  1  0.62166000  0.47773000  0.20059000  1.0 -0.1842769534
C  C1696  1  0.68312000  0.49557000  0.23525000  1.0 0.6259705164
C  C1697  1  0.43789000  0.39782000  0.19651000  1.0 0.6242175824
C  C1698  1  0.44161000  0.38570000  0.17799000  1.0 -0.0362889079
C  C1699  1  0.45075000  0.39739000  0.16896000  1.0 -0.0981857934
C  C1700  1  0.45560000  0.38651000  0.15221000  1.0 -0.1618976452
C  C1701  1  0.45045000  0.36399000  0.14468000  1.0 -0.0130735305
C  C1702  1  0.44055000  0.35291000  0.15406000  1.0 -0.1105137151
C  C1703  1  0.43693000  0.36407000  0.17096000  1.0 -0.0981857934
C  C1704  1  0.45416000  0.35261000  0.12731000  1.0 0.2696112048
C  C1705  1  0.38293000  0.41875000  0.27290000  1.0 0.6381326617
C  C1706  1  0.36402000  0.41318000  0.27786000  1.0 -0.0630705643
C  C1707  1  0.34363000  0.40789000  0.26236000  1.0 -0.0790157113
C  C1708  1  0.32397000  0.40349000  0.26546000  1.0 -0.1697123239
C  C1709  1  0.32879000  0.40514000  0.28697000  1.0 0.012429044
C  C1710  1  0.34977000  0.41024000  0.30247000  1.0 -0.1304455674
C  C1711  1  0.36735000  0.41437000  0.29768000  1.0 -0.0911348855
C  C1712  1  0.31095000  0.40194000  0.29395000  1.0 0.2873855117
C  C1713  1  0.45254000  0.48575000  0.32663000  1.0 0.6662948357
C  C1714  1  0.46169000  0.50122000  0.35105000  1.0 -0.0981857934
C  C1715  1  0.46150000  0.49329000  0.36569000  1.0 0.0217965257
C  C1716  1  0.47007000  0.50754000  0.38863000  1.0 -0.1697123239
C  C1717  1  0.48104000  0.53159000  0.39685000  1.0 0.0365421665
C  C1718  1  0.48055000  0.54010000  0.38247000  1.0 -0.0362889079
C  C1719  1  0.47099000  0.52433000  0.35862000  1.0 0.0674115572
C  C1720  1  0.49149000  0.54757000  0.42118000  1.0 0.2873855117
C  C1721  1  0.50445000  0.74666000  0.96023000  1.0 0.6242175824
C  C1722  1  0.48741000  0.72158000  0.94527000  1.0 -0.0342103263
C  C1723  1  0.46545000  0.71378000  0.92869000  1.0 -0.0911348855
C  C1724  1  0.45001000  0.69083000  0.91516000  1.0 -0.1105137151
C  C1725  1  0.45617000  0.67520000  0.91785000  1.0 0.0297287658
C  C1726  1  0.47835000  0.68320000  0.93473000  1.0 -0.1304455674
C  C1727  1  0.49348000  0.70639000  0.94801000  1.0 -0.1105137151
C  C1728  1  0.43941000  0.65049000  0.90290000  1.0 0.3022607126
C  C1729  1  0.40923000  0.61947000  0.87936000  1.0 0.2608283804
C  C1730  1  0.38604000  0.60188000  0.86274000  1.0 0.012429044
C  C1731  1  0.37072000  0.60852000  0.85408000  1.0 -0.1105137151
C  C1732  1  0.34849000  0.59246000  0.83735000  1.0 -0.0911348855
C  C1733  1  0.34087000  0.56966000  0.83031000  1.0 -0.0454077434
C  C1734  1  0.35589000  0.56320000  0.83981000  1.0 -0.0981857934
C  C1735  1  0.37834000  0.57893000  0.85607000  1.0 -0.1842769534
C  C1736  1  0.31688000  0.55213000  0.81245000  1.0 0.6242175824
C  C1737  1  0.56211000  0.75862000  0.95993000  1.0 0.6242175824
C  C1738  1  0.55839000  0.73638000  0.94409000  1.0 -0.0362889079
C  C1739  1  0.54925000  0.71821000  0.94664000  1.0 -0.0981857934
C  C1740  1  0.54440000  0.69661000  0.93091000  1.0 -0.1697123239
C  C1741  1  0.54955000  0.69423000  0.91354000  1.0 -0.0130735305
C  C1742  1  0.55945000  0.71351000  0.91236000  1.0 -0.1105137151
C  C1743  1  0.56307000  0.73403000  0.92714000  1.0 -0.0981857934
C  C1744  1  0.54584000  0.67315000  0.89845000  1.0 0.2696112048
C  C1745  1  0.61707000  0.88997000  0.03582000  1.0 0.6381326617
C  C1746  1  0.63598000  0.91384000  0.04916000  1.0 -0.0630705643
C  C1747  1  0.65637000  0.91873000  0.06426000  1.0 -0.0790157113
C  C1748  1  0.67603000  0.94149000  0.07952000  1.0 -0.1697123239
C  C1749  1  0.67121000  0.95818000  0.07635000  1.0 0.012429044
C  C1750  1  0.65023000  0.95270000  0.06047000  1.0 -0.1304455674
C  C1751  1  0.63265000  0.93033000  0.04702000  1.0 -0.0911348855
C  C1752  1  0.68905000  0.98300000  0.09099000  1.0 0.2873855117
C  C1753  1  0.54746000  0.87409000  0.03321000  1.0 0.6643248863
C  C1754  1  0.53831000  0.88936000  0.03953000  1.0 -0.0981857934
C  C1755  1  0.53850000  0.90419000  0.03179000  1.0 0.0217965257
C  C1756  1  0.52993000  0.91856000  0.03747000  1.0 -0.1697123239
C  C1757  1  0.51896000  0.91581000  0.05055000  1.0 0.0365421665
C  C1758  1  0.51945000  0.90192000  0.05955000  1.0 -0.0362889079
C  C1759  1  0.52901000  0.88763000  0.05334000  1.0 0.0674115572
C  C1760  1  0.50851000  0.92969000  0.05608000  1.0 0.2873855117
C  C1761  1  0.45578000  0.24221000  0.49555000  1.0 0.6259705164
C  C1762  1  0.45786000  0.23417000  0.51259000  1.0 -0.0342103263
C  C1763  1  0.46324000  0.24833000  0.53455000  1.0 -0.0911348855
C  C1764  1  0.46515000  0.24082000  0.54999000  1.0 -0.1105137151
C  C1765  1  0.46168000  0.21903000  0.54383000  1.0 0.0297287658
C  C1766  1  0.45638000  0.20485000  0.52165000  1.0 -0.1304455674
C  C1767  1  0.45453000  0.21291000  0.50652000  1.0 -0.1105137151
C  C1768  1  0.46349000  0.21108000  0.56059000  1.0 0.3022607126
C  C1769  1  0.47013000  0.21024000  0.59077000  1.0 0.2608283804
C  C1770  1  0.47670000  0.21584000  0.61396000  1.0 0.012429044
C  C1771  1  0.48336000  0.23780000  0.62928000  1.0 -0.1105137151
C  C1772  1  0.48886000  0.24397000  0.65151000  1.0 -0.0911348855
C  C1773  1  0.48944000  0.22879000  0.65913000  1.0 -0.0454077434
C  C1774  1  0.48392000  0.20731000  0.64411000  1.0 -0.0981857934
C  C1775  1  0.47773000  0.20059000  0.62166000  1.0 -0.1842769534
C  C1776  1  0.49557000  0.23525000  0.68312000  1.0 0.6242175824
C  C1777  1  0.39782000  0.19651000  0.43789000  1.0 0.6242175824
C  C1778  1  0.38570000  0.17799000  0.44161000  1.0 -0.0362889079
C  C1779  1  0.39739000  0.16896000  0.45075000  1.0 -0.0981857934
C  C1780  1  0.38651000  0.15221000  0.45560000  1.0 -0.1697123239
C  C1781  1  0.36399000  0.14468000  0.45045000  1.0 -0.0130735305
C  C1782  1  0.35291000  0.15406000  0.44055000  1.0 -0.1105137151
C  C1783  1  0.36407000  0.17096000  0.43693000  1.0 -0.0981857934
C  C1784  1  0.35261000  0.12731000  0.45416000  1.0 0.2696112048
C  C1785  1  0.41875000  0.27290000  0.38293000  1.0 0.6381326617
C  C1786  1  0.41318000  0.27786000  0.36402000  1.0 -0.0630705643
C  C1787  1  0.40789000  0.26236000  0.34363000  1.0 -0.0790157113
C  C1788  1  0.40349000  0.26546000  0.32397000  1.0 -0.1697123239
C  C1789  1  0.40514000  0.28697000  0.32879000  1.0 0.012429044
C  C1790  1  0.41024000  0.30247000  0.34977000  1.0 -0.1304455674
C  C1791  1  0.41437000  0.29768000  0.36735000  1.0 -0.0911348855
C  C1792  1  0.40194000  0.29395000  0.31095000  1.0 0.2873855117
C  C1793  1  0.48575000  0.32663000  0.45254000  1.0 0.6643248863
C  C1794  1  0.50122000  0.35105000  0.46169000  1.0 -0.0981857934
C  C1795  1  0.49329000  0.36569000  0.46150000  1.0 0.0217965257
C  C1796  1  0.50754000  0.38863000  0.47007000  1.0 -0.1697123239
C  C1797  1  0.53159000  0.39685000  0.48104000  1.0 0.0365421665
C  C1798  1  0.54010000  0.38247000  0.48055000  1.0 -0.0362889079
C  C1799  1  0.52433000  0.35862000  0.47099000  1.0 0.0674115572
C  C1800  1  0.54757000  0.42118000  0.49149000  1.0 0.2873855117
C  C1801  1  0.74666000  0.96023000  0.50445000  1.0 0.6259705164
C  C1802  1  0.72158000  0.94527000  0.48741000  1.0 -0.0342103263
C  C1803  1  0.71378000  0.92869000  0.46545000  1.0 -0.0911348855
C  C1804  1  0.69083000  0.91516000  0.45001000  1.0 -0.1105137151
C  C1805  1  0.67520000  0.91785000  0.45617000  1.0 0.0297287658
C  C1806  1  0.68320000  0.93473000  0.47835000  1.0 -0.1304455674
C  C1807  1  0.70639000  0.94801000  0.49348000  1.0 -0.1105137151
C  C1808  1  0.65049000  0.90290000  0.43941000  1.0 0.3022607126
C  C1809  1  0.61947000  0.87936000  0.40923000  1.0 0.2608283804
C  C1810  1  0.60188000  0.86274000  0.38604000  1.0 0.012429044
C  C1811  1  0.60852000  0.85408000  0.37072000  1.0 -0.1105137151
C  C1812  1  0.59246000  0.83735000  0.34849000  1.0 -0.0911348855
C  C1813  1  0.56966000  0.83031000  0.34087000  1.0 -0.0454077434
C  C1814  1  0.56320000  0.83981000  0.35589000  1.0 -0.0981857934
C  C1815  1  0.57893000  0.85607000  0.37834000  1.0 -0.1842769534
C  C1816  1  0.55213000  0.81245000  0.31688000  1.0 0.6259705164
C  C1817  1  0.75862000  0.95993000  0.56211000  1.0 0.6242175824
C  C1818  1  0.73638000  0.94409000  0.55839000  1.0 -0.0362889079
C  C1819  1  0.71821000  0.94664000  0.54925000  1.0 -0.0981857934
C  C1820  1  0.69661000  0.93091000  0.54440000  1.0 -0.1697123239
C  C1821  1  0.69423000  0.91354000  0.54955000  1.0 -0.0130735305
C  C1822  1  0.71351000  0.91236000  0.55945000  1.0 -0.1105137151
C  C1823  1  0.73403000  0.92714000  0.56307000  1.0 -0.0981857934
C  C1824  1  0.67315000  0.89845000  0.54584000  1.0 0.2696112048
C  C1825  1  0.88997000  0.03582000  0.61707000  1.0 0.6381326617
C  C1826  1  0.91384000  0.04916000  0.63598000  1.0 -0.0630705643
C  C1827  1  0.91873000  0.06426000  0.65637000  1.0 -0.0790157113
C  C1828  1  0.94149000  0.07952000  0.67603000  1.0 -0.1697123239
C  C1829  1  0.95818000  0.07635000  0.67121000  1.0 0.012429044
C  C1830  1  0.95270000  0.06047000  0.65023000  1.0 -0.1304455674
C  C1831  1  0.93033000  0.04702000  0.63265000  1.0 -0.0911348855
C  C1832  1  0.98300000  0.09099000  0.68905000  1.0 0.2873855117
C  C1833  1  0.87409000  0.03321000  0.54746000  1.0 0.6643248863
C  C1834  1  0.88936000  0.03953000  0.53831000  1.0 -0.0981857934
C  C1835  1  0.90419000  0.03179000  0.53850000  1.0 0.0217965257
C  C1836  1  0.91856000  0.03747000  0.52993000  1.0 -0.1697123239
C  C1837  1  0.91581000  0.05055000  0.51896000  1.0 0.0365421665
C  C1838  1  0.90192000  0.05955000  0.51945000  1.0 -0.0342103263
C  C1839  1  0.88763000  0.05334000  0.52901000  1.0 0.0674115572
C  C1840  1  0.92969000  0.05608000  0.50851000  1.0 0.2873855117
C  C1841  1  0.54422000  0.03977000  0.78643000  1.0 0.6259705164
C  C1842  1  0.54214000  0.05473000  0.77631000  1.0 -0.0362889079
C  C1843  1  0.53676000  0.07131000  0.78509000  1.0 -0.0911348855
C  C1844  1  0.53485000  0.08484000  0.77567000  1.0 -0.1105137151
C  C1845  1  0.53832000  0.08215000  0.75735000  1.0 0.0297287658
C  C1846  1  0.54362000  0.06527000  0.74847000  1.0 -0.1304455674
C  C1847  1  0.54547000  0.05199000  0.75838000  1.0 -0.1105137151
C  C1848  1  0.53651000  0.09710000  0.74759000  1.0 0.3022607126
C  C1849  1  0.52987000  0.12064000  0.74011000  1.0 0.2608283804
C  C1850  1  0.52330000  0.13726000  0.73914000  1.0 0.012429044
C  C1851  1  0.51664000  0.14592000  0.75444000  1.0 -0.1105137151
C  C1852  1  0.51114000  0.16265000  0.75511000  1.0 -0.0911348855
C  C1853  1  0.51056000  0.16969000  0.73935000  1.0 -0.0454077434
C  C1854  1  0.51608000  0.16019000  0.72339000  1.0 -0.0981857934
C  C1855  1  0.52227000  0.14393000  0.72286000  1.0 -0.1842769534
C  C1856  1  0.50443000  0.18755000  0.73968000  1.0 0.6259705164
C  C1857  1  0.60218000  0.04007000  0.79869000  1.0 0.6242175824
C  C1858  1  0.61430000  0.05591000  0.79229000  1.0 -0.0362889079
C  C1859  1  0.60261000  0.05336000  0.77157000  1.0 -0.0981857934
C  C1860  1  0.61349000  0.06909000  0.76570000  1.0 -0.1697123239
C  C1861  1  0.63601000  0.08646000  0.78069000  1.0 -0.0130735305
C  C1862  1  0.64709000  0.08764000  0.80115000  1.0 -0.1105137151
C  C1863  1  0.63593000  0.07286000  0.80689000  1.0 -0.0981857934
C  C1864  1  0.64739000  0.10155000  0.77470000  1.0 0.2696112048
C  C1865  1  0.58125000  0.96418000  0.85415000  1.0 0.6381326617
C  C1866  1  0.58682000  0.95084000  0.86468000  1.0 -0.0630705643
C  C1867  1  0.59211000  0.93574000  0.85447000  1.0 -0.0790157113
C  C1868  1  0.59651000  0.92048000  0.86197000  1.0 -0.1697123239
C  C1869  1  0.59486000  0.92365000  0.88183000  1.0 0.012429044
C  C1870  1  0.58976000  0.93953000  0.89223000  1.0 -0.1304455674
C  C1871  1  0.58563000  0.95298000  0.88331000  1.0 -0.0911348855
C  C1872  1  0.59806000  0.90901000  0.89201000  1.0 0.2873855117
C  C1873  1  0.51425000  0.96679000  0.84088000  1.0 0.6643248863
C  C1874  1  0.49878000  0.96047000  0.84983000  1.0 -0.0981857934
C  C1875  1  0.50671000  0.96821000  0.87240000  1.0 0.0217965257
C  C1876  1  0.49246000  0.96253000  0.88109000  1.0 -0.1697123239
C  C1877  1  0.46841000  0.94945000  0.86526000  1.0 0.0365421665
C  C1878  1  0.45990000  0.94045000  0.84237000  1.0 -0.0362889079
C  C1879  1  0.47567000  0.94666000  0.83429000  1.0 0.0674115572
C  C1880  1  0.45243000  0.94392000  0.87361000  1.0 0.2873855117
C  C1881  1  0.25334000  0.75779000  0.21357000  1.0 0.6259705164
C  C1882  1  0.27842000  0.76583000  0.22369000  1.0 -0.0342103263
C  C1883  1  0.28622000  0.75167000  0.21491000  1.0 -0.0911348855
C  C1884  1  0.30917000  0.75918000  0.22433000  1.0 -0.1105137151
C  C1885  1  0.32480000  0.78097000  0.24265000  1.0 0.0297287658
C  C1886  1  0.31680000  0.79515000  0.25153000  1.0 -0.1304455674
C  C1887  1  0.29361000  0.78709000  0.24162000  1.0 -0.1105137151
C  C1888  1  0.34951000  0.78892000  0.25241000  1.0 0.3022607126
C  C1889  1  0.38053000  0.78976000  0.25989000  1.0 0.2608283804
C  C1890  1  0.39812000  0.78416000  0.26086000  1.0 0.012429044
C  C1891  1  0.39148000  0.76220000  0.24556000  1.0 -0.1105137151
C  C1892  1  0.40754000  0.75603000  0.24489000  1.0 -0.0911348855
C  C1893  1  0.43034000  0.77121000  0.26065000  1.0 -0.0454077434
C  C1894  1  0.43680000  0.79269000  0.27661000  1.0 -0.0981857934
C  C1895  1  0.42107000  0.79941000  0.27714000  1.0 -0.1842769534
C  C1896  1  0.44787000  0.76475000  0.26032000  1.0 0.6242175824
C  C1897  1  0.24138000  0.80349000  0.20131000  1.0 0.6242175824
C  C1898  1  0.26362000  0.82201000  0.20771000  1.0 -0.0362889079
C  C1899  1  0.28179000  0.83104000  0.22843000  1.0 -0.0981857934
C  C1900  1  0.30339000  0.84779000  0.23430000  1.0 -0.1697123239
C  C1901  1  0.30577000  0.85532000  0.21931000  1.0 -0.0130735305
C  C1902  1  0.28649000  0.84594000  0.19885000  1.0 -0.1105137151
C  C1903  1  0.26597000  0.82904000  0.19311000  1.0 -0.0981857934
C  C1904  1  0.32685000  0.87269000  0.22530000  1.0 0.2696112048
C  C1905  1  0.11003000  0.72710000  0.14585000  1.0 0.6381326617
C  C1906  1  0.08616000  0.72214000  0.13532000  1.0 -0.0630705643
C  C1907  1  0.08127000  0.73764000  0.14553000  1.0 -0.0790157113
C  C1908  1  0.05851000  0.73454000  0.13803000  1.0 -0.1697123239
C  C1909  1  0.04182000  0.71303000  0.11817000  1.0 0.012429044
C  C1910  1  0.04730000  0.69753000  0.10777000  1.0 -0.1304455674
C  C1911  1  0.06967000  0.70232000  0.11669000  1.0 -0.0911348855
C  C1912  1  0.01700000  0.70605000  0.10799000  1.0 0.2830184487
C  C1913  1  0.12591000  0.67337000  0.15912000  1.0 0.6643248863
C  C1914  1  0.11064000  0.64895000  0.15017000  1.0 -0.0981857934
C  C1915  1  0.09581000  0.63431000  0.12760000  1.0 0.0217965257
C  C1916  1  0.08144000  0.61137000  0.11891000  1.0 -0.1697123239
C  C1917  1  0.08419000  0.60315000  0.13474000  1.0 0.0365421665
C  C1918  1  0.09808000  0.61753000  0.15763000  1.0 -0.0362889079
C  C1919  1  0.11237000  0.64138000  0.16571000  1.0 0.0674115572
C  C1920  1  0.07031000  0.57882000  0.12639000  1.0 0.2873855117
N  N1  1  0.35795000  0.24718000  0.77575000  1.0 -0.4367833906
N  N2  1  0.36445000  0.26624000  0.81131000  1.0 -0.3429108115
N  N3  1  0.38571000  0.27070000  0.81197000  1.0 -0.1697123239
N  N4  1  0.34647000  0.24305000  0.87898000  1.0 -0.2554050999
N  N5  1  0.01270000  0.11760000  0.72290000  1.0 -0.2783444522
N  N6  1  0.05659000  0.10473000  0.56260000  1.0 -0.2924786902
N  N7  1  0.52857000  0.75282000  0.11077000  1.0 -0.4367833906
N  N8  1  0.54507000  0.73376000  0.09821000  1.0 -0.3429108115
N  N9  1  0.54127000  0.72930000  0.11501000  1.0 -0.1697123239
N  N10  1  0.63593000  0.75695000  0.10342000  1.0 -0.2538595079
N  N11  1  0.60530000  0.88240000  0.89510000  1.0 -0.2783444522
N  N12  1  0.45787000  0.89527000  0.95186000  1.0 -0.2924786902
N  N13  1  0.64205000  0.41780000  0.88923000  1.0 -0.4367833906
N  N14  1  0.63555000  0.44686000  0.90179000  1.0 -0.3429108115
N  N15  1  0.61429000  0.42626000  0.88499000  1.0 -0.1697123239
N  N16  1  0.65353000  0.53251000  0.89658000  1.0 -0.2538595079
N  N17  1  0.98730000  0.71020000  0.10490000  1.0 -0.2783444522
N  N18  1  0.94341000  0.50601000  0.04814000  1.0 -0.2924786902
N  N19  1  0.47143000  0.58220000  0.22425000  1.0 -0.4367833906
N  N20  1  0.45493000  0.55314000  0.18869000  1.0 -0.3429108115
N  N21  1  0.45873000  0.57374000  0.18803000  1.0 -0.1697123239
N  N22  1  0.36407000  0.46749000  0.12102000  1.0 -0.2538595079
N  N23  1  0.39470000  0.28980000  0.27710000  1.0 -0.2783444522
N  N24  1  0.54213000  0.49399000  0.43740000  1.0 -0.2924786902
N  N25  1  0.11077000  0.52857000  0.75282000  1.0 -0.4367833906
N  N26  1  0.09821000  0.54507000  0.73376000  1.0 -0.3429108115
N  N27  1  0.11501000  0.54127000  0.72930000  1.0 -0.1697123239
N  N28  1  0.10342000  0.63593000  0.75695000  1.0 -0.2538595079
N  N29  1  0.89510000  0.60530000  0.88240000  1.0 -0.2783444522
N  N30  1  0.95186000  0.45787000  0.89527000  1.0 -0.2924786902
N  N31  1  0.77575000  0.35795000  0.24718000  1.0 -0.4367833906
N  N32  1  0.81131000  0.36445000  0.26624000  1.0 -0.3429108115
N  N33  1  0.81197000  0.38571000  0.27070000  1.0 -0.1697123239
N  N34  1  0.87898000  0.34647000  0.24305000  1.0 -0.2554050999
N  N35  1  0.72290000  0.01270000  0.11760000  1.0 -0.2783444522
N  N36  1  0.56260000  0.05659000  0.10473000  1.0 -0.2924786902
N  N37  1  0.22425000  0.47143000  0.58220000  1.0 -0.4367833906
N  N38  1  0.18869000  0.45493000  0.55314000  1.0 -0.3429108115
N  N39  1  0.18803000  0.45873000  0.57374000  1.0 -0.1697123239
N  N40  1  0.12102000  0.36407000  0.46749000  1.0 -0.2538595079
N  N41  1  0.27710000  0.39470000  0.28980000  1.0 -0.2783444522
N  N42  1  0.43740000  0.54213000  0.49399000  1.0 -0.2924786902
N  N43  1  0.88923000  0.64205000  0.41780000  1.0 -0.4367833906
N  N44  1  0.90179000  0.63555000  0.44686000  1.0 -0.3453701268
N  N45  1  0.88499000  0.61429000  0.42626000  1.0 -0.1618976452
N  N46  1  0.89658000  0.65353000  0.53251000  1.0 -0.2538595079
N  N47  1  0.10490000  0.98730000  0.71020000  1.0 -0.2783444522
N  N48  1  0.04814000  0.94341000  0.50601000  1.0 -0.2924786902
N  N49  1  0.58220000  0.22425000  0.47143000  1.0 -0.4367833906
N  N50  1  0.55314000  0.18869000  0.45493000  1.0 -0.3429108115
N  N51  1  0.57374000  0.18803000  0.45873000  1.0 -0.1697123239
N  N52  1  0.46749000  0.12102000  0.36407000  1.0 -0.2554050999
N  N53  1  0.28980000  0.27710000  0.39470000  1.0 -0.2783444522
N  N54  1  0.49399000  0.43740000  0.54213000  1.0 -0.2924786902
N  N55  1  0.41780000  0.88923000  0.64205000  1.0 -0.4367833906
N  N56  1  0.44686000  0.90179000  0.63555000  1.0 -0.3429108115
N  N57  1  0.42626000  0.88499000  0.61429000  1.0 -0.1697123239
N  N58  1  0.53251000  0.89658000  0.65353000  1.0 -0.2554050999
N  N59  1  0.71020000  0.10490000  0.98730000  1.0 -0.2783444522
N  N60  1  0.50601000  0.04814000  0.94341000  1.0 -0.2924786902
N  N61  1  0.75282000  0.11077000  0.52857000  1.0 -0.4367833906
N  N62  1  0.73376000  0.09821000  0.54507000  1.0 -0.3429108115
N  N63  1  0.72930000  0.11501000  0.54127000  1.0 -0.1697123239
N  N64  1  0.75695000  0.10342000  0.63593000  1.0 -0.2554050999
N  N65  1  0.88240000  0.89510000  0.60530000  1.0 -0.2783444522
N  N66  1  0.89527000  0.95186000  0.45787000  1.0 -0.2924786902
N  N67  1  0.24718000  0.77575000  0.35795000  1.0 -0.4367833906
N  N68  1  0.26624000  0.81131000  0.36445000  1.0 -0.3453701268
N  N69  1  0.27070000  0.81197000  0.38571000  1.0 -0.1697123239
N  N70  1  0.24305000  0.87898000  0.34647000  1.0 -0.2554050999
N  N71  1  0.11760000  0.72290000  0.01270000  1.0 -0.2783444522
N  N72  1  0.10473000  0.56260000  0.05659000  1.0 -0.2955428037
N  N73  1  0.22425000  0.75282000  0.64205000  1.0 -0.4367833906
N  N74  1  0.18869000  0.73376000  0.63555000  1.0 -0.3429108115
N  N75  1  0.18803000  0.72930000  0.61429000  1.0 -0.1697123239
N  N76  1  0.12102000  0.75695000  0.65353000  1.0 -0.2554050999
N  N77  1  0.27710000  0.88240000  0.98730000  1.0 -0.2783444522
N  N78  1  0.43740000  0.89527000  0.94341000  1.0 -0.2924786902
N  N79  1  0.88923000  0.24718000  0.47143000  1.0 -0.4367833906
N  N80  1  0.90179000  0.26624000  0.45493000  1.0 -0.3429108115
N  N81  1  0.88499000  0.27070000  0.45873000  1.0 -0.1697123239
N  N82  1  0.89658000  0.24305000  0.36407000  1.0 -0.2538595079
N  N83  1  0.10490000  0.11760000  0.39470000  1.0 -0.2783444522
N  N84  1  0.04814000  0.10473000  0.54213000  1.0 -0.2924786902
N  N85  1  0.11077000  0.58220000  0.35795000  1.0 -0.4367833906
N  N86  1  0.09821000  0.55314000  0.36445000  1.0 -0.3453701268
N  N87  1  0.11501000  0.57374000  0.38571000  1.0 -0.1618976452
N  N88  1  0.10342000  0.46749000  0.34647000  1.0 -0.2538595079
N  N89  1  0.89510000  0.28980000  0.01270000  1.0 -0.2783444522
N  N90  1  0.95186000  0.49399000  0.05659000  1.0 -0.2783444522
N  N91  1  0.77575000  0.41780000  0.52857000  1.0 -0.4367833906
N  N92  1  0.81131000  0.44686000  0.54507000  1.0 -0.3429108115
N  N93  1  0.81197000  0.42626000  0.54127000  1.0 -0.1697123239
N  N94  1  0.87898000  0.53251000  0.63593000  1.0 -0.2538595079
N  N95  1  0.72290000  0.71020000  0.60530000  1.0 -0.2783444522
N  N96  1  0.56260000  0.50601000  0.45787000  1.0 -0.2924786902
N  N97  1  0.24718000  0.47143000  0.88923000  1.0 -0.4367833906
N  N98  1  0.26624000  0.45493000  0.90179000  1.0 -0.3429108115
N  N99  1  0.27070000  0.45873000  0.88499000  1.0 -0.1697123239
N  N100  1  0.24305000  0.36407000  0.89658000  1.0 -0.2538595079
N  N101  1  0.11760000  0.39470000  0.10490000  1.0 -0.2783444522
N  N102  1  0.10473000  0.54213000  0.04814000  1.0 -0.2924786902
N  N103  1  0.75282000  0.64205000  0.22425000  1.0 -0.4367833906
N  N104  1  0.73376000  0.63555000  0.18869000  1.0 -0.3429108115
N  N105  1  0.72930000  0.61429000  0.18803000  1.0 -0.1697123239
N  N106  1  0.75695000  0.65353000  0.12102000  1.0 -0.2538595079
N  N107  1  0.88240000  0.98730000  0.27710000  1.0 -0.2783444522
N  N108  1  0.89527000  0.94341000  0.43740000  1.0 -0.2924786902
N  N109  1  0.41780000  0.52857000  0.77575000  1.0 -0.4367833906
N  N110  1  0.44686000  0.54507000  0.81131000  1.0 -0.3429108115
N  N111  1  0.42626000  0.54127000  0.81197000  1.0 -0.1697123239
N  N112  1  0.53251000  0.63593000  0.87898000  1.0 -0.2538595079
N  N113  1  0.71020000  0.60530000  0.72290000  1.0 -0.2783444522
N  N114  1  0.50601000  0.45787000  0.56260000  1.0 -0.2924786902
N  N115  1  0.58220000  0.35795000  0.11077000  1.0 -0.4367833906
N  N116  1  0.55314000  0.36445000  0.09821000  1.0 -0.3429108115
N  N117  1  0.57374000  0.38571000  0.11501000  1.0 -0.1697123239
N  N118  1  0.46749000  0.34647000  0.10342000  1.0 -0.2554050999
N  N119  1  0.28980000  0.01270000  0.89510000  1.0 -0.2783444522
N  N120  1  0.49399000  0.05659000  0.95186000  1.0 -0.2924786902
N  N121  1  0.52857000  0.77575000  0.41780000  1.0 -0.4367833906
N  N122  1  0.54507000  0.81131000  0.44686000  1.0 -0.3429108115
N  N123  1  0.54127000  0.81197000  0.42626000  1.0 -0.1697123239
N  N124  1  0.63593000  0.87898000  0.53251000  1.0 -0.2538595079
N  N125  1  0.60530000  0.72290000  0.71020000  1.0 -0.2783444522
N  N126  1  0.45787000  0.56260000  0.50601000  1.0 -0.2924786902
N  N127  1  0.35795000  0.11077000  0.58220000  1.0 -0.4367833906
N  N128  1  0.36445000  0.09821000  0.55314000  1.0 -0.3429108115
N  N129  1  0.38571000  0.11501000  0.57374000  1.0 -0.1697123239
N  N130  1  0.34647000  0.10342000  0.46749000  1.0 -0.2554050999
N  N131  1  0.01270000  0.89510000  0.28980000  1.0 -0.2783444522
N  N132  1  0.05659000  0.95186000  0.49399000  1.0 -0.2924786902
N  N133  1  0.47143000  0.88923000  0.24718000  1.0 -0.4367833906
N  N134  1  0.45493000  0.90179000  0.26624000  1.0 -0.3429108115
N  N135  1  0.45873000  0.88499000  0.27070000  1.0 -0.1697123239
N  N136  1  0.36407000  0.89658000  0.24305000  1.0 -0.2538595079
N  N137  1  0.39470000  0.10490000  0.11760000  1.0 -0.2783444522
N  N138  1  0.54213000  0.04814000  0.10473000  1.0 -0.2924786902
N  N139  1  0.64205000  0.22425000  0.75282000  1.0 -0.4367833906
N  N140  1  0.63555000  0.18869000  0.73376000  1.0 -0.3453701268
N  N141  1  0.61429000  0.18803000  0.72930000  1.0 -0.1618976452
N  N142  1  0.65353000  0.12102000  0.75695000  1.0 -0.2554050999
N  N143  1  0.98730000  0.27710000  0.88240000  1.0 -0.2783444522
N  N144  1  0.94341000  0.43740000  0.89527000  1.0 -0.2924786902
N  N145  1  0.64205000  0.75282000  0.22425000  1.0 -0.4367833906
N  N146  1  0.63555000  0.73376000  0.18869000  1.0 -0.3429108115
N  N147  1  0.61429000  0.72930000  0.18803000  1.0 -0.1697123239
N  N148  1  0.65353000  0.75695000  0.12102000  1.0 -0.2538595079
N  N149  1  0.98730000  0.88240000  0.27710000  1.0 -0.2783444522
N  N150  1  0.94341000  0.89527000  0.43740000  1.0 -0.2955428037
N  N151  1  0.47143000  0.24718000  0.88923000  1.0 -0.4367833906
N  N152  1  0.45493000  0.26624000  0.90179000  1.0 -0.3429108115
N  N153  1  0.45873000  0.27070000  0.88499000  1.0 -0.1697123239
N  N154  1  0.36407000  0.24305000  0.89658000  1.0 -0.2554050999
N  N155  1  0.39470000  0.11760000  0.10490000  1.0 -0.2783444522
N  N156  1  0.54213000  0.10473000  0.04814000  1.0 -0.2924786902
N  N157  1  0.35795000  0.58220000  0.11077000  1.0 -0.4367833906
N  N158  1  0.36445000  0.55314000  0.09821000  1.0 -0.3429108115
N  N159  1  0.38571000  0.57374000  0.11501000  1.0 -0.1697123239
N  N160  1  0.34647000  0.46749000  0.10342000  1.0 -0.2538595079
N  N161  1  0.01270000  0.28980000  0.89510000  1.0 -0.2783444522
N  N162  1  0.05659000  0.49399000  0.95186000  1.0 -0.2924786902
N  N163  1  0.52857000  0.41780000  0.77575000  1.0 -0.4367833906
N  N164  1  0.54507000  0.44686000  0.81131000  1.0 -0.3429108115
N  N165  1  0.54127000  0.42626000  0.81197000  1.0 -0.1697123239
N  N166  1  0.63593000  0.53251000  0.87898000  1.0 -0.2538595079
N  N167  1  0.60530000  0.71020000  0.72290000  1.0 -0.2783444522
N  N168  1  0.45787000  0.50601000  0.56260000  1.0 -0.2924786902
N  N169  1  0.88923000  0.47143000  0.24718000  1.0 -0.4367833906
N  N170  1  0.90179000  0.45493000  0.26624000  1.0 -0.3429108115
N  N171  1  0.88499000  0.45873000  0.27070000  1.0 -0.1697123239
N  N172  1  0.89658000  0.36407000  0.24305000  1.0 -0.2554050999
N  N173  1  0.10490000  0.39470000  0.11760000  1.0 -0.2783444522
N  N174  1  0.04814000  0.54213000  0.10473000  1.0 -0.2924786902
N  N175  1  0.22425000  0.64205000  0.75282000  1.0 -0.4367833906
N  N176  1  0.18869000  0.63555000  0.73376000  1.0 -0.3429108115
N  N177  1  0.18803000  0.61429000  0.72930000  1.0 -0.1697123239
N  N178  1  0.12102000  0.65353000  0.75695000  1.0 -0.2538595079
N  N179  1  0.27710000  0.98730000  0.88240000  1.0 -0.2783444522
N  N180  1  0.43740000  0.94341000  0.89527000  1.0 -0.2924786902
N  N181  1  0.77575000  0.52857000  0.41780000  1.0 -0.4367833906
N  N182  1  0.81131000  0.54507000  0.44686000  1.0 -0.3429108115
N  N183  1  0.81197000  0.54127000  0.42626000  1.0 -0.1697123239
N  N184  1  0.87898000  0.63593000  0.53251000  1.0 -0.2538595079
N  N185  1  0.72290000  0.60530000  0.71020000  1.0 -0.2732503288
N  N186  1  0.56260000  0.45787000  0.50601000  1.0 -0.2924786902
N  N187  1  0.11077000  0.35795000  0.58220000  1.0 -0.4367833906
N  N188  1  0.09821000  0.36445000  0.55314000  1.0 -0.3429108115
N  N189  1  0.11501000  0.38571000  0.57374000  1.0 -0.1697123239
N  N190  1  0.10342000  0.34647000  0.46749000  1.0 -0.2538595079
N  N191  1  0.89510000  0.01270000  0.28980000  1.0 -0.2783444522
N  N192  1  0.95186000  0.05659000  0.49399000  1.0 -0.2924786902
N  N193  1  0.41780000  0.77575000  0.52857000  1.0 -0.4367833906
N  N194  1  0.44686000  0.81131000  0.54507000  1.0 -0.3429108115
N  N195  1  0.42626000  0.81197000  0.54127000  1.0 -0.1697123239
N  N196  1  0.53251000  0.87898000  0.63593000  1.0 -0.2554050999
N  N197  1  0.71020000  0.72290000  0.60530000  1.0 -0.2732503288
N  N198  1  0.50601000  0.56260000  0.45787000  1.0 -0.2924786902
N  N199  1  0.58220000  0.11077000  0.35795000  1.0 -0.4367833906
N  N200  1  0.55314000  0.09821000  0.36445000  1.0 -0.3429108115
N  N201  1  0.57374000  0.11501000  0.38571000  1.0 -0.1697123239
N  N202  1  0.46749000  0.10342000  0.34647000  1.0 -0.2554050999
N  N203  1  0.28980000  0.89510000  0.01270000  1.0 -0.2783444522
N  N204  1  0.49399000  0.95186000  0.05659000  1.0 -0.2924786902
N  N205  1  0.24718000  0.88923000  0.47143000  1.0 -0.4367833906
N  N206  1  0.26624000  0.90179000  0.45493000  1.0 -0.3429108115
N  N207  1  0.27070000  0.88499000  0.45873000  1.0 -0.1697123239
N  N208  1  0.24305000  0.89658000  0.36407000  1.0 -0.2554050999
N  N209  1  0.11760000  0.10490000  0.39470000  1.0 -0.2783444522
N  N210  1  0.10473000  0.04814000  0.54213000  1.0 -0.2924786902
N  N211  1  0.75282000  0.22425000  0.64205000  1.0 -0.4367833906
N  N212  1  0.73376000  0.18869000  0.63555000  1.0 -0.3429108115
N  N213  1  0.72930000  0.18803000  0.61429000  1.0 -0.1697123239
N  N214  1  0.75695000  0.12102000  0.65353000  1.0 -0.2554050999
N  N215  1  0.88240000  0.27710000  0.98730000  1.0 -0.2783444522
N  N216  1  0.89527000  0.43740000  0.94341000  1.0 -0.2924786902
N  N217  1  0.77575000  0.24718000  0.35795000  1.0 -0.4367833906
N  N218  1  0.81131000  0.26624000  0.36445000  1.0 -0.3429108115
N  N219  1  0.81197000  0.27070000  0.38571000  1.0 -0.1697123239
N  N220  1  0.87898000  0.24305000  0.34647000  1.0 -0.2554050999
N  N221  1  0.72290000  0.11760000  0.01270000  1.0 -0.2783444522
N  N222  1  0.56260000  0.10473000  0.05659000  1.0 -0.2783444522
N  N223  1  0.11077000  0.75282000  0.52857000  1.0 -0.4367833906
N  N224  1  0.09821000  0.73376000  0.54507000  1.0 -0.3429108115
N  N225  1  0.11501000  0.72930000  0.54127000  1.0 -0.1697123239
N  N226  1  0.10342000  0.75695000  0.63593000  1.0 -0.2554050999
N  N227  1  0.89510000  0.88240000  0.60530000  1.0 -0.2783444522
N  N228  1  0.95186000  0.89527000  0.45787000  1.0 -0.2955428037
N  N229  1  0.88923000  0.41780000  0.64205000  1.0 -0.4367833906
N  N230  1  0.90179000  0.44686000  0.63555000  1.0 -0.3453701268
N  N231  1  0.88499000  0.42626000  0.61429000  1.0 -0.1697123239
N  N232  1  0.89658000  0.53251000  0.65353000  1.0 -0.2554050999
N  N233  1  0.10490000  0.71020000  0.98730000  1.0 -0.2783444522
N  N234  1  0.04814000  0.50601000  0.94341000  1.0 -0.2924786902
N  N235  1  0.22425000  0.58220000  0.47143000  1.0 -0.4367833906
N  N236  1  0.18869000  0.55314000  0.45493000  1.0 -0.3429108115
N  N237  1  0.18803000  0.57374000  0.45873000  1.0 -0.1697123239
N  N238  1  0.12102000  0.46749000  0.36407000  1.0 -0.2538595079
N  N239  1  0.27710000  0.28980000  0.39470000  1.0 -0.2783444522
N  N240  1  0.43740000  0.49399000  0.54213000  1.0 -0.2924786902
N  N241  1  0.75282000  0.52857000  0.11077000  1.0 -0.4367833906
N  N242  1  0.73376000  0.54507000  0.09821000  1.0 -0.3429108115
N  N243  1  0.72930000  0.54127000  0.11501000  1.0 -0.1697123239
N  N244  1  0.75695000  0.63593000  0.10342000  1.0 -0.2538595079
N  N245  1  0.88240000  0.60530000  0.89510000  1.0 -0.2783444522
N  N246  1  0.89527000  0.45787000  0.95186000  1.0 -0.2924786902
N  N247  1  0.24718000  0.35795000  0.77575000  1.0 -0.4367833906
N  N248  1  0.26624000  0.36445000  0.81131000  1.0 -0.3429108115
N  N249  1  0.27070000  0.38571000  0.81197000  1.0 -0.1697123239
N  N250  1  0.24305000  0.34647000  0.87898000  1.0 -0.2538595079
N  N251  1  0.11760000  0.01270000  0.72290000  1.0 -0.2783444522
N  N252  1  0.10473000  0.05659000  0.56260000  1.0 -0.2924786902
N  N253  1  0.58220000  0.47143000  0.22425000  1.0 -0.4367833906
N  N254  1  0.55314000  0.45493000  0.18869000  1.0 -0.3453701268
N  N255  1  0.57374000  0.45873000  0.18803000  1.0 -0.1697123239
N  N256  1  0.46749000  0.36407000  0.12102000  1.0 -0.2554050999
N  N257  1  0.28980000  0.39470000  0.27710000  1.0 -0.2783444522
N  N258  1  0.49399000  0.54213000  0.43740000  1.0 -0.2924786902
N  N259  1  0.41780000  0.64205000  0.88923000  1.0 -0.4367833906
N  N260  1  0.44686000  0.63555000  0.90179000  1.0 -0.3429108115
N  N261  1  0.42626000  0.61429000  0.88499000  1.0 -0.1697123239
N  N262  1  0.53251000  0.65353000  0.89658000  1.0 -0.2538595079
N  N263  1  0.71020000  0.98730000  0.10490000  1.0 -0.2783444522
N  N264  1  0.50601000  0.94341000  0.04814000  1.0 -0.2924786902
N  N265  1  0.47143000  0.22425000  0.58220000  1.0 -0.4367833906
N  N266  1  0.45493000  0.18869000  0.55314000  1.0 -0.3429108115
N  N267  1  0.45873000  0.18803000  0.57374000  1.0 -0.1697123239
N  N268  1  0.36407000  0.12102000  0.46749000  1.0 -0.2554050999
N  N269  1  0.39470000  0.27710000  0.28980000  1.0 -0.2783444522
N  N270  1  0.54213000  0.43740000  0.49399000  1.0 -0.2924786902
N  N271  1  0.64205000  0.88923000  0.41780000  1.0 -0.4367833906
N  N272  1  0.63555000  0.90179000  0.44686000  1.0 -0.3429108115
N  N273  1  0.61429000  0.88499000  0.42626000  1.0 -0.1697123239
N  N274  1  0.65353000  0.89658000  0.53251000  1.0 -0.2538595079
N  N275  1  0.98730000  0.10490000  0.71020000  1.0 -0.2783444522
N  N276  1  0.94341000  0.04814000  0.50601000  1.0 -0.2924786902
N  N277  1  0.52857000  0.11077000  0.75282000  1.0 -0.4367833906
N  N278  1  0.54507000  0.09821000  0.73376000  1.0 -0.3453701268
N  N279  1  0.54127000  0.11501000  0.72930000  1.0 -0.1618976452
N  N280  1  0.63593000  0.10342000  0.75695000  1.0 -0.2554050999
N  N281  1  0.60530000  0.89510000  0.88240000  1.0 -0.2783444522
N  N282  1  0.45787000  0.95186000  0.89527000  1.0 -0.2924786902
N  N283  1  0.35795000  0.77575000  0.24718000  1.0 -0.4367833906
N  N284  1  0.36445000  0.81131000  0.26624000  1.0 -0.3429108115
N  N285  1  0.38571000  0.81197000  0.27070000  1.0 -0.1697123239
N  N286  1  0.34647000  0.87898000  0.24305000  1.0 -0.2538595079
N  N287  1  0.01270000  0.72290000  0.11760000  1.0 -0.2783444522
N  N288  1  0.05659000  0.56260000  0.10473000  1.0 -0.2924786902
N  N289  1  0.33014000  0.21344000  0.88330000  1.0 -0.4367833906
N  N290  1  0.66986000  0.78656000  0.11670000  1.0 -0.4367833906
N  N291  1  0.66986000  0.55316000  0.88330000  1.0 -0.4367833906
N  N292  1  0.33014000  0.44684000  0.11670000  1.0 -0.4367833906
N  N293  1  0.11670000  0.66986000  0.78656000  1.0 -0.4367833906
N  N294  1  0.88330000  0.33014000  0.21344000  1.0 -0.4367833906
N  N295  1  0.11670000  0.33014000  0.44684000  1.0 -0.4367833906
N  N296  1  0.88330000  0.66986000  0.55316000  1.0 -0.4367833906
N  N297  1  0.44684000  0.11670000  0.33014000  1.0 -0.4367833906
N  N298  1  0.55316000  0.88330000  0.66986000  1.0 -0.4367833906
N  N299  1  0.78656000  0.11670000  0.66986000  1.0 -0.4367833906
N  N300  1  0.21344000  0.88330000  0.33014000  1.0 -0.4367833906
N  N301  1  0.11670000  0.78656000  0.66986000  1.0 -0.4367833906
N  N302  1  0.88330000  0.21344000  0.33014000  1.0 -0.4367833906
N  N303  1  0.11670000  0.44684000  0.33014000  1.0 -0.4367833906
N  N304  1  0.88330000  0.55316000  0.66986000  1.0 -0.4367833906
N  N305  1  0.21344000  0.33014000  0.88330000  1.0 -0.4367833906
N  N306  1  0.78656000  0.66986000  0.11670000  1.0 -0.4367833906
N  N307  1  0.55316000  0.66986000  0.88330000  1.0 -0.4367833906
N  N308  1  0.44684000  0.33014000  0.11670000  1.0 -0.4367833906
N  N309  1  0.66986000  0.88330000  0.55316000  1.0 -0.4367833906
N  N310  1  0.33014000  0.11670000  0.44684000  1.0 -0.4367833906
N  N311  1  0.33014000  0.88330000  0.21344000  1.0 -0.4367833906
N  N312  1  0.66986000  0.11670000  0.78656000  1.0 -0.4367833906
N  N313  1  0.00000000  0.09251000  0.68621000  1.0 -0.4088298254
N  N314  1  0.59370000  0.90749000  0.90749000  1.0 -0.4088298254
N  N315  1  0.00000000  0.68621000  0.09251000  1.0 -0.4088298254
N  N316  1  0.40630000  0.31379000  0.31379000  1.0 -0.4088298254
N  N317  1  0.90749000  0.59370000  0.90749000  1.0 -0.4088298254
N  N318  1  0.68621000  0.00000000  0.09251000  1.0 -0.4088298254
N  N319  1  0.31379000  0.40630000  0.31379000  1.0 -0.4088298254
N  N320  1  0.09251000  0.00000000  0.68621000  1.0 -0.4088298254
N  N321  1  0.31379000  0.31379000  0.40630000  1.0 -0.4088298254
N  N322  1  0.68621000  0.09251000  0.00000000  1.0 -0.4088298254
N  N323  1  0.90749000  0.90749000  0.59370000  1.0 -0.4088298254
N  N324  1  0.09251000  0.68621000  0.00000000  1.0 -0.4088298254
N  N325  1  0.31379000  0.90749000  0.00000000  1.0 -0.4088298254
N  N326  1  0.09251000  0.09251000  0.40630000  1.0 -0.4088298254
N  N327  1  0.90749000  0.31379000  0.00000000  1.0 -0.4088298254
N  N328  1  0.68621000  0.68621000  0.59370000  1.0 -0.4088298254
N  N329  1  0.09251000  0.40630000  0.09251000  1.0 -0.4088298254
N  N330  1  0.90749000  0.00000000  0.31379000  1.0 -0.4088298254
N  N331  1  0.68621000  0.59370000  0.68621000  1.0 -0.4088298254
N  N332  1  0.31379000  0.00000000  0.90749000  1.0 -0.4088298254
N  N333  1  0.59370000  0.68621000  0.68621000  1.0 -0.4088298254
N  N334  1  0.00000000  0.90749000  0.31379000  1.0 -0.4088298254
N  N335  1  0.40630000  0.09251000  0.09251000  1.0 -0.4088298254
N  N336  1  0.00000000  0.31379000  0.90749000  1.0 -0.4088298254
N  N337  1  0.07082000  0.14164000  0.57082000  1.0 -0.4205932541
N  N338  1  0.42918000  0.85836000  0.92918000  1.0 -0.4205932541
N  N339  1  0.92918000  0.50000000  0.07082000  1.0 -0.4205932541
N  N340  1  0.57082000  0.50000000  0.42918000  1.0 -0.4205932541
N  N341  1  0.92918000  0.42918000  0.85836000  1.0 -0.4205932541
N  N342  1  0.57082000  0.07082000  0.14164000  1.0 -0.4205932541
N  N343  1  0.42918000  0.57082000  0.50000000  1.0 -0.4205932541
N  N344  1  0.07082000  0.92918000  0.50000000  1.0 -0.4205932541
N  N345  1  0.50000000  0.42918000  0.57082000  1.0 -0.4205932541
N  N346  1  0.50000000  0.07082000  0.92918000  1.0 -0.4205932541
N  N347  1  0.85836000  0.92918000  0.42918000  1.0 -0.4205932541
N  N348  1  0.14164000  0.57082000  0.07082000  1.0 -0.4205932541
N  N349  1  0.92918000  0.85836000  0.42918000  1.0 -0.4205932541
N  N350  1  0.57082000  0.14164000  0.07082000  1.0 -0.4205932541
N  N351  1  0.07082000  0.50000000  0.92918000  1.0 -0.4205932541
N  N352  1  0.42918000  0.50000000  0.57082000  1.0 -0.4205932541
N  N353  1  0.07082000  0.57082000  0.14164000  1.0 -0.4205932541
N  N354  1  0.42918000  0.92918000  0.85836000  1.0 -0.4205932541
N  N355  1  0.57082000  0.42918000  0.50000000  1.0 -0.4205932541
N  N356  1  0.92918000  0.07082000  0.50000000  1.0 -0.4205932541
N  N357  1  0.50000000  0.57082000  0.42918000  1.0 -0.4205932541
N  N358  1  0.50000000  0.92918000  0.07082000  1.0 -0.4205932541
N  N359  1  0.14164000  0.07082000  0.57082000  1.0 -0.4205932541
N  N360  1  0.85836000  0.42918000  0.92918000  1.0 -0.4205932541
O  O1  1  0.24801000  0.22511000  0.77042000  1.0 -0.5800885303
O  O2  1  0.23990000  0.19497000  0.73957000  1.0 -0.6283278371
O  O3  1  0.46778000  0.27658000  0.77744000  1.0 -0.5800885303
O  O4  1  0.44065000  0.24243000  0.74630000  1.0 -0.6425428736
O  O5  1  0.24006000  0.21712000  0.80040000  1.0 -0.5711329581
O  O6  1  0.22575000  0.18098000  0.79251000  1.0 -0.6188586479
O  O7  1  0.12458000  0.16380000  0.74596000  1.0 -0.6283278371
O  O8  1  0.11421000  0.13634000  0.71137000  1.0 -0.6085532676
O  O9  1  0.12256000  0.14496000  0.68014000  1.0 -0.5577190247
O  O10  1  0.14082000  0.17978000  0.68550000  1.0 -0.6085532676
O  O11  1  0.18352000  0.20890000  0.75382000  1.0 -1.1570021494
O  O12  1  0.14444000  0.17914000  0.72390000  1.0 -1.181399803
O  O13  1  0.54531000  0.77489000  0.02290000  1.0 -0.5800885303
O  O14  1  0.54460000  0.80503000  0.04493000  1.0 -0.6188586479
O  O15  1  0.50086000  0.72342000  0.19120000  1.0 -0.5800885303
O  O16  1  0.50387000  0.75757000  0.19822000  1.0 -0.6425428736
O  O17  1  0.58328000  0.78288000  0.02294000  1.0 -0.5711329581
O  O18  1  0.61153000  0.81902000  0.04477000  1.0 -0.6085532676
O  O19  1  0.58216000  0.83620000  0.96078000  1.0 -0.6283278371
O  O20  1  0.57503000  0.86366000  0.97787000  1.0 -0.6085532676
O  O21  1  0.53518000  0.85504000  0.97760000  1.0 -0.5577190247
O  O22  1  0.50572000  0.82022000  0.96104000  1.0 -0.6085532676
O  O23  1  0.54492000  0.79110000  0.97462000  1.0 -1.152739912
O  O24  1  0.54476000  0.82086000  0.96530000  1.0 -1.181399803
O  O25  1  0.75199000  0.52241000  0.97710000  1.0 -0.5800885303
O  O26  1  0.76010000  0.49967000  0.95507000  1.0 -0.6283278371
O  O27  1  0.53222000  0.30966000  0.80880000  1.0 -0.5800885303
O  O28  1  0.55935000  0.30565000  0.80178000  1.0 -0.6425428736
O  O29  1  0.75994000  0.56034000  0.97706000  1.0 -0.5711329581
O  O30  1  0.77425000  0.56676000  0.95523000  1.0 -0.6188586479
O  O31  1  0.87542000  0.62138000  0.03922000  1.0 -0.6283278371
O  O32  1  0.88579000  0.59716000  0.02213000  1.0 -0.6085532676
O  O33  1  0.87744000  0.55758000  0.02240000  1.0 -0.5549183064
O  O34  1  0.85918000  0.54468000  0.03896000  1.0 -0.6038679653
O  O35  1  0.81648000  0.57030000  0.02538000  1.0 -1.1570021494
O  O36  1  0.85556000  0.57946000  0.03470000  1.0 -1.1930916283
O  O37  1  0.45469000  0.47759000  0.22958000  1.0 -0.5800885303
O  O38  1  0.45540000  0.50033000  0.26043000  1.0 -0.6283278371
O  O39  1  0.49914000  0.69034000  0.22256000  1.0 -0.5800885303
O  O40  1  0.49613000  0.69435000  0.25370000  1.0 -0.6425428736
O  O41  1  0.41672000  0.43966000  0.19960000  1.0 -0.5711329581
O  O42  1  0.38847000  0.43324000  0.20749000  1.0 -0.6188586479
O  O43  1  0.41784000  0.37862000  0.25404000  1.0 -0.6283278371
O  O44  1  0.42497000  0.40284000  0.28863000  1.0 -0.6085532676
O  O45  1  0.46482000  0.44242000  0.31986000  1.0 -0.5577190247
O  O46  1  0.49428000  0.45532000  0.31450000  1.0 -0.6085532676
O  O47  1  0.45508000  0.42970000  0.24618000  1.0 -1.1570021494
O  O48  1  0.45524000  0.42054000  0.27610000  1.0 -1.181399803
O  O49  1  0.02290000  0.54531000  0.77489000  1.0 -0.5800885303
O  O50  1  0.04493000  0.54460000  0.80503000  1.0 -0.6283278371
O  O51  1  0.19120000  0.50086000  0.72342000  1.0 -0.5800885303
O  O52  1  0.19822000  0.50387000  0.75757000  1.0 -0.6425428736
O  O53  1  0.02294000  0.58328000  0.78288000  1.0 -0.5711329581
O  O54  1  0.04477000  0.61153000  0.81902000  1.0 -0.6188586479
O  O55  1  0.96078000  0.58216000  0.83620000  1.0 -0.6283278371
O  O56  1  0.97787000  0.57503000  0.86366000  1.0 -0.6085532676
O  O57  1  0.97760000  0.53518000  0.85504000  1.0 -0.5577190247
O  O58  1  0.96104000  0.50572000  0.82022000  1.0 -0.6085532676
O  O59  1  0.97462000  0.54492000  0.79110000  1.0 -1.1570021494
O  O60  1  0.96530000  0.54476000  0.82086000  1.0 -1.181399803
O  O61  1  0.77042000  0.24801000  0.22511000  1.0 -0.5800885303
O  O62  1  0.73957000  0.23990000  0.19497000  1.0 -0.6283278371
O  O63  1  0.77744000  0.46778000  0.27658000  1.0 -0.5711329581
O  O64  1  0.74630000  0.44065000  0.24243000  1.0 -0.6425428736
O  O65  1  0.80040000  0.24006000  0.21712000  1.0 -0.5711329581
O  O66  1  0.79251000  0.22575000  0.18098000  1.0 -0.6188586479
O  O67  1  0.74596000  0.12458000  0.16380000  1.0 -0.6283278371
O  O68  1  0.71137000  0.11421000  0.13634000  1.0 -0.6085532676
O  O69  1  0.68014000  0.12256000  0.14496000  1.0 -0.5577190247
O  O70  1  0.68550000  0.14082000  0.17978000  1.0 -0.6085532676
O  O71  1  0.75382000  0.18352000  0.20890000  1.0 -1.1570021494
O  O72  1  0.72390000  0.14444000  0.17914000  1.0 -1.181399803
O  O73  1  0.22958000  0.45469000  0.47759000  1.0 -0.5800885303
O  O74  1  0.26043000  0.45540000  0.50033000  1.0 -0.6283278371
O  O75  1  0.22256000  0.49914000  0.69034000  1.0 -0.5800885303
O  O76  1  0.25370000  0.49613000  0.69435000  1.0 -0.6425428736
O  O77  1  0.19960000  0.41672000  0.43966000  1.0 -0.5711329581
O  O78  1  0.20749000  0.38847000  0.43324000  1.0 -0.6188586479
O  O79  1  0.25404000  0.41784000  0.37862000  1.0 -0.6283278371
O  O80  1  0.28863000  0.42497000  0.40284000  1.0 -0.6085532676
O  O81  1  0.31986000  0.46482000  0.44242000  1.0 -0.5577190247
O  O82  1  0.31450000  0.49428000  0.45532000  1.0 -0.6085532676
O  O83  1  0.24618000  0.45508000  0.42970000  1.0 -1.1570021494
O  O84  1  0.27610000  0.45524000  0.42054000  1.0 -1.181399803
O  O85  1  0.97710000  0.75199000  0.52241000  1.0 -0.5800885303
O  O86  1  0.95507000  0.76010000  0.49967000  1.0 -0.6283278371
O  O87  1  0.80880000  0.53222000  0.30966000  1.0 -0.5711329581
O  O88  1  0.80178000  0.55935000  0.30565000  1.0 -0.6425428736
O  O89  1  0.97706000  0.75994000  0.56034000  1.0 -0.5711329581
O  O90  1  0.95523000  0.77425000  0.56676000  1.0 -0.6188586479
O  O91  1  0.03922000  0.87542000  0.62138000  1.0 -0.6283278371
O  O92  1  0.02213000  0.88579000  0.59716000  1.0 -0.6085532676
O  O93  1  0.02240000  0.87744000  0.55758000  1.0 -0.5577190247
O  O94  1  0.03896000  0.85918000  0.54468000  1.0 -0.6085532676
O  O95  1  0.02538000  0.81648000  0.57030000  1.0 -1.152739912
O  O96  1  0.03470000  0.85556000  0.57946000  1.0 -1.181399803
O  O97  1  0.47759000  0.22958000  0.45469000  1.0 -0.5800885303
O  O98  1  0.50033000  0.26043000  0.45540000  1.0 -0.6283278371
O  O99  1  0.69034000  0.22256000  0.49914000  1.0 -0.5711329581
O  O100  1  0.69435000  0.25370000  0.49613000  1.0 -0.6425428736
O  O101  1  0.43966000  0.19960000  0.41672000  1.0 -0.5711329581
O  O102  1  0.43324000  0.20749000  0.38847000  1.0 -0.6188586479
O  O103  1  0.37862000  0.25404000  0.41784000  1.0 -0.6283278371
O  O104  1  0.40284000  0.28863000  0.42497000  1.0 -0.6085532676
O  O105  1  0.44242000  0.31986000  0.46482000  1.0 -0.5577190247
O  O106  1  0.45532000  0.31450000  0.49428000  1.0 -0.6085532676
O  O107  1  0.42970000  0.24618000  0.45508000  1.0 -1.1570021494
O  O108  1  0.42054000  0.27610000  0.45524000  1.0 -1.181399803
O  O109  1  0.52241000  0.97710000  0.75199000  1.0 -0.5800885303
O  O110  1  0.49967000  0.95507000  0.76010000  1.0 -0.6283278371
O  O111  1  0.30966000  0.80880000  0.53222000  1.0 -0.5711329581
O  O112  1  0.30565000  0.80178000  0.55935000  1.0 -0.6425428736
O  O113  1  0.56034000  0.97706000  0.75994000  1.0 -0.5711329581
O  O114  1  0.56676000  0.95523000  0.77425000  1.0 -0.6188586479
O  O115  1  0.62138000  0.03922000  0.87542000  1.0 -0.6283278371
O  O116  1  0.59716000  0.02213000  0.88579000  1.0 -0.6085532676
O  O117  1  0.55758000  0.02240000  0.87744000  1.0 -0.5577190247
O  O118  1  0.54468000  0.03896000  0.85918000  1.0 -0.6085532676
O  O119  1  0.57030000  0.02538000  0.81648000  1.0 -1.1570021494
O  O120  1  0.57946000  0.03470000  0.85556000  1.0 -1.181399803
O  O121  1  0.77489000  0.02290000  0.54531000  1.0 -0.5800885303
O  O122  1  0.80503000  0.04493000  0.54460000  1.0 -0.6283278371
O  O123  1  0.72342000  0.19120000  0.50086000  1.0 -0.5711329581
O  O124  1  0.75757000  0.19822000  0.50387000  1.0 -0.6425428736
O  O125  1  0.78288000  0.02294000  0.58328000  1.0 -0.5711329581
O  O126  1  0.81902000  0.04477000  0.61153000  1.0 -0.6188586479
O  O127  1  0.83620000  0.96078000  0.58216000  1.0 -0.6283278371
O  O128  1  0.86366000  0.97787000  0.57503000  1.0 -0.6085532676
O  O129  1  0.85504000  0.97760000  0.53518000  1.0 -0.5577190247
O  O130  1  0.82022000  0.96104000  0.50572000  1.0 -0.6085532676
O  O131  1  0.79110000  0.97462000  0.54492000  1.0 -1.152739912
O  O132  1  0.82086000  0.96530000  0.54476000  1.0 -1.1930916283
O  O133  1  0.22511000  0.77042000  0.24801000  1.0 -0.5800885303
O  O134  1  0.19497000  0.73957000  0.23990000  1.0 -0.6283278371
O  O135  1  0.27658000  0.77744000  0.46778000  1.0 -0.5800885303
O  O136  1  0.24243000  0.74630000  0.44065000  1.0 -0.6425428736
O  O137  1  0.21712000  0.80040000  0.24006000  1.0 -0.5711329581
O  O138  1  0.18098000  0.79251000  0.22575000  1.0 -0.6188586479
O  O139  1  0.16380000  0.74596000  0.12458000  1.0 -0.6283278371
O  O140  1  0.13634000  0.71137000  0.11421000  1.0 -0.6085532676
O  O141  1  0.14496000  0.68014000  0.12256000  1.0 -0.5577190247
O  O142  1  0.17978000  0.68550000  0.14082000  1.0 -0.6085532676
O  O143  1  0.20890000  0.75382000  0.18352000  1.0 -1.1570021494
O  O144  1  0.17914000  0.72390000  0.14444000  1.0 -1.181399803
O  O145  1  0.22958000  0.77489000  0.75199000  1.0 -0.5800885303
O  O146  1  0.26043000  0.80503000  0.76010000  1.0 -0.6283278371
O  O147  1  0.22256000  0.72342000  0.53222000  1.0 -0.5800885303
O  O148  1  0.25370000  0.75757000  0.55935000  1.0 -0.6425428736
O  O149  1  0.19960000  0.78288000  0.75994000  1.0 -0.5711329581
O  O150  1  0.20749000  0.81902000  0.77425000  1.0 -0.6188586479
O  O151  1  0.25404000  0.83620000  0.87542000  1.0 -0.6283278371
O  O152  1  0.28863000  0.86366000  0.88579000  1.0 -0.6085532676
O  O153  1  0.31986000  0.85504000  0.87744000  1.0 -0.5577190247
O  O154  1  0.31450000  0.82022000  0.85918000  1.0 -0.6085532676
O  O155  1  0.24618000  0.79110000  0.81648000  1.0 -1.1570021494
O  O156  1  0.27610000  0.82086000  0.85556000  1.0 -1.181399803
O  O157  1  0.97710000  0.22511000  0.45469000  1.0 -0.5800885303
O  O158  1  0.95507000  0.19497000  0.45540000  1.0 -0.6283278371
O  O159  1  0.80880000  0.27658000  0.49914000  1.0 -0.5711329581
O  O160  1  0.80178000  0.24243000  0.49613000  1.0 -0.6425428736
O  O161  1  0.97706000  0.21712000  0.41672000  1.0 -0.5711329581
O  O162  1  0.95523000  0.18098000  0.38847000  1.0 -0.6188586479
O  O163  1  0.03922000  0.16380000  0.41784000  1.0 -0.6283278371
O  O164  1  0.02213000  0.13634000  0.42497000  1.0 -0.6085532676
O  O165  1  0.02240000  0.14496000  0.46482000  1.0 -0.5577190247
O  O166  1  0.03896000  0.17978000  0.49428000  1.0 -0.6085532676
O  O167  1  0.02538000  0.20890000  0.45508000  1.0 -1.1570021494
O  O168  1  0.03470000  0.17914000  0.45524000  1.0 -1.181399803
O  O169  1  0.02290000  0.47759000  0.24801000  1.0 -0.5800885303
O  O170  1  0.04493000  0.50033000  0.23990000  1.0 -0.6283278371
O  O171  1  0.19120000  0.69034000  0.46778000  1.0 -0.5800885303
O  O172  1  0.19822000  0.69435000  0.44065000  1.0 -0.6425428736
O  O173  1  0.02294000  0.43966000  0.24006000  1.0 -0.5711329581
O  O174  1  0.04477000  0.43324000  0.22575000  1.0 -0.6188586479
O  O175  1  0.96078000  0.37862000  0.12458000  1.0 -0.6283278371
O  O176  1  0.97787000  0.40284000  0.11421000  1.0 -0.6085532676
O  O177  1  0.97760000  0.44242000  0.12256000  1.0 -0.5577190247
O  O178  1  0.96104000  0.45532000  0.14082000  1.0 -0.6085532676
O  O179  1  0.97462000  0.42970000  0.18352000  1.0 -1.152739912
O  O180  1  0.96530000  0.42054000  0.14444000  1.0 -1.1930916283
O  O181  1  0.77042000  0.52241000  0.54531000  1.0 -0.5800885303
O  O182  1  0.73957000  0.49967000  0.54460000  1.0 -0.6283278371
O  O183  1  0.77744000  0.30966000  0.50086000  1.0 -0.5711329581
O  O184  1  0.74630000  0.30565000  0.50387000  1.0 -0.6425428736
O  O185  1  0.80040000  0.56034000  0.58328000  1.0 -0.5711329581
O  O186  1  0.79251000  0.56676000  0.61153000  1.0 -0.6188586479
O  O187  1  0.74596000  0.62138000  0.58216000  1.0 -0.6283278371
O  O188  1  0.71137000  0.59716000  0.57503000  1.0 -0.6085532676
O  O189  1  0.68014000  0.55758000  0.53518000  1.0 -0.5577190247
O  O190  1  0.68550000  0.54468000  0.50572000  1.0 -0.6085532676
O  O191  1  0.75382000  0.57030000  0.54492000  1.0 -1.152739912
O  O192  1  0.72390000  0.57946000  0.54476000  1.0 -1.1930916283
O  O193  1  0.22511000  0.45469000  0.97710000  1.0 -0.5800885303
O  O194  1  0.19497000  0.45540000  0.95507000  1.0 -0.6283278371
O  O195  1  0.27658000  0.49914000  0.80880000  1.0 -0.5800885303
O  O196  1  0.24243000  0.49613000  0.80178000  1.0 -0.6425428736
O  O197  1  0.21712000  0.41672000  0.97706000  1.0 -0.5711329581
O  O198  1  0.18098000  0.38847000  0.95523000  1.0 -0.6188586479
O  O199  1  0.16380000  0.41784000  0.03922000  1.0 -0.6283278371
O  O200  1  0.13634000  0.42497000  0.02213000  1.0 -0.6085532676
O  O201  1  0.14496000  0.46482000  0.02240000  1.0 -0.5577190247
O  O202  1  0.17978000  0.49428000  0.03896000  1.0 -0.6085532676
O  O203  1  0.20890000  0.45508000  0.02538000  1.0 -1.1570021494
O  O204  1  0.17914000  0.45524000  0.03470000  1.0 -1.181399803
O  O205  1  0.77489000  0.75199000  0.22958000  1.0 -0.5800885303
O  O206  1  0.80503000  0.76010000  0.26043000  1.0 -0.6283278371
O  O207  1  0.72342000  0.53222000  0.22256000  1.0 -0.5800885303
O  O208  1  0.75757000  0.55935000  0.25370000  1.0 -0.6425428736
O  O209  1  0.78288000  0.75994000  0.19960000  1.0 -0.5711329581
O  O210  1  0.81902000  0.77425000  0.20749000  1.0 -0.6188586479
O  O211  1  0.83620000  0.87542000  0.25404000  1.0 -0.6283278371
O  O212  1  0.86366000  0.88579000  0.28863000  1.0 -0.6085532676
O  O213  1  0.85504000  0.87744000  0.31986000  1.0 -0.5577190247
O  O214  1  0.82022000  0.85918000  0.31450000  1.0 -0.6085532676
O  O215  1  0.79110000  0.81648000  0.24618000  1.0 -1.1570021494
O  O216  1  0.82086000  0.85556000  0.27610000  1.0 -1.181399803
O  O217  1  0.52241000  0.54531000  0.77042000  1.0 -0.5800885303
O  O218  1  0.49967000  0.54460000  0.73957000  1.0 -0.6283278371
O  O219  1  0.30966000  0.50086000  0.77744000  1.0 -0.5800885303
O  O220  1  0.30565000  0.50387000  0.74630000  1.0 -0.6425428736
O  O221  1  0.56034000  0.58328000  0.80040000  1.0 -0.5711329581
O  O222  1  0.56676000  0.61153000  0.79251000  1.0 -0.6188586479
O  O223  1  0.62138000  0.58216000  0.74596000  1.0 -0.6283278371
O  O224  1  0.59716000  0.57503000  0.71137000  1.0 -0.6085532676
O  O225  1  0.55758000  0.53518000  0.68014000  1.0 -0.5577190247
O  O226  1  0.54468000  0.50572000  0.68550000  1.0 -0.6085532676
O  O227  1  0.57030000  0.54492000  0.75382000  1.0 -1.1570021494
O  O228  1  0.57946000  0.54476000  0.72390000  1.0 -1.181399803
O  O229  1  0.47759000  0.24801000  0.02290000  1.0 -0.5800885303
O  O230  1  0.50033000  0.23990000  0.04493000  1.0 -0.6188586479
O  O231  1  0.69034000  0.46778000  0.19120000  1.0 -0.5800885303
O  O232  1  0.69435000  0.44065000  0.19822000  1.0 -0.6425428736
O  O233  1  0.43966000  0.24006000  0.02294000  1.0 -0.5711329581
O  O234  1  0.43324000  0.22575000  0.04477000  1.0 -0.6188586479
O  O235  1  0.37862000  0.12458000  0.96078000  1.0 -0.6283278371
O  O236  1  0.40284000  0.11421000  0.97787000  1.0 -0.6085532676
O  O237  1  0.44242000  0.12256000  0.97760000  1.0 -0.5577190247
O  O238  1  0.45532000  0.14082000  0.96104000  1.0 -0.6085532676
O  O239  1  0.42970000  0.18352000  0.97462000  1.0 -1.1570021494
O  O240  1  0.42054000  0.14444000  0.96530000  1.0 -1.181399803
O  O241  1  0.54531000  0.77042000  0.52241000  1.0 -0.5800885303
O  O242  1  0.54460000  0.73957000  0.49967000  1.0 -0.6283278371
O  O243  1  0.50086000  0.77744000  0.30966000  1.0 -0.5711329581
O  O244  1  0.50387000  0.74630000  0.30565000  1.0 -0.6425428736
O  O245  1  0.58328000  0.80040000  0.56034000  1.0 -0.5711329581
O  O246  1  0.61153000  0.79251000  0.56676000  1.0 -0.6188586479
O  O247  1  0.58216000  0.74596000  0.62138000  1.0 -0.6283278371
O  O248  1  0.57503000  0.71137000  0.59716000  1.0 -0.6085532676
O  O249  1  0.53518000  0.68014000  0.55758000  1.0 -0.5577190247
O  O250  1  0.50572000  0.68550000  0.54468000  1.0 -0.6085532676
O  O251  1  0.54492000  0.75382000  0.57030000  1.0 -1.1570021494
O  O252  1  0.54476000  0.72390000  0.57946000  1.0 -1.181399803
O  O253  1  0.24801000  0.02290000  0.47759000  1.0 -0.5800885303
O  O254  1  0.23990000  0.04493000  0.50033000  1.0 -0.6283278371
O  O255  1  0.46778000  0.19120000  0.69034000  1.0 -0.5800885303
O  O256  1  0.44065000  0.19822000  0.69435000  1.0 -0.6425428736
O  O257  1  0.24006000  0.02294000  0.43966000  1.0 -0.5711329581
O  O258  1  0.22575000  0.04477000  0.43324000  1.0 -0.6188586479
O  O259  1  0.12458000  0.96078000  0.37862000  1.0 -0.6283278371
O  O260  1  0.11421000  0.97787000  0.40284000  1.0 -0.6085532676
O  O261  1  0.12256000  0.97760000  0.44242000  1.0 -0.5577190247
O  O262  1  0.14082000  0.96104000  0.45532000  1.0 -0.6085532676
O  O263  1  0.18352000  0.97462000  0.42970000  1.0 -1.1570021494
O  O264  1  0.14444000  0.96530000  0.42054000  1.0 -1.181399803
O  O265  1  0.45469000  0.97710000  0.22511000  1.0 -0.5800885303
O  O266  1  0.45540000  0.95507000  0.19497000  1.0 -0.6283278371
O  O267  1  0.49914000  0.80880000  0.27658000  1.0 -0.5711329581
O  O268  1  0.49613000  0.80178000  0.24243000  1.0 -0.6425428736
O  O269  1  0.41672000  0.97706000  0.21712000  1.0 -0.5711329581
O  O270  1  0.38847000  0.95523000  0.18098000  1.0 -0.6188586479
O  O271  1  0.41784000  0.03922000  0.16380000  1.0 -0.6283278371
O  O272  1  0.42497000  0.02213000  0.13634000  1.0 -0.6085532676
O  O273  1  0.46482000  0.02240000  0.14496000  1.0 -0.5577190247
O  O274  1  0.49428000  0.03896000  0.17978000  1.0 -0.6085532676
O  O275  1  0.45508000  0.02538000  0.20890000  1.0 -1.152739912
O  O276  1  0.45524000  0.03470000  0.17914000  1.0 -1.181399803
O  O277  1  0.75199000  0.22958000  0.77489000  1.0 -0.5800885303
O  O278  1  0.76010000  0.26043000  0.80503000  1.0 -0.6283278371
O  O279  1  0.53222000  0.22256000  0.72342000  1.0 -0.5800885303
O  O280  1  0.55935000  0.25370000  0.75757000  1.0 -0.6425428736
O  O281  1  0.75994000  0.19960000  0.78288000  1.0 -0.5711329581
O  O282  1  0.77425000  0.20749000  0.81902000  1.0 -0.6188586479
O  O283  1  0.87542000  0.25404000  0.83620000  1.0 -0.6283278371
O  O284  1  0.88579000  0.28863000  0.86366000  1.0 -0.6085532676
O  O285  1  0.87744000  0.31986000  0.85504000  1.0 -0.5577190247
O  O286  1  0.85918000  0.31450000  0.82022000  1.0 -0.6085532676
O  O287  1  0.81648000  0.24618000  0.79110000  1.0 -1.1570021494
O  O288  1  0.85556000  0.27610000  0.82086000  1.0 -1.181399803
O  O289  1  0.75199000  0.77489000  0.22958000  1.0 -0.5800885303
O  O290  1  0.76010000  0.80503000  0.26043000  1.0 -0.6283278371
O  O291  1  0.53222000  0.72342000  0.22256000  1.0 -0.5800885303
O  O292  1  0.55935000  0.75757000  0.25370000  1.0 -0.6425428736
O  O293  1  0.75994000  0.78288000  0.19960000  1.0 -0.5711329581
O  O294  1  0.77425000  0.81902000  0.20749000  1.0 -0.6188586479
O  O295  1  0.87542000  0.83620000  0.25404000  1.0 -0.6283278371
O  O296  1  0.88579000  0.86366000  0.28863000  1.0 -0.6085532676
O  O297  1  0.87744000  0.85504000  0.31986000  1.0 -0.5577190247
O  O298  1  0.85918000  0.82022000  0.31450000  1.0 -0.6085532676
O  O299  1  0.81648000  0.79110000  0.24618000  1.0 -1.1570021494
O  O300  1  0.85556000  0.82086000  0.27610000  1.0 -1.181399803
O  O301  1  0.45469000  0.22511000  0.97710000  1.0 -0.5800885303
O  O302  1  0.45540000  0.19497000  0.95507000  1.0 -0.6283278371
O  O303  1  0.49914000  0.27658000  0.80880000  1.0 -0.5800885303
O  O304  1  0.49613000  0.24243000  0.80178000  1.0 -0.6425428736
O  O305  1  0.41672000  0.21712000  0.97706000  1.0 -0.5711329581
O  O306  1  0.38847000  0.18098000  0.95523000  1.0 -0.6188586479
O  O307  1  0.41784000  0.16380000  0.03922000  1.0 -0.6283278371
O  O308  1  0.42497000  0.13634000  0.02213000  1.0 -0.6085532676
O  O309  1  0.46482000  0.14496000  0.02240000  1.0 -0.5577190247
O  O310  1  0.49428000  0.17978000  0.03896000  1.0 -0.6085532676
O  O311  1  0.45508000  0.20890000  0.02538000  1.0 -1.1570021494
O  O312  1  0.45524000  0.17914000  0.03470000  1.0 -1.181399803
O  O313  1  0.24801000  0.47759000  0.02290000  1.0 -0.5800885303
O  O314  1  0.23990000  0.50033000  0.04493000  1.0 -0.6283278371
O  O315  1  0.46778000  0.69034000  0.19120000  1.0 -0.5800885303
O  O316  1  0.44065000  0.69435000  0.19822000  1.0 -0.6425428736
O  O317  1  0.24006000  0.43966000  0.02294000  1.0 -0.5711329581
O  O318  1  0.22575000  0.43324000  0.04477000  1.0 -0.6188586479
O  O319  1  0.12458000  0.37862000  0.96078000  1.0 -0.6283278371
O  O320  1  0.11421000  0.40284000  0.97787000  1.0 -0.6085532676
O  O321  1  0.12256000  0.44242000  0.97760000  1.0 -0.5577190247
O  O322  1  0.14082000  0.45532000  0.96104000  1.0 -0.6085532676
O  O323  1  0.18352000  0.42970000  0.97462000  1.0 -1.1570021494
O  O324  1  0.14444000  0.42054000  0.96530000  1.0 -1.181399803
O  O325  1  0.54531000  0.52241000  0.77042000  1.0 -0.5800885303
O  O326  1  0.54460000  0.49967000  0.73957000  1.0 -0.6283278371
O  O327  1  0.50086000  0.30966000  0.77744000  1.0 -0.5800885303
O  O328  1  0.50387000  0.30565000  0.74630000  1.0 -0.6425428736
O  O329  1  0.58328000  0.56034000  0.80040000  1.0 -0.5711329581
O  O330  1  0.61153000  0.56676000  0.79251000  1.0 -0.6188586479
O  O331  1  0.58216000  0.62138000  0.74596000  1.0 -0.6283278371
O  O332  1  0.57503000  0.59716000  0.71137000  1.0 -0.6085532676
O  O333  1  0.53518000  0.55758000  0.68014000  1.0 -0.5577190247
O  O334  1  0.50572000  0.54468000  0.68550000  1.0 -0.6085532676
O  O335  1  0.54492000  0.57030000  0.75382000  1.0 -1.1570021494
O  O336  1  0.54476000  0.57946000  0.72390000  1.0 -1.181399803
O  O337  1  0.97710000  0.45469000  0.22511000  1.0 -0.5800885303
O  O338  1  0.95507000  0.45540000  0.19497000  1.0 -0.6283278371
O  O339  1  0.80880000  0.49914000  0.27658000  1.0 -0.5711329581
O  O340  1  0.80178000  0.49613000  0.24243000  1.0 -0.6425428736
O  O341  1  0.97706000  0.41672000  0.21712000  1.0 -0.5711329581
O  O342  1  0.95523000  0.38847000  0.18098000  1.0 -0.6085532676
O  O343  1  0.03922000  0.41784000  0.16380000  1.0 -0.6283278371
O  O344  1  0.02213000  0.42497000  0.13634000  1.0 -0.6085532676
O  O345  1  0.02240000  0.46482000  0.14496000  1.0 -0.5577190247
O  O346  1  0.03896000  0.49428000  0.17978000  1.0 -0.6085532676
O  O347  1  0.02538000  0.45508000  0.20890000  1.0 -1.152739912
O  O348  1  0.03470000  0.45524000  0.17914000  1.0 -1.181399803
O  O349  1  0.22958000  0.75199000  0.77489000  1.0 -0.5800885303
O  O350  1  0.26043000  0.76010000  0.80503000  1.0 -0.6283278371
O  O351  1  0.22256000  0.53222000  0.72342000  1.0 -0.5800885303
O  O352  1  0.25370000  0.55935000  0.75757000  1.0 -0.6425428736
O  O353  1  0.19960000  0.75994000  0.78288000  1.0 -0.5711329581
O  O354  1  0.20749000  0.77425000  0.81902000  1.0 -0.6188586479
O  O355  1  0.25404000  0.87542000  0.83620000  1.0 -0.6283278371
O  O356  1  0.28863000  0.88579000  0.86366000  1.0 -0.6085532676
O  O357  1  0.31986000  0.87744000  0.85504000  1.0 -0.5577190247
O  O358  1  0.31450000  0.85918000  0.82022000  1.0 -0.6085532676
O  O359  1  0.24618000  0.81648000  0.79110000  1.0 -1.1570021494
O  O360  1  0.27610000  0.85556000  0.82086000  1.0 -1.181399803
O  O361  1  0.77042000  0.54531000  0.52241000  1.0 -0.5800885303
O  O362  1  0.73957000  0.54460000  0.49967000  1.0 -0.6283278371
O  O363  1  0.77744000  0.50086000  0.30966000  1.0 -0.5800885303
O  O364  1  0.74630000  0.50387000  0.30565000  1.0 -0.6425428736
O  O365  1  0.80040000  0.58328000  0.56034000  1.0 -0.5711329581
O  O366  1  0.79251000  0.61153000  0.56676000  1.0 -0.6188586479
O  O367  1  0.74596000  0.58216000  0.62138000  1.0 -0.6283278371
O  O368  1  0.71137000  0.57503000  0.59716000  1.0 -0.6085532676
O  O369  1  0.68014000  0.53518000  0.55758000  1.0 -0.5577190247
O  O370  1  0.68550000  0.50572000  0.54468000  1.0 -0.6085532676
O  O371  1  0.75382000  0.54492000  0.57030000  1.0 -1.1570021494
O  O372  1  0.72390000  0.54476000  0.57946000  1.0 -1.181399803
O  O373  1  0.02290000  0.24801000  0.47759000  1.0 -0.5800885303
O  O374  1  0.04493000  0.23990000  0.50033000  1.0 -0.6283278371
O  O375  1  0.19120000  0.46778000  0.69034000  1.0 -0.5800885303
O  O376  1  0.19822000  0.44065000  0.69435000  1.0 -0.6425428736
O  O377  1  0.02294000  0.24006000  0.43966000  1.0 -0.5711329581
O  O378  1  0.04477000  0.22575000  0.43324000  1.0 -0.6188586479
O  O379  1  0.96078000  0.12458000  0.37862000  1.0 -0.6283278371
O  O380  1  0.97787000  0.11421000  0.40284000  1.0 -0.6085532676
O  O381  1  0.97760000  0.12256000  0.44242000  1.0 -0.5577190247
O  O382  1  0.96104000  0.14082000  0.45532000  1.0 -0.6085532676
O  O383  1  0.97462000  0.18352000  0.42970000  1.0 -1.1570021494
O  O384  1  0.96530000  0.14444000  0.42054000  1.0 -1.181399803
O  O385  1  0.52241000  0.77042000  0.54531000  1.0 -0.5800885303
O  O386  1  0.49967000  0.73957000  0.54460000  1.0 -0.6283278371
O  O387  1  0.30966000  0.77744000  0.50086000  1.0 -0.5711329581
O  O388  1  0.30565000  0.74630000  0.50387000  1.0 -0.6425428736
O  O389  1  0.56034000  0.80040000  0.58328000  1.0 -0.5711329581
O  O390  1  0.56676000  0.79251000  0.61153000  1.0 -0.6188586479
O  O391  1  0.62138000  0.74596000  0.58216000  1.0 -0.6283278371
O  O392  1  0.59716000  0.71137000  0.57503000  1.0 -0.6085532676
O  O393  1  0.55758000  0.68014000  0.53518000  1.0 -0.5577190247
O  O394  1  0.54468000  0.68550000  0.50572000  1.0 -0.6085532676
O  O395  1  0.57030000  0.75382000  0.54492000  1.0 -1.1570021494
O  O396  1  0.57946000  0.72390000  0.54476000  1.0 -1.181399803
O  O397  1  0.47759000  0.02290000  0.24801000  1.0 -0.5800885303
O  O398  1  0.50033000  0.04493000  0.23990000  1.0 -0.6283278371
O  O399  1  0.69034000  0.19120000  0.46778000  1.0 -0.5711329581
O  O400  1  0.69435000  0.19822000  0.44065000  1.0 -0.6425428736
O  O401  1  0.43966000  0.02294000  0.24006000  1.0 -0.5711329581
O  O402  1  0.43324000  0.04477000  0.22575000  1.0 -0.6188586479
O  O403  1  0.37862000  0.96078000  0.12458000  1.0 -0.6283278371
O  O404  1  0.40284000  0.97787000  0.11421000  1.0 -0.6085532676
O  O405  1  0.44242000  0.97760000  0.12256000  1.0 -0.5577190247
O  O406  1  0.45532000  0.96104000  0.14082000  1.0 -0.6085532676
O  O407  1  0.42970000  0.97462000  0.18352000  1.0 -1.152739912
O  O408  1  0.42054000  0.96530000  0.14444000  1.0 -1.181399803
O  O409  1  0.22511000  0.97710000  0.45469000  1.0 -0.5800885303
O  O410  1  0.19497000  0.95507000  0.45540000  1.0 -0.6283278371
O  O411  1  0.27658000  0.80880000  0.49914000  1.0 -0.5800885303
O  O412  1  0.24243000  0.80178000  0.49613000  1.0 -0.6425428736
O  O413  1  0.21712000  0.97706000  0.41672000  1.0 -0.5711329581
O  O414  1  0.18098000  0.95523000  0.38847000  1.0 -0.6188586479
O  O415  1  0.16380000  0.03922000  0.41784000  1.0 -0.6283278371
O  O416  1  0.13634000  0.02213000  0.42497000  1.0 -0.6085532676
O  O417  1  0.14496000  0.02240000  0.46482000  1.0 -0.5577190247
O  O418  1  0.17978000  0.03896000  0.49428000  1.0 -0.6085532676
O  O419  1  0.20890000  0.02538000  0.45508000  1.0 -1.1570021494
O  O420  1  0.17914000  0.03470000  0.45524000  1.0 -1.181399803
O  O421  1  0.77489000  0.22958000  0.75199000  1.0 -0.5800885303
O  O422  1  0.80503000  0.26043000  0.76010000  1.0 -0.6283278371
O  O423  1  0.72342000  0.22256000  0.53222000  1.0 -0.5800885303
O  O424  1  0.75757000  0.25370000  0.55935000  1.0 -0.6425428736
O  O425  1  0.78288000  0.19960000  0.75994000  1.0 -0.5711329581
O  O426  1  0.81902000  0.20749000  0.77425000  1.0 -0.6188586479
O  O427  1  0.83620000  0.25404000  0.87542000  1.0 -0.6283278371
O  O428  1  0.86366000  0.28863000  0.88579000  1.0 -0.6085532676
O  O429  1  0.85504000  0.31986000  0.87744000  1.0 -0.5577190247
O  O430  1  0.82022000  0.31450000  0.85918000  1.0 -0.6085532676
O  O431  1  0.79110000  0.24618000  0.81648000  1.0 -1.1570021494
O  O432  1  0.82086000  0.27610000  0.85556000  1.0 -1.181399803
O  O433  1  0.77042000  0.22511000  0.24801000  1.0 -0.5800885303
O  O434  1  0.73957000  0.19497000  0.23990000  1.0 -0.6283278371
O  O435  1  0.77744000  0.27658000  0.46778000  1.0 -0.5711329581
O  O436  1  0.74630000  0.24243000  0.44065000  1.0 -0.6425428736
O  O437  1  0.80040000  0.21712000  0.24006000  1.0 -0.5711329581
O  O438  1  0.79251000  0.18098000  0.22575000  1.0 -0.6188586479
O  O439  1  0.74596000  0.16380000  0.12458000  1.0 -0.6283278371
O  O440  1  0.71137000  0.13634000  0.11421000  1.0 -0.6085532676
O  O441  1  0.68014000  0.14496000  0.12256000  1.0 -0.5577190247
O  O442  1  0.68550000  0.17978000  0.14082000  1.0 -0.6085532676
O  O443  1  0.75382000  0.20890000  0.18352000  1.0 -1.1570021494
O  O444  1  0.72390000  0.17914000  0.14444000  1.0 -1.181399803
O  O445  1  0.02290000  0.77489000  0.54531000  1.0 -0.5800885303
O  O446  1  0.04493000  0.80503000  0.54460000  1.0 -0.6283278371
O  O447  1  0.19120000  0.72342000  0.50086000  1.0 -0.5800885303
O  O448  1  0.19822000  0.75757000  0.50387000  1.0 -0.6425428736
O  O449  1  0.02294000  0.78288000  0.58328000  1.0 -0.5711329581
O  O450  1  0.04477000  0.81902000  0.61153000  1.0 -0.6188586479
O  O451  1  0.96078000  0.83620000  0.58216000  1.0 -0.6283278371
O  O452  1  0.97787000  0.86366000  0.57503000  1.0 -0.6085532676
O  O453  1  0.97760000  0.85504000  0.53518000  1.0 -0.5577190247
O  O454  1  0.96104000  0.82022000  0.50572000  1.0 -0.6085532676
O  O455  1  0.97462000  0.79110000  0.54492000  1.0 -1.152739912
O  O456  1  0.96530000  0.82086000  0.54476000  1.0 -1.1930916283
O  O457  1  0.97710000  0.52241000  0.75199000  1.0 -0.5800885303
O  O458  1  0.95507000  0.49967000  0.76010000  1.0 -0.6283278371
O  O459  1  0.80880000  0.30966000  0.53222000  1.0 -0.5800885303
O  O460  1  0.80178000  0.30565000  0.55935000  1.0 -0.6425428736
O  O461  1  0.97706000  0.56034000  0.75994000  1.0 -0.5711329581
O  O462  1  0.95523000  0.56676000  0.77425000  1.0 -0.6188586479
O  O463  1  0.03922000  0.62138000  0.87542000  1.0 -0.6283278371
O  O464  1  0.02213000  0.59716000  0.88579000  1.0 -0.6085532676
O  O465  1  0.02240000  0.55758000  0.87744000  1.0 -0.5577190247
O  O466  1  0.03896000  0.54468000  0.85918000  1.0 -0.6085532676
O  O467  1  0.02538000  0.57030000  0.81648000  1.0 -1.1570021494
O  O468  1  0.03470000  0.57946000  0.85556000  1.0 -1.181399803
O  O469  1  0.22958000  0.47759000  0.45469000  1.0 -0.5800885303
O  O470  1  0.26043000  0.50033000  0.45540000  1.0 -0.6283278371
O  O471  1  0.22256000  0.69034000  0.49914000  1.0 -0.5800885303
O  O472  1  0.25370000  0.69435000  0.49613000  1.0 -0.6425428736
O  O473  1  0.19960000  0.43966000  0.41672000  1.0 -0.5711329581
O  O474  1  0.20749000  0.43324000  0.38847000  1.0 -0.6188586479
O  O475  1  0.25404000  0.37862000  0.41784000  1.0 -0.6283278371
O  O476  1  0.28863000  0.40284000  0.42497000  1.0 -0.6085532676
O  O477  1  0.31986000  0.44242000  0.46482000  1.0 -0.5577190247
O  O478  1  0.31450000  0.45532000  0.49428000  1.0 -0.6085532676
O  O479  1  0.24618000  0.42970000  0.45508000  1.0 -1.1570021494
O  O480  1  0.27610000  0.42054000  0.45524000  1.0 -1.181399803
O  O481  1  0.77489000  0.54531000  0.02290000  1.0 -0.5800885303
O  O482  1  0.80503000  0.54460000  0.04493000  1.0 -0.6188586479
O  O483  1  0.72342000  0.50086000  0.19120000  1.0 -0.5800885303
O  O484  1  0.75757000  0.50387000  0.19822000  1.0 -0.6425428736
O  O485  1  0.78288000  0.58328000  0.02294000  1.0 -0.5711329581
O  O486  1  0.81902000  0.61153000  0.04477000  1.0 -0.6188586479
O  O487  1  0.83620000  0.58216000  0.96078000  1.0 -0.6283278371
O  O488  1  0.86366000  0.57503000  0.97787000  1.0 -0.6085532676
O  O489  1  0.85504000  0.53518000  0.97760000  1.0 -0.5577190247
O  O490  1  0.82022000  0.50572000  0.96104000  1.0 -0.6085532676
O  O491  1  0.79110000  0.54492000  0.97462000  1.0 -1.152739912
O  O492  1  0.82086000  0.54476000  0.96530000  1.0 -1.181399803
O  O493  1  0.22511000  0.24801000  0.77042000  1.0 -0.5800885303
O  O494  1  0.19497000  0.23990000  0.73957000  1.0 -0.6283278371
O  O495  1  0.27658000  0.46778000  0.77744000  1.0 -0.5800885303
O  O496  1  0.24243000  0.44065000  0.74630000  1.0 -0.6425428736
O  O497  1  0.21712000  0.24006000  0.80040000  1.0 -0.5711329581
O  O498  1  0.18098000  0.22575000  0.79251000  1.0 -0.6188586479
O  O499  1  0.16380000  0.12458000  0.74596000  1.0 -0.6283278371
O  O500  1  0.13634000  0.11421000  0.71137000  1.0 -0.6085532676
O  O501  1  0.14496000  0.12256000  0.68014000  1.0 -0.5577190247
O  O502  1  0.17978000  0.14082000  0.68550000  1.0 -0.6085532676
O  O503  1  0.20890000  0.18352000  0.75382000  1.0 -1.1570021494
O  O504  1  0.17914000  0.14444000  0.72390000  1.0 -1.181399803
O  O505  1  0.47759000  0.45469000  0.22958000  1.0 -0.5800885303
O  O506  1  0.50033000  0.45540000  0.26043000  1.0 -0.6283278371
O  O507  1  0.69034000  0.49914000  0.22256000  1.0 -0.5711329581
O  O508  1  0.69435000  0.49613000  0.25370000  1.0 -0.6425428736
O  O509  1  0.43966000  0.41672000  0.19960000  1.0 -0.5711329581
O  O510  1  0.43324000  0.38847000  0.20749000  1.0 -0.6188586479
O  O511  1  0.37862000  0.41784000  0.25404000  1.0 -0.6283278371
O  O512  1  0.40284000  0.42497000  0.28863000  1.0 -0.6085532676
O  O513  1  0.44242000  0.46482000  0.31986000  1.0 -0.5577190247
O  O514  1  0.45532000  0.49428000  0.31450000  1.0 -0.6085532676
O  O515  1  0.42970000  0.45508000  0.24618000  1.0 -1.1570021494
O  O516  1  0.42054000  0.45524000  0.27610000  1.0 -1.181399803
O  O517  1  0.52241000  0.75199000  0.97710000  1.0 -0.5800885303
O  O518  1  0.49967000  0.76010000  0.95507000  1.0 -0.6188586479
O  O519  1  0.30966000  0.53222000  0.80880000  1.0 -0.5800885303
O  O520  1  0.30565000  0.55935000  0.80178000  1.0 -0.6425428736
O  O521  1  0.56034000  0.75994000  0.97706000  1.0 -0.5711329581
O  O522  1  0.56676000  0.77425000  0.95523000  1.0 -0.6188586479
O  O523  1  0.62138000  0.87542000  0.03922000  1.0 -0.6283278371
O  O524  1  0.59716000  0.88579000  0.02213000  1.0 -0.6085532676
O  O525  1  0.55758000  0.87744000  0.02240000  1.0 -0.5577190247
O  O526  1  0.54468000  0.85918000  0.03896000  1.0 -0.6085532676
O  O527  1  0.57030000  0.81648000  0.02538000  1.0 -1.152739912
O  O528  1  0.57946000  0.85556000  0.03470000  1.0 -1.1930916283
O  O529  1  0.45469000  0.22958000  0.47759000  1.0 -0.5800885303
O  O530  1  0.45540000  0.26043000  0.50033000  1.0 -0.6283278371
O  O531  1  0.49914000  0.22256000  0.69034000  1.0 -0.5800885303
O  O532  1  0.49613000  0.25370000  0.69435000  1.0 -0.6425428736
O  O533  1  0.41672000  0.19960000  0.43966000  1.0 -0.5711329581
O  O534  1  0.38847000  0.20749000  0.43324000  1.0 -0.6188586479
O  O535  1  0.41784000  0.25404000  0.37862000  1.0 -0.6283278371
O  O536  1  0.42497000  0.28863000  0.40284000  1.0 -0.6085532676
O  O537  1  0.46482000  0.31986000  0.44242000  1.0 -0.5577190247
O  O538  1  0.49428000  0.31450000  0.45532000  1.0 -0.6085532676
O  O539  1  0.45508000  0.24618000  0.42970000  1.0 -1.1570021494
O  O540  1  0.45524000  0.27610000  0.42054000  1.0 -1.181399803
O  O541  1  0.75199000  0.97710000  0.52241000  1.0 -0.5800885303
O  O542  1  0.76010000  0.95507000  0.49967000  1.0 -0.6283278371
O  O543  1  0.53222000  0.80880000  0.30966000  1.0 -0.5800885303
O  O544  1  0.55935000  0.80178000  0.30565000  1.0 -0.6425428736
O  O545  1  0.75994000  0.97706000  0.56034000  1.0 -0.5711329581
O  O546  1  0.77425000  0.95523000  0.56676000  1.0 -0.6188586479
O  O547  1  0.87542000  0.03922000  0.62138000  1.0 -0.6283278371
O  O548  1  0.88579000  0.02213000  0.59716000  1.0 -0.6085532676
O  O549  1  0.87744000  0.02240000  0.55758000  1.0 -0.5577190247
O  O550  1  0.85918000  0.03896000  0.54468000  1.0 -0.6085532676
O  O551  1  0.81648000  0.02538000  0.57030000  1.0 -1.152739912
O  O552  1  0.85556000  0.03470000  0.57946000  1.0 -1.181399803
O  O553  1  0.54531000  0.02290000  0.77489000  1.0 -0.5800885303
O  O554  1  0.54460000  0.04493000  0.80503000  1.0 -0.6283278371
O  O555  1  0.50086000  0.19120000  0.72342000  1.0 -0.5800885303
O  O556  1  0.50387000  0.19822000  0.75757000  1.0 -0.6425428736
O  O557  1  0.58328000  0.02294000  0.78288000  1.0 -0.5711329581
O  O558  1  0.61153000  0.04477000  0.81902000  1.0 -0.6188586479
O  O559  1  0.58216000  0.96078000  0.83620000  1.0 -0.6283278371
O  O560  1  0.57503000  0.97787000  0.86366000  1.0 -0.6085532676
O  O561  1  0.53518000  0.97760000  0.85504000  1.0 -0.5577190247
O  O562  1  0.50572000  0.96104000  0.82022000  1.0 -0.6085532676
O  O563  1  0.54492000  0.97462000  0.79110000  1.0 -1.1570021494
O  O564  1  0.54476000  0.96530000  0.82086000  1.0 -1.181399803
O  O565  1  0.24801000  0.77042000  0.22511000  1.0 -0.5800885303
O  O566  1  0.23990000  0.73957000  0.19497000  1.0 -0.6283278371
O  O567  1  0.46778000  0.77744000  0.27658000  1.0 -0.5711329581
O  O568  1  0.44065000  0.74630000  0.24243000  1.0 -0.6425428736
O  O569  1  0.24006000  0.80040000  0.21712000  1.0 -0.5711329581
O  O570  1  0.22575000  0.79251000  0.18098000  1.0 -0.6188586479
O  O571  1  0.12458000  0.74596000  0.16380000  1.0 -0.6283278371
O  O572  1  0.11421000  0.71137000  0.13634000  1.0 -0.6085532676
O  O573  1  0.12256000  0.68014000  0.14496000  1.0 -0.5577190247
O  O574  1  0.14082000  0.68550000  0.17978000  1.0 -0.6085532676
O  O575  1  0.18352000  0.75382000  0.20890000  1.0 -1.1570021494
O  O576  1  0.14444000  0.72390000  0.17914000  1.0 -1.181399803
O  O577  1  0.20656000  0.20656000  0.73346000  1.0 -1.152739912
O  O578  1  0.17083000  0.17083000  0.71034000  1.0 -1.181399803
O  O579  1  0.19398000  0.19398000  0.78088000  1.0 -1.1715485702
O  O580  1  0.16155000  0.16155000  0.74522000  1.0 -1.1418636514
O  O581  1  0.52690000  0.79344000  0.00000000  1.0 -1.1570021494
O  O582  1  0.53951000  0.82917000  0.00000000  1.0 -1.1715485702
O  O583  1  0.58690000  0.80602000  0.00000000  1.0 -1.181399803
O  O584  1  0.58367000  0.83845000  0.00000000  1.0 -1.1418636514
O  O585  1  0.79344000  0.52690000  0.00000000  1.0 -1.152739912
O  O586  1  0.82917000  0.53951000  0.00000000  1.0 -1.181399803
O  O587  1  0.80602000  0.58690000  0.00000000  1.0 -1.1715485702
O  O588  1  0.83845000  0.58367000  0.00000000  1.0 -1.1418636514
O  O589  1  0.47310000  0.47310000  0.26654000  1.0 -1.152739912
O  O590  1  0.46049000  0.46049000  0.28966000  1.0 -1.181399803
O  O591  1  0.41310000  0.41310000  0.21912000  1.0 -1.1715485702
O  O592  1  0.41633000  0.41633000  0.25478000  1.0 -1.1418636514
O  O593  1  0.00000000  0.52690000  0.79344000  1.0 -1.152739912
O  O594  1  0.00000000  0.53951000  0.82917000  1.0 -1.181399803
O  O595  1  0.00000000  0.58690000  0.80602000  1.0 -1.1715485702
O  O596  1  0.00000000  0.58367000  0.83845000  1.0 -1.1418636514
O  O597  1  0.73346000  0.20656000  0.20656000  1.0 -1.152739912
O  O598  1  0.71034000  0.17083000  0.17083000  1.0 -1.181399803
O  O599  1  0.78088000  0.19398000  0.19398000  1.0 -1.1715485702
O  O600  1  0.74522000  0.16155000  0.16155000  1.0 -1.1418636514
O  O601  1  0.26654000  0.47310000  0.47310000  1.0 -1.152739912
O  O602  1  0.28966000  0.46049000  0.46049000  1.0 -1.181399803
O  O603  1  0.21912000  0.41310000  0.41310000  1.0 -1.1715485702
O  O604  1  0.25478000  0.41633000  0.41633000  1.0 -1.1418636514
O  O605  1  0.00000000  0.79344000  0.52690000  1.0 -1.152739912
O  O606  1  0.00000000  0.82917000  0.53951000  1.0 -1.181399803
O  O607  1  0.00000000  0.80602000  0.58690000  1.0 -1.181399803
O  O608  1  0.00000000  0.83845000  0.58367000  1.0 -1.1418636514
O  O609  1  0.47310000  0.26654000  0.47310000  1.0 -1.152739912
O  O610  1  0.46049000  0.28966000  0.46049000  1.0 -1.181399803
O  O611  1  0.41310000  0.21912000  0.41310000  1.0 -1.1715485702
O  O612  1  0.41633000  0.25478000  0.41633000  1.0 -1.1418636514
O  O613  1  0.52690000  0.00000000  0.79344000  1.0 -1.152739912
O  O614  1  0.53951000  0.00000000  0.82917000  1.0 -1.181399803
O  O615  1  0.58690000  0.00000000  0.80602000  1.0 -1.1715485702
O  O616  1  0.58367000  0.00000000  0.83845000  1.0 -1.1418636514
O  O617  1  0.79344000  0.00000000  0.52690000  1.0 -1.152739912
O  O618  1  0.82917000  0.00000000  0.53951000  1.0 -1.1715485702
O  O619  1  0.80602000  0.00000000  0.58690000  1.0 -1.1715485702
O  O620  1  0.83845000  0.00000000  0.58367000  1.0 -1.1418636514
O  O621  1  0.20656000  0.73346000  0.20656000  1.0 -1.152739912
O  O622  1  0.17083000  0.71034000  0.17083000  1.0 -1.181399803
O  O623  1  0.19398000  0.78088000  0.19398000  1.0 -1.1715485702
O  O624  1  0.16155000  0.74522000  0.16155000  1.0 -1.1418636514
O  O625  1  0.26654000  0.79344000  0.79344000  1.0 -1.152739912
O  O626  1  0.28966000  0.82917000  0.82917000  1.0 -1.181399803
O  O627  1  0.21912000  0.80602000  0.80602000  1.0 -1.1715485702
O  O628  1  0.25478000  0.83845000  0.83845000  1.0 -1.1418636514
O  O629  1  0.00000000  0.20656000  0.47310000  1.0 -1.152739912
O  O630  1  0.00000000  0.17083000  0.46049000  1.0 -1.181399803
O  O631  1  0.00000000  0.19398000  0.41310000  1.0 -1.1715485702
O  O632  1  0.00000000  0.16155000  0.41633000  1.0 -1.1418636514
O  O633  1  0.00000000  0.47310000  0.20656000  1.0 -1.152739912
O  O634  1  0.00000000  0.46049000  0.17083000  1.0 -1.181399803
O  O635  1  0.00000000  0.41310000  0.19398000  1.0 -1.181399803
O  O636  1  0.00000000  0.41633000  0.16155000  1.0 -1.1418636514
O  O637  1  0.73346000  0.52690000  0.52690000  1.0 -1.152739912
O  O638  1  0.71034000  0.53951000  0.53951000  1.0 -1.1715485702
O  O639  1  0.78088000  0.58690000  0.58690000  1.0 -1.1715485702
O  O640  1  0.74522000  0.58367000  0.58367000  1.0 -1.1418636514
O  O641  1  0.20656000  0.47310000  0.00000000  1.0 -1.152739912
O  O642  1  0.17083000  0.46049000  0.00000000  1.0 -1.181399803
O  O643  1  0.19398000  0.41310000  0.00000000  1.0 -1.1715485702
O  O644  1  0.16155000  0.41633000  0.00000000  1.0 -1.1418636514
O  O645  1  0.79344000  0.79344000  0.26654000  1.0 -1.152739912
O  O646  1  0.82917000  0.82917000  0.28966000  1.0 -1.181399803
O  O647  1  0.80602000  0.80602000  0.21912000  1.0 -1.1715485702
O  O648  1  0.83845000  0.83845000  0.25478000  1.0 -1.1418636514
O  O649  1  0.52690000  0.52690000  0.73346000  1.0 -1.152739912
O  O650  1  0.53951000  0.53951000  0.71034000  1.0 -1.181399803
O  O651  1  0.58690000  0.58690000  0.78088000  1.0 -1.1715485702
O  O652  1  0.58367000  0.58367000  0.74522000  1.0 -1.1418636514
O  O653  1  0.47310000  0.20656000  0.00000000  1.0 -1.152739912
O  O654  1  0.46049000  0.17083000  0.00000000  1.0 -1.181399803
O  O655  1  0.41310000  0.19398000  0.00000000  1.0 -1.1715485702
O  O656  1  0.41633000  0.16155000  0.00000000  1.0 -1.1418636514
O  O657  1  0.52690000  0.73346000  0.52690000  1.0 -1.152739912
O  O658  1  0.53951000  0.71034000  0.53951000  1.0 -1.181399803
O  O659  1  0.58690000  0.78088000  0.58690000  1.0 -1.1715485702
O  O660  1  0.58367000  0.74522000  0.58367000  1.0 -1.1418636514
O  O661  1  0.20656000  0.00000000  0.47310000  1.0 -1.152739912
O  O662  1  0.17083000  0.00000000  0.46049000  1.0 -1.181399803
O  O663  1  0.19398000  0.00000000  0.41310000  1.0 -1.1715485702
O  O664  1  0.16155000  0.00000000  0.41633000  1.0 -1.1418636514
O  O665  1  0.47310000  0.00000000  0.20656000  1.0 -1.152739912
O  O666  1  0.46049000  0.00000000  0.17083000  1.0 -1.181399803
O  O667  1  0.41310000  0.00000000  0.19398000  1.0 -1.181399803
O  O668  1  0.41633000  0.00000000  0.16155000  1.0 -1.1418636514
O  O669  1  0.79344000  0.26654000  0.79344000  1.0 -1.152739912
O  O670  1  0.82917000  0.28966000  0.82917000  1.0 -1.181399803
O  O671  1  0.80602000  0.21912000  0.80602000  1.0 -1.1715485702
O  O672  1  0.83845000  0.25478000  0.83845000  1.0 -1.1418636514
O  O673  1  0.51778000  0.28035000  0.76257000  1.0 -1.152739912
O  O674  1  0.52468000  0.25854000  0.73386000  1.0 -1.1715485702
O  O675  1  0.48222000  0.71965000  0.23743000  1.0 -1.152739912
O  O676  1  0.47532000  0.74146000  0.26614000  1.0 -1.1715485702
O  O677  1  0.48222000  0.24479000  0.76257000  1.0 -1.152739912
O  O678  1  0.47532000  0.20918000  0.73386000  1.0 -1.1715485702
O  O679  1  0.51778000  0.75521000  0.23743000  1.0 -1.152739912
O  O680  1  0.52468000  0.79082000  0.26614000  1.0 -1.1715485702
O  O681  1  0.23743000  0.48222000  0.71965000  1.0 -1.152739912
O  O682  1  0.26614000  0.47532000  0.74146000  1.0 -1.1715485702
O  O683  1  0.76257000  0.51778000  0.28035000  1.0 -1.152739912
O  O684  1  0.73386000  0.52468000  0.25854000  1.0 -1.1715485702
O  O685  1  0.23743000  0.51778000  0.75521000  1.0 -1.152739912
O  O686  1  0.26614000  0.52468000  0.79082000  1.0 -1.1715485702
O  O687  1  0.76257000  0.48222000  0.24479000  1.0 -1.152739912
O  O688  1  0.73386000  0.47532000  0.20918000  1.0 -1.1715485702
O  O689  1  0.75521000  0.23743000  0.51778000  1.0 -1.152739912
O  O690  1  0.79082000  0.26614000  0.52468000  1.0 -1.1715485702
O  O691  1  0.24479000  0.76257000  0.48222000  1.0 -1.152739912
O  O692  1  0.20918000  0.73386000  0.47532000  1.0 -1.1715485702
O  O693  1  0.71965000  0.23743000  0.48222000  1.0 -1.152739912
O  O694  1  0.74146000  0.26614000  0.47532000  1.0 -1.1715485702
O  O695  1  0.28035000  0.76257000  0.51778000  1.0 -1.1570021494
O  O696  1  0.25854000  0.73386000  0.52468000  1.0 -1.1715485702
O  O697  1  0.23743000  0.71965000  0.48222000  1.0 -1.152739912
O  O698  1  0.26614000  0.74146000  0.47532000  1.0 -1.1715485702
O  O699  1  0.76257000  0.28035000  0.51778000  1.0 -1.152739912
O  O700  1  0.73386000  0.25854000  0.52468000  1.0 -1.1715485702
O  O701  1  0.23743000  0.75521000  0.51778000  1.0 -1.152739912
O  O702  1  0.26614000  0.79082000  0.52468000  1.0 -1.1715485702
O  O703  1  0.76257000  0.24479000  0.48222000  1.0 -1.152739912
O  O704  1  0.73386000  0.20918000  0.47532000  1.0 -1.1715485702
O  O705  1  0.28035000  0.51778000  0.76257000  1.0 -1.152739912
O  O706  1  0.25854000  0.52468000  0.73386000  1.0 -1.1715485702
O  O707  1  0.71965000  0.48222000  0.23743000  1.0 -1.152739912
O  O708  1  0.74146000  0.47532000  0.26614000  1.0 -1.1715485702
O  O709  1  0.24479000  0.48222000  0.76257000  1.0 -1.152739912
O  O710  1  0.20918000  0.47532000  0.73386000  1.0 -1.1715485702
O  O711  1  0.75521000  0.51778000  0.23743000  1.0 -1.152739912
O  O712  1  0.79082000  0.52468000  0.26614000  1.0 -1.1715485702
O  O713  1  0.48222000  0.76257000  0.24479000  1.0 -1.152739912
O  O714  1  0.47532000  0.73386000  0.20918000  1.0 -1.1715485702
O  O715  1  0.51778000  0.23743000  0.75521000  1.0 -1.152739912
O  O716  1  0.52468000  0.26614000  0.79082000  1.0 -1.1715485702
O  O717  1  0.51778000  0.76257000  0.28035000  1.0 -1.152739912
O  O718  1  0.52468000  0.73386000  0.25854000  1.0 -1.1715485702
O  O719  1  0.48222000  0.23743000  0.71965000  1.0 -1.152739912
O  O720  1  0.47532000  0.26614000  0.74146000  1.0 -1.1715485702
