# DDEC6 charges by PACMAN v1.1 (https://github.com/mtap-research/PACMAN-charge/)
data_XAHNUT_ASR_pacman
_symmetry_space_group_name_H-M   'P 1'
_cell_length_a   19.47850000
_cell_length_b   19.47850000
_cell_length_c   13.81790000
_cell_angle_alpha   82.95520000
_cell_angle_beta   97.04480000
_cell_angle_gamma   137.87500000
_symmetry_Int_Tables_number   1
_chemical_formula_structural   NdH35C41N3O8
_chemical_formula_sum   'Nd4 H140 C164 N12 O32'
_cell_volume   3486.02442988
_cell_formula_units_Z   4
loop_
 _symmetry_equiv_pos_site_id
 _symmetry_equiv_pos_as_xyz
  1  'x, y, z'
loop_
 _atom_site_type_symbol
 _atom_site_label
 _atom_site_symmetry_multiplicity
 _atom_site_fract_x
 _atom_site_fract_y
 _atom_site_fract_z
 _atom_site_occupancy
 _atom_site_charge
Nd  Nd1  1  0.40837000  0.01531000  0.44438000  1.0 2.0012593242
Nd  Nd2  1  0.01531000  0.40837000  0.05562000  1.0 2.0012593242
Nd  Nd3  1  0.59163000  0.98469000  0.55562000  1.0 2.0012593242
Nd  Nd4  1  0.98469000  0.59163000  0.94438000  1.0 2.0012593242
H  H1  1  0.23155000  0.09175000  0.52471000  1.0 0.0976531981
H  H2  1  0.22481000  0.19643000  0.57342000  1.0 0.069986217
H  H3  1  0.53143000  0.43681000  0.56724000  1.0 0.069986217
H  H4  1  0.53818000  0.33214000  0.51853000  1.0 0.069986217
H  H5  1  0.22500000  0.27114000  0.62414000  1.0 0.0976531981
H  H6  1  0.20842000  0.37186000  0.65840000  1.0 0.0976531981
H  H7  1  0.51075000  0.62421000  0.63023000  1.0 0.1187423232
H  H8  1  0.52733000  0.52349000  0.59597000  1.0 0.069986217
H  H9  1  0.40500000  0.63866000  0.65857000  1.0 0.1187423232
H  H10  1  0.15613000  0.49163000  0.78811000  1.0 0.1310620141
H  H11  1  0.17659000  0.71095000  0.70303000  1.0 0.1187423232
H  H12  1  0.35380000  0.70896000  0.58543000  1.0 0.138049041
H  H13  1  0.53897000  0.13741000  0.22144000  1.0 0.1310620141
H  H14  1  0.61556000  0.29608000  0.03082000  1.0 0.0878088323
H  H15  1  0.56739000  0.18671000  0.05285000  1.0 0.1187423232
H  H16  1  0.66337000  0.27839000  0.11525000  1.0 0.0878088323
H  H17  1  0.51303000  0.31137000  0.09423000  1.0 0.0612163833
H  H18  1  0.51272000  0.30104000  0.20853000  1.0 0.0976531981
H  H19  1  0.41598000  0.20938000  0.14668000  1.0 0.0976531981
H  H20  1  0.22510000  0.07508000  0.47037000  1.0 0.1187423232
H  H21  1  0.19064000  0.15946000  0.50926000  1.0 0.0878088323
H  H22  1  0.47763000  0.38347000  0.62410000  1.0 0.0797789901
H  H23  1  0.51210000  0.29910000  0.58522000  1.0 0.0797789901
H  H24  1  0.13795000  0.19029000  0.56964000  1.0 0.0797789901
H  H25  1  0.09738000  0.26614000  0.61893000  1.0 0.1091251718
H  H26  1  0.39616000  0.52214000  0.67599000  1.0 0.1091251718
H  H27  1  0.43674000  0.44628000  0.62671000  1.0 0.0976531981
H  H28  1  0.15860000  0.41590000  0.67156000  1.0 0.1091251718
H  H29  1  0.36772000  0.00792000  0.20132000  1.0 0.1310620141
H  H30  1  0.41723000  0.08035000  0.97330000  1.0 0.1187423232
H  H31  1  0.32173000  0.00359000  0.03831000  1.0 0.138049041
H  H32  1  0.40382000  0.00498000  0.04974000  1.0 0.1310620141
H  H33  1  0.55421000  0.26331000  0.03720000  1.0 0.0976531981
H  H34  1  0.59902000  0.26528000  0.14046000  1.0 0.1091251718
H  H35  1  0.52001000  0.26799000  0.13086000  1.0 0.1091251718
H  H36  1  0.09175000  0.23155000  0.97529000  1.0 0.0976531981
H  H37  1  0.19643000  0.22481000  0.92658000  1.0 0.069986217
H  H38  1  0.43681000  0.53143000  0.93276000  1.0 0.069986217
H  H39  1  0.33214000  0.53818000  0.98147000  1.0 0.069986217
H  H40  1  0.27114000  0.22500000  0.87586000  1.0 0.0976531981
H  H41  1  0.37186000  0.20842000  0.84160000  1.0 0.0976531981
H  H42  1  0.62421000  0.51075000  0.86977000  1.0 0.1187423232
H  H43  1  0.52349000  0.52733000  0.90403000  1.0 0.069986217
H  H44  1  0.63866000  0.40500000  0.84143000  1.0 0.1187423232
H  H45  1  0.49163000  0.15613000  0.71189000  1.0 0.1310620141
H  H46  1  0.71095000  0.17659000  0.79697000  1.0 0.1187423232
H  H47  1  0.70896000  0.35380000  0.91457000  1.0 0.138049041
H  H48  1  0.13741000  0.53897000  0.27856000  1.0 0.1310620141
H  H49  1  0.29608000  0.61556000  0.46918000  1.0 0.0878088323
H  H50  1  0.18671000  0.56739000  0.44715000  1.0 0.1187423232
H  H51  1  0.27839000  0.66337000  0.38475000  1.0 0.0878088323
H  H52  1  0.31137000  0.51303000  0.40577000  1.0 0.0612163833
H  H53  1  0.30104000  0.51272000  0.29147000  1.0 0.0976531981
H  H54  1  0.20938000  0.41598000  0.35332000  1.0 0.0976531981
H  H55  1  0.07508000  0.22510000  0.02963000  1.0 0.1187423232
H  H56  1  0.15946000  0.19064000  0.99074000  1.0 0.0878088323
H  H57  1  0.38347000  0.47763000  0.87590000  1.0 0.0797789901
H  H58  1  0.29910000  0.51210000  0.91478000  1.0 0.0797789901
H  H59  1  0.19029000  0.13795000  0.93036000  1.0 0.0797789901
H  H60  1  0.26614000  0.09738000  0.88107000  1.0 0.1091251718
H  H61  1  0.52214000  0.39616000  0.82401000  1.0 0.1091251718
H  H62  1  0.44628000  0.43674000  0.87329000  1.0 0.0976531981
H  H63  1  0.41590000  0.15860000  0.82844000  1.0 0.1091251718
H  H64  1  0.00792000  0.36772000  0.29868000  1.0 0.1310620141
H  H65  1  0.08035000  0.41723000  0.52670000  1.0 0.1187423232
H  H66  1  0.00359000  0.32173000  0.46169000  1.0 0.138049041
H  H67  1  0.00498000  0.40382000  0.45026000  1.0 0.1310620141
H  H68  1  0.26331000  0.55421000  0.46280000  1.0 0.0976531981
H  H69  1  0.26528000  0.59902000  0.35954000  1.0 0.1091251718
H  H70  1  0.26799000  0.52001000  0.36914000  1.0 0.1091251718
H  H71  1  0.76845000  0.90825000  0.47529000  1.0 0.0976531981
H  H72  1  0.77519000  0.80357000  0.42658000  1.0 0.069986217
H  H73  1  0.46857000  0.56319000  0.43276000  1.0 0.069986217
H  H74  1  0.46182000  0.66786000  0.48147000  1.0 0.069986217
H  H75  1  0.77500000  0.72886000  0.37586000  1.0 0.0976531981
H  H76  1  0.79158000  0.62814000  0.34160000  1.0 0.0976531981
H  H77  1  0.48925000  0.37579000  0.36977000  1.0 0.1187423232
H  H78  1  0.47267000  0.47651000  0.40403000  1.0 0.069986217
H  H79  1  0.59500000  0.36134000  0.34143000  1.0 0.1187423232
H  H80  1  0.84387000  0.50837000  0.21189000  1.0 0.1310620141
H  H81  1  0.82341000  0.28905000  0.29697000  1.0 0.1187423232
H  H82  1  0.64620000  0.29104000  0.41457000  1.0 0.138049041
H  H83  1  0.46103000  0.86259000  0.77856000  1.0 0.1310620141
H  H84  1  0.38444000  0.70392000  0.96918000  1.0 0.0878088323
H  H85  1  0.43261000  0.81329000  0.94715000  1.0 0.1187423232
H  H86  1  0.33663000  0.72161000  0.88475000  1.0 0.0878088323
H  H87  1  0.48697000  0.68863000  0.90577000  1.0 0.0612163833
H  H88  1  0.48728000  0.69896000  0.79147000  1.0 0.0976531981
H  H89  1  0.58402000  0.79062000  0.85332000  1.0 0.0976531981
H  H90  1  0.77490000  0.92492000  0.52963000  1.0 0.1187423232
H  H91  1  0.80936000  0.84054000  0.49074000  1.0 0.0878088323
H  H92  1  0.52237000  0.61653000  0.37590000  1.0 0.0797789901
H  H93  1  0.48790000  0.70090000  0.41478000  1.0 0.0797789901
H  H94  1  0.86205000  0.80971000  0.43036000  1.0 0.0797789901
H  H95  1  0.90262000  0.73386000  0.38107000  1.0 0.1091251718
H  H96  1  0.60384000  0.47786000  0.32401000  1.0 0.1091251718
H  H97  1  0.56326000  0.55372000  0.37329000  1.0 0.0976531981
H  H98  1  0.84140000  0.58410000  0.32844000  1.0 0.1091251718
H  H99  1  0.63228000  0.99208000  0.79868000  1.0 0.1310620141
H  H100  1  0.58277000  0.91965000  0.02670000  1.0 0.1187423232
H  H101  1  0.67827000  0.99641000  0.96169000  1.0 0.138049041
H  H102  1  0.59618000  0.99502000  0.95026000  1.0 0.1310620141
H  H103  1  0.44579000  0.73669000  0.96280000  1.0 0.0976531981
H  H104  1  0.40098000  0.73472000  0.85954000  1.0 0.1091251718
H  H105  1  0.47999000  0.73201000  0.86914000  1.0 0.1091251718
H  H106  1  0.90825000  0.76845000  0.02471000  1.0 0.0976531981
H  H107  1  0.80357000  0.77519000  0.07342000  1.0 0.069986217
H  H108  1  0.56319000  0.46857000  0.06724000  1.0 0.069986217
H  H109  1  0.66786000  0.46182000  0.01853000  1.0 0.069986217
H  H110  1  0.72886000  0.77500000  0.12414000  1.0 0.0976531981
H  H111  1  0.62814000  0.79158000  0.15840000  1.0 0.0976531981
H  H112  1  0.37579000  0.48925000  0.13023000  1.0 0.1187423232
H  H113  1  0.47651000  0.47267000  0.09597000  1.0 0.069986217
H  H114  1  0.36134000  0.59500000  0.15857000  1.0 0.1187423232
H  H115  1  0.50837000  0.84387000  0.28811000  1.0 0.1310620141
H  H116  1  0.28905000  0.82341000  0.20303000  1.0 0.1187423232
H  H117  1  0.29104000  0.64620000  0.08543000  1.0 0.138049041
H  H118  1  0.86259000  0.46103000  0.72144000  1.0 0.1310620141
H  H119  1  0.70392000  0.38444000  0.53082000  1.0 0.0878088323
H  H120  1  0.81329000  0.43261000  0.55285000  1.0 0.1187423232
H  H121  1  0.72161000  0.33663000  0.61525000  1.0 0.0878088323
H  H122  1  0.68863000  0.48697000  0.59423000  1.0 0.0612163833
H  H123  1  0.69896000  0.48728000  0.70853000  1.0 0.0976531981
H  H124  1  0.79062000  0.58402000  0.64668000  1.0 0.0976531981
H  H125  1  0.92492000  0.77490000  0.97037000  1.0 0.1187423232
H  H126  1  0.84054000  0.80936000  0.00926000  1.0 0.0878088323
H  H127  1  0.61653000  0.52237000  0.12410000  1.0 0.0797789901
H  H128  1  0.70090000  0.48790000  0.08522000  1.0 0.0797789901
H  H129  1  0.80971000  0.86205000  0.06964000  1.0 0.0797789901
H  H130  1  0.73386000  0.90262000  0.11893000  1.0 0.1091251718
H  H131  1  0.47786000  0.60384000  0.17599000  1.0 0.1091251718
H  H132  1  0.55372000  0.56326000  0.12671000  1.0 0.0976531981
H  H133  1  0.58410000  0.84140000  0.17156000  1.0 0.1091251718
H  H134  1  0.99208000  0.63228000  0.70132000  1.0 0.1310620141
H  H135  1  0.91965000  0.58277000  0.47330000  1.0 0.1187423232
H  H136  1  0.99641000  0.67827000  0.53831000  1.0 0.138049041
H  H137  1  0.99502000  0.59618000  0.54974000  1.0 0.1310620141
H  H138  1  0.73669000  0.44579000  0.53720000  1.0 0.0976531981
H  H139  1  0.73472000  0.40098000  0.64046000  1.0 0.1187423232
H  H140  1  0.73201000  0.47999000  0.63086000  1.0 0.1091251718
C  C1  1  0.39130000  0.13650000  0.48800000  1.0 0.3179323795
C  C2  1  0.08310000  0.54850000  0.82780000  1.0 0.6045513126
C  C3  1  0.32200000  0.82480000  0.56840000  1.0 0.593866733
C  C4  1  0.38550000  0.20150000  0.51680000  1.0 -0.0412304392
C  C5  1  0.29170000  0.16090000  0.53320000  1.0 0.0037372283
C  C6  1  0.28760000  0.22360000  0.56240000  1.0 -0.0290801872
C  C7  1  0.37740000  0.32700000  0.57520000  1.0 0.0208476479
C  C8  1  0.47130000  0.36770000  0.55900000  1.0 -0.1099703786
C  C9  1  0.47540000  0.30500000  0.52950000  1.0 -0.0290801872
C  C10  1  0.37780000  0.38740000  0.60670000  1.0 -0.0099985194
C  C11  1  0.28230000  0.34190000  0.62540000  1.0 -0.0099985194
C  C12  1  0.27230000  0.40230000  0.64590000  1.0 0.0037372283
C  C13  1  0.35800000  0.50800000  0.64770000  1.0 -0.0412304392
C  C14  1  0.45350000  0.55350000  0.62900000  1.0 -0.196422073
C  C15  1  0.46350000  0.49310000  0.60850000  1.0 -0.2088023005
C  C16  1  0.34760000  0.56780000  0.66250000  1.0 -0.0792324943
C  C17  1  0.26018000  0.59302000  0.68570000  1.0 0.0208476479
C  C18  1  0.18525000  0.54995000  0.74970000  1.0 -0.2436424186
C  C19  1  0.15400000  0.59420000  0.75620000  1.0 -0.0566302696
C  C20  1  0.19758000  0.68142000  0.69870000  1.0 -0.1099703786
C  C21  1  0.27241000  0.72439000  0.63470000  1.0 -0.0039058243
C  C22  1  0.30366000  0.68014000  0.62820000  1.0 -0.270909286
C  C23  1  0.50960000  0.15900000  0.22240000  1.0 0.2316568466
C  C24  1  0.60110000  0.24890000  0.08100000  1.0 -0.2622228292
C  C25  1  0.48910000  0.26490000  0.15000000  1.0 -0.270909286
C  C26  1  0.37160000  0.17840000  0.52400000  1.0 -0.0682445531
C  C27  1  0.27540000  0.13660000  0.50100000  1.0 -0.0203386915
C  C28  1  0.25480000  0.18720000  0.52400000  1.0 -0.099131274
C  C29  1  0.33040000  0.27960000  0.57050000  1.0 0.0288726101
C  C30  1  0.42670000  0.32130000  0.59330000  1.0 -0.0518600018
C  C31  1  0.44730000  0.27070000  0.57000000  1.0 -0.0290801872
C  C32  1  0.29140000  0.31080000  0.59300000  1.0 -0.0290801872
C  C33  1  0.18980000  0.25680000  0.59100000  1.0 -0.2156876129
C  C34  1  0.16540000  0.30220000  0.62000000  1.0 -0.1552701024
C  C35  1  0.24270000  0.40170000  0.65200000  1.0 -0.0099985194
C  C36  1  0.34440000  0.45560000  0.65470000  1.0 0.0208476479
C  C37  1  0.36870000  0.41010000  0.62520000  1.0 -0.0099985194
C  C38  1  0.22830000  0.45770000  0.66900000  1.0 0.0037372283
C  C39  1  0.42040000  0.07960000  0.19980000  1.0 0.1729870635
C  C40  1  0.39350000  0.04650000  0.03700000  1.0 -0.4391211895
C  C41  1  0.53920000  0.24080000  0.10500000  1.0 0.069986217
C  C42  1  0.13650000  0.39130000  0.01200000  1.0 0.3179323795
C  C43  1  0.54850000  0.08310000  0.67220000  1.0 0.6045513126
C  C44  1  0.82480000  0.32200000  0.93160000  1.0 0.593866733
C  C45  1  0.20150000  0.38550000  0.98320000  1.0 -0.0412304392
C  C46  1  0.16090000  0.29170000  0.96680000  1.0 0.0037372283
C  C47  1  0.22360000  0.28760000  0.93760000  1.0 -0.0203386915
C  C48  1  0.32700000  0.37740000  0.92480000  1.0 0.0208476479
C  C49  1  0.36770000  0.47130000  0.94100000  1.0 -0.1099703786
C  C50  1  0.30500000  0.47540000  0.97050000  1.0 -0.0290801872
C  C51  1  0.38740000  0.37780000  0.89330000  1.0 -0.0099985194
C  C52  1  0.34190000  0.28230000  0.87460000  1.0 -0.0099985194
C  C53  1  0.40230000  0.27230000  0.85410000  1.0 0.0037372283
C  C54  1  0.50800000  0.35800000  0.85230000  1.0 -0.0412304392
C  C55  1  0.55350000  0.45350000  0.87100000  1.0 -0.196422073
C  C56  1  0.49310000  0.46350000  0.89150000  1.0 -0.2088023005
C  C57  1  0.56780000  0.34760000  0.83750000  1.0 -0.0792324943
C  C58  1  0.59302000  0.26018000  0.81430000  1.0 0.0208476479
C  C59  1  0.54995000  0.18525000  0.75030000  1.0 -0.2436424186
C  C60  1  0.59420000  0.15400000  0.74380000  1.0 -0.0566302696
C  C61  1  0.68142000  0.19758000  0.80130000  1.0 -0.1099703786
C  C62  1  0.72439000  0.27241000  0.86530000  1.0 -0.0039058243
C  C63  1  0.68014000  0.30366000  0.87180000  1.0 -0.270909286
C  C64  1  0.15900000  0.50960000  0.27760000  1.0 0.2316568466
C  C65  1  0.24890000  0.60110000  0.41900000  1.0 -0.2622228292
C  C66  1  0.26490000  0.48910000  0.35000000  1.0 -0.270909286
C  C67  1  0.17840000  0.37160000  0.97600000  1.0 -0.0682445531
C  C68  1  0.13660000  0.27540000  0.99900000  1.0 -0.0203386915
C  C69  1  0.18720000  0.25480000  0.97600000  1.0 -0.099131274
C  C70  1  0.27960000  0.33040000  0.92950000  1.0 0.0288726101
C  C71  1  0.32130000  0.42670000  0.90670000  1.0 -0.0518600018
C  C72  1  0.27070000  0.44730000  0.93000000  1.0 -0.0290801872
C  C73  1  0.31080000  0.29140000  0.90700000  1.0 -0.0290801872
C  C74  1  0.25680000  0.18980000  0.90900000  1.0 -0.2156876129
C  C75  1  0.30220000  0.16540000  0.88000000  1.0 -0.1552701024
C  C76  1  0.40170000  0.24270000  0.84800000  1.0 -0.0099985194
C  C77  1  0.45560000  0.34440000  0.84530000  1.0 0.0208476479
C  C78  1  0.41010000  0.36870000  0.87480000  1.0 -0.0099985194
C  C79  1  0.45770000  0.22830000  0.83100000  1.0 0.0037372283
C  C80  1  0.07960000  0.42040000  0.30020000  1.0 0.1729870635
C  C81  1  0.04650000  0.39350000  0.46300000  1.0 -0.4391211895
C  C82  1  0.24080000  0.53920000  0.39500000  1.0 0.069986217
C  C83  1  0.60870000  0.86350000  0.51200000  1.0 0.3179323795
C  C84  1  0.91690000  0.45150000  0.17220000  1.0 0.6045513126
C  C85  1  0.67800000  0.17520000  0.43160000  1.0 0.593866733
C  C86  1  0.61450000  0.79850000  0.48320000  1.0 -0.0412304392
C  C87  1  0.70830000  0.83910000  0.46680000  1.0 0.0037372283
C  C88  1  0.71240000  0.77640000  0.43760000  1.0 -0.0203386915
C  C89  1  0.62260000  0.67300000  0.42480000  1.0 0.0208476479
C  C90  1  0.52870000  0.63230000  0.44100000  1.0 -0.099131274
C  C91  1  0.52460000  0.69500000  0.47050000  1.0 -0.0290801872
C  C92  1  0.62220000  0.61260000  0.39330000  1.0 -0.0099985194
C  C93  1  0.71770000  0.65810000  0.37460000  1.0 -0.0039058243
C  C94  1  0.72770000  0.59770000  0.35410000  1.0 0.0037372283
C  C95  1  0.64200000  0.49200000  0.35230000  1.0 -0.0412304392
C  C96  1  0.54650000  0.44650000  0.37100000  1.0 -0.196422073
C  C97  1  0.53650000  0.50690000  0.39150000  1.0 -0.2088023005
C  C98  1  0.65240000  0.43220000  0.33750000  1.0 -0.0792324943
C  C99  1  0.73982000  0.40698000  0.31430000  1.0 0.0208476479
C  C100  1  0.81475000  0.45005000  0.25030000  1.0 -0.2436424186
C  C101  1  0.84600000  0.40580000  0.24380000  1.0 -0.0566302696
C  C102  1  0.80242000  0.31858000  0.30130000  1.0 -0.1099703786
C  C103  1  0.72759000  0.27561000  0.36530000  1.0 -0.0039058243
C  C104  1  0.69634000  0.31986000  0.37180000  1.0 -0.270909286
C  C105  1  0.49040000  0.84100000  0.77760000  1.0 0.2316568466
C  C106  1  0.39890000  0.75110000  0.91900000  1.0 -0.2622228292
C  C107  1  0.51090000  0.73510000  0.85000000  1.0 -0.270909286
C  C108  1  0.62840000  0.82160000  0.47600000  1.0 -0.0682445531
C  C109  1  0.72460000  0.86340000  0.49900000  1.0 -0.0203386915
C  C110  1  0.74520000  0.81280000  0.47600000  1.0 -0.099131274
C  C111  1  0.66960000  0.72040000  0.42950000  1.0 0.0288726101
C  C112  1  0.57330000  0.67870000  0.40670000  1.0 -0.0518600018
C  C113  1  0.55270000  0.72930000  0.43000000  1.0 -0.0290801872
C  C114  1  0.70860000  0.68920000  0.40700000  1.0 -0.0290801872
C  C115  1  0.81020000  0.74320000  0.40900000  1.0 -0.2156876129
C  C116  1  0.83460000  0.69780000  0.38000000  1.0 -0.1543608484
C  C117  1  0.75730000  0.59830000  0.34800000  1.0 -0.0099985194
C  C118  1  0.65560000  0.54440000  0.34530000  1.0 0.0208476479
C  C119  1  0.63130000  0.58990000  0.37480000  1.0 -0.0099985194
C  C120  1  0.77170000  0.54230000  0.33100000  1.0 0.005577311
C  C121  1  0.57960000  0.92040000  0.80020000  1.0 0.1729870635
C  C122  1  0.60650000  0.95350000  0.96300000  1.0 -0.4391211895
C  C123  1  0.46080000  0.75920000  0.89500000  1.0 0.069986217
C  C124  1  0.86350000  0.60870000  0.98800000  1.0 0.3179323795
C  C125  1  0.45150000  0.91690000  0.32780000  1.0 0.6045513126
C  C126  1  0.17520000  0.67800000  0.06840000  1.0 0.593866733
C  C127  1  0.79850000  0.61450000  0.01680000  1.0 -0.0412304392
C  C128  1  0.83910000  0.70830000  0.03320000  1.0 0.0037372283
C  C129  1  0.77640000  0.71240000  0.06240000  1.0 -0.0203386915
C  C130  1  0.67300000  0.62260000  0.07520000  1.0 0.0208476479
C  C131  1  0.63230000  0.52870000  0.05900000  1.0 -0.099131274
C  C132  1  0.69500000  0.52460000  0.02950000  1.0 -0.0290801872
C  C133  1  0.61260000  0.62220000  0.10670000  1.0 -0.0099985194
C  C134  1  0.65810000  0.71770000  0.12540000  1.0 -0.0039058243
C  C135  1  0.59770000  0.72770000  0.14590000  1.0 0.0037372283
C  C136  1  0.49200000  0.64200000  0.14770000  1.0 -0.0412304392
C  C137  1  0.44650000  0.54650000  0.12900000  1.0 -0.196422073
C  C138  1  0.50690000  0.53650000  0.10850000  1.0 -0.2088023005
C  C139  1  0.43220000  0.65240000  0.16250000  1.0 -0.0792324943
C  C140  1  0.40698000  0.73982000  0.18570000  1.0 0.0208476479
C  C141  1  0.45005000  0.81475000  0.24970000  1.0 -0.2436424186
C  C142  1  0.40580000  0.84600000  0.25620000  1.0 -0.0566302696
C  C143  1  0.31858000  0.80242000  0.19870000  1.0 -0.1099703786
C  C144  1  0.27561000  0.72759000  0.13470000  1.0 -0.0039058243
C  C145  1  0.31986000  0.69634000  0.12820000  1.0 -0.270909286
C  C146  1  0.84100000  0.49040000  0.72240000  1.0 0.2316568466
C  C147  1  0.75110000  0.39890000  0.58100000  1.0 -0.2622228292
C  C148  1  0.73510000  0.51090000  0.65000000  1.0 -0.270909286
C  C149  1  0.82160000  0.62840000  0.02400000  1.0 -0.0682445531
C  C150  1  0.86340000  0.72460000  0.00100000  1.0 -0.0203386915
C  C151  1  0.81280000  0.74520000  0.02400000  1.0 -0.099131274
C  C152  1  0.72040000  0.66960000  0.07050000  1.0 0.0288726101
C  C153  1  0.67870000  0.57330000  0.09330000  1.0 -0.0518600018
C  C154  1  0.72930000  0.55270000  0.07000000  1.0 -0.0290801872
C  C155  1  0.68920000  0.70860000  0.09300000  1.0 -0.0290801872
C  C156  1  0.74320000  0.81020000  0.09100000  1.0 -0.2156876129
C  C157  1  0.69780000  0.83460000  0.12000000  1.0 -0.1552701024
C  C158  1  0.59830000  0.75730000  0.15200000  1.0 -0.0099985194
C  C159  1  0.54440000  0.65560000  0.15470000  1.0 0.0208476479
C  C160  1  0.58990000  0.63130000  0.12520000  1.0 -0.0099985194
C  C161  1  0.54230000  0.77170000  0.16900000  1.0 0.0037372283
C  C162  1  0.92040000  0.57960000  0.69980000  1.0 0.1729870635
C  C163  1  0.95350000  0.60650000  0.53700000  1.0 -0.4391211895
C  C164  1  0.75920000  0.46080000  0.60500000  1.0 0.069986217
N  N1  1  0.27380000  0.53560000  0.67910000  1.0 -0.0876123933
N  N2  1  0.53140000  0.22420000  0.15200000  1.0 0.0538832359
N  N3  1  0.45250000  0.12550000  0.11320000  1.0 0.0208476479
N  N4  1  0.53560000  0.27380000  0.82090000  1.0 -0.0876123933
N  N5  1  0.22420000  0.53140000  0.34800000  1.0 0.0538832359
N  N6  1  0.12550000  0.45250000  0.38680000  1.0 0.0208476479
N  N7  1  0.72620000  0.46440000  0.32090000  1.0 -0.0876123933
N  N8  1  0.46860000  0.77580000  0.84800000  1.0 0.0538832359
N  N9  1  0.54750000  0.87450000  0.88680000  1.0 0.0208476479
N  N10  1  0.46440000  0.72620000  0.17910000  1.0 -0.0876123933
N  N11  1  0.77580000  0.46860000  0.65200000  1.0 0.0538832359
N  N12  1  0.87450000  0.54750000  0.61320000  1.0 0.0208476479
O  O1  1  0.47942000  0.18498000  0.47130000  1.0 -0.5339890299
O  O2  1  0.31430000  0.04410000  0.47700000  1.0 -0.4990473566
O  O3  1  0.05978000  0.59222000  0.82840000  1.0 -0.650863531
O  O4  1  0.04949000  0.46931000  0.88390000  1.0 -0.6686227945
O  O5  1  0.27442000  0.84578000  0.54220000  1.0 -0.6234397916
O  O6  1  0.41098000  0.88422000  0.53860000  1.0 -0.699494618
O  O7  1  0.45320000  0.12460000  0.28930000  1.0 -0.4826298979
O  O8  1  0.44990000  0.11810000  0.27990000  1.0 -0.4268886027
O  O9  1  0.18498000  0.47942000  0.02870000  1.0 -0.5339890299
O  O10  1  0.04410000  0.31430000  0.02300000  1.0 -0.4990473566
O  O11  1  0.59222000  0.05978000  0.67160000  1.0 -0.650863531
O  O12  1  0.46931000  0.04949000  0.61610000  1.0 -0.6686227945
O  O13  1  0.84578000  0.27442000  0.95780000  1.0 -0.6234397916
O  O14  1  0.88422000  0.41098000  0.96140000  1.0 -0.699494618
O  O15  1  0.12460000  0.45320000  0.21070000  1.0 -0.4826298979
O  O16  1  0.11810000  0.44990000  0.22010000  1.0 -0.4268886027
O  O17  1  0.52058000  0.81502000  0.52870000  1.0 -0.5339890299
O  O18  1  0.68570000  0.95590000  0.52300000  1.0 -0.4990473566
O  O19  1  0.94022000  0.40778000  0.17160000  1.0 -0.650863531
O  O20  1  0.95051000  0.53069000  0.11610000  1.0 -0.6686227945
O  O21  1  0.72558000  0.15422000  0.45780000  1.0 -0.6234397916
O  O22  1  0.58902000  0.11578000  0.46140000  1.0 -0.699494618
O  O23  1  0.54680000  0.87540000  0.71070000  1.0 -0.4826298979
O  O24  1  0.55010000  0.88190000  0.72010000  1.0 -0.4268886027
O  O25  1  0.81502000  0.52058000  0.97130000  1.0 -0.5339890299
O  O26  1  0.95590000  0.68570000  0.97700000  1.0 -0.4990473566
O  O27  1  0.40778000  0.94022000  0.32840000  1.0 -0.650863531
O  O28  1  0.53069000  0.95051000  0.38390000  1.0 -0.6686227945
O  O29  1  0.15422000  0.72558000  0.04220000  1.0 -0.6234397916
O  O30  1  0.11578000  0.58902000  0.03860000  1.0 -0.699494618
O  O31  1  0.87540000  0.54680000  0.78930000  1.0 -0.4826298979
O  O32  1  0.88190000  0.55010000  0.77990000  1.0 -0.4268886027
