# DDEC6 charges by PACMAN v1.1 (https://github.com/mtap-research/PACMAN-charge/)
data_XAHPUT_ASR_pacman
_symmetry_space_group_name_H-M   'P 1'
_cell_length_a   45.91360000
_cell_length_b   45.91360000
_cell_length_c   45.91360000
_cell_angle_alpha   140.60700000
_cell_angle_beta   140.60700000
_cell_angle_gamma   56.93260000
_symmetry_Int_Tables_number   1
_chemical_formula_structural   CuH16(C6O)5
_chemical_formula_sum   'Cu8 H128 C240 O40'
_cell_volume   38661.45697730
_cell_formula_units_Z   8
loop_
 _symmetry_equiv_pos_site_id
 _symmetry_equiv_pos_as_xyz
  1  'x, y, z'
loop_
 _atom_site_type_symbol
 _atom_site_label
 _atom_site_symmetry_multiplicity
 _atom_site_fract_x
 _atom_site_fract_y
 _atom_site_fract_z
 _atom_site_occupancy
 _atom_site_charge
Cu  Cu1  1  0.58088000  0.13818000  0.49930000  1.0 0.8726282173
Cu  Cu2  1  0.63888000  0.08158000  0.50070000  1.0 0.8726282173
Cu  Cu3  1  0.88818000  0.88888000  0.05730000  1.0 0.8726282173
Cu  Cu4  1  0.83158000  0.83088000  0.94270000  1.0 0.8726282173
Cu  Cu5  1  0.11112000  0.11182000  0.94270000  1.0 0.8726282173
Cu  Cu6  1  0.16912000  0.16842000  0.05730000  1.0 0.8726282173
Cu  Cu7  1  0.91842000  0.36112000  0.49930000  1.0 0.8726282173
Cu  Cu8  1  0.86182000  0.41912000  0.50070000  1.0 0.8726282173
H  H1  1  0.39880000  0.98550000  0.27230000  1.0 0.1215200302
H  H2  1  0.71320000  0.12650000  0.72770000  1.0 0.1215200302
H  H3  1  0.73550000  0.96320000  0.08670000  1.0 0.1215200302
H  H4  1  0.87650000  0.64880000  0.91330000  1.0 0.1215200302
H  H5  1  0.03680000  0.26450000  0.91330000  1.0 0.1215200302
H  H6  1  0.35120000  0.12350000  0.08670000  1.0 0.1215200302
H  H7  1  0.87350000  0.28680000  0.27230000  1.0 0.1215200302
H  H8  1  0.01450000  0.60120000  0.72770000  1.0 0.1215200302
H  H9  1  0.45730000  0.04530000  0.35400000  1.0 0.1291545476
H  H10  1  0.69130000  0.10330000  0.64600000  1.0 0.1291545476
H  H11  1  0.79530000  0.94130000  0.08800000  1.0 0.1291545476
H  H12  1  0.85330000  0.70730000  0.91200000  1.0 0.1291545476
H  H13  1  0.05870000  0.20470000  0.91200000  1.0 0.1291545476
H  H14  1  0.29270000  0.14670000  0.08800000  1.0 0.1291545476
H  H15  1  0.89670000  0.30870000  0.35400000  1.0 0.1291545476
H  H16  1  0.95470000  0.54270000  0.64600000  1.0 0.1291545476
H  H17  1  0.55080000  0.95530000  0.35850000  1.0 0.1291545476
H  H18  1  0.59680000  0.19230000  0.64150000  1.0 0.1291545476
H  H19  1  0.70530000  0.84680000  0.90450000  1.0 0.1291545476
H  H20  1  0.94230000  0.80080000  0.09550000  1.0 0.1291545476
H  H21  1  0.15320000  0.29470000  0.09550000  1.0 0.1291545476
H  H22  1  0.19920000  0.05770000  0.90450000  1.0 0.1291545476
H  H23  1  0.80770000  0.40320000  0.35850000  1.0 0.1291545476
H  H24  1  0.04470000  0.44920000  0.64150000  1.0 0.1291545476
H  H25  1  0.49240000  0.89550000  0.27670000  1.0 0.1215200302
H  H26  1  0.61880000  0.21570000  0.72330000  1.0 0.1215200302
H  H27  1  0.64550000  0.86880000  0.90310000  1.0 0.1215200302
H  H28  1  0.96570000  0.74240000  0.09690000  1.0 0.1215200302
H  H29  1  0.13120000  0.35450000  0.09690000  1.0 0.1215200302
H  H30  1  0.25760000  0.03430000  0.90310000  1.0 0.1215200302
H  H31  1  0.78430000  0.38120000  0.27670000  1.0 0.1215200302
H  H32  1  0.10450000  0.50760000  0.72330000  1.0 0.1215200302
H  H33  1  0.23540000  0.01350000  0.08430000  1.0 0.1215200302
H  H34  1  0.92920000  0.15110000  0.91570000  1.0 0.1215200302
H  H35  1  0.76350000  0.17920000  0.27810000  1.0 0.1215200302
H  H36  1  0.90110000  0.48540000  0.72190000  1.0 0.1215200302
H  H37  1  0.82080000  0.23650000  0.72190000  1.0 0.1215200302
H  H38  1  0.51460000  0.09890000  0.27810000  1.0 0.1215200302
H  H39  1  0.84890000  0.07080000  0.08430000  1.0 0.1215200302
H  H40  1  0.98650000  0.76460000  0.91570000  1.0 0.1215200302
H  H41  1  0.22550000  0.07380000  0.09190000  1.0 0.1352293973
H  H42  1  0.98190000  0.13360000  0.90810000  1.0 0.1352293973
H  H43  1  0.82380000  0.23190000  0.34830000  1.0 0.1352293973
H  H44  1  0.88360000  0.47550000  0.65170000  1.0 0.1352293973
H  H45  1  0.76810000  0.17620000  0.65170000  1.0 0.1352293973
H  H46  1  0.52450000  0.11640000  0.34830000  1.0 0.1352293973
H  H47  1  0.86640000  0.01810000  0.09190000  1.0 0.1352293973
H  H48  1  0.92620000  0.77450000  0.90810000  1.0 0.1352293973
H  H49  1  0.11660000  0.99640000  0.91140000  1.0 0.1352293973
H  H50  1  0.08500000  0.20520000  0.08860000  1.0 0.1352293973
H  H51  1  0.74640000  0.33500000  0.37980000  1.0 0.1352293973
H  H52  1  0.95520000  0.36660000  0.62020000  1.0 0.1352293973
H  H53  1  0.66500000  0.25360000  0.62020000  1.0 0.1352293973
H  H54  1  0.63340000  0.04480000  0.37980000  1.0 0.1352293973
H  H55  1  0.79480000  0.91500000  0.91140000  1.0 0.1352293973
H  H56  1  0.00360000  0.88340000  0.08860000  1.0 0.1352293973
H  H57  1  0.12650000  0.93600000  0.90370000  1.0 0.1215200302
H  H58  1  0.03230000  0.22280000  0.09630000  1.0 0.1215200302
H  H59  1  0.68600000  0.28230000  0.30950000  1.0 0.1215200302
H  H60  1  0.97280000  0.37650000  0.69050000  1.0 0.1215200302
H  H61  1  0.71770000  0.31400000  0.69050000  1.0 0.1215200302
H  H62  1  0.62350000  0.02720000  0.30950000  1.0 0.1215200302
H  H63  1  0.77720000  0.96770000  0.90370000  1.0 0.1215200302
H  H64  1  0.06400000  0.87350000  0.09630000  1.0 0.1215200302
H  H65  1  0.35370000  0.82550000  0.15300000  1.0 0.1291545476
H  H66  1  0.67250000  0.20070000  0.84700000  1.0 0.1291545476
H  H67  1  0.57550000  0.92250000  0.97180000  1.0 0.1291545476
H  H68  1  0.95070000  0.60370000  0.02820000  1.0 0.1291545476
H  H69  1  0.07750000  0.42450000  0.02820000  1.0 0.1291545476
H  H70  1  0.39630000  0.04930000  0.97180000  1.0 0.1291545476
H  H71  1  0.79930000  0.32750000  0.15300000  1.0 0.1291545476
H  H72  1  0.17450000  0.64630000  0.84700000  1.0 0.1291545476
H  H73  1  0.29340000  0.91680000  0.10900000  1.0 0.1106959236
H  H74  1  0.80780000  0.18440000  0.89100000  1.0 0.1106959236
H  H75  1  0.66680000  0.05780000  0.12340000  1.0 0.1106959236
H  H76  1  0.93440000  0.54340000  0.87660000  1.0 0.1106959236
H  H77  1  0.94220000  0.33320000  0.87660000  1.0 0.1106959236
H  H78  1  0.45660000  0.06560000  0.12340000  1.0 0.1106959236
H  H79  1  0.81560000  0.19220000  0.10900000  1.0 0.1106959236
H  H80  1  0.08320000  0.70660000  0.89100000  1.0 0.1106959236
H  H81  1  0.16460000  0.85550000  0.94590000  1.0 0.1215200302
H  H82  1  0.90960000  0.21870000  0.05410000  1.0 0.1215200302
H  H83  1  0.60550000  0.15960000  0.19090000  1.0 0.1215200302
H  H84  1  0.96870000  0.41460000  0.80910000  1.0 0.1215200302
H  H85  1  0.84040000  0.39450000  0.80910000  1.0 0.1215200302
H  H86  1  0.58540000  0.03130000  0.19090000  1.0 0.1215200302
H  H87  1  0.78130000  0.09040000  0.94590000  1.0 0.1215200302
H  H88  1  0.14450000  0.83540000  0.05410000  1.0 0.1215200302
H  H89  1  0.17490000  0.79720000  0.94250000  1.0 0.1215200302
H  H90  1  0.85470000  0.23240000  0.05750000  1.0 0.1215200302
H  H91  1  0.54720000  0.10470000  0.12230000  1.0 0.1215200302
H  H92  1  0.98240000  0.42490000  0.87770000  1.0 0.1215200302
H  H93  1  0.89530000  0.45280000  0.87770000  1.0 0.1215200302
H  H94  1  0.57510000  0.01760000  0.12230000  1.0 0.1215200302
H  H95  1  0.76760000  0.14530000  0.94250000  1.0 0.1215200302
H  H96  1  0.20280000  0.82510000  0.05750000  1.0 0.1215200302
H  H97  1  0.34730000  0.92680000  0.18430000  1.0 0.1106959236
H  H98  1  0.74250000  0.16300000  0.81570000  1.0 0.1106959236
H  H99  1  0.67680000  0.99250000  0.07950000  1.0 0.1106959236
H  H100  1  0.91300000  0.59730000  0.92050000  1.0 0.1106959236
H  H101  1  0.00750000  0.32320000  0.92050000  1.0 0.1106959236
H  H102  1  0.40270000  0.08700000  0.07950000  1.0 0.1106959236
H  H103  1  0.83700000  0.25750000  0.18430000  1.0 0.1106959236
H  H104  1  0.07320000  0.65270000  0.81570000  1.0 0.1106959236
H  H105  1  0.41170000  0.86640000  0.20390000  1.0 0.1215200302
H  H106  1  0.66250000  0.20780000  0.79610000  1.0 0.1215200302
H  H107  1  0.61640000  0.91250000  0.95470000  1.0 0.1215200302
H  H108  1  0.95780000  0.66170000  0.04530000  1.0 0.1215200302
H  H109  1  0.08750000  0.38360000  0.04530000  1.0 0.1215200302
H  H110  1  0.33830000  0.04220000  0.95470000  1.0 0.1215200302
H  H111  1  0.79220000  0.33750000  0.20390000  1.0 0.1215200302
H  H112  1  0.13360000  0.58830000  0.79610000  1.0 0.1215200302
H  H113  1  0.24630000  0.95790000  0.07060000  1.0 0.1106959236
H  H114  1  0.88730000  0.17570000  0.92940000  1.0 0.1106959236
H  H115  1  0.70790000  0.13730000  0.21160000  1.0 0.1106959236
H  H116  1  0.92570000  0.49630000  0.78840000  1.0 0.1106959236
H  H117  1  0.86270000  0.29210000  0.78840000  1.0 0.1106959236
H  H118  1  0.50370000  0.07430000  0.21160000  1.0 0.1106959236
H  H119  1  0.82430000  0.11270000  0.07060000  1.0 0.1106959236
H  H120  1  0.04210000  0.75370000  0.92940000  1.0 0.1106959236
H  H121  1  0.16360000  0.90120000  0.94520000  1.0 0.1106959236
H  H122  1  0.95600000  0.21840000  0.05480000  1.0 0.1106959236
H  H123  1  0.65120000  0.20600000  0.23760000  1.0 0.1106959236
H  H124  1  0.96840000  0.41360000  0.76240000  1.0 0.1106959236
H  H125  1  0.79400000  0.34880000  0.76240000  1.0 0.1106959236
H  H126  1  0.58640000  0.03160000  0.23760000  1.0 0.1106959236
H  H127  1  0.78160000  0.04400000  0.94520000  1.0 0.1106959236
H  H128  1  0.09880000  0.83640000  0.05480000  1.0 0.1106959236
C  C1  1  0.43976000  0.93446000  0.26630000  1.0 0.1291545476
C  C2  1  0.66816000  0.17346000  0.73370000  1.0 0.1215200302
C  C3  1  0.68446000  0.91816000  0.99470000  1.0 0.1291545476
C  C4  1  0.92346000  0.68976000  0.00530000  1.0 0.1215200302
C  C5  1  0.08184000  0.31554000  0.00530000  1.0 0.1215200302
C  C6  1  0.31024000  0.07654000  0.99470000  1.0 0.1215200302
C  C7  1  0.82654000  0.33184000  0.26630000  1.0 0.1215200302
C  C8  1  0.06554000  0.56024000  0.73370000  1.0 0.1291545476
C  C9  1  0.42930000  0.97940000  0.28950000  1.0 -0.1604758861
C  C10  1  0.68990000  0.13980000  0.71050000  1.0 -0.1604758861
C  C11  1  0.72940000  0.93990000  0.05010000  1.0 -0.1604758861
C  C12  1  0.88980000  0.67930000  0.94990000  1.0 -0.1604758861
C  C13  1  0.06010000  0.27060000  0.94990000  1.0 -0.1604758861
C  C14  1  0.32070000  0.11020000  0.05010000  1.0 -0.1604758861
C  C15  1  0.86020000  0.31010000  0.28950000  1.0 -0.1604758861
C  C16  1  0.02060000  0.57070000  0.71050000  1.0 -0.1604758861
C  C17  1  0.46430000  0.01530000  0.33860000  1.0 -0.069463699
C  C18  1  0.67670000  0.12570000  0.66140000  1.0 -0.069463699
C  C19  1  0.76530000  0.92670000  0.05100000  1.0 -0.069463699
C  C20  1  0.87570000  0.71430000  0.94900000  1.0 -0.069463699
C  C21  1  0.07330000  0.23470000  0.94900000  1.0 -0.069463699
C  C22  1  0.28570000  0.12430000  0.05100000  1.0 -0.069463699
C  C23  1  0.87430000  0.32330000  0.33860000  1.0 -0.069463699
C  C24  1  0.98470000  0.53570000  0.66140000  1.0 -0.069463699
C  C25  1  0.50986000  0.00626000  0.36440000  1.0 -0.0593011488
C  C26  1  0.64186000  0.14546000  0.63560000  1.0 -0.0593011488
C  C27  1  0.75626000  0.89186000  0.99640000  1.0 -0.0593011488
C  C28  1  0.89546000  0.75986000  0.00360000  1.0 -0.0593011488
C  C29  1  0.10814000  0.24374000  0.00360000  1.0 -0.0593011488
C  C30  1  0.24014000  0.10454000  0.99640000  1.0 -0.0593011488
C  C31  1  0.85454000  0.35814000  0.36440000  1.0 -0.0593011488
C  C32  1  0.99374000  0.49014000  0.63560000  1.0 -0.0593011488
C  C33  1  0.52040000  0.96140000  0.34120000  1.0 -0.069463699
C  C34  1  0.62020000  0.17920000  0.65880000  1.0 -0.069463699
C  C35  1  0.71140000  0.87020000  0.94100000  1.0 -0.069463699
C  C36  1  0.92920000  0.77040000  0.05900000  1.0 -0.069463699
C  C37  1  0.12980000  0.28860000  0.05900000  1.0 -0.069463699
C  C38  1  0.22960000  0.07080000  0.94100000  1.0 -0.069463699
C  C39  1  0.82080000  0.37980000  0.34120000  1.0 -0.0593011488
C  C40  1  0.03860000  0.47960000  0.65880000  1.0 -0.069463699
C  C41  1  0.48530000  0.92550000  0.29220000  1.0 -0.1506963091
C  C42  1  0.63330000  0.19310000  0.70780000  1.0 -0.1506963091
C  C43  1  0.67550000  0.88330000  0.94020000  1.0 -0.1506963091
C  C44  1  0.94310000  0.73530000  0.05980000  1.0 -0.1506963091
C  C45  1  0.11670000  0.32450000  0.05980000  1.0 -0.1506963091
C  C46  1  0.26470000  0.05690000  0.94020000  1.0 -0.1506963091
C  C47  1  0.80690000  0.36670000  0.29220000  1.0 -0.1506963091
C  C48  1  0.07450000  0.51470000  0.70780000  1.0 -0.1506963091
C  C49  1  0.33970000  0.75340000  0.11150000  1.0 0.4690711104
C  C50  1  0.64190000  0.22820000  0.88850000  1.0 0.4690711104
C  C51  1  0.50340000  0.89190000  0.91370000  1.0 0.4690711104
C  C52  1  0.97820000  0.58970000  0.08630000  1.0 0.4690711104
C  C53  1  0.10810000  0.49660000  0.08630000  1.0 0.4690711104
C  C54  1  0.41030000  0.02180000  0.91370000  1.0 0.4690711104
C  C55  1  0.77180000  0.35810000  0.11150000  1.0 0.4690711104
C  C56  1  0.24660000  0.66030000  0.88850000  1.0 0.4690711104
C  C57  1  0.37070000  0.75180000  0.10710000  1.0 -0.5484295509
C  C58  1  0.64470000  0.26360000  0.89290000  1.0 -0.5200318087
C  C59  1  0.50180000  0.89470000  0.88110000  1.0 -0.5255417965
C  C60  1  0.01360000  0.62070000  0.11890000  1.0 -0.5255417965
C  C61  1  0.10530000  0.49820000  0.11890000  1.0 -0.5200318087
C  C62  1  0.37930000  0.98640000  0.88110000  1.0 -0.5200318087
C  C63  1  0.73640000  0.35530000  0.10710000  1.0 -0.5255417965
C  C64  1  0.24820000  0.62930000  0.89290000  1.0 -0.5200318087
C  C65  1  0.18193000  0.96873000  0.99320000  1.0 0.1291545476
C  C66  1  0.97553000  0.18873000  0.00680000  1.0 0.1291545476
C  C67  1  0.71873000  0.22553000  0.28680000  1.0 0.1291545476
C  C68  1  0.93873000  0.43193000  0.71320000  1.0 0.1291545476
C  C69  1  0.77447000  0.28127000  0.71320000  1.0 0.1291545476
C  C70  1  0.56807000  0.06127000  0.28680000  1.0 0.1291545476
C  C71  1  0.81127000  0.02447000  0.99320000  1.0 0.1291545476
C  C72  1  0.03127000  0.81807000  0.00680000  1.0 0.1291545476
C  C73  1  0.21160000  0.01000000  0.04960000  1.0 -0.1604758861
C  C74  1  0.96040000  0.16200000  0.95040000  1.0 -0.1604758861
C  C75  1  0.76000000  0.21040000  0.29840000  1.0 -0.1604758861
C  C76  1  0.91200000  0.46160000  0.70160000  1.0 -0.1604758861
C  C77  1  0.78960000  0.24000000  0.70160000  1.0 -0.1604758861
C  C78  1  0.53840000  0.08800000  0.29840000  1.0 -0.1604758861
C  C79  1  0.83800000  0.03960000  0.04960000  1.0 -0.1604758861
C  C80  1  0.99000000  0.78840000  0.95040000  1.0 -0.1604758861
C  C81  1  0.20560000  0.04620000  0.05420000  1.0 -0.069463699
C  C82  1  0.99200000  0.15140000  0.94580000  1.0 -0.069463699
C  C83  1  0.79620000  0.24200000  0.34060000  1.0 -0.0765804559
C  C84  1  0.90140000  0.45560000  0.65940000  1.0 -0.069463699
C  C85  1  0.75800000  0.20380000  0.65940000  1.0 -0.069463699
C  C86  1  0.54440000  0.09860000  0.34060000  1.0 -0.069463699
C  C87  1  0.84860000  0.00800000  0.05420000  1.0 -0.0765804559
C  C88  1  0.95380000  0.79440000  0.94580000  1.0 -0.069463699
C  C89  1  0.17008000  0.04108000  0.00240000  1.0 -0.0593011488
C  C90  1  0.03868000  0.16768000  0.99760000  1.0 -0.0593011488
C  C91  1  0.79108000  0.28868000  0.37100000  1.0 -0.0593011488
C  C92  1  0.91768000  0.42008000  0.62900000  1.0 -0.0593011488
C  C93  1  0.71132000  0.20892000  0.62900000  1.0 -0.0593011488
C  C94  1  0.57992000  0.08232000  0.37100000  1.0 -0.0593011488
C  C95  1  0.83232000  0.96132000  0.00240000  1.0 -0.0593011488
C  C96  1  0.95892000  0.82992000  0.99760000  1.0 -0.0593011488
C  C97  1  0.14040000  0.99980000  0.94600000  1.0 -0.0765804559
C  C98  1  0.05380000  0.19440000  0.05400000  1.0 -0.0765804559
C  C99  1  0.74980000  0.30380000  0.35940000  1.0 -0.0765804559
C  C100  1  0.94440000  0.39040000  0.64060000  1.0 -0.0765804559
C  C101  1  0.69620000  0.25020000  0.64060000  1.0 -0.0765804559
C  C102  1  0.60960000  0.05560000  0.35940000  1.0 -0.0765804559
C  C103  1  0.80560000  0.94620000  0.94600000  1.0 -0.0765804559
C  C104  1  0.00020000  0.85960000  0.05400000  1.0 -0.0765804559
C  C105  1  0.14640000  0.96370000  0.94150000  1.0 -0.1433804823
C  C106  1  0.02220000  0.20490000  0.05850000  1.0 -0.1506963091
C  C107  1  0.71370000  0.27220000  0.31730000  1.0 -0.1433804823
C  C108  1  0.95490000  0.39640000  0.68270000  1.0 -0.1433804823
C  C109  1  0.72780000  0.28630000  0.68270000  1.0 -0.1433804823
C  C110  1  0.60360000  0.04510000  0.31730000  1.0 -0.1433804823
C  C111  1  0.79510000  0.97780000  0.94150000  1.0 -0.1433804823
C  C112  1  0.03630000  0.85360000  0.05850000  1.0 -0.1433804823
C  C113  1  0.54550000  0.04420000  0.41530000  1.0 0.5716967822
C  C114  1  0.62890000  0.13020000  0.58470000  1.0 0.5716967822
C  C115  1  0.79420000  0.87890000  0.99870000  1.0 0.5716967822
C  C116  1  0.88020000  0.79550000  0.00130000  1.0 0.5716967822
C  C117  1  0.12110000  0.20580000  0.00130000  1.0 0.5716967822
C  C118  1  0.20450000  0.11980000  0.99870000  1.0 0.5716967822
C  C119  1  0.86980000  0.37110000  0.41530000  1.0 0.5716967822
C  C120  1  0.95580000  0.45450000  0.58470000  1.0 0.5716967822
C  C121  1  0.15990000  0.07750000  0.00320000  1.0 0.5716967822
C  C122  1  0.07430000  0.15670000  0.99680000  1.0 0.5716967822
C  C123  1  0.82750000  0.32430000  0.41760000  1.0 0.5716967822
C  C124  1  0.90670000  0.40990000  0.58240000  1.0 0.5716967822
C  C125  1  0.67570000  0.17250000  0.58240000  1.0 0.5716967822
C  C126  1  0.59010000  0.09330000  0.41760000  1.0 0.5716967822
C  C127  1  0.84330000  0.92570000  0.00320000  1.0 0.5716967822
C  C128  1  0.92250000  0.84010000  0.99680000  1.0 0.5716967822
C  C129  1  0.24840000  0.78760000  0.02320000  1.0 -0.0429526939
C  C130  1  0.76440000  0.22520000  0.97680000  1.0 -0.0429526939
C  C131  1  0.53760000  0.01440000  0.03920000  1.0 -0.0429526939
C  C132  1  0.97520000  0.49840000  0.96080000  1.0 -0.0429526939
C  C133  1  0.98560000  0.46240000  0.96080000  1.0 -0.0429526939
C  C134  1  0.50160000  0.02480000  0.03920000  1.0 -0.0429526939
C  C135  1  0.77480000  0.23560000  0.02320000  1.0 -0.0429526939
C  C136  1  0.21240000  0.75160000  0.97680000  1.0 -0.0429526939
C  C137  1  0.29046000  0.78866000  0.07100000  1.0 0.2488326371
C  C138  1  0.71766000  0.21946000  0.92900000  1.0 0.2488326371
C  C139  1  0.53866000  0.96766000  0.99820000  1.0 0.2488326371
C  C140  1  0.96946000  0.54046000  0.00180000  1.0 0.2488326371
C  C141  1  0.03234000  0.46134000  0.00180000  1.0 0.2488326371
C  C142  1  0.45954000  0.03054000  0.99820000  1.0 0.2488326371
C  C143  1  0.78054000  0.28234000  0.07100000  1.0 0.2488326371
C  C144  1  0.21134000  0.70954000  0.92900000  1.0 0.2488326371
C  C145  1  0.32560000  0.82480000  0.12100000  1.0 -0.2415564976
C  C146  1  0.70380000  0.20460000  0.87900000  1.0 -0.2415564976
C  C147  1  0.57480000  0.95380000  0.99920000  1.0 -0.2415564976
C  C148  1  0.95460000  0.57560000  0.00080000  1.0 -0.2415564976
C  C149  1  0.04620000  0.42520000  0.00080000  1.0 -0.2415564976
C  C150  1  0.42440000  0.04540000  0.99920000  1.0 -0.2415564976
C  C151  1  0.79540000  0.29620000  0.12100000  1.0 -0.2415564976
C  C152  1  0.17520000  0.67440000  0.87900000  1.0 -0.2415564976
C  C153  1  0.31861000  0.85971000  0.12310000  1.0 0.0888717367
C  C154  1  0.73661000  0.19551000  0.87690000  1.0 0.0888717367
C  C155  1  0.60971000  0.98661000  0.04110000  1.0 0.0888717367
C  C156  1  0.94551000  0.56861000  0.95890000  1.0 0.0888717367
C  C157  1  0.01339000  0.39029000  0.95890000  1.0 0.0888717367
C  C158  1  0.43139000  0.05449000  0.04110000  1.0 0.0888717367
C  C159  1  0.80449000  0.26339000  0.12310000  1.0 0.0888717367
C  C160  1  0.14029000  0.68139000  0.87690000  1.0 0.0888717367
C  C161  1  0.27651000  0.85861000  0.07530000  1.0 0.0253921465
C  C162  1  0.78331000  0.20121000  0.92470000  1.0 0.0247262481
C  C163  1  0.60861000  0.03331000  0.08210000  1.0 0.0253921465
C  C164  1  0.95121000  0.52651000  0.91790000  1.0 0.0253921465
C  C165  1  0.96669000  0.39139000  0.91790000  1.0 0.0253921465
C  C166  1  0.47349000  0.04879000  0.08210000  1.0 0.0247262481
C  C167  1  0.79879000  0.21669000  0.07530000  1.0 0.0247262481
C  C168  1  0.14139000  0.72349000  0.92470000  1.0 0.0247262481
C  C169  1  0.24140000  0.82250000  0.02530000  1.0 0.048331292
C  C170  1  0.79720000  0.21610000  0.97470000  1.0 0.048331292
C  C171  1  0.57250000  0.04720000  0.08110000  1.0 0.048331292
C  C172  1  0.96610000  0.49140000  0.91890000  1.0 0.048331292
C  C173  1  0.95280000  0.42750000  0.91890000  1.0 0.048331292
C  C174  1  0.50860000  0.03390000  0.08110000  1.0 0.048331292
C  C175  1  0.78390000  0.20280000  0.02530000  1.0 0.048331292
C  C176  1  0.17750000  0.75860000  0.97470000  1.0 0.048331292
C  C177  1  0.26940000  0.89330000  0.07570000  1.0 -0.202580578
C  C178  1  0.81760000  0.19370000  0.92430000  1.0 -0.202580578
C  C179  1  0.64330000  0.06760000  0.12390000  1.0 -0.202580578
C  C180  1  0.94370000  0.51940000  0.87610000  1.0 -0.202580578
C  C181  1  0.93240000  0.35670000  0.87610000  1.0 -0.202580578
C  C182  1  0.48060000  0.05630000  0.12390000  1.0 -0.202580578
C  C183  1  0.80630000  0.18240000  0.07570000  1.0 -0.202580578
C  C184  1  0.10670000  0.73060000  0.92430000  1.0 -0.202580578
C  C185  1  0.22770000  0.89370000  0.02840000  1.0 0.1291545476
C  C186  1  0.86530000  0.19930000  0.97160000  1.0 0.1291545476
C  C187  1  0.64370000  0.11530000  0.16600000  1.0 0.1291545476
C  C188  1  0.94930000  0.47770000  0.83400000  1.0 0.1291545476
C  C189  1  0.88470000  0.35630000  0.83400000  1.0 0.1291545476
C  C190  1  0.52230000  0.05070000  0.16600000  1.0 0.1291545476
C  C191  1  0.80070000  0.13470000  0.02840000  1.0 0.1291545476
C  C192  1  0.10630000  0.77230000  0.97160000  1.0 0.1291545476
C  C193  1  0.19260000  0.85670000  0.97830000  1.0 -0.1604758861
C  C194  1  0.87840000  0.21430000  0.02170000  1.0 -0.1604758861
C  C195  1  0.60670000  0.12840000  0.16410000  1.0 -0.1604758861
C  C196  1  0.96430000  0.44260000  0.83590000  1.0 -0.1604758861
C  C197  1  0.87160000  0.39330000  0.83590000  1.0 -0.1604758861
C  C198  1  0.55740000  0.03570000  0.16410000  1.0 -0.1604758861
C  C199  1  0.78570000  0.12160000  0.97830000  1.0 -0.1604758861
C  C200  1  0.14330000  0.80740000  0.02170000  1.0 -0.1604758861
C  C201  1  0.19870000  0.82110000  0.97600000  1.0 -0.1506963091
C  C202  1  0.84510000  0.22270000  0.02400000  1.0 -0.1506963091
C  C203  1  0.57110000  0.09510000  0.12240000  1.0 -0.1506963091
C  C204  1  0.97270000  0.44870000  0.87760000  1.0 -0.1506963091
C  C205  1  0.90490000  0.42890000  0.87760000  1.0 -0.1506963091
C  C206  1  0.55130000  0.02730000  0.12240000  1.0 -0.1506963091
C  C207  1  0.77730000  0.15490000  0.97600000  1.0 -0.1506963091
C  C208  1  0.17890000  0.80130000  0.02400000  1.0 -0.1506963091
C  C209  1  0.35570000  0.89890000  0.17580000  1.0 -0.1506963091
C  C210  1  0.72310000  0.17990000  0.82420000  1.0 -0.1506963091
C  C211  1  0.64890000  0.97310000  0.04320000  1.0 -0.1506963091
C  C212  1  0.92990000  0.60570000  0.95680000  1.0 -0.1506963091
C  C213  1  0.02690000  0.35110000  0.95680000  1.0 -0.1506963091
C  C214  1  0.39430000  0.07010000  0.04320000  1.0 -0.1506963091
C  C215  1  0.82010000  0.27690000  0.17580000  1.0 -0.1506963091
C  C216  1  0.10110000  0.64430000  0.82420000  1.0 -0.1506963091
C  C217  1  0.40310000  0.89450000  0.21280000  1.0 -0.1506963091
C  C218  1  0.68170000  0.19030000  0.78720000  1.0 -0.1506963091
C  C219  1  0.64450000  0.93170000  0.99140000  1.0 -0.1506963091
C  C220  1  0.94030000  0.65310000  0.00860000  1.0 -0.1506963091
C  C221  1  0.06830000  0.35550000  0.00860000  1.0 -0.1506963091
C  C222  1  0.34690000  0.05970000  0.99140000  1.0 -0.1506963091
C  C223  1  0.80970000  0.31830000  0.21280000  1.0 -0.1604758861
C  C224  1  0.10550000  0.59690000  0.78720000  1.0 -0.1506963091
C  C225  1  0.22400000  0.93210000  0.03430000  1.0 -0.1668803304
C  C226  1  0.89780000  0.18970000  0.96570000  1.0 -0.1668803304
C  C227  1  0.68210000  0.14780000  0.20810000  1.0 -0.1668803304
C  C228  1  0.93970000  0.47400000  0.79190000  1.0 -0.1668803304
C  C229  1  0.85220000  0.31790000  0.79190000  1.0 -0.1668803304
C  C230  1  0.52600000  0.06030000  0.20810000  1.0 -0.1668803304
C  C231  1  0.81030000  0.10220000  0.03430000  1.0 -0.1668803304
C  C232  1  0.06790000  0.77600000  0.96570000  1.0 -0.1668803304
C  C233  1  0.18530000  0.92740000  0.98270000  1.0 -0.1604758861
C  C234  1  0.94470000  0.20260000  0.01730000  1.0 -0.1604758861
C  C235  1  0.67740000  0.19470000  0.24210000  1.0 -0.1604758861
C  C236  1  0.95260000  0.43530000  0.75790000  1.0 -0.1604758861
C  C237  1  0.80530000  0.32260000  0.75790000  1.0 -0.1604758861
C  C238  1  0.56470000  0.04740000  0.24210000  1.0 -0.1604758861
C  C239  1  0.79740000  0.05530000  0.98270000  1.0 -0.1604758861
C  C240  1  0.07260000  0.81470000  0.01730000  1.0 -0.1604758861
O  O1  1  0.53540000  0.08610000  0.43810000  1.0 -0.5094050042
O  O2  1  0.64800000  0.09730000  0.56190000  1.0 -0.5094050042
O  O3  1  0.83610000  0.89800000  0.05070000  1.0 -0.5094050042
O  O4  1  0.84730000  0.78540000  0.94930000  1.0 -0.5094050042
O  O5  1  0.10200000  0.16390000  0.94930000  1.0 -0.5094050042
O  O6  1  0.21460000  0.15270000  0.05070000  1.0 -0.5094050042
O  O7  1  0.90270000  0.35200000  0.43810000  1.0 -0.5094050042
O  O8  1  0.91390000  0.46460000  0.56190000  1.0 -0.5094050042
O  O9  1  0.58790000  0.03750000  0.43920000  1.0 -0.5200318087
O  O10  1  0.59830000  0.14870000  0.56080000  1.0 -0.5200318087
O  O11  1  0.78750000  0.84830000  0.94960000  1.0 -0.5200318087
O  O12  1  0.89870000  0.83790000  0.05040000  1.0 -0.5200318087
O  O13  1  0.15170000  0.21250000  0.05040000  1.0 -0.5200318087
O  O14  1  0.16210000  0.10130000  0.94960000  1.0 -0.5200318087
O  O15  1  0.85130000  0.40170000  0.43920000  1.0 -0.5200318087
O  O16  1  0.96250000  0.41210000  0.56080000  1.0 -0.5200318087
O  O17  1  0.12590000  0.06860000  0.95150000  1.0 -0.5200318087
O  O18  1  0.11710000  0.17440000  0.04850000  1.0 -0.5255417965
O  O19  1  0.81860000  0.36710000  0.44270000  1.0 -0.5255417965
O  O20  1  0.92440000  0.37590000  0.55730000  1.0 -0.5200318087
O  O21  1  0.63290000  0.18140000  0.55730000  1.0 -0.5200318087
O  O22  1  0.62410000  0.07560000  0.44270000  1.0 -0.5200318087
O  O23  1  0.82560000  0.88290000  0.95150000  1.0 -0.5200318087
O  O24  1  0.93140000  0.87410000  0.04850000  1.0 -0.5200318087
O  O25  1  0.18280000  0.11820000  0.05220000  1.0 -0.5028926901
O  O26  1  0.06600000  0.13060000  0.94780000  1.0 -0.5028926901
O  O27  1  0.86820000  0.31600000  0.43540000  1.0 -0.5028926901
O  O28  1  0.88060000  0.43280000  0.56460000  1.0 -0.5028926901
O  O29  1  0.68400000  0.13180000  0.56460000  1.0 -0.5028926901
O  O30  1  0.56720000  0.11940000  0.43540000  1.0 -0.5028926901
O  O31  1  0.86940000  0.93400000  0.05220000  1.0 -0.5028926901
O  O32  1  0.88180000  0.81720000  0.94780000  1.0 -0.5028926901
O  O33  1  0.29390000  0.75560000  0.06770000  1.0 -0.202580578
O  O34  1  0.68790000  0.22620000  0.93230000  1.0 -0.202580578
O  O35  1  0.50560000  0.93790000  0.96170000  1.0 -0.202580578
O  O36  1  0.97620000  0.54390000  0.03830000  1.0 -0.202580578
O  O37  1  0.06210000  0.49440000  0.03830000  1.0 -0.202580578
O  O38  1  0.45610000  0.02380000  0.96170000  1.0 -0.202580578
O  O39  1  0.77380000  0.31210000  0.06770000  1.0 -0.202580578
O  O40  1  0.24440000  0.70610000  0.93230000  1.0 -0.202580578
