# DDEC6 charges by PACMAN v1.1 (https://github.com/mtap-research/PACMAN-charge/)
data_XAHPOP_ASR_pacman
_symmetry_space_group_name_H-M   'P 1'
_cell_length_a   20.39910000
_cell_length_b   20.39910000
_cell_length_c   14.02300000
_cell_angle_alpha   84.08480000
_cell_angle_beta   95.91520000
_cell_angle_gamma   138.98800000
_symmetry_Int_Tables_number   1
_chemical_formula_structural   NdH14C22NO7
_chemical_formula_sum   'Nd4 H56 C88 N4 O28'
_cell_volume   3805.97211553
_cell_formula_units_Z   4
loop_
 _symmetry_equiv_pos_site_id
 _symmetry_equiv_pos_as_xyz
  1  'x, y, z'
loop_
 _atom_site_type_symbol
 _atom_site_label
 _atom_site_symmetry_multiplicity
 _atom_site_fract_x
 _atom_site_fract_y
 _atom_site_fract_z
 _atom_site_occupancy
 _atom_site_charge
Nd  Nd1  1  0.49339000  0.09469000  0.46895000  1.0 2.0856318544
Nd  Nd2  1  0.09469000  0.49339000  0.03105000  1.0 2.0856318544
Nd  Nd3  1  0.50661000  0.90531000  0.53105000  1.0 2.0856318544
Nd  Nd4  1  0.90531000  0.50661000  0.96895000  1.0 2.0856318544
H  H1  1  0.18072000  0.98900000  0.51759000  1.0 0.1214809525
H  H2  1  0.09392000  0.01534000  0.55373000  1.0 0.1115314484
H  H3  1  0.34545000  0.28457000  0.64908000  1.0 0.1115314484
H  H4  1  0.43281000  0.25807000  0.61611000  1.0 0.1214809525
H  H5  1  0.44553000  0.09977000  0.24445000  1.0 0.4244791339
H  H6  1  0.40660000  0.10238000  0.32290000  1.0 0.372486874
H  H7  1  0.01825000  0.02873000  0.64165000  1.0 0.1115314484
H  H8  1  0.93777000  0.06389000  0.66997000  1.0 0.1214809525
H  H9  1  0.27168000  0.32220000  0.60238000  1.0 0.1214809525
H  H10  1  0.18956000  0.35512000  0.63121000  1.0 0.1214809525
H  H11  1  0.75894000  0.11798000  0.59431000  1.0 0.1377008888
H  H12  1  0.77409000  0.30019000  0.71226000  1.0 0.1278669495
H  H13  1  0.97760000  0.31114000  0.78980000  1.0 0.1214809525
H  H14  1  0.04561000  0.30571000  0.66983000  1.0 0.0895529757
H  H15  1  0.98900000  0.18072000  0.98241000  1.0 0.1214809525
H  H16  1  0.01534000  0.09392000  0.94627000  1.0 0.1115314484
H  H17  1  0.28457000  0.34545000  0.85092000  1.0 0.1115314484
H  H18  1  0.25807000  0.43281000  0.88389000  1.0 0.1214809525
H  H19  1  0.09977000  0.44553000  0.25555000  1.0 0.4244791339
H  H20  1  0.10238000  0.40660000  0.17710000  1.0 0.372486874
H  H21  1  0.02873000  0.01825000  0.85835000  1.0 0.1115314484
H  H22  1  0.06389000  0.93777000  0.83003000  1.0 0.1214809525
H  H23  1  0.32220000  0.27168000  0.89762000  1.0 0.1214809525
H  H24  1  0.35512000  0.18956000  0.86879000  1.0 0.1214809525
H  H25  1  0.11798000  0.75894000  0.90569000  1.0 0.1377008888
H  H26  1  0.30019000  0.77409000  0.78774000  1.0 0.1278669495
H  H27  1  0.31114000  0.97760000  0.71020000  1.0 0.1214809525
H  H28  1  0.30571000  0.04561000  0.83017000  1.0 0.0895529757
H  H29  1  0.81928000  0.01100000  0.48241000  1.0 0.1214809525
H  H30  1  0.90608000  0.98466000  0.44627000  1.0 0.1115314484
H  H31  1  0.65455000  0.71543000  0.35092000  1.0 0.1115314484
H  H32  1  0.56719000  0.74193000  0.38389000  1.0 0.1214809525
H  H33  1  0.55447000  0.90023000  0.75555000  1.0 0.4244791339
H  H34  1  0.59340000  0.89762000  0.67710000  1.0 0.372486874
H  H35  1  0.98175000  0.97127000  0.35835000  1.0 0.1115314484
H  H36  1  0.06223000  0.93611000  0.33003000  1.0 0.1214809525
H  H37  1  0.72832000  0.67780000  0.39762000  1.0 0.1214809525
H  H38  1  0.81044000  0.64488000  0.36879000  1.0 0.1214809525
H  H39  1  0.24106000  0.88202000  0.40569000  1.0 0.1377008888
H  H40  1  0.22591000  0.69981000  0.28774000  1.0 0.1278669495
H  H41  1  0.02240000  0.68886000  0.21020000  1.0 0.1214809525
H  H42  1  0.95439000  0.69429000  0.33017000  1.0 0.0895529757
H  H43  1  0.01100000  0.81928000  0.01759000  1.0 0.1214809525
H  H44  1  0.98466000  0.90608000  0.05373000  1.0 0.1115314484
H  H45  1  0.71543000  0.65455000  0.14908000  1.0 0.1115314484
H  H46  1  0.74193000  0.56719000  0.11611000  1.0 0.1214809525
H  H47  1  0.90023000  0.55447000  0.74445000  1.0 0.4244791339
H  H48  1  0.89762000  0.59340000  0.82290000  1.0 0.372486874
H  H49  1  0.97127000  0.98175000  0.14165000  1.0 0.1115314484
H  H50  1  0.93611000  0.06223000  0.16997000  1.0 0.1214809525
H  H51  1  0.67780000  0.72832000  0.10238000  1.0 0.1214809525
H  H52  1  0.64488000  0.81044000  0.13121000  1.0 0.1214809525
H  H53  1  0.88202000  0.24106000  0.09431000  1.0 0.1377008888
H  H54  1  0.69981000  0.22591000  0.21226000  1.0 0.1278669495
H  H55  1  0.68886000  0.02240000  0.28980000  1.0 0.1214809525
H  H56  1  0.69429000  0.95439000  0.16983000  1.0 0.0895529757
C  C1  1  0.37701000  0.11219000  0.52980000  1.0 0.5591290663
C  C2  1  0.31736000  0.12364000  0.55900000  1.0 -0.0201623943
C  C3  1  0.21460000  0.04900000  0.54290000  1.0 -0.0923125097
C  C4  1  0.16270000  0.06530000  0.56530000  1.0 -0.1612435566
C  C5  1  0.20981000  0.15259000  0.60380000  1.0 0.0679247747
C  C6  1  0.31180000  0.22520000  0.62240000  1.0 -0.1665671696
C  C7  1  0.36460000  0.20960000  0.60130000  1.0 -0.0923125097
C  C8  1  0.15498000  0.17322000  0.62100000  1.0 0.0679247747
C  C9  1  0.05320000  0.09460000  0.64010000  1.0 -0.1479923394
C  C10  1  0.00530000  0.11610000  0.65660000  1.0 -0.122211617
C  C11  1  0.20440000  0.26960000  0.61670000  1.0 -0.1479923394
C  C12  1  0.15490000  0.28930000  0.63350000  1.0 -0.1449882765
C  C13  1  0.05460000  0.21240000  0.65380000  1.0 0.0607397636
C  C14  1  0.93038000  0.39522000  0.83470000  1.0 0.6407231461
C  C15  1  0.66411000  0.16129000  0.58550000  1.0 0.6265073489
C  C16  1  0.79088000  0.16872000  0.63590000  1.0 -0.1612435566
C  C17  1  0.75431000  0.20389000  0.64520000  1.0 -0.0201623943
C  C18  1  0.79943000  0.27737000  0.70760000  1.0 -0.1107222219
C  C19  1  0.88292000  0.31808000  0.76380000  1.0 -0.0201623943
C  C20  1  0.92118000  0.28382000  0.75340000  1.0 -0.1838933905
C  C21  1  0.87672000  0.21088000  0.69020000  1.0 0.1923292126
C  C22  1  0.00580000  0.23840000  0.66810000  1.0 0.0607397636
C  C23  1  0.11219000  0.37701000  0.97020000  1.0 0.5591290663
C  C24  1  0.12364000  0.31736000  0.94100000  1.0 -0.0253017102
C  C25  1  0.04900000  0.21460000  0.95710000  1.0 -0.0923125097
C  C26  1  0.06530000  0.16270000  0.93470000  1.0 -0.1612435566
C  C27  1  0.15259000  0.20981000  0.89620000  1.0 0.0679247747
C  C28  1  0.22520000  0.31180000  0.87760000  1.0 -0.1665671696
C  C29  1  0.20960000  0.36460000  0.89870000  1.0 -0.0923125097
C  C30  1  0.17322000  0.15498000  0.87900000  1.0 0.0679247747
C  C31  1  0.09460000  0.05320000  0.85990000  1.0 -0.1479923394
C  C32  1  0.11610000  0.00530000  0.84340000  1.0 -0.122211617
C  C33  1  0.26960000  0.20440000  0.88330000  1.0 -0.1479923394
C  C34  1  0.28930000  0.15490000  0.86650000  1.0 -0.1449882765
C  C35  1  0.21240000  0.05460000  0.84620000  1.0 0.0607397636
C  C36  1  0.39522000  0.93038000  0.66530000  1.0 0.6407231461
C  C37  1  0.16129000  0.66411000  0.91450000  1.0 0.6265073489
C  C38  1  0.16872000  0.79088000  0.86410000  1.0 -0.1612435566
C  C39  1  0.20389000  0.75431000  0.85480000  1.0 -0.0201623943
C  C40  1  0.27737000  0.79943000  0.79240000  1.0 -0.1107222219
C  C41  1  0.31808000  0.88292000  0.73620000  1.0 -0.0201623943
C  C42  1  0.28382000  0.92118000  0.74660000  1.0 -0.1838933905
C  C43  1  0.21088000  0.87672000  0.80980000  1.0 0.1923292126
C  C44  1  0.23840000  0.00580000  0.83190000  1.0 0.0607397636
C  C45  1  0.62299000  0.88781000  0.47020000  1.0 0.5591290663
C  C46  1  0.68264000  0.87636000  0.44100000  1.0 -0.0201623943
C  C47  1  0.78540000  0.95100000  0.45710000  1.0 -0.0923125097
C  C48  1  0.83730000  0.93470000  0.43470000  1.0 -0.1612435566
C  C49  1  0.79019000  0.84741000  0.39620000  1.0 0.0679247747
C  C50  1  0.68820000  0.77480000  0.37760000  1.0 -0.1665671696
C  C51  1  0.63540000  0.79040000  0.39870000  1.0 -0.0923125097
C  C52  1  0.84502000  0.82678000  0.37900000  1.0 0.0679247747
C  C53  1  0.94680000  0.90540000  0.35990000  1.0 -0.1479923394
C  C54  1  0.99470000  0.88390000  0.34340000  1.0 -0.122211617
C  C55  1  0.79560000  0.73040000  0.38330000  1.0 -0.1479923394
C  C56  1  0.84510000  0.71070000  0.36650000  1.0 -0.1449882765
C  C57  1  0.94540000  0.78760000  0.34620000  1.0 0.0607397636
C  C58  1  0.06962000  0.60478000  0.16530000  1.0 0.6407231461
C  C59  1  0.33589000  0.83871000  0.41450000  1.0 0.6265073489
C  C60  1  0.20912000  0.83128000  0.36410000  1.0 -0.1612435566
C  C61  1  0.24569000  0.79611000  0.35480000  1.0 -0.0201623943
C  C62  1  0.20057000  0.72263000  0.29240000  1.0 -0.1107222219
C  C63  1  0.11708000  0.68192000  0.23620000  1.0 -0.0201623943
C  C64  1  0.07882000  0.71618000  0.24660000  1.0 -0.1838933905
C  C65  1  0.12328000  0.78912000  0.30980000  1.0 0.1923292126
C  C66  1  0.99420000  0.76160000  0.33190000  1.0 0.0607397636
C  C67  1  0.88781000  0.62299000  0.02980000  1.0 0.5591290663
C  C68  1  0.87636000  0.68264000  0.05900000  1.0 -0.0201623943
C  C69  1  0.95100000  0.78540000  0.04290000  1.0 -0.0923125097
C  C70  1  0.93470000  0.83730000  0.06530000  1.0 -0.1612435566
C  C71  1  0.84741000  0.79019000  0.10380000  1.0 0.0679247747
C  C72  1  0.77480000  0.68820000  0.12240000  1.0 -0.1665671696
C  C73  1  0.79040000  0.63540000  0.10130000  1.0 -0.0923125097
C  C74  1  0.82678000  0.84502000  0.12100000  1.0 0.0679247747
C  C75  1  0.90540000  0.94680000  0.14010000  1.0 -0.1479923394
C  C76  1  0.88390000  0.99470000  0.15660000  1.0 -0.122211617
C  C77  1  0.73040000  0.79560000  0.11670000  1.0 -0.1479923394
C  C78  1  0.71070000  0.84510000  0.13350000  1.0 -0.1449882765
C  C79  1  0.78760000  0.94540000  0.15380000  1.0 0.0607397636
C  C80  1  0.60478000  0.06962000  0.33470000  1.0 0.6407231461
C  C81  1  0.83871000  0.33589000  0.08550000  1.0 0.6265073489
C  C82  1  0.83128000  0.20912000  0.13590000  1.0 -0.1612435566
C  C83  1  0.79611000  0.24569000  0.14520000  1.0 -0.0201623943
C  C84  1  0.72263000  0.20057000  0.20760000  1.0 -0.1107222219
C  C85  1  0.68192000  0.11708000  0.26380000  1.0 -0.0201623943
C  C86  1  0.71618000  0.07882000  0.25340000  1.0 -0.1838933905
C  C87  1  0.78912000  0.12328000  0.19020000  1.0 0.1923292126
C  C88  1  0.76160000  0.99420000  0.16810000  1.0 0.0607397636
N  N1  1  0.91268000  0.17432000  0.67810000  1.0 -0.2819494833
N  N2  1  0.17432000  0.91268000  0.82190000  1.0 -0.2819494833
N  N3  1  0.08732000  0.82568000  0.32190000  1.0 -0.2819494833
N  N4  1  0.82568000  0.08732000  0.17810000  1.0 -0.2819494833
O  O1  1  0.33404000  0.03776000  0.48340000  1.0 -0.6311785509
O  O2  1  0.46847000  0.17833000  0.55200000  1.0 -0.6231351723
O  O3  1  0.64872000  0.21088000  0.57340000  1.0 -0.6066471865
O  O4  1  0.60699000  0.07801000  0.54680000  1.0 -0.7392747183
O  O5  1  0.88828000  0.41652000  0.84740000  1.0 -0.6630234648
O  O6  1  0.01225000  0.43535000  0.87560000  1.0 -0.6630234648
O  O7  1  0.41468000  0.06732000  0.30660000  1.0 -0.7757330467
O  O8  1  0.03776000  0.33404000  0.01660000  1.0 -0.6311785509
O  O9  1  0.17833000  0.46847000  0.94800000  1.0 -0.6231351723
O  O10  1  0.21088000  0.64872000  0.92660000  1.0 -0.6066471865
O  O11  1  0.07801000  0.60699000  0.95320000  1.0 -0.7392747183
O  O12  1  0.41652000  0.88828000  0.65260000  1.0 -0.6630234648
O  O13  1  0.43535000  0.01225000  0.62440000  1.0 -0.6630234648
O  O14  1  0.06732000  0.41468000  0.19340000  1.0 -0.7757330467
O  O15  1  0.66596000  0.96224000  0.51660000  1.0 -0.6311785509
O  O16  1  0.53153000  0.82167000  0.44800000  1.0 -0.6231351723
O  O17  1  0.35128000  0.78912000  0.42660000  1.0 -0.6066471865
O  O18  1  0.39301000  0.92199000  0.45320000  1.0 -0.7392747183
O  O19  1  0.11172000  0.58348000  0.15260000  1.0 -0.6630234648
O  O20  1  0.98775000  0.56465000  0.12440000  1.0 -0.6630234648
O  O21  1  0.58532000  0.93268000  0.69340000  1.0 -0.7757330467
O  O22  1  0.96224000  0.66596000  0.98340000  1.0 -0.6311785509
O  O23  1  0.82167000  0.53153000  0.05200000  1.0 -0.6231351723
O  O24  1  0.78912000  0.35128000  0.07340000  1.0 -0.6066471865
O  O25  1  0.92199000  0.39301000  0.04680000  1.0 -0.7392747183
O  O26  1  0.58348000  0.11172000  0.34740000  1.0 -0.6630234648
O  O27  1  0.56465000  0.98775000  0.37560000  1.0 -0.6630234648
O  O28  1  0.93268000  0.58532000  0.80660000  1.0 -0.7757330467
