# DDEC6 charges by PACMAN v1.1 (https://github.com/mtap-research/PACMAN-charge/)
data_XAHPAB_ASR_pacman
_symmetry_space_group_name_H-M   'P 1'
_cell_length_a   20.47440000
_cell_length_b   20.47440000
_cell_length_c   14.03500000
_cell_angle_alpha   84.87080000
_cell_angle_beta   95.12920000
_cell_angle_gamma   139.39600000
_symmetry_Int_Tables_number   1
_chemical_formula_structural   NdH12C22NO6
_chemical_formula_sum   'Nd4 H48 C88 N4 O24'
_cell_volume   3811.69675960
_cell_formula_units_Z   4
loop_
 _symmetry_equiv_pos_site_id
 _symmetry_equiv_pos_as_xyz
  1  'x, y, z'
loop_
 _atom_site_type_symbol
 _atom_site_label
 _atom_site_symmetry_multiplicity
 _atom_site_fract_x
 _atom_site_fract_y
 _atom_site_fract_z
 _atom_site_occupancy
 _atom_site_charge
Nd  Nd1  1  0.50365000  0.90327000  0.52934000  1.0 2.1107732288
Nd  Nd2  1  0.90327000  0.50365000  0.97066000  1.0 2.1107732288
Nd  Nd3  1  0.49635000  0.09673000  0.47066000  1.0 2.1107732288
Nd  Nd4  1  0.09673000  0.49635000  0.02934000  1.0 2.1107732288
H  H1  1  0.88395000  0.24097000  0.09448000  1.0 0.140685965
H  H2  1  0.70028000  0.22416000  0.21451000  1.0 0.1300465993
H  H3  1  0.68844000  0.02134000  0.29054000  1.0 0.1300465993
H  H4  1  0.69437000  0.95411000  0.16902000  1.0 0.0952421135
H  H5  1  0.64041000  0.80619000  0.12993000  1.0 0.1211545154
H  H6  1  0.67018000  0.72120000  0.10527000  1.0 0.1211545154
H  H7  1  0.96650000  0.97592000  0.14358000  1.0 0.1093471765
H  H8  1  0.93561000  0.06005000  0.16907000  1.0 0.1211545154
H  H9  1  0.70759000  0.64627000  0.15019000  1.0 0.1093471765
H  H10  1  0.73247000  0.55891000  0.11534000  1.0 0.1211545154
H  H11  1  0.00449000  0.81283000  0.01945000  1.0 0.1211545154
H  H12  1  0.98217000  0.90219000  0.05783000  1.0 0.1093471765
H  H13  1  0.24097000  0.88395000  0.40552000  1.0 0.140685965
H  H14  1  0.22416000  0.70028000  0.28549000  1.0 0.1300465993
H  H15  1  0.02134000  0.68844000  0.20946000  1.0 0.1300465993
H  H16  1  0.95411000  0.69437000  0.33098000  1.0 0.0952421135
H  H17  1  0.80619000  0.64041000  0.37007000  1.0 0.1211545154
H  H18  1  0.72120000  0.67018000  0.39473000  1.0 0.1211545154
H  H19  1  0.97592000  0.96650000  0.35642000  1.0 0.1093471765
H  H20  1  0.06005000  0.93561000  0.33093000  1.0 0.1211545154
H  H21  1  0.64627000  0.70759000  0.34981000  1.0 0.1093471765
H  H22  1  0.55891000  0.73247000  0.38466000  1.0 0.1211545154
H  H23  1  0.81283000  0.00449000  0.48055000  1.0 0.1211545154
H  H24  1  0.90219000  0.98217000  0.44217000  1.0 0.1093471765
H  H25  1  0.11605000  0.75903000  0.90552000  1.0 0.140685965
H  H26  1  0.29972000  0.77584000  0.78549000  1.0 0.1300465993
H  H27  1  0.31156000  0.97866000  0.70946000  1.0 0.1300465993
H  H28  1  0.30563000  0.04589000  0.83098000  1.0 0.0952421135
H  H29  1  0.35959000  0.19381000  0.87007000  1.0 0.1211545154
H  H30  1  0.32982000  0.27880000  0.89473000  1.0 0.1211545154
H  H31  1  0.03350000  0.02408000  0.85642000  1.0 0.1093471765
H  H32  1  0.06439000  0.93995000  0.83093000  1.0 0.1211545154
H  H33  1  0.29241000  0.35373000  0.84981000  1.0 0.1093471765
H  H34  1  0.26753000  0.44109000  0.88466000  1.0 0.1211545154
H  H35  1  0.99551000  0.18717000  0.98055000  1.0 0.1211545154
H  H36  1  0.01783000  0.09781000  0.94217000  1.0 0.1093471765
H  H37  1  0.75903000  0.11605000  0.59448000  1.0 0.140685965
H  H38  1  0.77584000  0.29972000  0.71451000  1.0 0.1300465993
H  H39  1  0.97866000  0.31156000  0.79054000  1.0 0.1300465993
H  H40  1  0.04589000  0.30563000  0.66902000  1.0 0.0952421135
H  H41  1  0.19381000  0.35959000  0.62993000  1.0 0.1211545154
H  H42  1  0.27880000  0.32982000  0.60527000  1.0 0.1211545154
H  H43  1  0.02408000  0.03350000  0.64358000  1.0 0.1093471765
H  H44  1  0.93995000  0.06439000  0.66907000  1.0 0.1211545154
H  H45  1  0.35373000  0.29241000  0.65019000  1.0 0.1093471765
H  H46  1  0.44109000  0.26753000  0.61534000  1.0 0.1211545154
H  H47  1  0.18717000  0.99551000  0.51945000  1.0 0.1211545154
H  H48  1  0.09781000  0.01783000  0.55783000  1.0 0.1093471765
C  C1  1  0.79018000  0.12302000  0.18860000  1.0 0.202868276
C  C2  1  0.83252000  0.20848000  0.13590000  1.0 -0.167312871
C  C3  1  0.79779000  0.24501000  0.14520000  1.0 -0.0111749882
C  C4  1  0.72307000  0.19913000  0.20870000  1.0 -0.0965219245
C  C5  1  0.68257000  0.11563000  0.26340000  1.0 -0.0111749882
C  C6  1  0.71571000  0.07729000  0.25380000  1.0 -0.1817269952
C  C7  1  0.83883000  0.33417000  0.08570000  1.0 0.6278771392
C  C8  1  0.60403000  0.06737000  0.33460000  1.0 0.6519772641
C  C9  1  0.76163000  0.99337000  0.16740000  1.0 0.0622411805
C  C10  1  0.78490000  0.94250000  0.15340000  1.0 0.0622411805
C  C11  1  0.70607000  0.84033000  0.13330000  1.0 -0.1506334375
C  C12  1  0.72382000  0.78918000  0.11830000  1.0 -0.1506334375
C  C13  1  0.82198000  0.83882000  0.12240000  1.0 0.0622411805
C  C14  1  0.90071000  0.94129000  0.14130000  1.0 -0.1506334375
C  C15  1  0.88208000  0.99192000  0.15650000  1.0 -0.127015061
C  C16  1  0.84041000  0.78339000  0.10530000  1.0 0.0622411805
C  C17  1  0.76742000  0.68038000  0.12340000  1.0 -0.167312871
C  C18  1  0.78225000  0.62775000  0.10230000  1.0 -0.0944593915
C  C19  1  0.86952000  0.67568000  0.06220000  1.0 -0.0289873176
C  C20  1  0.94468000  0.77932000  0.04560000  1.0 -0.0944593915
C  C21  1  0.93092000  0.83288000  0.06790000  1.0 -0.167312871
C  C22  1  0.88157000  0.61703000  0.03250000  1.0 0.5691985569
C  C23  1  0.12302000  0.79018000  0.31140000  1.0 0.202868276
C  C24  1  0.20848000  0.83252000  0.36410000  1.0 -0.167312871
C  C25  1  0.24501000  0.79779000  0.35480000  1.0 -0.0111749882
C  C26  1  0.19913000  0.72307000  0.29130000  1.0 -0.0965219245
C  C27  1  0.11563000  0.68257000  0.23660000  1.0 -0.0111749882
C  C28  1  0.07729000  0.71571000  0.24620000  1.0 -0.1817269952
C  C29  1  0.33417000  0.83883000  0.41430000  1.0 0.6278771392
C  C30  1  0.06737000  0.60403000  0.16540000  1.0 0.6519772641
C  C31  1  0.99337000  0.76163000  0.33260000  1.0 0.0622411805
C  C32  1  0.94250000  0.78490000  0.34660000  1.0 0.0622411805
C  C33  1  0.84033000  0.70607000  0.36670000  1.0 -0.1506334375
C  C34  1  0.78918000  0.72382000  0.38170000  1.0 -0.1506334375
C  C35  1  0.83882000  0.82198000  0.37760000  1.0 0.0622411805
C  C36  1  0.94129000  0.90071000  0.35870000  1.0 -0.1506334375
C  C37  1  0.99192000  0.88208000  0.34350000  1.0 -0.127015061
C  C38  1  0.78339000  0.84041000  0.39470000  1.0 0.0622411805
C  C39  1  0.68038000  0.76742000  0.37660000  1.0 -0.167312871
C  C40  1  0.62775000  0.78225000  0.39770000  1.0 -0.0944593915
C  C41  1  0.67568000  0.86952000  0.43780000  1.0 -0.0289873176
C  C42  1  0.77932000  0.94468000  0.45440000  1.0 -0.0944593915
C  C43  1  0.83288000  0.93092000  0.43210000  1.0 -0.167312871
C  C44  1  0.61703000  0.88157000  0.46750000  1.0 0.5691985569
C  C45  1  0.20982000  0.87698000  0.81140000  1.0 0.202868276
C  C46  1  0.16748000  0.79152000  0.86410000  1.0 -0.167312871
C  C47  1  0.20221000  0.75499000  0.85480000  1.0 -0.0111749882
C  C48  1  0.27693000  0.80087000  0.79130000  1.0 -0.0965219245
C  C49  1  0.31743000  0.88437000  0.73660000  1.0 -0.0111749882
C  C50  1  0.28429000  0.92271000  0.74620000  1.0 -0.1817269952
C  C51  1  0.16117000  0.66583000  0.91430000  1.0 0.6278771392
C  C52  1  0.39597000  0.93263000  0.66540000  1.0 0.6519772641
C  C53  1  0.23837000  0.00663000  0.83260000  1.0 0.0622411805
C  C54  1  0.21510000  0.05750000  0.84660000  1.0 0.0622411805
C  C55  1  0.29393000  0.15967000  0.86670000  1.0 -0.1506334375
C  C56  1  0.27618000  0.21082000  0.88170000  1.0 -0.1506334375
C  C57  1  0.17802000  0.16118000  0.87760000  1.0 0.0622411805
C  C58  1  0.09929000  0.05871000  0.85870000  1.0 -0.1506334375
C  C59  1  0.11792000  0.00808000  0.84350000  1.0 -0.127015061
C  C60  1  0.15959000  0.21661000  0.89470000  1.0 0.0622411805
C  C61  1  0.23258000  0.31962000  0.87660000  1.0 -0.167312871
C  C62  1  0.21775000  0.37225000  0.89770000  1.0 -0.0944593915
C  C63  1  0.13048000  0.32432000  0.93780000  1.0 -0.0289873176
C  C64  1  0.05532000  0.22068000  0.95440000  1.0 -0.0944593915
C  C65  1  0.06908000  0.16712000  0.93210000  1.0 -0.167312871
C  C66  1  0.11843000  0.38297000  0.96750000  1.0 0.5691985569
C  C67  1  0.87698000  0.20982000  0.68860000  1.0 0.202868276
C  C68  1  0.79152000  0.16748000  0.63590000  1.0 -0.167312871
C  C69  1  0.75499000  0.20221000  0.64520000  1.0 -0.0111749882
C  C70  1  0.80087000  0.27693000  0.70870000  1.0 -0.0965219245
C  C71  1  0.88437000  0.31743000  0.76340000  1.0 -0.0111749882
C  C72  1  0.92271000  0.28429000  0.75380000  1.0 -0.1817269952
C  C73  1  0.66583000  0.16117000  0.58570000  1.0 0.6278771392
C  C74  1  0.93263000  0.39597000  0.83460000  1.0 0.6519772641
C  C75  1  0.00663000  0.23837000  0.66740000  1.0 0.0622411805
C  C76  1  0.05750000  0.21510000  0.65340000  1.0 0.0622411805
C  C77  1  0.15967000  0.29393000  0.63330000  1.0 -0.1506334375
C  C78  1  0.21082000  0.27618000  0.61830000  1.0 -0.1506334375
C  C79  1  0.16118000  0.17802000  0.62240000  1.0 0.0622411805
C  C80  1  0.05871000  0.09929000  0.64130000  1.0 -0.1506334375
C  C81  1  0.00808000  0.11792000  0.65650000  1.0 -0.127015061
C  C82  1  0.21661000  0.15959000  0.60530000  1.0 0.0622411805
C  C83  1  0.31962000  0.23258000  0.62340000  1.0 -0.167312871
C  C84  1  0.37225000  0.21775000  0.60230000  1.0 -0.0944593915
C  C85  1  0.32432000  0.13048000  0.56220000  1.0 -0.0289873176
C  C86  1  0.22068000  0.05532000  0.54560000  1.0 -0.0944593915
C  C87  1  0.16712000  0.06908000  0.56790000  1.0 -0.167312871
C  C88  1  0.38297000  0.11843000  0.53250000  1.0 0.5691985569
N  N1  1  0.82632000  0.08648000  0.17730000  1.0 -0.2719005116
N  N2  1  0.08648000  0.82632000  0.32270000  1.0 -0.2719005116
N  N3  1  0.17368000  0.91352000  0.82270000  1.0 -0.2719005116
N  N4  1  0.91352000  0.17368000  0.67730000  1.0 -0.2719005116
O  O1  1  0.56386000  0.98614000  0.37510000  1.0 -0.6561397978
O  O2  1  0.58431000  0.11029000  0.34910000  1.0 -0.6671365865
O  O3  1  0.78960000  0.34900000  0.07480000  1.0 -0.5955956497
O  O4  1  0.92357000  0.39295000  0.04690000  1.0 -0.7680970647
O  O5  1  0.95765000  0.66115000  0.98600000  1.0 -0.6459052481
O  O6  1  0.81540000  0.52380000  0.05360000  1.0 -0.6373607286
O  O7  1  0.98614000  0.56386000  0.12490000  1.0 -0.6561397978
O  O8  1  0.11029000  0.58431000  0.15090000  1.0 -0.6671365865
O  O9  1  0.34900000  0.78960000  0.42520000  1.0 -0.5955956497
O  O10  1  0.39295000  0.92357000  0.45310000  1.0 -0.7680970647
O  O11  1  0.66115000  0.95765000  0.51400000  1.0 -0.6459052481
O  O12  1  0.52380000  0.81540000  0.44640000  1.0 -0.6373607286
O  O13  1  0.43614000  0.01386000  0.62490000  1.0 -0.6561397978
O  O14  1  0.41569000  0.88971000  0.65090000  1.0 -0.6671365865
O  O15  1  0.21040000  0.65100000  0.92520000  1.0 -0.5955956497
O  O16  1  0.07643000  0.60705000  0.95310000  1.0 -0.7680970647
O  O17  1  0.04235000  0.33885000  0.01400000  1.0 -0.6459052481
O  O18  1  0.18460000  0.47620000  0.94640000  1.0 -0.6373607286
O  O19  1  0.01386000  0.43614000  0.87510000  1.0 -0.6561397978
O  O20  1  0.88971000  0.41569000  0.84910000  1.0 -0.6671365865
O  O21  1  0.65100000  0.21040000  0.57480000  1.0 -0.5955956497
O  O22  1  0.60705000  0.07643000  0.54690000  1.0 -0.7680970647
O  O23  1  0.33885000  0.04235000  0.48600000  1.0 -0.6459052481
O  O24  1  0.47620000  0.18460000  0.55360000  1.0 -0.6373607286
