# DDEC6 charges by PACMAN v1.1 (https://github.com/mtap-research/PACMAN-charge/)
data_XAHPIJ_ASR_pacman
_symmetry_space_group_name_H-M   'P 1'
_cell_length_a   20.34650000
_cell_length_b   20.34650000
_cell_length_c   13.99560000
_cell_angle_alpha   83.55950000
_cell_angle_beta   96.44050000
_cell_angle_gamma   138.69000000
_symmetry_Int_Tables_number   1
_chemical_formula_structural   NdH14C22NO7
_chemical_formula_sum   'Nd4 H56 C88 N4 O28'
_cell_volume   3797.16176434
_cell_formula_units_Z   4
loop_
 _symmetry_equiv_pos_site_id
 _symmetry_equiv_pos_as_xyz
  1  'x, y, z'
loop_
 _atom_site_type_symbol
 _atom_site_label
 _atom_site_symmetry_multiplicity
 _atom_site_fract_x
 _atom_site_fract_y
 _atom_site_fract_z
 _atom_site_occupancy
 _atom_site_charge
Nd  Nd1  1  0.50650000  0.90478000  0.53182000  1.0 2.0947060759
Nd  Nd2  1  0.90478000  0.50650000  0.96818000  1.0 2.0947060759
Nd  Nd3  1  0.49350000  0.09522000  0.46818000  1.0 2.0947060759
Nd  Nd4  1  0.09522000  0.49350000  0.03182000  1.0 2.0947060759
H  H1  1  0.74020000  0.56732000  0.11196000  1.0 0.1284210297
H  H2  1  0.71606000  0.65428000  0.14861000  1.0 0.1199961404
H  H3  1  0.98361000  0.90601000  0.05224000  1.0 0.1118010121
H  H4  1  0.00796000  0.81840000  0.01144000  1.0 0.1284210297
H  H5  1  0.58455000  0.92481000  0.75639000  1.0 0.3964898909
H  H6  1  0.64201000  0.96773000  0.67763000  1.0 0.3399181018
H  H7  1  0.67658000  0.72854000  0.10579000  1.0 0.1199961404
H  H8  1  0.64620000  0.81220000  0.13485000  1.0 0.1199961404
H  H9  1  0.96957000  0.97839000  0.14174000  1.0 0.1118010121
H  H10  1  0.93622000  0.06274000  0.16818000  1.0 0.1284210297
H  H11  1  0.68953000  0.02241000  0.29406000  1.0 0.1284210297
H  H12  1  0.70116000  0.22710000  0.21386000  1.0 0.1284210297
H  H13  1  0.88571000  0.24303000  0.10064000  1.0 0.1284210297
H  H14  1  0.69581000  0.95477000  0.17300000  1.0 0.0920845369
H  H15  1  0.56732000  0.74020000  0.38804000  1.0 0.1284210297
H  H16  1  0.65428000  0.71606000  0.35139000  1.0 0.1199961404
H  H17  1  0.90601000  0.98361000  0.44776000  1.0 0.1118010121
H  H18  1  0.81840000  0.00796000  0.48856000  1.0 0.1284210297
H  H19  1  0.92481000  0.58455000  0.74361000  1.0 0.3964898909
H  H20  1  0.96773000  0.64201000  0.82237000  1.0 0.3399181018
H  H21  1  0.72854000  0.67658000  0.39421000  1.0 0.1199961404
H  H22  1  0.81220000  0.64620000  0.36515000  1.0 0.1199961404
H  H23  1  0.97839000  0.96957000  0.35826000  1.0 0.1118010121
H  H24  1  0.06274000  0.93622000  0.33182000  1.0 0.1284210297
H  H25  1  0.02241000  0.68953000  0.20594000  1.0 0.1284210297
H  H26  1  0.22710000  0.70116000  0.28614000  1.0 0.1284210297
H  H27  1  0.24303000  0.88571000  0.39936000  1.0 0.1284210297
H  H28  1  0.95477000  0.69581000  0.32700000  1.0 0.0920845369
H  H29  1  0.25980000  0.43268000  0.88804000  1.0 0.1284210297
H  H30  1  0.28394000  0.34572000  0.85139000  1.0 0.1199961404
H  H31  1  0.01639000  0.09399000  0.94776000  1.0 0.1118010121
H  H32  1  0.99204000  0.18160000  0.98856000  1.0 0.1284210297
H  H33  1  0.41545000  0.07519000  0.24361000  1.0 0.394661876
H  H34  1  0.35799000  0.03227000  0.32237000  1.0 0.3399181018
H  H35  1  0.32342000  0.27146000  0.89421000  1.0 0.1199961404
H  H36  1  0.35380000  0.18780000  0.86515000  1.0 0.1199961404
H  H37  1  0.03043000  0.02161000  0.85826000  1.0 0.1118010121
H  H38  1  0.06378000  0.93726000  0.83182000  1.0 0.1284210297
H  H39  1  0.31047000  0.97759000  0.70594000  1.0 0.1284210297
H  H40  1  0.29884000  0.77290000  0.78614000  1.0 0.1284210297
H  H41  1  0.11429000  0.75697000  0.89936000  1.0 0.1284210297
H  H42  1  0.30419000  0.04523000  0.82700000  1.0 0.0920845369
H  H43  1  0.43268000  0.25980000  0.61196000  1.0 0.1284210297
H  H44  1  0.34572000  0.28394000  0.64861000  1.0 0.1199961404
H  H45  1  0.09399000  0.01639000  0.55224000  1.0 0.1118010121
H  H46  1  0.18160000  0.99204000  0.51144000  1.0 0.1284210297
H  H47  1  0.07519000  0.41545000  0.25639000  1.0 0.394661876
H  H48  1  0.03227000  0.35799000  0.17763000  1.0 0.3399181018
H  H49  1  0.27146000  0.32342000  0.60579000  1.0 0.1199961404
H  H50  1  0.18780000  0.35380000  0.63485000  1.0 0.1199961404
H  H51  1  0.02161000  0.03043000  0.64174000  1.0 0.1118010121
H  H52  1  0.93726000  0.06378000  0.66818000  1.0 0.1284210297
H  H53  1  0.97759000  0.31047000  0.79406000  1.0 0.1284210297
H  H54  1  0.77290000  0.29884000  0.71386000  1.0 0.1284210297
H  H55  1  0.75697000  0.11429000  0.60064000  1.0 0.1284210297
H  H56  1  0.04523000  0.30419000  0.67300000  1.0 0.0920845369
C  C1  1  0.87708000  0.68372000  0.05720000  1.0 -0.0209958083
C  C2  1  0.88674000  0.62266000  0.02810000  1.0 0.5614365066
C  C3  1  0.78940000  0.63580000  0.09900000  1.0 -0.0936383842
C  C4  1  0.77480000  0.68760000  0.12090000  1.0 -0.1573583459
C  C5  1  0.84560000  0.78800000  0.10260000  1.0 0.0674351006
C  C6  1  0.93400000  0.83720000  0.06300000  1.0 -0.1573583459
C  C7  1  0.94924000  0.78496000  0.03930000  1.0 -0.0936383842
C  C8  1  0.82610000  0.84330000  0.12190000  1.0 0.0674351006
C  C9  1  0.72970000  0.79570000  0.11930000  1.0 -0.1507741561
C  C10  1  0.71150000  0.84590000  0.13630000  1.0 -0.1425194977
C  C11  1  0.90410000  0.94430000  0.14020000  1.0 -0.1507741561
C  C12  1  0.88390000  0.99510000  0.15660000  1.0 -0.1211300989
C  C13  1  0.78876000  0.94544000  0.15540000  1.0 0.060360531
C  C14  1  0.83937000  0.33623000  0.08690000  1.0 0.6200846905
C  C15  1  0.60490000  0.06950000  0.33470000  1.0 0.6422847087
C  C16  1  0.71674000  0.07866000  0.25690000  1.0 -0.1830583525
C  C17  1  0.68287000  0.11753000  0.26480000  1.0 -0.0209958083
C  C18  1  0.72389000  0.20151000  0.20930000  1.0 -0.1093124704
C  C19  1  0.79866000  0.24754000  0.14700000  1.0 -0.0209958083
C  C20  1  0.83372000  0.21048000  0.14040000  1.0 -0.192682532
C  C21  1  0.79069000  0.12391000  0.19390000  1.0 0.197694766
C  C22  1  0.76291000  0.99429000  0.17120000  1.0 0.0674351006
C  C23  1  0.68372000  0.87708000  0.44280000  1.0 -0.0209958083
C  C24  1  0.62266000  0.88674000  0.47190000  1.0 0.5614365066
C  C25  1  0.63580000  0.78940000  0.40100000  1.0 -0.0936383842
C  C26  1  0.68760000  0.77480000  0.37910000  1.0 -0.1573583459
C  C27  1  0.78800000  0.84560000  0.39740000  1.0 0.0674351006
C  C28  1  0.83720000  0.93400000  0.43700000  1.0 -0.1573583459
C  C29  1  0.78496000  0.94924000  0.46070000  1.0 -0.0936383842
C  C30  1  0.84330000  0.82610000  0.37810000  1.0 0.0674351006
C  C31  1  0.79570000  0.72970000  0.38070000  1.0 -0.1507741561
C  C32  1  0.84590000  0.71150000  0.36370000  1.0 -0.1425194977
C  C33  1  0.94430000  0.90410000  0.35980000  1.0 -0.1507741561
C  C34  1  0.99510000  0.88390000  0.34340000  1.0 -0.1211300989
C  C35  1  0.94544000  0.78876000  0.34460000  1.0 0.060360531
C  C36  1  0.33623000  0.83937000  0.41310000  1.0 0.6200846905
C  C37  1  0.06950000  0.60490000  0.16530000  1.0 0.6422847087
C  C38  1  0.07866000  0.71674000  0.24310000  1.0 -0.1830583525
C  C39  1  0.11753000  0.68287000  0.23520000  1.0 -0.0209958083
C  C40  1  0.20151000  0.72389000  0.29070000  1.0 -0.1093124704
C  C41  1  0.24754000  0.79866000  0.35300000  1.0 -0.0209958083
C  C42  1  0.21048000  0.83372000  0.35960000  1.0 -0.192682532
C  C43  1  0.12391000  0.79069000  0.30610000  1.0 0.197694766
C  C44  1  0.99429000  0.76291000  0.32880000  1.0 0.0674351006
C  C45  1  0.12292000  0.31628000  0.94280000  1.0 -0.0209958083
C  C46  1  0.11326000  0.37734000  0.97190000  1.0 0.5614365066
C  C47  1  0.21060000  0.36420000  0.90100000  1.0 -0.0936383842
C  C48  1  0.22520000  0.31240000  0.87910000  1.0 -0.1573583459
C  C49  1  0.15440000  0.21200000  0.89740000  1.0 0.0674351006
C  C50  1  0.06600000  0.16280000  0.93700000  1.0 -0.1573583459
C  C51  1  0.05076000  0.21504000  0.96070000  1.0 -0.0936383842
C  C52  1  0.17390000  0.15670000  0.87810000  1.0 0.0674351006
C  C53  1  0.27030000  0.20430000  0.88070000  1.0 -0.1507741561
C  C54  1  0.28850000  0.15410000  0.86370000  1.0 -0.1425194977
C  C55  1  0.09590000  0.05570000  0.85980000  1.0 -0.1507741561
C  C56  1  0.11610000  0.00490000  0.84340000  1.0 -0.1211300989
C  C57  1  0.21124000  0.05456000  0.84460000  1.0 0.060360531
C  C58  1  0.16063000  0.66377000  0.91310000  1.0 0.6200846905
C  C59  1  0.39510000  0.93050000  0.66530000  1.0 0.6422847087
C  C60  1  0.28326000  0.92134000  0.74310000  1.0 -0.1830583525
C  C61  1  0.31713000  0.88247000  0.73520000  1.0 -0.0209958083
C  C62  1  0.27611000  0.79849000  0.79070000  1.0 -0.1093124704
C  C63  1  0.20134000  0.75246000  0.85300000  1.0 -0.0209958083
C  C64  1  0.16628000  0.78952000  0.85960000  1.0 -0.192682532
C  C65  1  0.20931000  0.87609000  0.80610000  1.0 0.197694766
C  C66  1  0.23709000  0.00571000  0.82880000  1.0 0.0674351006
C  C67  1  0.31628000  0.12292000  0.55720000  1.0 -0.0209958083
C  C68  1  0.37734000  0.11326000  0.52810000  1.0 0.5614365066
C  C69  1  0.36420000  0.21060000  0.59900000  1.0 -0.0936383842
C  C70  1  0.31240000  0.22520000  0.62090000  1.0 -0.1573583459
C  C71  1  0.21200000  0.15440000  0.60260000  1.0 0.0674351006
C  C72  1  0.16280000  0.06600000  0.56300000  1.0 -0.1573583459
C  C73  1  0.21504000  0.05076000  0.53930000  1.0 -0.0936383842
C  C74  1  0.15670000  0.17390000  0.62190000  1.0 0.0674351006
C  C75  1  0.20430000  0.27030000  0.61930000  1.0 -0.1507741561
C  C76  1  0.15410000  0.28850000  0.63630000  1.0 -0.1425194977
C  C77  1  0.05570000  0.09590000  0.64020000  1.0 -0.1507741561
C  C78  1  0.00490000  0.11610000  0.65660000  1.0 -0.1211300989
C  C79  1  0.05456000  0.21124000  0.65540000  1.0 0.060360531
C  C80  1  0.66377000  0.16063000  0.58690000  1.0 0.6200846905
C  C81  1  0.93050000  0.39510000  0.83470000  1.0 0.6422847087
C  C82  1  0.92134000  0.28326000  0.75690000  1.0 -0.1830583525
C  C83  1  0.88247000  0.31713000  0.76480000  1.0 -0.0209958083
C  C84  1  0.79849000  0.27611000  0.70930000  1.0 -0.1093124704
C  C85  1  0.75246000  0.20134000  0.64700000  1.0 -0.0209958083
C  C86  1  0.78952000  0.16628000  0.64040000  1.0 -0.192682532
C  C87  1  0.87609000  0.20931000  0.69390000  1.0 0.197694766
C  C88  1  0.00571000  0.23709000  0.67120000  1.0 0.0674351006
N  N1  1  0.82707000  0.08753000  0.18250000  1.0 -0.2875077849
N  N2  1  0.08753000  0.82707000  0.31750000  1.0 -0.2875077849
N  N3  1  0.17293000  0.91247000  0.81750000  1.0 -0.2875077849
N  N4  1  0.91247000  0.17293000  0.68250000  1.0 -0.2875077849
O  O1  1  0.82091000  0.53189000  0.04880000  1.0 -0.6093219345
O  O2  1  0.96097000  0.66583000  0.97920000  1.0 -0.6481650894
O  O3  1  0.56614000  0.98886000  0.37680000  1.0 -0.6592191433
O  O4  1  0.58350000  0.11210000  0.34750000  1.0 -0.6592191433
O  O5  1  0.79147000  0.35293000  0.07380000  1.0 -0.5870082801
O  O6  1  0.92313000  0.39327000  0.04830000  1.0 -0.754493398
O  O7  1  0.58223000  0.92657000  0.69480000  1.0 -0.7404008036
O  O8  1  0.53189000  0.82091000  0.45120000  1.0 -0.6093219345
O  O9  1  0.66583000  0.96097000  0.52080000  1.0 -0.6481650894
O  O10  1  0.98886000  0.56614000  0.12320000  1.0 -0.6592191433
O  O11  1  0.11210000  0.58350000  0.15250000  1.0 -0.6592191433
O  O12  1  0.35293000  0.79147000  0.42620000  1.0 -0.5870082801
O  O13  1  0.39327000  0.92313000  0.45170000  1.0 -0.754493398
O  O14  1  0.92657000  0.58223000  0.80520000  1.0 -0.7404008036
O  O15  1  0.17909000  0.46811000  0.95120000  1.0 -0.6093219345
O  O16  1  0.03903000  0.33417000  0.02080000  1.0 -0.6481650894
O  O17  1  0.43386000  0.01114000  0.62320000  1.0 -0.6592191433
O  O18  1  0.41650000  0.88790000  0.65250000  1.0 -0.6592191433
O  O19  1  0.20853000  0.64707000  0.92620000  1.0 -0.5870082801
O  O20  1  0.07687000  0.60673000  0.95170000  1.0 -0.754493398
O  O21  1  0.41777000  0.07343000  0.30520000  1.0 -0.7404008036
O  O22  1  0.46811000  0.17909000  0.54880000  1.0 -0.6093219345
O  O23  1  0.33417000  0.03903000  0.47920000  1.0 -0.6481650894
O  O24  1  0.01114000  0.43386000  0.87680000  1.0 -0.6592191433
O  O25  1  0.88790000  0.41650000  0.84750000  1.0 -0.6592191433
O  O26  1  0.64707000  0.20853000  0.57380000  1.0 -0.5870082801
O  O27  1  0.60673000  0.07687000  0.54830000  1.0 -0.754493398
O  O28  1  0.07343000  0.41777000  0.19480000  1.0 -0.7404008036
