# DDEC6 charges by PACMAN v1.1 (https://github.com/mtap-research/PACMAN-charge/)
data_XAHPUV_ASR_pacman
_symmetry_space_group_name_H-M   'P 1'
_cell_length_a   23.12050000
_cell_length_b   23.12050000
_cell_length_c   24.30810000
_cell_angle_alpha   68.97010000
_cell_angle_beta   111.03000000
_cell_angle_gamma   133.54600000
_symmetry_Int_Tables_number   1
_chemical_formula_structural   Cd3H40C60(NO6)2
_chemical_formula_sum   'Cd12 H160 C240 N8 O48'
_cell_volume   8670.56792822
_cell_formula_units_Z   4
loop_
 _symmetry_equiv_pos_site_id
 _symmetry_equiv_pos_as_xyz
  1  'x, y, z'
loop_
 _atom_site_type_symbol
 _atom_site_label
 _atom_site_symmetry_multiplicity
 _atom_site_fract_x
 _atom_site_fract_y
 _atom_site_fract_z
 _atom_site_occupancy
 _atom_site_charge
Cd  Cd1  1  0.82481000  0.43201000  0.68541000  1.0 0.9917236638
Cd  Cd2  1  0.10386000  0.66770000  0.31932000  1.0 1.0114383471
Cd  Cd3  1  0.75214000  0.36816000  0.55023000  1.0 1.0495142412
Cd  Cd4  1  0.43201000  0.82481000  0.81459000  1.0 0.9917236638
Cd  Cd5  1  0.66770000  0.10386000  0.18068000  1.0 1.0114383471
Cd  Cd6  1  0.36816000  0.75214000  0.94977000  1.0 1.0495142412
Cd  Cd7  1  0.17519000  0.56799000  0.31459000  1.0 0.9917236638
Cd  Cd8  1  0.89614000  0.33230000  0.68068000  1.0 1.0114383471
Cd  Cd9  1  0.24786000  0.63184000  0.44977000  1.0 1.0495142412
Cd  Cd10  1  0.56799000  0.17519000  0.18541000  1.0 0.9917236638
Cd  Cd11  1  0.33230000  0.89614000  0.81932000  1.0 1.0114383471
Cd  Cd12  1  0.63184000  0.24786000  0.05023000  1.0 1.0495142412
H  H1  1  0.93442000  0.44534000  0.45046000  1.0 0.1294717413
H  H2  1  0.36490000  0.90886000  0.26254000  1.0 0.1294717413
H  H3  1  0.08262000  0.40252000  0.47048000  1.0 0.117412201
H  H4  1  0.37155000  0.72959000  0.35160000  1.0 0.1141088646
H  H5  1  0.57168000  0.94816000  0.29681000  1.0 0.1294717413
H  H6  1  0.91983000  0.27055000  0.57985000  1.0 0.1352669668
H  H7  1  0.09146000  0.01290000  0.72032000  1.0 0.0795528121
H  H8  1  0.14073000  0.94449000  0.77471000  1.0 0.1002701573
H  H9  1  0.33133000  0.10643000  0.69369000  1.0 0.1002701573
H  H10  1  0.28900000  0.18126000  0.64611000  1.0 0.0894401036
H  H11  1  0.09166000  0.31570000  0.51189000  1.0 0.0894401036
H  H12  1  0.05865000  0.19593000  0.65613000  1.0 0.0618296362
H  H13  1  0.09885000  0.11957000  0.70402000  1.0 0.0618296362
H  H14  1  0.18854000  0.18124000  0.56255000  1.0 0.0618296362
H  H15  1  0.13643000  0.24311000  0.51047000  1.0 0.0894401036
H  H16  1  0.64059000  0.45555000  0.48799000  1.0 0.1002701573
H  H17  1  0.58792000  0.51704000  0.43051000  1.0 0.0894401036
H  H18  1  0.68492000  0.64200000  0.56243000  1.0 0.0694574599
H  H19  1  0.74390000  0.58410000  0.61766000  1.0 0.0894401036
H  H20  1  0.44078000  0.70658000  0.32860000  1.0 0.0894401036
H  H21  1  0.50499000  0.54239000  0.40010000  1.0 0.1002701573
H  H22  1  0.44951000  0.60441000  0.34310000  1.0 0.1141088646
H  H23  1  0.61901000  0.78657000  0.44126000  1.0 0.0795528121
H  H24  1  0.67383000  0.72521000  0.49572000  1.0 0.0694574599
H  H25  1  0.17044000  0.08306000  0.75061000  1.0 0.0618296362
H  H26  1  0.22701000  0.02801000  0.79816000  1.0 0.0894401036
H  H27  1  0.26358000  0.03990000  0.64741000  1.0 0.1002701573
H  H28  1  0.20203000  0.09795000  0.59865000  1.0 0.0894401036
H  H29  1  0.01366000  0.15674000  0.62392000  1.0 0.0795528121
H  H30  1  0.05887000  0.08437000  0.67764000  1.0 0.0795528121
H  H31  1  0.24917000  0.24177000  0.59626000  1.0 0.0694574599
H  H32  1  0.20309000  0.31131000  0.54349000  1.0 0.0894401036
H  H33  1  0.61168000  0.42256000  0.50705000  1.0 0.0795528121
H  H34  1  0.55714000  0.49040000  0.44593000  1.0 0.0894401036
H  H35  1  0.71775000  0.66651000  0.53741000  1.0 0.0894401036
H  H36  1  0.76820000  0.60352000  0.59513000  1.0 0.0894401036
H  H37  1  0.48902000  0.52496000  0.42026000  1.0 0.0894401036
H  H38  1  0.43813000  0.58931000  0.36142000  1.0 0.117412201
H  H39  1  0.63165000  0.79363000  0.41532000  1.0 0.0795528121
H  H40  1  0.68816000  0.73254000  0.46802000  1.0 0.0795528121
H  H41  1  0.44534000  0.93442000  0.04954000  1.0 0.1294717413
H  H42  1  0.90886000  0.36490000  0.23746000  1.0 0.1294717413
H  H43  1  0.40252000  0.08262000  0.02952000  1.0 0.117412201
H  H44  1  0.72959000  0.37155000  0.14840000  1.0 0.117412201
H  H45  1  0.94816000  0.57168000  0.20319000  1.0 0.1294717413
H  H46  1  0.27055000  0.91983000  0.92015000  1.0 0.1352669668
H  H47  1  0.01290000  0.09146000  0.77968000  1.0 0.0795528121
H  H48  1  0.94449000  0.14073000  0.72529000  1.0 0.1002701573
H  H49  1  0.10643000  0.33133000  0.80631000  1.0 0.1002701573
H  H50  1  0.18126000  0.28900000  0.85389000  1.0 0.0894401036
H  H51  1  0.31570000  0.09166000  0.98811000  1.0 0.0894401036
H  H52  1  0.19593000  0.05865000  0.84387000  1.0 0.0618296362
H  H53  1  0.11957000  0.09885000  0.79598000  1.0 0.0618296362
H  H54  1  0.18124000  0.18854000  0.93745000  1.0 0.0694574599
H  H55  1  0.24311000  0.13643000  0.98953000  1.0 0.0894401036
H  H56  1  0.45555000  0.64059000  0.01201000  1.0 0.1002701573
H  H57  1  0.51704000  0.58792000  0.06949000  1.0 0.0894401036
H  H58  1  0.64200000  0.68492000  0.93757000  1.0 0.0694574599
H  H59  1  0.58410000  0.74390000  0.88234000  1.0 0.0894401036
H  H60  1  0.70658000  0.44078000  0.17140000  1.0 0.0894401036
H  H61  1  0.54239000  0.50499000  0.09990000  1.0 0.1002701573
H  H62  1  0.60441000  0.44951000  0.15690000  1.0 0.1141088646
H  H63  1  0.78657000  0.61901000  0.05874000  1.0 0.0795528121
H  H64  1  0.72521000  0.67383000  0.00428000  1.0 0.0694574599
H  H65  1  0.08306000  0.17044000  0.74939000  1.0 0.0618296362
H  H66  1  0.02801000  0.22701000  0.70184000  1.0 0.0894401036
H  H67  1  0.03990000  0.26358000  0.85259000  1.0 0.1002701573
H  H68  1  0.09795000  0.20203000  0.90135000  1.0 0.0894401036
H  H69  1  0.15674000  0.01366000  0.87608000  1.0 0.0795528121
H  H70  1  0.08437000  0.05887000  0.82236000  1.0 0.0795528121
H  H71  1  0.24177000  0.24917000  0.90374000  1.0 0.0694574599
H  H72  1  0.31131000  0.20309000  0.95651000  1.0 0.0894401036
H  H73  1  0.42256000  0.61168000  0.99295000  1.0 0.0894401036
H  H74  1  0.49040000  0.55714000  0.05407000  1.0 0.0894401036
H  H75  1  0.66651000  0.71775000  0.96259000  1.0 0.0894401036
H  H76  1  0.60352000  0.76820000  0.90487000  1.0 0.0894401036
H  H77  1  0.52496000  0.48902000  0.07974000  1.0 0.0894401036
H  H78  1  0.58931000  0.43813000  0.13858000  1.0 0.117412201
H  H79  1  0.79363000  0.63165000  0.08468000  1.0 0.0795528121
H  H80  1  0.73254000  0.68816000  0.03198000  1.0 0.0795528121
H  H81  1  0.06558000  0.55466000  0.54954000  1.0 0.1294717413
H  H82  1  0.63510000  0.09114000  0.73746000  1.0 0.1294717413
H  H83  1  0.91738000  0.59748000  0.52952000  1.0 0.117412201
H  H84  1  0.62845000  0.27041000  0.64840000  1.0 0.117412201
H  H85  1  0.42832000  0.05184000  0.70319000  1.0 0.1294717413
H  H86  1  0.08017000  0.72945000  0.42015000  1.0 0.1352669668
H  H87  1  0.90854000  0.98710000  0.27968000  1.0 0.0795528121
H  H88  1  0.85927000  0.05551000  0.22529000  1.0 0.1002701573
H  H89  1  0.66867000  0.89357000  0.30631000  1.0 0.1002701573
H  H90  1  0.71100000  0.81874000  0.35389000  1.0 0.0894401036
H  H91  1  0.90834000  0.68430000  0.48811000  1.0 0.0894401036
H  H92  1  0.94135000  0.80407000  0.34387000  1.0 0.0618296362
H  H93  1  0.90115000  0.88043000  0.29598000  1.0 0.0618296362
H  H94  1  0.81146000  0.81876000  0.43745000  1.0 0.0618296362
H  H95  1  0.86357000  0.75689000  0.48953000  1.0 0.0894401036
H  H96  1  0.35941000  0.54445000  0.51201000  1.0 0.1002701573
H  H97  1  0.41208000  0.48296000  0.56949000  1.0 0.0894401036
H  H98  1  0.31508000  0.35800000  0.43757000  1.0 0.0694574599
H  H99  1  0.25610000  0.41590000  0.38234000  1.0 0.0795528121
H  H100  1  0.55922000  0.29342000  0.67140000  1.0 0.0894401036
H  H101  1  0.49501000  0.45761000  0.59990000  1.0 0.1002701573
H  H102  1  0.55049000  0.39559000  0.65690000  1.0 0.1141088646
H  H103  1  0.38099000  0.21343000  0.55874000  1.0 0.0694574599
H  H104  1  0.32617000  0.27479000  0.50428000  1.0 0.0694574599
H  H105  1  0.82956000  0.91694000  0.24939000  1.0 0.0618296362
H  H106  1  0.77299000  0.97199000  0.20184000  1.0 0.0894401036
H  H107  1  0.73642000  0.96010000  0.35259000  1.0 0.1002701573
H  H108  1  0.79797000  0.90205000  0.40135000  1.0 0.0894401036
H  H109  1  0.98634000  0.84326000  0.37608000  1.0 0.0795528121
H  H110  1  0.94113000  0.91563000  0.32236000  1.0 0.0795528121
H  H111  1  0.75083000  0.75823000  0.40374000  1.0 0.0694574599
H  H112  1  0.79691000  0.68869000  0.45651000  1.0 0.0894401036
H  H113  1  0.38832000  0.57744000  0.49295000  1.0 0.0795528121
H  H114  1  0.44286000  0.50960000  0.55407000  1.0 0.0894401036
H  H115  1  0.28225000  0.33349000  0.46259000  1.0 0.0894401036
H  H116  1  0.23180000  0.39648000  0.40487000  1.0 0.0894401036
H  H117  1  0.51098000  0.47504000  0.57974000  1.0 0.0894401036
H  H118  1  0.56187000  0.41069000  0.63858000  1.0 0.117412201
H  H119  1  0.36835000  0.20637000  0.58468000  1.0 0.0795528121
H  H120  1  0.31184000  0.26746000  0.53198000  1.0 0.0795528121
H  H121  1  0.55466000  0.06558000  0.95046000  1.0 0.1294717413
H  H122  1  0.09114000  0.63510000  0.76254000  1.0 0.1294717413
H  H123  1  0.59748000  0.91738000  0.97048000  1.0 0.117412201
H  H124  1  0.27041000  0.62845000  0.85160000  1.0 0.117412201
H  H125  1  0.05184000  0.42832000  0.79681000  1.0 0.1294717413
H  H126  1  0.72945000  0.08017000  0.07985000  1.0 0.1352669668
H  H127  1  0.98710000  0.90854000  0.22032000  1.0 0.0795528121
H  H128  1  0.05551000  0.85927000  0.27471000  1.0 0.1002701573
H  H129  1  0.89357000  0.66867000  0.19369000  1.0 0.1002701573
H  H130  1  0.81874000  0.71100000  0.14611000  1.0 0.0894401036
H  H131  1  0.68430000  0.90834000  0.01189000  1.0 0.0894401036
H  H132  1  0.80407000  0.94135000  0.15613000  1.0 0.0618296362
H  H133  1  0.88043000  0.90115000  0.20402000  1.0 0.0618296362
H  H134  1  0.81876000  0.81146000  0.06255000  1.0 0.0618296362
H  H135  1  0.75689000  0.86357000  0.01047000  1.0 0.0894401036
H  H136  1  0.54445000  0.35941000  0.98799000  1.0 0.1002701573
H  H137  1  0.48296000  0.41208000  0.93051000  1.0 0.0894401036
H  H138  1  0.35800000  0.31508000  0.06243000  1.0 0.0694574599
H  H139  1  0.41590000  0.25610000  0.11766000  1.0 0.0795528121
H  H140  1  0.29342000  0.55922000  0.82860000  1.0 0.0894401036
H  H141  1  0.45761000  0.49501000  0.90010000  1.0 0.1002701573
H  H142  1  0.39559000  0.55049000  0.84310000  1.0 0.1141088646
H  H143  1  0.21343000  0.38099000  0.94126000  1.0 0.0795528121
H  H144  1  0.27479000  0.32617000  0.99572000  1.0 0.0694574599
H  H145  1  0.91694000  0.82956000  0.25061000  1.0 0.0618296362
H  H146  1  0.97199000  0.77299000  0.29816000  1.0 0.0894401036
H  H147  1  0.96010000  0.73642000  0.14741000  1.0 0.1002701573
H  H148  1  0.90205000  0.79797000  0.09865000  1.0 0.0894401036
H  H149  1  0.84326000  0.98634000  0.12392000  1.0 0.0795528121
H  H150  1  0.91563000  0.94113000  0.17764000  1.0 0.0795528121
H  H151  1  0.75823000  0.75083000  0.09626000  1.0 0.0694574599
H  H152  1  0.68869000  0.79691000  0.04349000  1.0 0.0894401036
H  H153  1  0.57744000  0.38832000  0.00705000  1.0 0.0894401036
H  H154  1  0.50960000  0.44286000  0.94593000  1.0 0.0894401036
H  H155  1  0.33349000  0.28225000  0.03741000  1.0 0.0894401036
H  H156  1  0.39648000  0.23180000  0.09513000  1.0 0.0894401036
H  H157  1  0.47504000  0.51098000  0.92026000  1.0 0.0894401036
H  H158  1  0.41069000  0.56187000  0.86142000  1.0 0.117412201
H  H159  1  0.20637000  0.36835000  0.91532000  1.0 0.0795528121
H  H160  1  0.26746000  0.31184000  0.96802000  1.0 0.0795528121
C  C1  1  0.95241000  0.41635000  0.47063000  1.0 -0.1242982426
C  C2  1  0.01501000  0.43489000  0.45329000  1.0 -0.0111740483
C  C3  1  0.35376000  0.80962000  0.30730000  1.0 -0.0203897185
C  C4  1  0.47460000  0.94160000  0.27649000  1.0 -0.0203897185
C  C5  1  0.39340000  0.89004000  0.27932000  1.0 -0.1112353395
C  C6  1  0.04081000  0.39033000  0.48240000  1.0 -0.2124406028
C  C7  1  0.39718000  0.78262000  0.33191000  1.0 -0.1958720762
C  C8  1  0.91608000  0.35442000  0.51818000  1.0 -0.0111740483
C  C9  1  0.51603000  0.02815000  0.24834000  1.0 0.5727095377
C  C10  1  0.05942000  0.50640000  0.40611000  1.0 0.5903428566
C  C11  1  0.26624000  0.75366000  0.31199000  1.0 0.5789713931
C  C12  1  0.51727000  0.91367000  0.29975000  1.0 -0.1590435093
C  C13  1  0.00401000  0.32745000  0.52942000  1.0 0.2005374317
C  C14  1  0.94306000  0.31112000  0.54754000  1.0 -0.1688776504
C  C15  1  0.47759000  0.83305000  0.32768000  1.0 0.2005374317
C  C16  1  0.85118000  0.33788000  0.53793000  1.0 0.5789713931
C  C17  1  0.27045000  0.97175000  0.76728000  1.0 0.5100801062
C  C18  1  0.18160000  0.10020000  0.67329000  1.0 0.0138223815
C  C19  1  0.23928000  0.01652000  0.73476000  1.0 -0.0111740483
C  C20  1  0.13974000  0.03186000  0.71390000  1.0 -0.0867820544
C  C21  1  0.16862000  0.98978000  0.74610000  1.0 -0.0399341683
C  C22  1  0.28201000  0.08619000  0.69910000  1.0 -0.0399341683
C  C23  1  0.25577000  0.13083000  0.66900000  1.0 -0.0516774863
C  C24  1  0.07215000  0.28165000  0.54720000  1.0 -0.0111740483
C  C25  1  0.09948000  0.23492000  0.57900000  1.0 0.0252195407
C  C26  1  0.15322000  0.14738000  0.64033000  1.0 -0.0111740483
C  C27  1  0.08520000  0.19360000  0.63700000  1.0 -0.0294073893
C  C28  1  0.11080000  0.14900000  0.66610000  1.0 -0.0516774863
C  C29  1  0.16210000  0.18390000  0.58150000  1.0 -0.0597888716
C  C30  1  0.13360000  0.22320000  0.55100000  1.0 -0.0516774863
C  C31  1  0.72758000  0.46782000  0.59558000  1.0 0.4738524255
C  C32  1  0.69526000  0.51054000  0.55751000  1.0 -0.0019471684
C  C33  1  0.63071000  0.58609000  0.48883000  1.0 -0.0203897185
C  C34  1  0.65030000  0.49390000  0.50290000  1.0 -0.0796192936
C  C35  1  0.61820000  0.53040000  0.46810000  1.0 -0.1112353395
C  C36  1  0.67750000  0.60530000  0.54720000  1.0 -0.0796192936
C  C37  1  0.71140000  0.56980000  0.58080000  1.0 -0.0796192936
C  C38  1  0.49120000  0.73700000  0.35226000  1.0 -0.0399341683
C  C39  1  0.52909000  0.70029000  0.38490000  1.0 0.0694574599
C  C40  1  0.59570000  0.62610000  0.45265000  1.0 0.0226604506
C  C41  1  0.52850000  0.59190000  0.40770000  1.0 -0.1590435093
C  C42  1  0.49420000  0.62860000  0.37290000  1.0 -0.1540060419
C  C43  1  0.59760000  0.73820000  0.43290000  1.0 -0.0597888716
C  C44  1  0.62980000  0.70140000  0.46530000  1.0 -0.0962310791
C  C45  1  0.18850000  0.07530000  0.72750000  1.0 -0.0597888716
C  C46  1  0.21990000  0.03790000  0.75660000  1.0 -0.0294073893
C  C47  1  0.24150000  0.04610000  0.66790000  1.0 -0.0516774863
C  C48  1  0.20780000  0.08340000  0.64000000  1.0 -0.0796192936
C  C49  1  0.06060000  0.17340000  0.61680000  1.0 -0.0111740483
C  C50  1  0.08820000  0.12880000  0.64900000  1.0 -0.0399341683
C  C51  1  0.19960000  0.22160000  0.60100000  1.0 -0.0710013959
C  C52  1  0.17300000  0.26400000  0.57000000  1.0 -0.0710013959
C  C53  1  0.63250000  0.47150000  0.51380000  1.0 -0.0710013959
C  C54  1  0.59970000  0.51330000  0.47730000  1.0 -0.1242982426
C  C55  1  0.69250000  0.61610000  0.53020000  1.0 -0.0796192936
C  C56  1  0.72390000  0.57810000  0.56510000  1.0 -0.0867820544
C  C57  1  0.51870000  0.57950000  0.41950000  1.0 -0.2179737914
C  C58  1  0.48850000  0.61870000  0.38550000  1.0 -0.1540060419
C  C59  1  0.60080000  0.73900000  0.41510000  1.0 -0.0516774863
C  C60  1  0.63490000  0.70110000  0.44850000  1.0 -0.0710013959
C  C61  1  0.41635000  0.95241000  0.02937000  1.0 -0.12550284
C  C62  1  0.43489000  0.01501000  0.04671000  1.0 -0.0111740483
C  C63  1  0.80962000  0.35376000  0.19270000  1.0 -0.0203897185
C  C64  1  0.94160000  0.47460000  0.22351000  1.0 -0.0203897185
C  C65  1  0.89004000  0.39340000  0.22068000  1.0 -0.1112353395
C  C66  1  0.39033000  0.04081000  0.01760000  1.0 -0.2124406028
C  C67  1  0.78262000  0.39718000  0.16809000  1.0 -0.1958720762
C  C68  1  0.35442000  0.91608000  0.98182000  1.0 -0.0111740483
C  C69  1  0.02815000  0.51603000  0.25166000  1.0 0.5727095377
C  C70  1  0.50640000  0.05942000  0.09389000  1.0 0.5903428566
C  C71  1  0.75366000  0.26624000  0.18801000  1.0 0.5789713931
C  C72  1  0.91367000  0.51727000  0.20025000  1.0 -0.1540060419
C  C73  1  0.32745000  0.00401000  0.97058000  1.0 0.2005374317
C  C74  1  0.31112000  0.94306000  0.95246000  1.0 -0.1688776504
C  C75  1  0.83305000  0.47759000  0.17232000  1.0 0.2005374317
C  C76  1  0.33788000  0.85118000  0.96207000  1.0 0.5789713931
C  C77  1  0.97175000  0.27045000  0.73272000  1.0 0.5100801062
C  C78  1  0.10020000  0.18160000  0.82671000  1.0 0.0138223815
C  C79  1  0.01652000  0.23928000  0.76524000  1.0 -0.0111740483
C  C80  1  0.03186000  0.13974000  0.78610000  1.0 -0.0867820544
C  C81  1  0.98978000  0.16862000  0.75390000  1.0 -0.0399341683
C  C82  1  0.08619000  0.28201000  0.80090000  1.0 -0.0399341683
C  C83  1  0.13083000  0.25577000  0.83100000  1.0 -0.0516774863
C  C84  1  0.28165000  0.07215000  0.95280000  1.0 -0.0111740483
C  C85  1  0.23492000  0.09948000  0.92100000  1.0 0.0226604506
C  C86  1  0.14738000  0.15322000  0.85967000  1.0 -0.0111740483
C  C87  1  0.19360000  0.08520000  0.86300000  1.0 -0.0294073893
C  C88  1  0.14900000  0.11080000  0.83390000  1.0 -0.0516774863
C  C89  1  0.18390000  0.16210000  0.91850000  1.0 -0.0597888716
C  C90  1  0.22320000  0.13360000  0.94900000  1.0 -0.0597888716
C  C91  1  0.46782000  0.72758000  0.90442000  1.0 0.4738524255
C  C92  1  0.51054000  0.69526000  0.94249000  1.0 -0.0019471684
C  C93  1  0.58609000  0.63071000  0.01117000  1.0 -0.0203897185
C  C94  1  0.49390000  0.65030000  0.99710000  1.0 -0.0796192936
C  C95  1  0.53040000  0.61820000  0.03190000  1.0 -0.1112353395
C  C96  1  0.60530000  0.67750000  0.95280000  1.0 -0.0796192936
C  C97  1  0.56980000  0.71140000  0.91920000  1.0 -0.0796192936
C  C98  1  0.73700000  0.49120000  0.14774000  1.0 -0.0399341683
C  C99  1  0.70029000  0.52909000  0.11510000  1.0 0.0694574599
C  C100  1  0.62610000  0.59570000  0.04735000  1.0 0.0226604506
C  C101  1  0.59190000  0.52850000  0.09230000  1.0 -0.1590435093
C  C102  1  0.62860000  0.49420000  0.12710000  1.0 -0.1540060419
C  C103  1  0.73820000  0.59760000  0.06710000  1.0 -0.0597888716
C  C104  1  0.70140000  0.62980000  0.03470000  1.0 -0.0962310791
C  C105  1  0.07530000  0.18850000  0.77250000  1.0 -0.0516774863
C  C106  1  0.03790000  0.21990000  0.74340000  1.0 -0.0399341683
C  C107  1  0.04610000  0.24150000  0.83210000  1.0 -0.0516774863
C  C108  1  0.08340000  0.20780000  0.86000000  1.0 -0.0796192936
C  C109  1  0.17340000  0.06060000  0.88320000  1.0 -0.0111740483
C  C110  1  0.12880000  0.08820000  0.85100000  1.0 -0.0399341683
C  C111  1  0.22160000  0.19960000  0.89900000  1.0 -0.0710013959
C  C112  1  0.26400000  0.17300000  0.93000000  1.0 -0.0710013959
C  C113  1  0.47150000  0.63250000  0.98620000  1.0 -0.0710013959
C  C114  1  0.51330000  0.59970000  0.02270000  1.0 -0.1242982426
C  C115  1  0.61610000  0.69250000  0.96980000  1.0 -0.0796192936
C  C116  1  0.57810000  0.72390000  0.93490000  1.0 -0.0867820544
C  C117  1  0.57950000  0.51870000  0.08050000  1.0 -0.2179737914
C  C118  1  0.61870000  0.48850000  0.11450000  1.0 -0.1540060419
C  C119  1  0.73900000  0.60080000  0.08490000  1.0 -0.0516774863
C  C120  1  0.70110000  0.63490000  0.05150000  1.0 -0.0710013959
C  C121  1  0.04759000  0.58365000  0.52937000  1.0 -0.12550284
C  C122  1  0.98499000  0.56511000  0.54671000  1.0 -0.0111740483
C  C123  1  0.64624000  0.19038000  0.69270000  1.0 -0.0203897185
C  C124  1  0.52540000  0.05840000  0.72351000  1.0 -0.0203897185
C  C125  1  0.60660000  0.10996000  0.72068000  1.0 -0.1112353395
C  C126  1  0.95919000  0.60967000  0.51760000  1.0 -0.2124406028
C  C127  1  0.60282000  0.21738000  0.66809000  1.0 -0.1958720762
C  C128  1  0.08392000  0.64558000  0.48182000  1.0 -0.0111740483
C  C129  1  0.48397000  0.97185000  0.75166000  1.0 0.5727095377
C  C130  1  0.94058000  0.49360000  0.59389000  1.0 0.5903428566
C  C131  1  0.73376000  0.24634000  0.68801000  1.0 0.5789713931
C  C132  1  0.48273000  0.08633000  0.70025000  1.0 -0.1590435093
C  C133  1  0.99599000  0.67255000  0.47058000  1.0 0.2005374317
C  C134  1  0.05694000  0.68888000  0.45246000  1.0 -0.1688776504
C  C135  1  0.52241000  0.16695000  0.67232000  1.0 0.2005374317
C  C136  1  0.14882000  0.66212000  0.46207000  1.0 0.5789713931
C  C137  1  0.72955000  0.02825000  0.23272000  1.0 0.5100801062
C  C138  1  0.81840000  0.89980000  0.32671000  1.0 0.0138223815
C  C139  1  0.76072000  0.98348000  0.26524000  1.0 -0.0019471684
C  C140  1  0.86026000  0.96814000  0.28610000  1.0 -0.0867820544
C  C141  1  0.83138000  0.01022000  0.25390000  1.0 -0.0399341683
C  C142  1  0.71799000  0.91381000  0.30090000  1.0 -0.0399341683
C  C143  1  0.74423000  0.86917000  0.33100000  1.0 -0.0516774863
C  C144  1  0.92785000  0.71835000  0.45280000  1.0 -0.0111740483
C  C145  1  0.90052000  0.76508000  0.42100000  1.0 0.0226604506
C  C146  1  0.84678000  0.85262000  0.35967000  1.0 -0.0111740483
C  C147  1  0.91480000  0.80640000  0.36300000  1.0 -0.0294073893
C  C148  1  0.88920000  0.85100000  0.33390000  1.0 -0.0516774863
C  C149  1  0.83790000  0.81610000  0.41850000  1.0 -0.0597888716
C  C150  1  0.86640000  0.77680000  0.44900000  1.0 -0.0516774863
C  C151  1  0.27242000  0.53218000  0.40442000  1.0 0.4738524255
C  C152  1  0.30474000  0.48946000  0.44249000  1.0 -0.0019471684
C  C153  1  0.36929000  0.41391000  0.51117000  1.0 -0.0203897185
C  C154  1  0.34970000  0.50610000  0.49710000  1.0 -0.0796192936
C  C155  1  0.38180000  0.46960000  0.53190000  1.0 -0.1112353395
C  C156  1  0.32250000  0.39470000  0.45280000  1.0 -0.0796192936
C  C157  1  0.28860000  0.43020000  0.41920000  1.0 -0.0796192936
C  C158  1  0.50880000  0.26300000  0.64774000  1.0 -0.0399341683
C  C159  1  0.47091000  0.29971000  0.61510000  1.0 0.0694574599
C  C160  1  0.40430000  0.37390000  0.54735000  1.0 0.0226604506
C  C161  1  0.47150000  0.40810000  0.59230000  1.0 -0.1590435093
C  C162  1  0.50580000  0.37140000  0.62710000  1.0 -0.1540060419
C  C163  1  0.40240000  0.26180000  0.56710000  1.0 -0.0597888716
C  C164  1  0.37020000  0.29860000  0.53470000  1.0 -0.0962310791
C  C165  1  0.81150000  0.92470000  0.27250000  1.0 -0.0516774863
C  C166  1  0.78010000  0.96210000  0.24340000  1.0 -0.0294073893
C  C167  1  0.75850000  0.95390000  0.33210000  1.0 -0.0399341683
C  C168  1  0.79220000  0.91660000  0.36000000  1.0 -0.0796192936
C  C169  1  0.93940000  0.82660000  0.38320000  1.0 -0.0111740483
C  C170  1  0.91180000  0.87120000  0.35100000  1.0 -0.0399341683
C  C171  1  0.80040000  0.77840000  0.39900000  1.0 -0.0710013959
C  C172  1  0.82700000  0.73600000  0.43000000  1.0 -0.0597888716
C  C173  1  0.36750000  0.52850000  0.48620000  1.0 -0.0710013959
C  C174  1  0.40030000  0.48670000  0.52270000  1.0 -0.1242982426
C  C175  1  0.30750000  0.38390000  0.46980000  1.0 -0.0796192936
C  C176  1  0.27610000  0.42190000  0.43490000  1.0 -0.0867820544
C  C177  1  0.48130000  0.42050000  0.58050000  1.0 -0.2179737914
C  C178  1  0.51150000  0.38130000  0.61450000  1.0 -0.1540060419
C  C179  1  0.39920000  0.26100000  0.58490000  1.0 -0.0516774863
C  C180  1  0.36510000  0.29890000  0.55150000  1.0 -0.0710013959
C  C181  1  0.58365000  0.04759000  0.97063000  1.0 -0.1242982426
C  C182  1  0.56511000  0.98499000  0.95329000  1.0 -0.0203897185
C  C183  1  0.19038000  0.64624000  0.80730000  1.0 -0.0203897185
C  C184  1  0.05840000  0.52540000  0.77649000  1.0 -0.0203897185
C  C185  1  0.10996000  0.60660000  0.77932000  1.0 -0.1112353395
C  C186  1  0.60967000  0.95919000  0.98240000  1.0 -0.2124406028
C  C187  1  0.21738000  0.60282000  0.83191000  1.0 -0.1958720762
C  C188  1  0.64558000  0.08392000  0.01818000  1.0 -0.0111740483
C  C189  1  0.97185000  0.48397000  0.74834000  1.0 0.5727095377
C  C190  1  0.49360000  0.94058000  0.90611000  1.0 0.5903428566
C  C191  1  0.24634000  0.73376000  0.81199000  1.0 0.5789713931
C  C192  1  0.08633000  0.48273000  0.79975000  1.0 -0.1590435093
C  C193  1  0.67255000  0.99599000  0.02942000  1.0 0.2005374317
C  C194  1  0.68888000  0.05694000  0.04754000  1.0 -0.1688776504
C  C195  1  0.16695000  0.52241000  0.82768000  1.0 0.2005374317
C  C196  1  0.66212000  0.14882000  0.03793000  1.0 0.5789713931
C  C197  1  0.02825000  0.72955000  0.26728000  1.0 0.5100801062
C  C198  1  0.89980000  0.81840000  0.17329000  1.0 0.0138223815
C  C199  1  0.98348000  0.76072000  0.23476000  1.0 -0.0019471684
C  C200  1  0.96814000  0.86026000  0.21390000  1.0 -0.0867820544
C  C201  1  0.01022000  0.83138000  0.24610000  1.0 -0.0399341683
C  C202  1  0.91381000  0.71799000  0.19910000  1.0 -0.0399341683
C  C203  1  0.86917000  0.74423000  0.16900000  1.0 -0.0516774863
C  C204  1  0.71835000  0.92785000  0.04720000  1.0 -0.0111740483
C  C205  1  0.76508000  0.90052000  0.07900000  1.0 0.0226604506
C  C206  1  0.85262000  0.84678000  0.14033000  1.0 -0.0111740483
C  C207  1  0.80640000  0.91480000  0.13700000  1.0 -0.0294073893
C  C208  1  0.85100000  0.88920000  0.16610000  1.0 -0.0516774863
C  C209  1  0.81610000  0.83790000  0.08150000  1.0 -0.0597888716
C  C210  1  0.77680000  0.86640000  0.05100000  1.0 -0.0516774863
C  C211  1  0.53218000  0.27242000  0.09558000  1.0 0.4738524255
C  C212  1  0.48946000  0.30474000  0.05751000  1.0 -0.0019471684
C  C213  1  0.41391000  0.36929000  0.98883000  1.0 -0.0203897185
C  C214  1  0.50610000  0.34970000  0.00290000  1.0 -0.0796192936
C  C215  1  0.46960000  0.38180000  0.96810000  1.0 -0.1112353395
C  C216  1  0.39470000  0.32250000  0.04720000  1.0 -0.0796192936
C  C217  1  0.43020000  0.28860000  0.08080000  1.0 -0.0796192936
C  C218  1  0.26300000  0.50880000  0.85226000  1.0 -0.0399341683
C  C219  1  0.29971000  0.47091000  0.88490000  1.0 0.0694574599
C  C220  1  0.37390000  0.40430000  0.95265000  1.0 0.0226604506
C  C221  1  0.40810000  0.47150000  0.90770000  1.0 -0.1590435093
C  C222  1  0.37140000  0.50580000  0.87290000  1.0 -0.1540060419
C  C223  1  0.26180000  0.40240000  0.93290000  1.0 -0.0597888716
C  C224  1  0.29860000  0.37020000  0.96530000  1.0 -0.0962310791
C  C225  1  0.92470000  0.81150000  0.22750000  1.0 -0.0516774863
C  C226  1  0.96210000  0.78010000  0.25660000  1.0 -0.0294073893
C  C227  1  0.95390000  0.75850000  0.16790000  1.0 -0.0399341683
C  C228  1  0.91660000  0.79220000  0.14000000  1.0 -0.0796192936
C  C229  1  0.82660000  0.93940000  0.11680000  1.0 -0.0111740483
C  C230  1  0.87120000  0.91180000  0.14900000  1.0 -0.0399341683
C  C231  1  0.77840000  0.80040000  0.10100000  1.0 -0.0710013959
C  C232  1  0.73600000  0.82700000  0.07000000  1.0 -0.0597888716
C  C233  1  0.52850000  0.36750000  0.01380000  1.0 -0.0710013959
C  C234  1  0.48670000  0.40030000  0.97730000  1.0 -0.1242982426
C  C235  1  0.38390000  0.30750000  0.03020000  1.0 -0.0796192936
C  C236  1  0.42190000  0.27610000  0.06510000  1.0 -0.0867820544
C  C237  1  0.42050000  0.48130000  0.91950000  1.0 -0.2179737914
C  C238  1  0.38130000  0.51150000  0.88550000  1.0 -0.1540060419
C  C239  1  0.26100000  0.39920000  0.91510000  1.0 -0.0516774863
C  C240  1  0.29890000  0.36510000  0.94850000  1.0 -0.0710013959
N  N1  1  0.02754000  0.28026000  0.56214000  1.0 -0.2420640293
N  N2  1  0.52368000  0.80758000  0.35475000  1.0 -0.2580926868
N  N3  1  0.28026000  0.02754000  0.93786000  1.0 -0.2420640293
N  N4  1  0.80758000  0.52368000  0.14525000  1.0 -0.2580926868
N  N5  1  0.97246000  0.71974000  0.43786000  1.0 -0.2420640293
N  N6  1  0.47632000  0.19242000  0.64525000  1.0 -0.2580926868
N  N7  1  0.71974000  0.97246000  0.06214000  1.0 -0.2420640293
N  N8  1  0.19242000  0.47632000  0.85475000  1.0 -0.2580926868
O  O1  1  0.23634000  0.68464000  0.34543000  1.0 -0.6494387019
O  O2  1  0.58910000  0.07600000  0.24358000  1.0 -0.5857562054
O  O3  1  0.12545000  0.52801000  0.40060000  1.0 -0.6221410263
O  O4  1  0.03130000  0.54112000  0.37652000  1.0 -0.5297790546
O  O5  1  0.22593000  0.77503000  0.28505000  1.0 -0.4702753801
O  O6  1  0.82978000  0.29290000  0.58703000  1.0 -0.5602897185
O  O7  1  0.47486000  0.05042000  0.22999000  1.0 -0.5297790546
O  O8  1  0.82323000  0.37217000  0.50509000  1.0 -0.5602897185
O  O9  1  0.23040000  0.90880000  0.80560000  1.0 -0.4702753801
O  O10  1  0.32922000  0.99258000  0.75910000  1.0 -0.4128756303
O  O11  1  0.77885000  0.49679000  0.64088000  1.0 -0.4881896082
O  O12  1  0.70232000  0.40616000  0.58196000  1.0 -0.5602897185
O  O13  1  0.68464000  0.23634000  0.15457000  1.0 -0.6494387019
O  O14  1  0.07600000  0.58910000  0.25642000  1.0 -0.5841240514
O  O15  1  0.52801000  0.12545000  0.09940000  1.0 -0.6221410263
O  O16  1  0.54112000  0.03130000  0.12348000  1.0 -0.5297790546
O  O17  1  0.77503000  0.22593000  0.21495000  1.0 -0.4702753801
O  O18  1  0.29290000  0.82978000  0.91297000  1.0 -0.5602897185
O  O19  1  0.05042000  0.47486000  0.27001000  1.0 -0.5297790546
O  O20  1  0.37217000  0.82323000  0.99491000  1.0 -0.5602897185
O  O21  1  0.90880000  0.23040000  0.69440000  1.0 -0.4702753801
O  O22  1  0.99258000  0.32922000  0.74090000  1.0 -0.4128756303
O  O23  1  0.49679000  0.77885000  0.85912000  1.0 -0.4881896082
O  O24  1  0.40616000  0.70232000  0.91804000  1.0 -0.5602897185
O  O25  1  0.76366000  0.31536000  0.65457000  1.0 -0.6494387019
O  O26  1  0.41090000  0.92400000  0.75642000  1.0 -0.5841240514
O  O27  1  0.87455000  0.47199000  0.59940000  1.0 -0.6221410263
O  O28  1  0.96870000  0.45888000  0.62348000  1.0 -0.5297790546
O  O29  1  0.77407000  0.22497000  0.71495000  1.0 -0.4702753801
O  O30  1  0.17022000  0.70710000  0.41297000  1.0 -0.5602897185
O  O31  1  0.52514000  0.94958000  0.77001000  1.0 -0.5297790546
O  O32  1  0.17677000  0.62783000  0.49491000  1.0 -0.5602897185
O  O33  1  0.76960000  0.09120000  0.19440000  1.0 -0.4702753801
O  O34  1  0.67078000  0.00742000  0.24090000  1.0 -0.4128756303
O  O35  1  0.22115000  0.50321000  0.35912000  1.0 -0.4881896082
O  O36  1  0.29768000  0.59384000  0.41804000  1.0 -0.5602897185
O  O37  1  0.31536000  0.76366000  0.84543000  1.0 -0.6494387019
O  O38  1  0.92400000  0.41090000  0.74358000  1.0 -0.5841240514
O  O39  1  0.47199000  0.87455000  0.90060000  1.0 -0.6221410263
O  O40  1  0.45888000  0.96870000  0.87652000  1.0 -0.5297790546
O  O41  1  0.22497000  0.77407000  0.78505000  1.0 -0.4702753801
O  O42  1  0.70710000  0.17022000  0.08703000  1.0 -0.5602897185
O  O43  1  0.94958000  0.52514000  0.72999000  1.0 -0.5297790546
O  O44  1  0.62783000  0.17677000  0.00509000  1.0 -0.5602897185
O  O45  1  0.09120000  0.76960000  0.30560000  1.0 -0.4702753801
O  O46  1  0.00742000  0.67078000  0.25910000  1.0 -0.4128756303
O  O47  1  0.50321000  0.22115000  0.14088000  1.0 -0.4881896082
O  O48  1  0.59384000  0.29768000  0.08196000  1.0 -0.5602897185
