# DDEC6 charges by PACMAN v1.1 (https://github.com/mtap-research/PACMAN-charge/)
data_XAJGIC_ASR_pacman
_symmetry_space_group_name_H-M   'P 1'
_cell_length_a   25.01890000
_cell_length_b   25.01890000
_cell_length_c   25.01890000
_cell_angle_alpha   115.88300000
_cell_angle_beta   115.88300000
_cell_angle_gamma   115.88300000
_symmetry_Int_Tables_number   1
_chemical_formula_structural   Cu3H102C48(NO3)4
_chemical_formula_sum   'Cu18 H612 C288 N24 O72'
_cell_volume   8014.99778438
_cell_formula_units_Z   6
loop_
 _symmetry_equiv_pos_site_id
 _symmetry_equiv_pos_as_xyz
  1  'x, y, z'
loop_
 _atom_site_type_symbol
 _atom_site_label
 _atom_site_symmetry_multiplicity
 _atom_site_fract_x
 _atom_site_fract_y
 _atom_site_fract_z
 _atom_site_occupancy
 _atom_site_charge
Cu  Cu1  1  0.56571000  0.33130000  0.73014000  1.0 0.7506482559
Cu  Cu2  1  0.46479000  0.34332000  0.72334000  1.0 0.7280688989
Cu  Cu3  1  0.91921000  0.44688000  0.91824000  1.0 0.7506482559
Cu  Cu4  1  0.33130000  0.73014000  0.56571000  1.0 0.7506482559
Cu  Cu5  1  0.34332000  0.72334000  0.46479000  1.0 0.7280688989
Cu  Cu6  1  0.44688000  0.91824000  0.91921000  1.0 0.7506482559
Cu  Cu7  1  0.73014000  0.56571000  0.33130000  1.0 0.7506482559
Cu  Cu8  1  0.72334000  0.46479000  0.34332000  1.0 0.7280688989
Cu  Cu9  1  0.91824000  0.91921000  0.44688000  1.0 0.7506482559
Cu  Cu10  1  0.43429000  0.66870000  0.26986000  1.0 0.7506482559
Cu  Cu11  1  0.53521000  0.65668000  0.27666000  1.0 0.7280688989
Cu  Cu12  1  0.08079000  0.55312000  0.08176000  1.0 0.7506482559
Cu  Cu13  1  0.66870000  0.26986000  0.43429000  1.0 0.7506482559
Cu  Cu14  1  0.65668000  0.27666000  0.53521000  1.0 0.7280688989
Cu  Cu15  1  0.55312000  0.08176000  0.08079000  1.0 0.7506482559
Cu  Cu16  1  0.26986000  0.43429000  0.66870000  1.0 0.7506482559
Cu  Cu17  1  0.27666000  0.53521000  0.65668000  1.0 0.7280688989
Cu  Cu18  1  0.08176000  0.08079000  0.55312000  1.0 0.7506482559
H  H1  1  0.73620000  0.37128000  0.84099000  1.0 0.111037044
H  H2  1  0.76972000  0.43602000  0.83372000  1.0 0.1196615813
H  H3  1  0.71724000  0.24992000  0.77114000  1.0 0.111037044
H  H4  1  0.73944000  0.23518000  0.71865000  1.0 0.111037044
H  H5  1  0.80295000  0.41330000  0.75334000  1.0 0.1196615813
H  H6  1  0.79175000  0.33407000  0.70858000  1.0 0.111037044
H  H7  1  0.63483000  0.16746000  0.56898000  1.0 0.111037044
H  H8  1  0.54407000  0.13862000  0.52306000  1.0 0.111037044
H  H9  1  0.51198000  0.16168000  0.60262000  1.0 0.111037044
H  H10  1  0.58153000  0.20622000  0.70203000  1.0 0.111037044
H  H11  1  0.66525000  0.36896000  0.68290000  1.0 0.1196615813
H  H12  1  0.56249000  0.26032000  0.59116000  1.0 0.1196615813
H  H13  1  0.31513000  0.11821000  0.68926000  1.0 0.111037044
H  H14  1  0.39760000  0.21849000  0.79765000  1.0 0.0700106532
H  H15  1  0.36506000  0.13046000  0.76855000  1.0 0.0700106532
H  H16  1  0.34714000  0.05109000  0.62510000  1.0 0.0700106532
H  H17  1  0.39997000  0.06354000  0.70391000  1.0 0.0799751866
H  H18  1  0.45218000  0.10806000  0.68960000  1.0 0.0799751866
H  H19  1  0.58434000  0.26545000  0.85895000  1.0 0.0891319193
H  H20  1  0.53222000  0.22182000  0.87376000  1.0 0.0700106532
H  H21  1  0.56475000  0.30986000  0.90286000  1.0 0.0799751866
H  H22  1  0.65498000  0.57171000  0.01838000  1.0 0.1318726928
H  H23  1  0.74668000  0.62493000  0.11500000  1.0 0.1196615813
H  H24  1  0.65582000  0.51268000  0.02773000  1.0 0.1384274844
H  H25  1  0.81530000  0.55484000  0.03390000  1.0 0.1196615813
H  H26  1  0.75329000  0.50243000  0.03716000  1.0 0.1384274844
H  H27  1  0.84415000  0.61468000  0.12443000  1.0 0.1196615813
H  H28  1  0.74971000  0.65110000  0.00995000  1.0 0.1480308338
H  H29  1  0.81101000  0.64267000  0.01445000  1.0 0.1384274844
H  H30  1  0.84298000  0.70585000  0.10664000  1.0 0.1384274844
H  H31  1  0.50879000  0.44187000  0.60273000  1.0 0.0606575798
H  H32  1  0.58245000  0.55205000  0.67576000  1.0 0.0799751866
H  H33  1  0.51721000  0.49883000  0.67609000  1.0 0.0700106532
H  H34  1  0.65862000  0.61414000  0.84545000  1.0 0.101557349
H  H35  1  0.72469000  0.66723000  0.84573000  1.0 0.0606575798
H  H36  1  0.74246000  0.63224000  0.88365000  1.0 0.0700106532
H  H37  1  0.63837000  0.46647000  0.66006000  1.0 0.0496347674
H  H38  1  0.73003000  0.54146000  0.76968000  1.0 0.101557349
H  H39  1  0.71226000  0.57645000  0.73176000  1.0 0.0700106532
H  H40  1  0.35872000  0.21988000  0.45132000  1.0 0.0700106532
H  H41  1  0.27750000  0.19184000  0.43481000  1.0 0.0606575798
H  H42  1  0.25077000  0.12151000  0.34923000  1.0 0.0891319193
H  H43  1  0.38238000  0.13238000  0.43244000  1.0 0.0606575798
H  H44  1  0.27303000  0.03246000  0.33517000  1.0 0.0700106532
H  H45  1  0.33018000  0.05402000  0.42069000  1.0 0.111037044
H  H46  1  0.15953000  0.99302000  0.32707000  1.0 0.0606575798
H  H47  1  0.18933000  0.06259000  0.41578000  1.0 0.111037044
H  H48  1  0.21670000  0.01516000  0.41304000  1.0 0.0606575798
H  H49  1  0.91196000  0.63728000  0.01682000  1.0 0.1384274844
H  H50  1  0.96242000  0.66952000  0.99609000  1.0 0.1384274844
H  H51  1  0.98509000  0.74326000  0.07520000  1.0 0.1318726928
H  H52  1  0.00227000  0.69277000  0.16411000  1.0 0.1384274844
H  H53  1  0.07780000  0.80002000  0.22593000  1.0 0.1318726928
H  H54  1  0.11150000  0.76067000  0.23944000  1.0 0.1318726928
H  H55  1  0.13460000  0.77901000  0.11515000  1.0 0.1384274844
H  H56  1  0.19237000  0.81335000  0.20943000  1.0 0.1318726928
H  H57  1  0.15866000  0.85270000  0.19592000  1.0 0.1318726928
H  H58  1  0.00387000  0.50610000  0.81492000  1.0 0.111037044
H  H59  1  0.05077000  0.47790000  0.82604000  1.0 0.0700106532
H  H60  1  0.09459000  0.56158000  0.84338000  1.0 0.0891319193
H  H61  1  0.25827000  0.68430000  0.07806000  1.0 0.111037044
H  H62  1  0.25307000  0.67247000  0.00712000  1.0 0.0700106532
H  H63  1  0.20926000  0.58879000  0.98978000  1.0 0.0496347674
H  H64  1  0.18754000  0.72812000  0.05820000  1.0 0.0891319193
H  H65  1  0.08778000  0.65969000  0.95637000  1.0 0.0700106532
H  H66  1  0.17852000  0.71431000  0.98478000  1.0 0.0700106532
H  H67  1  0.64868000  0.62796000  0.77458000  1.0 0.0606575798
H  H68  1  0.64673000  0.61427000  0.83076000  1.0 0.101557349
H  H69  1  0.55082000  0.54024000  0.72319000  1.0 0.0496347674
H  H70  1  0.73797000  0.54705000  0.78974000  1.0 0.101557349
H  H71  1  0.76181000  0.61755000  0.87234000  1.0 0.0700106532
H  H72  1  0.76693000  0.63390000  0.81879000  1.0 0.0496347674
H  H73  1  0.58843000  0.42891000  0.62407000  1.0 0.0700106532
H  H74  1  0.60568000  0.50599000  0.63864000  1.0 0.0891319193
H  H75  1  0.51157000  0.42074000  0.59354000  1.0 0.0700106532
H  H76  1  0.33802000  0.21831000  0.45131000  1.0 0.0799751866
H  H77  1  0.26550000  0.11653000  0.34863000  1.0 0.0891319193
H  H78  1  0.37285000  0.18075000  0.43201000  1.0 0.0606575798
H  H79  1  0.25558000  0.02063000  0.42468000  1.0 0.0700106532
H  H80  1  0.31808000  0.04946000  0.41438000  1.0 0.1196615813
H  H81  1  0.21073000  0.98524000  0.33100000  1.0 0.0606575798
H  H82  1  0.22123000  0.14578000  0.43409000  1.0 0.0700106532
H  H83  1  0.19233000  0.07288000  0.43156000  1.0 0.1196615813
H  H84  1  0.15085000  0.03934000  0.33937000  1.0 0.0606575798
H  H85  1  0.07925000  0.47650000  0.86513000  1.0 0.0799751866
H  H86  1  0.17696000  0.55423000  0.97332000  1.0 0.0799751866
H  H87  1  0.17448000  0.56503000  0.91403000  1.0 0.0700106532
H  H88  1  0.52812000  0.30810000  0.89481000  1.0 0.0799751866
H  H89  1  0.44598000  0.21447000  0.85243000  1.0 0.0700106532
H  H90  1  0.42196000  0.24799000  0.81529000  1.0 0.0891319193
H  H91  1  0.30931000  0.10693000  0.66946000  1.0 0.111037044
H  H92  1  0.33346000  0.07582000  0.70994000  1.0 0.0606575798
H  H93  1  0.31962000  0.04696000  0.62996000  1.0 0.0606575798
H  H94  1  0.57278000  0.23802000  0.83997000  1.0 0.0799751866
H  H95  1  0.48627000  0.12978000  0.73778000  1.0 0.0496347674
H  H96  1  0.50010000  0.15864000  0.81776000  1.0 0.0700106532
H  H97  1  0.25811000  0.69984000  0.08827000  1.0 0.111037044
H  H98  1  0.24014000  0.74446000  0.06507000  1.0 0.0301338473
H  H99  1  0.26086000  0.69853000  0.02503000  1.0 0.0799751866
H  H100  1  0.99674000  0.50399000  0.81685000  1.0 0.1196615813
H  H101  1  0.08245000  0.56486000  0.83974000  1.0 0.111037044
H  H102  1  0.06173000  0.61079000  0.87978000  1.0 0.0606575798
H  H103  1  0.37128000  0.84099000  0.73620000  1.0 0.111037044
H  H104  1  0.43602000  0.83372000  0.76972000  1.0 0.1196615813
H  H105  1  0.24992000  0.77114000  0.71724000  1.0 0.111037044
H  H106  1  0.23518000  0.71865000  0.73944000  1.0 0.111037044
H  H107  1  0.41330000  0.75334000  0.80295000  1.0 0.1196615813
H  H108  1  0.33407000  0.70858000  0.79175000  1.0 0.111037044
H  H109  1  0.16746000  0.56898000  0.63483000  1.0 0.111037044
H  H110  1  0.13862000  0.52306000  0.54407000  1.0 0.111037044
H  H111  1  0.16168000  0.60262000  0.51198000  1.0 0.111037044
H  H112  1  0.20622000  0.70203000  0.58153000  1.0 0.111037044
H  H113  1  0.36896000  0.68290000  0.66525000  1.0 0.1196615813
H  H114  1  0.26032000  0.59116000  0.56249000  1.0 0.1196615813
H  H115  1  0.11821000  0.68926000  0.31513000  1.0 0.111037044
H  H116  1  0.21849000  0.79765000  0.39760000  1.0 0.0700106532
H  H117  1  0.13046000  0.76855000  0.36506000  1.0 0.0700106532
H  H118  1  0.05109000  0.62510000  0.34714000  1.0 0.0700106532
H  H119  1  0.06354000  0.70391000  0.39997000  1.0 0.0799751866
H  H120  1  0.10806000  0.68960000  0.45218000  1.0 0.0799751866
H  H121  1  0.26545000  0.85895000  0.58434000  1.0 0.0891319193
H  H122  1  0.22182000  0.87376000  0.53222000  1.0 0.0700106532
H  H123  1  0.30986000  0.90286000  0.56475000  1.0 0.0799751866
H  H124  1  0.57171000  0.01838000  0.65498000  1.0 0.1318726928
H  H125  1  0.62493000  0.11500000  0.74668000  1.0 0.1196615813
H  H126  1  0.51268000  0.02773000  0.65582000  1.0 0.1384274844
H  H127  1  0.55484000  0.03390000  0.81530000  1.0 0.1196615813
H  H128  1  0.50243000  0.03716000  0.75329000  1.0 0.1384274844
H  H129  1  0.61468000  0.12443000  0.84415000  1.0 0.1196615813
H  H130  1  0.65110000  0.00995000  0.74971000  1.0 0.1480308338
H  H131  1  0.64267000  0.01445000  0.81101000  1.0 0.1384274844
H  H132  1  0.70585000  0.10664000  0.84298000  1.0 0.1384274844
H  H133  1  0.44187000  0.60273000  0.50879000  1.0 0.0606575798
H  H134  1  0.55205000  0.67576000  0.58245000  1.0 0.0799751866
H  H135  1  0.49883000  0.67609000  0.51721000  1.0 0.0700106532
H  H136  1  0.61414000  0.84545000  0.65862000  1.0 0.101557349
H  H137  1  0.66723000  0.84573000  0.72469000  1.0 0.0606575798
H  H138  1  0.63224000  0.88365000  0.74246000  1.0 0.0700106532
H  H139  1  0.46647000  0.66006000  0.63837000  1.0 0.0496347674
H  H140  1  0.54146000  0.76968000  0.73003000  1.0 0.101557349
H  H141  1  0.57645000  0.73176000  0.71226000  1.0 0.0700106532
H  H142  1  0.21988000  0.45132000  0.35872000  1.0 0.0700106532
H  H143  1  0.19184000  0.43481000  0.27750000  1.0 0.0606575798
H  H144  1  0.12151000  0.34923000  0.25077000  1.0 0.0891319193
H  H145  1  0.13238000  0.43244000  0.38238000  1.0 0.0606575798
H  H146  1  0.03246000  0.33517000  0.27303000  1.0 0.0700106532
H  H147  1  0.05402000  0.42069000  0.33018000  1.0 0.111037044
H  H148  1  0.99302000  0.32707000  0.15953000  1.0 0.0606575798
H  H149  1  0.06259000  0.41578000  0.18933000  1.0 0.111037044
H  H150  1  0.01516000  0.41304000  0.21670000  1.0 0.0606575798
H  H151  1  0.63728000  0.01682000  0.91196000  1.0 0.1384274844
H  H152  1  0.66952000  0.99609000  0.96242000  1.0 0.1384274844
H  H153  1  0.74326000  0.07520000  0.98509000  1.0 0.1318726928
H  H154  1  0.69277000  0.16411000  0.00227000  1.0 0.1318726928
H  H155  1  0.80002000  0.22593000  0.07780000  1.0 0.1318726928
H  H156  1  0.76067000  0.23944000  0.11150000  1.0 0.1318726928
H  H157  1  0.77901000  0.11515000  0.13460000  1.0 0.1384274844
H  H158  1  0.81335000  0.20943000  0.19237000  1.0 0.1318726928
H  H159  1  0.85270000  0.19592000  0.15866000  1.0 0.1318726928
H  H160  1  0.50610000  0.81492000  0.00387000  1.0 0.1196615813
H  H161  1  0.47790000  0.82604000  0.05077000  1.0 0.0700106532
H  H162  1  0.56158000  0.84338000  0.09459000  1.0 0.0891319193
H  H163  1  0.68430000  0.07806000  0.25827000  1.0 0.111037044
H  H164  1  0.67247000  0.00712000  0.25307000  1.0 0.0700106532
H  H165  1  0.58879000  0.98978000  0.20926000  1.0 0.0496347674
H  H166  1  0.72812000  0.05820000  0.18754000  1.0 0.0891319193
H  H167  1  0.65969000  0.95637000  0.08778000  1.0 0.0700106532
H  H168  1  0.71431000  0.98478000  0.17852000  1.0 0.0700106532
H  H169  1  0.62796000  0.77458000  0.64868000  1.0 0.0606575798
H  H170  1  0.61427000  0.83076000  0.64673000  1.0 0.101557349
H  H171  1  0.54024000  0.72319000  0.55082000  1.0 0.0496347674
H  H172  1  0.54705000  0.78974000  0.73797000  1.0 0.101557349
H  H173  1  0.61755000  0.87234000  0.76181000  1.0 0.0700106532
H  H174  1  0.63390000  0.81879000  0.76693000  1.0 0.0496347674
H  H175  1  0.42891000  0.62407000  0.58843000  1.0 0.0700106532
H  H176  1  0.50599000  0.63864000  0.60568000  1.0 0.0891319193
H  H177  1  0.42074000  0.59354000  0.51157000  1.0 0.0700106532
H  H178  1  0.21831000  0.45131000  0.33802000  1.0 0.0799751866
H  H179  1  0.11653000  0.34863000  0.26550000  1.0 0.0891319193
H  H180  1  0.18075000  0.43201000  0.37285000  1.0 0.0606575798
H  H181  1  0.02063000  0.42468000  0.25558000  1.0 0.0700106532
H  H182  1  0.04946000  0.41438000  0.31808000  1.0 0.1196615813
H  H183  1  0.98524000  0.33100000  0.21073000  1.0 0.0606575798
H  H184  1  0.14578000  0.43409000  0.22123000  1.0 0.0700106532
H  H185  1  0.07288000  0.43156000  0.19233000  1.0 0.1196615813
H  H186  1  0.03934000  0.33937000  0.15085000  1.0 0.0606575798
H  H187  1  0.47650000  0.86513000  0.07925000  1.0 0.0799751866
H  H188  1  0.55423000  0.97332000  0.17696000  1.0 0.0799751866
H  H189  1  0.56503000  0.91403000  0.17448000  1.0 0.0700106532
H  H190  1  0.30810000  0.89481000  0.52812000  1.0 0.0799751866
H  H191  1  0.21447000  0.85243000  0.44598000  1.0 0.0700106532
H  H192  1  0.24799000  0.81529000  0.42196000  1.0 0.0891319193
H  H193  1  0.10693000  0.66946000  0.30931000  1.0 0.111037044
H  H194  1  0.07582000  0.70994000  0.33346000  1.0 0.0606575798
H  H195  1  0.04696000  0.62996000  0.31962000  1.0 0.0606575798
H  H196  1  0.23802000  0.83997000  0.57278000  1.0 0.0799751866
H  H197  1  0.12978000  0.73778000  0.48627000  1.0 0.0496347674
H  H198  1  0.15864000  0.81776000  0.50010000  1.0 0.0700106532
H  H199  1  0.69984000  0.08827000  0.25811000  1.0 0.111037044
H  H200  1  0.74446000  0.06507000  0.24014000  1.0 0.0301338473
H  H201  1  0.69853000  0.02503000  0.26086000  1.0 0.0799751866
H  H202  1  0.50399000  0.81685000  0.99674000  1.0 0.1196615813
H  H203  1  0.56486000  0.83974000  0.08245000  1.0 0.111037044
H  H204  1  0.61079000  0.87978000  0.06173000  1.0 0.0606575798
H  H205  1  0.84099000  0.73620000  0.37128000  1.0 0.111037044
H  H206  1  0.83372000  0.76972000  0.43602000  1.0 0.1196615813
H  H207  1  0.77114000  0.71724000  0.24992000  1.0 0.111037044
H  H208  1  0.71865000  0.73944000  0.23518000  1.0 0.111037044
H  H209  1  0.75334000  0.80295000  0.41330000  1.0 0.1196615813
H  H210  1  0.70858000  0.79175000  0.33407000  1.0 0.111037044
H  H211  1  0.56898000  0.63483000  0.16746000  1.0 0.111037044
H  H212  1  0.52306000  0.54407000  0.13862000  1.0 0.111037044
H  H213  1  0.60262000  0.51198000  0.16168000  1.0 0.111037044
H  H214  1  0.70203000  0.58153000  0.20622000  1.0 0.111037044
H  H215  1  0.68290000  0.66525000  0.36896000  1.0 0.1196615813
H  H216  1  0.59116000  0.56249000  0.26032000  1.0 0.1196615813
H  H217  1  0.68926000  0.31513000  0.11821000  1.0 0.111037044
H  H218  1  0.79765000  0.39760000  0.21849000  1.0 0.0700106532
H  H219  1  0.76855000  0.36506000  0.13046000  1.0 0.0700106532
H  H220  1  0.62510000  0.34714000  0.05109000  1.0 0.0700106532
H  H221  1  0.70391000  0.39997000  0.06354000  1.0 0.0799751866
H  H222  1  0.68960000  0.45218000  0.10806000  1.0 0.0799751866
H  H223  1  0.85895000  0.58434000  0.26545000  1.0 0.0891319193
H  H224  1  0.87376000  0.53222000  0.22182000  1.0 0.0700106532
H  H225  1  0.90286000  0.56475000  0.30986000  1.0 0.0799751866
H  H226  1  0.01838000  0.65498000  0.57171000  1.0 0.1318726928
H  H227  1  0.11500000  0.74668000  0.62493000  1.0 0.1196615813
H  H228  1  0.02773000  0.65582000  0.51268000  1.0 0.1384274844
H  H229  1  0.03390000  0.81530000  0.55484000  1.0 0.1196615813
H  H230  1  0.03716000  0.75329000  0.50243000  1.0 0.1384274844
H  H231  1  0.12443000  0.84415000  0.61468000  1.0 0.1196615813
H  H232  1  0.00995000  0.74971000  0.65110000  1.0 0.1480308338
H  H233  1  0.01445000  0.81101000  0.64267000  1.0 0.1384274844
H  H234  1  0.10664000  0.84298000  0.70585000  1.0 0.1384274844
H  H235  1  0.60273000  0.50879000  0.44187000  1.0 0.0606575798
H  H236  1  0.67576000  0.58245000  0.55205000  1.0 0.0799751866
H  H237  1  0.67609000  0.51721000  0.49883000  1.0 0.0700106532
H  H238  1  0.84545000  0.65862000  0.61414000  1.0 0.101557349
H  H239  1  0.84573000  0.72469000  0.66723000  1.0 0.0606575798
H  H240  1  0.88365000  0.74246000  0.63224000  1.0 0.0700106532
H  H241  1  0.66006000  0.63837000  0.46647000  1.0 0.0496347674
H  H242  1  0.76968000  0.73003000  0.54146000  1.0 0.101557349
H  H243  1  0.73176000  0.71226000  0.57645000  1.0 0.0700106532
H  H244  1  0.45132000  0.35872000  0.21988000  1.0 0.0700106532
H  H245  1  0.43481000  0.27750000  0.19184000  1.0 0.0606575798
H  H246  1  0.34923000  0.25077000  0.12151000  1.0 0.0891319193
H  H247  1  0.43244000  0.38238000  0.13238000  1.0 0.0606575798
H  H248  1  0.33517000  0.27303000  0.03246000  1.0 0.0700106532
H  H249  1  0.42069000  0.33018000  0.05402000  1.0 0.111037044
H  H250  1  0.32707000  0.15953000  0.99302000  1.0 0.0606575798
H  H251  1  0.41578000  0.18933000  0.06259000  1.0 0.111037044
H  H252  1  0.41304000  0.21670000  0.01516000  1.0 0.0606575798
H  H253  1  0.01682000  0.91196000  0.63728000  1.0 0.1384274844
H  H254  1  0.99609000  0.96242000  0.66952000  1.0 0.1384274844
H  H255  1  0.07520000  0.98509000  0.74326000  1.0 0.1318726928
H  H256  1  0.16411000  0.00227000  0.69277000  1.0 0.1318726928
H  H257  1  0.22593000  0.07780000  0.80002000  1.0 0.1318726928
H  H258  1  0.23944000  0.11150000  0.76067000  1.0 0.1318726928
H  H259  1  0.11515000  0.13460000  0.77901000  1.0 0.1384274844
H  H260  1  0.20943000  0.19237000  0.81335000  1.0 0.1318726928
H  H261  1  0.19592000  0.15866000  0.85270000  1.0 0.1318726928
H  H262  1  0.81492000  0.00387000  0.50610000  1.0 0.111037044
H  H263  1  0.82604000  0.05077000  0.47790000  1.0 0.0700106532
H  H264  1  0.84338000  0.09459000  0.56158000  1.0 0.0891319193
H  H265  1  0.07806000  0.25827000  0.68430000  1.0 0.111037044
H  H266  1  0.00712000  0.25307000  0.67247000  1.0 0.0700106532
H  H267  1  0.98978000  0.20926000  0.58879000  1.0 0.0496347674
H  H268  1  0.05820000  0.18754000  0.72812000  1.0 0.0891319193
H  H269  1  0.95637000  0.08778000  0.65969000  1.0 0.0700106532
H  H270  1  0.98478000  0.17852000  0.71431000  1.0 0.0700106532
H  H271  1  0.77458000  0.64868000  0.62796000  1.0 0.0606575798
H  H272  1  0.83076000  0.64673000  0.61427000  1.0 0.101557349
H  H273  1  0.72319000  0.55082000  0.54024000  1.0 0.0496347674
H  H274  1  0.78974000  0.73797000  0.54705000  1.0 0.101557349
H  H275  1  0.87234000  0.76181000  0.61755000  1.0 0.0700106532
H  H276  1  0.81879000  0.76693000  0.63390000  1.0 0.0496347674
H  H277  1  0.62407000  0.58843000  0.42891000  1.0 0.0700106532
H  H278  1  0.63864000  0.60568000  0.50599000  1.0 0.0891319193
H  H279  1  0.59354000  0.51157000  0.42074000  1.0 0.0700106532
H  H280  1  0.45131000  0.33802000  0.21831000  1.0 0.0799751866
H  H281  1  0.34863000  0.26550000  0.11653000  1.0 0.0891319193
H  H282  1  0.43201000  0.37285000  0.18075000  1.0 0.0606575798
H  H283  1  0.42468000  0.25558000  0.02063000  1.0 0.0700106532
H  H284  1  0.41438000  0.31808000  0.04946000  1.0 0.1196615813
H  H285  1  0.33100000  0.21073000  0.98524000  1.0 0.0700106532
H  H286  1  0.43409000  0.22123000  0.14578000  1.0 0.0700106532
H  H287  1  0.43156000  0.19233000  0.07288000  1.0 0.1196615813
H  H288  1  0.33937000  0.15085000  0.03934000  1.0 0.0606575798
H  H289  1  0.86513000  0.07925000  0.47650000  1.0 0.0799751866
H  H290  1  0.97332000  0.17696000  0.55423000  1.0 0.0799751866
H  H291  1  0.91403000  0.17448000  0.56503000  1.0 0.0700106532
H  H292  1  0.89481000  0.52812000  0.30810000  1.0 0.0799751866
H  H293  1  0.85243000  0.44598000  0.21447000  1.0 0.0700106532
H  H294  1  0.81529000  0.42196000  0.24799000  1.0 0.0891319193
H  H295  1  0.66946000  0.30931000  0.10693000  1.0 0.111037044
H  H296  1  0.70994000  0.33346000  0.07582000  1.0 0.0606575798
H  H297  1  0.62996000  0.31962000  0.04696000  1.0 0.0606575798
H  H298  1  0.83997000  0.57278000  0.23802000  1.0 0.0799751866
H  H299  1  0.73778000  0.48627000  0.12978000  1.0 0.0496347674
H  H300  1  0.81776000  0.50010000  0.15864000  1.0 0.0700106532
H  H301  1  0.08827000  0.25811000  0.69984000  1.0 0.111037044
H  H302  1  0.06507000  0.24014000  0.74446000  1.0 0.0301338473
H  H303  1  0.02503000  0.26086000  0.69853000  1.0 0.0799751866
H  H304  1  0.81685000  0.99674000  0.50399000  1.0 0.1196615813
H  H305  1  0.83974000  0.08245000  0.56486000  1.0 0.111037044
H  H306  1  0.87978000  0.06173000  0.61079000  1.0 0.0606575798
H  H307  1  0.26380000  0.62872000  0.15901000  1.0 0.111037044
H  H308  1  0.23028000  0.56398000  0.16628000  1.0 0.1196615813
H  H309  1  0.28276000  0.75008000  0.22886000  1.0 0.111037044
H  H310  1  0.26056000  0.76482000  0.28135000  1.0 0.111037044
H  H311  1  0.19705000  0.58670000  0.24666000  1.0 0.1196615813
H  H312  1  0.20825000  0.66593000  0.29142000  1.0 0.111037044
H  H313  1  0.36517000  0.83254000  0.43102000  1.0 0.111037044
H  H314  1  0.45593000  0.86138000  0.47694000  1.0 0.111037044
H  H315  1  0.48802000  0.83832000  0.39738000  1.0 0.111037044
H  H316  1  0.41847000  0.79378000  0.29797000  1.0 0.111037044
H  H317  1  0.33475000  0.63104000  0.31710000  1.0 0.1196615813
H  H318  1  0.43751000  0.73968000  0.40884000  1.0 0.1196615813
H  H319  1  0.68487000  0.88179000  0.31074000  1.0 0.111037044
H  H320  1  0.60240000  0.78151000  0.20235000  1.0 0.0700106532
H  H321  1  0.63494000  0.86954000  0.23145000  1.0 0.0700106532
H  H322  1  0.65286000  0.94891000  0.37490000  1.0 0.0700106532
H  H323  1  0.60003000  0.93646000  0.29609000  1.0 0.0799751866
H  H324  1  0.54782000  0.89194000  0.31040000  1.0 0.0799751866
H  H325  1  0.41566000  0.73455000  0.14105000  1.0 0.0891319193
H  H326  1  0.46778000  0.77818000  0.12624000  1.0 0.0700106532
H  H327  1  0.43525000  0.69014000  0.09714000  1.0 0.0799751866
H  H328  1  0.34502000  0.42829000  0.98162000  1.0 0.1318726928
H  H329  1  0.25332000  0.37507000  0.88500000  1.0 0.1196615813
H  H330  1  0.34418000  0.48732000  0.97227000  1.0 0.1384274844
H  H331  1  0.18470000  0.44516000  0.96610000  1.0 0.1196615813
H  H332  1  0.24671000  0.49757000  0.96284000  1.0 0.1384274844
H  H333  1  0.15585000  0.38532000  0.87557000  1.0 0.1196615813
H  H334  1  0.25029000  0.34890000  0.99005000  1.0 0.1480308338
H  H335  1  0.18899000  0.35733000  0.98555000  1.0 0.1384274844
H  H336  1  0.15702000  0.29415000  0.89336000  1.0 0.1384274844
H  H337  1  0.49121000  0.55813000  0.39727000  1.0 0.0606575798
H  H338  1  0.41755000  0.44795000  0.32424000  1.0 0.0799751866
H  H339  1  0.48279000  0.50117000  0.32391000  1.0 0.0700106532
H  H340  1  0.34138000  0.38586000  0.15455000  1.0 0.101557349
H  H341  1  0.27531000  0.33277000  0.15427000  1.0 0.0606575798
H  H342  1  0.25754000  0.36776000  0.11635000  1.0 0.0700106532
H  H343  1  0.36163000  0.53353000  0.33994000  1.0 0.0496347674
H  H344  1  0.26997000  0.45854000  0.23032000  1.0 0.101557349
H  H345  1  0.28774000  0.42355000  0.26824000  1.0 0.0700106532
H  H346  1  0.64128000  0.78012000  0.54868000  1.0 0.0700106532
H  H347  1  0.72250000  0.80816000  0.56519000  1.0 0.0606575798
H  H348  1  0.74923000  0.87849000  0.65077000  1.0 0.0891319193
H  H349  1  0.61762000  0.86762000  0.56756000  1.0 0.0606575798
H  H350  1  0.72697000  0.96754000  0.66483000  1.0 0.0700106532
H  H351  1  0.66982000  0.94598000  0.57931000  1.0 0.111037044
H  H352  1  0.84047000  0.00698000  0.67293000  1.0 0.0606575798
H  H353  1  0.81067000  0.93741000  0.58422000  1.0 0.111037044
H  H354  1  0.78330000  0.98484000  0.58696000  1.0 0.0606575798
H  H355  1  0.08804000  0.36272000  0.98318000  1.0 0.1384274844
H  H356  1  0.03758000  0.33048000  0.00391000  1.0 0.1384274844
H  H357  1  0.01491000  0.25674000  0.92480000  1.0 0.1318726928
H  H358  1  0.99773000  0.30723000  0.83589000  1.0 0.1318726928
H  H359  1  0.92220000  0.19998000  0.77407000  1.0 0.1318726928
H  H360  1  0.88850000  0.23933000  0.76056000  1.0 0.1318726928
H  H361  1  0.86540000  0.22099000  0.88485000  1.0 0.1384274844
H  H362  1  0.80763000  0.18665000  0.79057000  1.0 0.1318726928
H  H363  1  0.84134000  0.14730000  0.80408000  1.0 0.1318726928
H  H364  1  0.99613000  0.49390000  0.18508000  1.0 0.1196615813
H  H365  1  0.94923000  0.52210000  0.17396000  1.0 0.0700106532
H  H366  1  0.90541000  0.43842000  0.15662000  1.0 0.0891319193
H  H367  1  0.74173000  0.31570000  0.92194000  1.0 0.111037044
H  H368  1  0.74693000  0.32753000  0.99288000  1.0 0.0700106532
H  H369  1  0.79074000  0.41121000  0.01022000  1.0 0.0496347674
H  H370  1  0.81246000  0.27188000  0.94180000  1.0 0.0891319193
H  H371  1  0.91222000  0.34031000  0.04363000  1.0 0.0700106532
H  H372  1  0.82148000  0.28569000  0.01522000  1.0 0.0700106532
H  H373  1  0.35132000  0.37204000  0.22542000  1.0 0.0606575798
H  H374  1  0.35327000  0.38573000  0.16924000  1.0 0.101557349
H  H375  1  0.44918000  0.45976000  0.27681000  1.0 0.0496347674
H  H376  1  0.26203000  0.45295000  0.21026000  1.0 0.101557349
H  H377  1  0.23819000  0.38245000  0.12766000  1.0 0.0700106532
H  H378  1  0.23307000  0.36610000  0.18121000  1.0 0.0496347674
H  H379  1  0.41157000  0.57109000  0.37593000  1.0 0.0700106532
H  H380  1  0.39432000  0.49401000  0.36136000  1.0 0.0891319193
H  H381  1  0.48843000  0.57926000  0.40646000  1.0 0.0700106532
H  H382  1  0.66198000  0.78169000  0.54869000  1.0 0.0799751866
H  H383  1  0.73450000  0.88347000  0.65137000  1.0 0.0891319193
H  H384  1  0.62715000  0.81925000  0.56799000  1.0 0.0606575798
H  H385  1  0.74442000  0.97937000  0.57532000  1.0 0.0700106532
H  H386  1  0.68192000  0.95054000  0.58562000  1.0 0.1196615813
H  H387  1  0.78927000  0.01476000  0.66900000  1.0 0.0606575798
H  H388  1  0.77877000  0.85422000  0.56591000  1.0 0.0700106532
H  H389  1  0.80767000  0.92712000  0.56844000  1.0 0.1196615813
H  H390  1  0.84915000  0.96066000  0.66063000  1.0 0.0606575798
H  H391  1  0.92075000  0.52350000  0.13487000  1.0 0.0799751866
H  H392  1  0.82304000  0.44577000  0.02668000  1.0 0.0799751866
H  H393  1  0.82552000  0.43497000  0.08597000  1.0 0.0700106532
H  H394  1  0.47188000  0.69190000  0.10519000  1.0 0.0799751866
H  H395  1  0.55402000  0.78553000  0.14757000  1.0 0.0700106532
H  H396  1  0.57804000  0.75201000  0.18471000  1.0 0.0891319193
H  H397  1  0.69069000  0.89307000  0.33054000  1.0 0.111037044
H  H398  1  0.66654000  0.92418000  0.29006000  1.0 0.0606575798
H  H399  1  0.68038000  0.95304000  0.37004000  1.0 0.0606575798
H  H400  1  0.42722000  0.76198000  0.16003000  1.0 0.0799751866
H  H401  1  0.51373000  0.87022000  0.26222000  1.0 0.0496347674
H  H402  1  0.49990000  0.84136000  0.18224000  1.0 0.0700106532
H  H403  1  0.74189000  0.30016000  0.91173000  1.0 0.111037044
H  H404  1  0.75986000  0.25554000  0.93493000  1.0 0.0301338473
H  H405  1  0.73914000  0.30147000  0.97497000  1.0 0.0799751866
H  H406  1  0.00326000  0.49601000  0.18315000  1.0 0.1196615813
H  H407  1  0.91755000  0.43514000  0.16026000  1.0 0.111037044
H  H408  1  0.93827000  0.38921000  0.12022000  1.0 0.0606575798
H  H409  1  0.62872000  0.15901000  0.26380000  1.0 0.111037044
H  H410  1  0.56398000  0.16628000  0.23028000  1.0 0.1196615813
H  H411  1  0.75008000  0.22886000  0.28276000  1.0 0.111037044
H  H412  1  0.76482000  0.28135000  0.26056000  1.0 0.111037044
H  H413  1  0.58670000  0.24666000  0.19705000  1.0 0.1196615813
H  H414  1  0.66593000  0.29142000  0.20825000  1.0 0.111037044
H  H415  1  0.83254000  0.43102000  0.36517000  1.0 0.111037044
H  H416  1  0.86138000  0.47694000  0.45593000  1.0 0.111037044
H  H417  1  0.83832000  0.39738000  0.48802000  1.0 0.111037044
H  H418  1  0.79378000  0.29797000  0.41847000  1.0 0.111037044
H  H419  1  0.63104000  0.31710000  0.33475000  1.0 0.1196615813
H  H420  1  0.73968000  0.40884000  0.43751000  1.0 0.1196615813
H  H421  1  0.88179000  0.31074000  0.68487000  1.0 0.111037044
H  H422  1  0.78151000  0.20235000  0.60240000  1.0 0.0700106532
H  H423  1  0.86954000  0.23145000  0.63494000  1.0 0.0700106532
H  H424  1  0.94891000  0.37490000  0.65286000  1.0 0.0700106532
H  H425  1  0.93646000  0.29609000  0.60003000  1.0 0.0799751866
H  H426  1  0.89194000  0.31040000  0.54782000  1.0 0.0799751866
H  H427  1  0.73455000  0.14105000  0.41566000  1.0 0.0891319193
H  H428  1  0.77818000  0.12624000  0.46778000  1.0 0.0700106532
H  H429  1  0.69014000  0.09714000  0.43525000  1.0 0.0799751866
H  H430  1  0.42829000  0.98162000  0.34502000  1.0 0.1318726928
H  H431  1  0.37507000  0.88500000  0.25332000  1.0 0.1196615813
H  H432  1  0.48732000  0.97227000  0.34418000  1.0 0.1384274844
H  H433  1  0.44516000  0.96610000  0.18470000  1.0 0.1196615813
H  H434  1  0.49757000  0.96284000  0.24671000  1.0 0.1384274844
H  H435  1  0.38532000  0.87557000  0.15585000  1.0 0.1196615813
H  H436  1  0.34890000  0.99005000  0.25029000  1.0 0.1480308338
H  H437  1  0.35733000  0.98555000  0.18899000  1.0 0.1384274844
H  H438  1  0.29415000  0.89336000  0.15702000  1.0 0.1384274844
H  H439  1  0.55813000  0.39727000  0.49121000  1.0 0.0606575798
H  H440  1  0.44795000  0.32424000  0.41755000  1.0 0.0799751866
H  H441  1  0.50117000  0.32391000  0.48279000  1.0 0.0700106532
H  H442  1  0.38586000  0.15455000  0.34138000  1.0 0.101557349
H  H443  1  0.33277000  0.15427000  0.27531000  1.0 0.0606575798
H  H444  1  0.36776000  0.11635000  0.25754000  1.0 0.0700106532
H  H445  1  0.53353000  0.33994000  0.36163000  1.0 0.0496347674
H  H446  1  0.45854000  0.23032000  0.26997000  1.0 0.101557349
H  H447  1  0.42355000  0.26824000  0.28774000  1.0 0.0700106532
H  H448  1  0.78012000  0.54868000  0.64128000  1.0 0.0700106532
H  H449  1  0.80816000  0.56519000  0.72250000  1.0 0.0606575798
H  H450  1  0.87849000  0.65077000  0.74923000  1.0 0.0891319193
H  H451  1  0.86762000  0.56756000  0.61762000  1.0 0.0606575798
H  H452  1  0.96754000  0.66483000  0.72697000  1.0 0.0700106532
H  H453  1  0.94598000  0.57931000  0.66982000  1.0 0.111037044
H  H454  1  0.00698000  0.67293000  0.84047000  1.0 0.0606575798
H  H455  1  0.93741000  0.58422000  0.81067000  1.0 0.111037044
H  H456  1  0.98484000  0.58696000  0.78330000  1.0 0.0606575798
H  H457  1  0.36272000  0.98318000  0.08804000  1.0 0.1384274844
H  H458  1  0.33048000  0.00391000  0.03758000  1.0 0.1384274844
H  H459  1  0.25674000  0.92480000  0.01491000  1.0 0.1318726928
H  H460  1  0.30723000  0.83589000  0.99773000  1.0 0.1318726928
H  H461  1  0.19998000  0.77407000  0.92220000  1.0 0.1318726928
H  H462  1  0.23933000  0.76056000  0.88850000  1.0 0.1318726928
H  H463  1  0.22099000  0.88485000  0.86540000  1.0 0.1384274844
H  H464  1  0.18665000  0.79057000  0.80763000  1.0 0.1318726928
H  H465  1  0.14730000  0.80408000  0.84134000  1.0 0.1318726928
H  H466  1  0.49390000  0.18508000  0.99613000  1.0 0.111037044
H  H467  1  0.52210000  0.17396000  0.94923000  1.0 0.0700106532
H  H468  1  0.43842000  0.15662000  0.90541000  1.0 0.0891319193
H  H469  1  0.31570000  0.92194000  0.74173000  1.0 0.111037044
H  H470  1  0.32753000  0.99288000  0.74693000  1.0 0.0700106532
H  H471  1  0.41121000  0.01022000  0.79074000  1.0 0.0496347674
H  H472  1  0.27188000  0.94180000  0.81246000  1.0 0.0891319193
H  H473  1  0.34031000  0.04363000  0.91222000  1.0 0.0700106532
H  H474  1  0.28569000  0.01522000  0.82148000  1.0 0.0700106532
H  H475  1  0.37204000  0.22542000  0.35132000  1.0 0.0606575798
H  H476  1  0.38573000  0.16924000  0.35327000  1.0 0.101557349
H  H477  1  0.45976000  0.27681000  0.44918000  1.0 0.0496347674
H  H478  1  0.45295000  0.21026000  0.26203000  1.0 0.101557349
H  H479  1  0.38245000  0.12766000  0.23819000  1.0 0.0700106532
H  H480  1  0.36610000  0.18121000  0.23307000  1.0 0.0496347674
H  H481  1  0.57109000  0.37593000  0.41157000  1.0 0.0700106532
H  H482  1  0.49401000  0.36136000  0.39432000  1.0 0.0891319193
H  H483  1  0.57926000  0.40646000  0.48843000  1.0 0.0700106532
H  H484  1  0.78169000  0.54869000  0.66198000  1.0 0.0799751866
H  H485  1  0.88347000  0.65137000  0.73450000  1.0 0.0891319193
H  H486  1  0.81925000  0.56799000  0.62715000  1.0 0.0606575798
H  H487  1  0.97937000  0.57532000  0.74442000  1.0 0.0700106532
H  H488  1  0.95054000  0.58562000  0.68192000  1.0 0.1196615813
H  H489  1  0.01476000  0.66900000  0.78927000  1.0 0.0606575798
H  H490  1  0.85422000  0.56591000  0.77877000  1.0 0.0700106532
H  H491  1  0.92712000  0.56844000  0.80767000  1.0 0.1196615813
H  H492  1  0.96066000  0.66063000  0.84915000  1.0 0.0606575798
H  H493  1  0.52350000  0.13487000  0.92075000  1.0 0.0799751866
H  H494  1  0.44577000  0.02668000  0.82304000  1.0 0.0799751866
H  H495  1  0.43497000  0.08597000  0.82552000  1.0 0.0700106532
H  H496  1  0.69190000  0.10519000  0.47188000  1.0 0.0799751866
H  H497  1  0.78553000  0.14757000  0.55402000  1.0 0.0700106532
H  H498  1  0.75201000  0.18471000  0.57804000  1.0 0.0891319193
H  H499  1  0.89307000  0.33054000  0.69069000  1.0 0.111037044
H  H500  1  0.92418000  0.29006000  0.66654000  1.0 0.0606575798
H  H501  1  0.95304000  0.37004000  0.68038000  1.0 0.0606575798
H  H502  1  0.76198000  0.16003000  0.42722000  1.0 0.0799751866
H  H503  1  0.87022000  0.26222000  0.51373000  1.0 0.0496347674
H  H504  1  0.84136000  0.18224000  0.49990000  1.0 0.0700106532
H  H505  1  0.30016000  0.91173000  0.74189000  1.0 0.111037044
H  H506  1  0.25554000  0.93493000  0.75986000  1.0 0.0301338473
H  H507  1  0.30147000  0.97497000  0.73914000  1.0 0.0799751866
H  H508  1  0.49601000  0.18315000  0.00326000  1.0 0.1196615813
H  H509  1  0.43514000  0.16026000  0.91755000  1.0 0.111037044
H  H510  1  0.38921000  0.12022000  0.93827000  1.0 0.0606575798
H  H511  1  0.15901000  0.26380000  0.62872000  1.0 0.111037044
H  H512  1  0.16628000  0.23028000  0.56398000  1.0 0.1196615813
H  H513  1  0.22886000  0.28276000  0.75008000  1.0 0.111037044
H  H514  1  0.28135000  0.26056000  0.76482000  1.0 0.111037044
H  H515  1  0.24666000  0.19705000  0.58670000  1.0 0.1196615813
H  H516  1  0.29142000  0.20825000  0.66593000  1.0 0.111037044
H  H517  1  0.43102000  0.36517000  0.83254000  1.0 0.111037044
H  H518  1  0.47694000  0.45593000  0.86138000  1.0 0.111037044
H  H519  1  0.39738000  0.48802000  0.83832000  1.0 0.111037044
H  H520  1  0.29797000  0.41847000  0.79378000  1.0 0.111037044
H  H521  1  0.31710000  0.33475000  0.63104000  1.0 0.1196615813
H  H522  1  0.40884000  0.43751000  0.73968000  1.0 0.1196615813
H  H523  1  0.31074000  0.68487000  0.88179000  1.0 0.111037044
H  H524  1  0.20235000  0.60240000  0.78151000  1.0 0.0700106532
H  H525  1  0.23145000  0.63494000  0.86954000  1.0 0.0700106532
H  H526  1  0.37490000  0.65286000  0.94891000  1.0 0.0700106532
H  H527  1  0.29609000  0.60003000  0.93646000  1.0 0.0799751866
H  H528  1  0.31040000  0.54782000  0.89194000  1.0 0.0799751866
H  H529  1  0.14105000  0.41566000  0.73455000  1.0 0.0891319193
H  H530  1  0.12624000  0.46778000  0.77818000  1.0 0.0700106532
H  H531  1  0.09714000  0.43525000  0.69014000  1.0 0.0799751866
H  H532  1  0.98162000  0.34502000  0.42829000  1.0 0.1318726928
H  H533  1  0.88500000  0.25332000  0.37507000  1.0 0.1196615813
H  H534  1  0.97227000  0.34418000  0.48732000  1.0 0.1384274844
H  H535  1  0.96610000  0.18470000  0.44516000  1.0 0.1196615813
H  H536  1  0.96284000  0.24671000  0.49757000  1.0 0.1384274844
H  H537  1  0.87557000  0.15585000  0.38532000  1.0 0.1196615813
H  H538  1  0.99005000  0.25029000  0.34890000  1.0 0.1480308338
H  H539  1  0.98555000  0.18899000  0.35733000  1.0 0.1384274844
H  H540  1  0.89336000  0.15702000  0.29415000  1.0 0.1384274844
H  H541  1  0.39727000  0.49121000  0.55813000  1.0 0.0606575798
H  H542  1  0.32424000  0.41755000  0.44795000  1.0 0.0799751866
H  H543  1  0.32391000  0.48279000  0.50117000  1.0 0.0700106532
H  H544  1  0.15455000  0.34138000  0.38586000  1.0 0.101557349
H  H545  1  0.15427000  0.27531000  0.33277000  1.0 0.0606575798
H  H546  1  0.11635000  0.25754000  0.36776000  1.0 0.0700106532
H  H547  1  0.33994000  0.36163000  0.53353000  1.0 0.0496347674
H  H548  1  0.23032000  0.26997000  0.45854000  1.0 0.101557349
H  H549  1  0.26824000  0.28774000  0.42355000  1.0 0.0700106532
H  H550  1  0.54868000  0.64128000  0.78012000  1.0 0.0700106532
H  H551  1  0.56519000  0.72250000  0.80816000  1.0 0.0606575798
H  H552  1  0.65077000  0.74923000  0.87849000  1.0 0.0891319193
H  H553  1  0.56756000  0.61762000  0.86762000  1.0 0.0606575798
H  H554  1  0.66483000  0.72697000  0.96754000  1.0 0.0700106532
H  H555  1  0.57931000  0.66982000  0.94598000  1.0 0.111037044
H  H556  1  0.67293000  0.84047000  0.00698000  1.0 0.0606575798
H  H557  1  0.58422000  0.81067000  0.93741000  1.0 0.111037044
H  H558  1  0.58696000  0.78330000  0.98484000  1.0 0.0606575798
H  H559  1  0.98318000  0.08804000  0.36272000  1.0 0.1384274844
H  H560  1  0.00391000  0.03758000  0.33048000  1.0 0.1384274844
H  H561  1  0.92480000  0.01491000  0.25674000  1.0 0.1318726928
H  H562  1  0.83589000  0.99773000  0.30723000  1.0 0.1318726928
H  H563  1  0.77407000  0.92220000  0.19998000  1.0 0.1318726928
H  H564  1  0.76056000  0.88850000  0.23933000  1.0 0.1318726928
H  H565  1  0.88485000  0.86540000  0.22099000  1.0 0.1384274844
H  H566  1  0.79057000  0.80763000  0.18665000  1.0 0.1318726928
H  H567  1  0.80408000  0.84134000  0.14730000  1.0 0.1318726928
H  H568  1  0.18508000  0.99613000  0.49390000  1.0 0.1196615813
H  H569  1  0.17396000  0.94923000  0.52210000  1.0 0.0700106532
H  H570  1  0.15662000  0.90541000  0.43842000  1.0 0.0891319193
H  H571  1  0.92194000  0.74173000  0.31570000  1.0 0.111037044
H  H572  1  0.99288000  0.74693000  0.32753000  1.0 0.0700106532
H  H573  1  0.01022000  0.79074000  0.41121000  1.0 0.0496347674
H  H574  1  0.94180000  0.81246000  0.27188000  1.0 0.0891319193
H  H575  1  0.04363000  0.91222000  0.34031000  1.0 0.0700106532
H  H576  1  0.01522000  0.82148000  0.28569000  1.0 0.0700106532
H  H577  1  0.22542000  0.35132000  0.37204000  1.0 0.0606575798
H  H578  1  0.16924000  0.35327000  0.38573000  1.0 0.101557349
H  H579  1  0.27681000  0.44918000  0.45976000  1.0 0.0496347674
H  H580  1  0.21026000  0.26203000  0.45295000  1.0 0.101557349
H  H581  1  0.12766000  0.23819000  0.38245000  1.0 0.0700106532
H  H582  1  0.18121000  0.23307000  0.36610000  1.0 0.0496347674
H  H583  1  0.37593000  0.41157000  0.57109000  1.0 0.0700106532
H  H584  1  0.36136000  0.39432000  0.49401000  1.0 0.0891319193
H  H585  1  0.40646000  0.48843000  0.57926000  1.0 0.0700106532
H  H586  1  0.54869000  0.66198000  0.78169000  1.0 0.0799751866
H  H587  1  0.65137000  0.73450000  0.88347000  1.0 0.0891319193
H  H588  1  0.56799000  0.62715000  0.81925000  1.0 0.0606575798
H  H589  1  0.57532000  0.74442000  0.97937000  1.0 0.0700106532
H  H590  1  0.58562000  0.68192000  0.95054000  1.0 0.1196615813
H  H591  1  0.66900000  0.78927000  0.01476000  1.0 0.0606575798
H  H592  1  0.56591000  0.77877000  0.85422000  1.0 0.0700106532
H  H593  1  0.56844000  0.80767000  0.92712000  1.0 0.1196615813
H  H594  1  0.66063000  0.84915000  0.96066000  1.0 0.0606575798
H  H595  1  0.13487000  0.92075000  0.52350000  1.0 0.0799751866
H  H596  1  0.02668000  0.82304000  0.44577000  1.0 0.0799751866
H  H597  1  0.08597000  0.82552000  0.43497000  1.0 0.0700106532
H  H598  1  0.10519000  0.47188000  0.69190000  1.0 0.0799751866
H  H599  1  0.14757000  0.55402000  0.78553000  1.0 0.0700106532
H  H600  1  0.18471000  0.57804000  0.75201000  1.0 0.0891319193
H  H601  1  0.33054000  0.69069000  0.89307000  1.0 0.111037044
H  H602  1  0.29006000  0.66654000  0.92418000  1.0 0.0606575798
H  H603  1  0.37004000  0.68038000  0.95304000  1.0 0.0606575798
H  H604  1  0.16003000  0.42722000  0.76198000  1.0 0.0799751866
H  H605  1  0.26222000  0.51373000  0.87022000  1.0 0.0496347674
H  H606  1  0.18224000  0.49990000  0.84136000  1.0 0.0700106532
H  H607  1  0.91173000  0.74189000  0.30016000  1.0 0.111037044
H  H608  1  0.93493000  0.75986000  0.25554000  1.0 0.0301338473
H  H609  1  0.97497000  0.73914000  0.30147000  1.0 0.0799751866
H  H610  1  0.18315000  0.00326000  0.49601000  1.0 0.1196615813
H  H611  1  0.16026000  0.91755000  0.43514000  1.0 0.111037044
H  H612  1  0.12022000  0.93827000  0.38921000  1.0 0.0606575798
C  C1  1  0.73234000  0.37196000  0.80023000  1.0 -0.0385097214
C  C2  1  0.71377000  0.25185000  0.73116000  1.0 -0.0325341177
C  C3  1  0.76539000  0.34961000  0.72101000  1.0 -0.0385097214
C  C4  1  0.61050000  0.18514000  0.58323000  1.0 -0.0325341177
C  C5  1  0.57867000  0.20819000  0.66227000  1.0 -0.0385097214
C  C6  1  0.62855000  0.30549000  0.65087000  1.0 -0.0477966609
C  C7  1  0.46595000  0.23535000  0.73946000  1.0 0.4204657384
C  C8  1  0.44679000  0.18571000  0.76050000  1.0 0.1480308338
C  C9  1  0.37477000  0.16105000  0.75338000  1.0 -0.2022860448
C  C10  1  0.40791000  0.09360000  0.68809000  1.0 -0.2022860448
C  C11  1  0.54010000  0.25139000  0.85741000  1.0 -0.2022860448
C  C12  1  0.64990000  0.47719000  0.90476000  1.0 0.5370768813
C  C13  1  0.73104000  0.56315000  0.01231000  1.0 0.210711778
C  C14  1  0.69385000  0.56863000  0.04642000  1.0 -0.4911814572
C  C15  1  0.79131000  0.55836000  0.05583000  1.0 -0.5488611088
C  C16  1  0.78889000  0.64835000  0.03816000  1.0 -0.4747758599
C  C17  1  0.58164000  0.44966000  0.72893000  1.0 0.4204657384
C  C18  1  0.62821000  0.52385000  0.73864000  1.0 0.1480308338
C  C19  1  0.55213000  0.50212000  0.66666667  1.0 -0.208936746
C  C20  1  0.69440000  0.61774000  0.83716000  1.0 -0.208936746
C  C21  1  0.68199000  0.52734000  0.72367000  1.0 -0.208936746
C  C22  1  0.37608000  0.19927000  0.54816000  1.0 0.4073365835
C  C23  1  0.29695000  0.12117000  0.44088000  1.0 0.1384274844
C  C24  1  0.29590000  0.16779000  0.41691000  1.0 -0.2262519243
C  C25  1  0.32323000  0.08110000  0.40367000  1.0 -0.2586091848
C  C26  1  0.20830000  0.04136000  0.39544000  1.0 -0.1904903543
C  C27  1  0.02894000  0.63320000  0.07255000  1.0 0.5517444519
C  C28  1  0.05067000  0.71699000  0.11874000  1.0 0.210711778
C  C29  1  0.97028000  0.68926000  0.04506000  1.0 -0.4770254882
C  C30  1  0.06152000  0.74513000  0.19375000  1.0 -0.522510534
C  C31  1  0.14218000  0.79764000  0.16378000  1.0 -0.4911814572
C  C32  1  0.07567000  0.55612000  0.96613000  1.0 0.4348570613
C  C33  1  0.12586000  0.59936000  0.95271000  1.0 0.1480308338
C  C34  1  0.06334000  0.53022000  0.85034000  1.0 -0.2384651159
C  C35  1  0.22010000  0.63990000  0.01230000  1.0 -0.2022860448
C  C36  1  0.14686000  0.68313000  0.99161000  1.0 -0.2384651159
C  C37  1  0.61770000  0.58170000  0.76960000  1.0 -0.2204216016
C  C38  1  0.73350000  0.58640000  0.81170000  1.0 -0.2022860448
C  C39  1  0.57900000  0.46440000  0.63970000  1.0 -0.2262519243
C  C40  1  0.32030000  0.16270000  0.41620000  1.0 -0.208936746
C  C41  1  0.26790000  0.03730000  0.39930000  1.0 -0.208936746
C  C42  1  0.20600000  0.09180000  0.40820000  1.0 -0.2693065497
C  C43  1  0.14060000  0.54370000  0.92370000  1.0 -0.2022860448
C  C44  1  0.46260000  0.24500000  0.83840000  1.0 -0.2022860448
C  C45  1  0.34320000  0.09600000  0.68590000  1.0 -0.208936746
C  C46  1  0.50720000  0.17760000  0.79220000  1.0 -0.2022860448
C  C47  1  0.23050000  0.69390000  0.04060000  1.0 -0.2022860448
C  C48  1  0.06050000  0.56650000  0.86400000  1.0 -0.2523992824
C  C49  1  0.37196000  0.80023000  0.73234000  1.0 -0.0385097214
C  C50  1  0.25185000  0.73116000  0.71377000  1.0 -0.0325341177
C  C51  1  0.34961000  0.72101000  0.76539000  1.0 -0.0385097214
C  C52  1  0.18514000  0.58323000  0.61050000  1.0 -0.0325341177
C  C53  1  0.20819000  0.66227000  0.57867000  1.0 -0.0385097214
C  C54  1  0.30549000  0.65087000  0.62855000  1.0 -0.0477966609
C  C55  1  0.23535000  0.73946000  0.46595000  1.0 0.4204657384
C  C56  1  0.18571000  0.76050000  0.44679000  1.0 0.1480308338
C  C57  1  0.16105000  0.75338000  0.37477000  1.0 -0.2022860448
C  C58  1  0.09360000  0.68809000  0.40791000  1.0 -0.2022860448
C  C59  1  0.25139000  0.85741000  0.54010000  1.0 -0.2022860448
C  C60  1  0.47719000  0.90476000  0.64990000  1.0 0.5370768813
C  C61  1  0.56315000  0.01231000  0.73104000  1.0 0.210711778
C  C62  1  0.56863000  0.04642000  0.69385000  1.0 -0.4911814572
C  C63  1  0.55836000  0.05583000  0.79131000  1.0 -0.5488611088
C  C64  1  0.64835000  0.03816000  0.78889000  1.0 -0.4747758599
C  C65  1  0.44966000  0.72893000  0.58164000  1.0 0.4204657384
C  C66  1  0.52385000  0.73864000  0.62821000  1.0 0.1480308338
C  C67  1  0.50212000  0.66666667  0.55213000  1.0 -0.208936746
C  C68  1  0.61774000  0.83716000  0.69440000  1.0 -0.208936746
C  C69  1  0.52734000  0.72367000  0.68199000  1.0 -0.208936746
C  C70  1  0.19927000  0.54816000  0.37608000  1.0 0.4073365835
C  C71  1  0.12117000  0.44088000  0.29695000  1.0 0.1384274844
C  C72  1  0.16779000  0.41691000  0.29590000  1.0 -0.2262519243
C  C73  1  0.08110000  0.40367000  0.32323000  1.0 -0.2586091848
C  C74  1  0.04136000  0.39544000  0.20830000  1.0 -0.1904903543
C  C75  1  0.63320000  0.07255000  0.02894000  1.0 0.5517444519
C  C76  1  0.71699000  0.11874000  0.05067000  1.0 0.210711778
C  C77  1  0.68926000  0.04506000  0.97028000  1.0 -0.4770254882
C  C78  1  0.74513000  0.19375000  0.06152000  1.0 -0.522510534
C  C79  1  0.79764000  0.16378000  0.14218000  1.0 -0.4911814572
C  C80  1  0.55612000  0.96613000  0.07567000  1.0 0.4368646947
C  C81  1  0.59936000  0.95271000  0.12586000  1.0 0.1480308338
C  C82  1  0.53022000  0.85034000  0.06334000  1.0 -0.2384651159
C  C83  1  0.63990000  0.01230000  0.22010000  1.0 -0.2022860448
C  C84  1  0.68313000  0.99161000  0.14686000  1.0 -0.2384651159
C  C85  1  0.58170000  0.76960000  0.61770000  1.0 -0.2204216016
C  C86  1  0.58640000  0.81170000  0.73350000  1.0 -0.2022860448
C  C87  1  0.46440000  0.63970000  0.57900000  1.0 -0.2262519243
C  C88  1  0.16270000  0.41620000  0.32030000  1.0 -0.208936746
C  C89  1  0.03730000  0.39930000  0.26790000  1.0 -0.208936746
C  C90  1  0.09180000  0.40820000  0.20600000  1.0 -0.2693065497
C  C91  1  0.54370000  0.92370000  0.14060000  1.0 -0.2022860448
C  C92  1  0.24500000  0.83840000  0.46260000  1.0 -0.2022860448
C  C93  1  0.09600000  0.68590000  0.34320000  1.0 -0.208936746
C  C94  1  0.17760000  0.79220000  0.50720000  1.0 -0.2022860448
C  C95  1  0.69390000  0.04060000  0.23050000  1.0 -0.2022860448
C  C96  1  0.56650000  0.86400000  0.06050000  1.0 -0.2523992824
C  C97  1  0.80023000  0.73234000  0.37196000  1.0 -0.0385097214
C  C98  1  0.73116000  0.71377000  0.25185000  1.0 -0.0325341177
C  C99  1  0.72101000  0.76539000  0.34961000  1.0 -0.0385097214
C  C100  1  0.58323000  0.61050000  0.18514000  1.0 -0.0325341177
C  C101  1  0.66227000  0.57867000  0.20819000  1.0 -0.0385097214
C  C102  1  0.65087000  0.62855000  0.30549000  1.0 -0.0477966609
C  C103  1  0.73946000  0.46595000  0.23535000  1.0 0.4204657384
C  C104  1  0.76050000  0.44679000  0.18571000  1.0 0.1480308338
C  C105  1  0.75338000  0.37477000  0.16105000  1.0 -0.2022860448
C  C106  1  0.68809000  0.40791000  0.09360000  1.0 -0.2022860448
C  C107  1  0.85741000  0.54010000  0.25139000  1.0 -0.2022860448
C  C108  1  0.90476000  0.64990000  0.47719000  1.0 0.5370768813
C  C109  1  0.01231000  0.73104000  0.56315000  1.0 0.210711778
C  C110  1  0.04642000  0.69385000  0.56863000  1.0 -0.4911814572
C  C111  1  0.05583000  0.79131000  0.55836000  1.0 -0.5488611088
C  C112  1  0.03816000  0.78889000  0.64835000  1.0 -0.4747758599
C  C113  1  0.72893000  0.58164000  0.44966000  1.0 0.4204657384
C  C114  1  0.73864000  0.62821000  0.52385000  1.0 0.1480308338
C  C115  1  0.66666667  0.55213000  0.50212000  1.0 -0.208936746
C  C116  1  0.83716000  0.69440000  0.61774000  1.0 -0.208936746
C  C117  1  0.72367000  0.68199000  0.52734000  1.0 -0.208936746
C  C118  1  0.54816000  0.37608000  0.19927000  1.0 0.4073365835
C  C119  1  0.44088000  0.29695000  0.12117000  1.0 0.1384274844
C  C120  1  0.41691000  0.29590000  0.16779000  1.0 -0.2262519243
C  C121  1  0.40367000  0.32323000  0.08110000  1.0 -0.2586091848
C  C122  1  0.39544000  0.20830000  0.04136000  1.0 -0.1904903543
C  C123  1  0.07255000  0.02894000  0.63320000  1.0 0.5517444519
C  C124  1  0.11874000  0.05067000  0.71699000  1.0 0.210711778
C  C125  1  0.04506000  0.97028000  0.68926000  1.0 -0.4770254882
C  C126  1  0.19375000  0.06152000  0.74513000  1.0 -0.522510534
C  C127  1  0.16378000  0.14218000  0.79764000  1.0 -0.4911814572
C  C128  1  0.96613000  0.07567000  0.55612000  1.0 0.4348570613
C  C129  1  0.95271000  0.12586000  0.59936000  1.0 0.1480308338
C  C130  1  0.85034000  0.06334000  0.53022000  1.0 -0.2384651159
C  C131  1  0.01230000  0.22010000  0.63990000  1.0 -0.2022860448
C  C132  1  0.99161000  0.14686000  0.68313000  1.0 -0.2384651159
C  C133  1  0.76960000  0.61770000  0.58170000  1.0 -0.2204216016
C  C134  1  0.81170000  0.73350000  0.58640000  1.0 -0.2022860448
C  C135  1  0.63970000  0.57900000  0.46440000  1.0 -0.2262519243
C  C136  1  0.41620000  0.32030000  0.16270000  1.0 -0.208936746
C  C137  1  0.39930000  0.26790000  0.03730000  1.0 -0.208936746
C  C138  1  0.40820000  0.20600000  0.09180000  1.0 -0.2693065497
C  C139  1  0.92370000  0.14060000  0.54370000  1.0 -0.2022860448
C  C140  1  0.83840000  0.46260000  0.24500000  1.0 -0.2022860448
C  C141  1  0.68590000  0.34320000  0.09600000  1.0 -0.208936746
C  C142  1  0.79220000  0.50720000  0.17760000  1.0 -0.2022860448
C  C143  1  0.04060000  0.23050000  0.69390000  1.0 -0.2022860448
C  C144  1  0.86400000  0.06050000  0.56650000  1.0 -0.2523992824
C  C145  1  0.26766000  0.62804000  0.19977000  1.0 -0.0385097214
C  C146  1  0.28623000  0.74815000  0.26884000  1.0 -0.0325341177
C  C147  1  0.23461000  0.65039000  0.27899000  1.0 -0.0385097214
C  C148  1  0.38950000  0.81486000  0.41677000  1.0 -0.0325341177
C  C149  1  0.42133000  0.79181000  0.33773000  1.0 -0.0385097214
C  C150  1  0.37145000  0.69451000  0.34913000  1.0 -0.0477966609
C  C151  1  0.53405000  0.76465000  0.26054000  1.0 0.4204657384
C  C152  1  0.55321000  0.81429000  0.23950000  1.0 0.1480308338
C  C153  1  0.62523000  0.83895000  0.24662000  1.0 -0.2022860448
C  C154  1  0.59209000  0.90640000  0.31191000  1.0 -0.2022860448
C  C155  1  0.45990000  0.74861000  0.14259000  1.0 -0.2022860448
C  C156  1  0.35010000  0.52281000  0.09524000  1.0 0.5370768813
C  C157  1  0.26896000  0.43685000  0.98769000  1.0 0.210711778
C  C158  1  0.30615000  0.43137000  0.95358000  1.0 -0.4911814572
C  C159  1  0.20869000  0.44164000  0.94417000  1.0 -0.5488611088
C  C160  1  0.21111000  0.35165000  0.96184000  1.0 -0.4747758599
C  C161  1  0.41836000  0.55034000  0.27107000  1.0 0.4204657384
C  C162  1  0.37179000  0.47615000  0.26136000  1.0 0.1480308338
C  C163  1  0.44787000  0.49788000  0.33333333  1.0 -0.208936746
C  C164  1  0.30560000  0.38226000  0.16284000  1.0 -0.208936746
C  C165  1  0.31801000  0.47266000  0.27633000  1.0 -0.208936746
C  C166  1  0.62392000  0.80073000  0.45184000  1.0 0.4073365835
C  C167  1  0.70305000  0.87883000  0.55912000  1.0 0.1384274844
C  C168  1  0.70410000  0.83221000  0.58309000  1.0 -0.2262519243
C  C169  1  0.67677000  0.91890000  0.59633000  1.0 -0.2586091848
C  C170  1  0.79170000  0.95864000  0.60456000  1.0 -0.1904903543
C  C171  1  0.97106000  0.36680000  0.92745000  1.0 0.5517444519
C  C172  1  0.94933000  0.28301000  0.88126000  1.0 0.210711778
C  C173  1  0.02972000  0.31074000  0.95494000  1.0 -0.4770254882
C  C174  1  0.93848000  0.25487000  0.80625000  1.0 -0.522510534
C  C175  1  0.85782000  0.20236000  0.83622000  1.0 -0.4911814572
C  C176  1  0.92433000  0.44388000  0.03387000  1.0 0.4348570613
C  C177  1  0.87414000  0.40064000  0.04729000  1.0 0.1480308338
C  C178  1  0.93666000  0.46978000  0.14966000  1.0 -0.2384651159
C  C179  1  0.77990000  0.36010000  0.98770000  1.0 -0.2022860448
C  C180  1  0.85314000  0.31687000  0.00839000  1.0 -0.2384651159
C  C181  1  0.38230000  0.41830000  0.23040000  1.0 -0.2204216016
C  C182  1  0.26650000  0.41360000  0.18830000  1.0 -0.2022860448
C  C183  1  0.42100000  0.53560000  0.36030000  1.0 -0.2262519243
C  C184  1  0.67970000  0.83730000  0.58380000  1.0 -0.208936746
C  C185  1  0.73210000  0.96270000  0.60070000  1.0 -0.208936746
C  C186  1  0.79400000  0.90820000  0.59180000  1.0 -0.2693065497
C  C187  1  0.85940000  0.45630000  0.07630000  1.0 -0.2022860448
C  C188  1  0.53740000  0.75500000  0.16160000  1.0 -0.2022860448
C  C189  1  0.65680000  0.90400000  0.31410000  1.0 -0.208936746
C  C190  1  0.49280000  0.82240000  0.20780000  1.0 -0.2022860448
C  C191  1  0.76950000  0.30610000  0.95940000  1.0 -0.2022860448
C  C192  1  0.93950000  0.43350000  0.13600000  1.0 -0.2523992824
C  C193  1  0.62804000  0.19977000  0.26766000  1.0 -0.0385097214
C  C194  1  0.74815000  0.26884000  0.28623000  1.0 -0.0325341177
C  C195  1  0.65039000  0.27899000  0.23461000  1.0 -0.0385097214
C  C196  1  0.81486000  0.41677000  0.38950000  1.0 -0.0325341177
C  C197  1  0.79181000  0.33773000  0.42133000  1.0 -0.0385097214
C  C198  1  0.69451000  0.34913000  0.37145000  1.0 -0.0477966609
C  C199  1  0.76465000  0.26054000  0.53405000  1.0 0.4204657384
C  C200  1  0.81429000  0.23950000  0.55321000  1.0 0.1480308338
C  C201  1  0.83895000  0.24662000  0.62523000  1.0 -0.2022860448
C  C202  1  0.90640000  0.31191000  0.59209000  1.0 -0.2022860448
C  C203  1  0.74861000  0.14259000  0.45990000  1.0 -0.2022860448
C  C204  1  0.52281000  0.09524000  0.35010000  1.0 0.5370768813
C  C205  1  0.43685000  0.98769000  0.26896000  1.0 0.210711778
C  C206  1  0.43137000  0.95358000  0.30615000  1.0 -0.4911814572
C  C207  1  0.44164000  0.94417000  0.20869000  1.0 -0.5488611088
C  C208  1  0.35165000  0.96184000  0.21111000  1.0 -0.4747758599
C  C209  1  0.55034000  0.27107000  0.41836000  1.0 0.4204657384
C  C210  1  0.47615000  0.26136000  0.37179000  1.0 0.1480308338
C  C211  1  0.49788000  0.33333333  0.44787000  1.0 -0.208936746
C  C212  1  0.38226000  0.16284000  0.30560000  1.0 -0.208936746
C  C213  1  0.47266000  0.27633000  0.31801000  1.0 -0.208936746
C  C214  1  0.80073000  0.45184000  0.62392000  1.0 0.4073365835
C  C215  1  0.87883000  0.55912000  0.70305000  1.0 0.1384274844
C  C216  1  0.83221000  0.58309000  0.70410000  1.0 -0.2262519243
C  C217  1  0.91890000  0.59633000  0.67677000  1.0 -0.2586091848
C  C218  1  0.95864000  0.60456000  0.79170000  1.0 -0.1904903543
C  C219  1  0.36680000  0.92745000  0.97106000  1.0 0.5517444519
C  C220  1  0.28301000  0.88126000  0.94933000  1.0 0.210711778
C  C221  1  0.31074000  0.95494000  0.02972000  1.0 -0.4770254882
C  C222  1  0.25487000  0.80625000  0.93848000  1.0 -0.522510534
C  C223  1  0.20236000  0.83622000  0.85782000  1.0 -0.4911814572
C  C224  1  0.44388000  0.03387000  0.92433000  1.0 0.4348570613
C  C225  1  0.40064000  0.04729000  0.87414000  1.0 0.1480308338
C  C226  1  0.46978000  0.14966000  0.93666000  1.0 -0.2384651159
C  C227  1  0.36010000  0.98770000  0.77990000  1.0 -0.2022860448
C  C228  1  0.31687000  0.00839000  0.85314000  1.0 -0.2384651159
C  C229  1  0.41830000  0.23040000  0.38230000  1.0 -0.2204216016
C  C230  1  0.41360000  0.18830000  0.26650000  1.0 -0.2022860448
C  C231  1  0.53560000  0.36030000  0.42100000  1.0 -0.2262519243
C  C232  1  0.83730000  0.58380000  0.67970000  1.0 -0.208936746
C  C233  1  0.96270000  0.60070000  0.73210000  1.0 -0.208936746
C  C234  1  0.90820000  0.59180000  0.79400000  1.0 -0.2693065497
C  C235  1  0.45630000  0.07630000  0.85940000  1.0 -0.2022860448
C  C236  1  0.75500000  0.16160000  0.53740000  1.0 -0.2022860448
C  C237  1  0.90400000  0.31410000  0.65680000  1.0 -0.208936746
C  C238  1  0.82240000  0.20780000  0.49280000  1.0 -0.2022860448
C  C239  1  0.30610000  0.95940000  0.76950000  1.0 -0.2022860448
C  C240  1  0.43350000  0.13600000  0.93950000  1.0 -0.2523992824
C  C241  1  0.19977000  0.26766000  0.62804000  1.0 -0.0385097214
C  C242  1  0.26884000  0.28623000  0.74815000  1.0 -0.0325341177
C  C243  1  0.27899000  0.23461000  0.65039000  1.0 -0.0385097214
C  C244  1  0.41677000  0.38950000  0.81486000  1.0 -0.0325341177
C  C245  1  0.33773000  0.42133000  0.79181000  1.0 -0.0385097214
C  C246  1  0.34913000  0.37145000  0.69451000  1.0 -0.0477966609
C  C247  1  0.26054000  0.53405000  0.76465000  1.0 0.4204657384
C  C248  1  0.23950000  0.55321000  0.81429000  1.0 0.1480308338
C  C249  1  0.24662000  0.62523000  0.83895000  1.0 -0.2022860448
C  C250  1  0.31191000  0.59209000  0.90640000  1.0 -0.2022860448
C  C251  1  0.14259000  0.45990000  0.74861000  1.0 -0.2022860448
C  C252  1  0.09524000  0.35010000  0.52281000  1.0 0.5370768813
C  C253  1  0.98769000  0.26896000  0.43685000  1.0 0.210711778
C  C254  1  0.95358000  0.30615000  0.43137000  1.0 -0.4911814572
C  C255  1  0.94417000  0.20869000  0.44164000  1.0 -0.5488611088
C  C256  1  0.96184000  0.21111000  0.35165000  1.0 -0.4747758599
C  C257  1  0.27107000  0.41836000  0.55034000  1.0 0.4204657384
C  C258  1  0.26136000  0.37179000  0.47615000  1.0 0.1480308338
C  C259  1  0.33333333  0.44787000  0.49788000  1.0 -0.208936746
C  C260  1  0.16284000  0.30560000  0.38226000  1.0 -0.208936746
C  C261  1  0.27633000  0.31801000  0.47266000  1.0 -0.208936746
C  C262  1  0.45184000  0.62392000  0.80073000  1.0 0.4073365835
C  C263  1  0.55912000  0.70305000  0.87883000  1.0 0.1384274844
C  C264  1  0.58309000  0.70410000  0.83221000  1.0 -0.2262519243
C  C265  1  0.59633000  0.67677000  0.91890000  1.0 -0.2586091848
C  C266  1  0.60456000  0.79170000  0.95864000  1.0 -0.1904903543
C  C267  1  0.92745000  0.97106000  0.36680000  1.0 0.5517444519
C  C268  1  0.88126000  0.94933000  0.28301000  1.0 0.210711778
C  C269  1  0.95494000  0.02972000  0.31074000  1.0 -0.4770254882
C  C270  1  0.80625000  0.93848000  0.25487000  1.0 -0.522510534
C  C271  1  0.83622000  0.85782000  0.20236000  1.0 -0.4911814572
C  C272  1  0.03387000  0.92433000  0.44388000  1.0 0.4368646947
C  C273  1  0.04729000  0.87414000  0.40064000  1.0 0.1480308338
C  C274  1  0.14966000  0.93666000  0.46978000  1.0 -0.2384651159
C  C275  1  0.98770000  0.77990000  0.36010000  1.0 -0.2022860448
C  C276  1  0.00839000  0.85314000  0.31687000  1.0 -0.2384651159
C  C277  1  0.23040000  0.38230000  0.41830000  1.0 -0.2204216016
C  C278  1  0.18830000  0.26650000  0.41360000  1.0 -0.2022860448
C  C279  1  0.36030000  0.42100000  0.53560000  1.0 -0.2262519243
C  C280  1  0.58380000  0.67970000  0.83730000  1.0 -0.208936746
C  C281  1  0.60070000  0.73210000  0.96270000  1.0 -0.208936746
C  C282  1  0.59180000  0.79400000  0.90820000  1.0 -0.2693065497
C  C283  1  0.07630000  0.85940000  0.45630000  1.0 -0.2022860448
C  C284  1  0.16160000  0.53740000  0.75500000  1.0 -0.2022860448
C  C285  1  0.31410000  0.65680000  0.90400000  1.0 -0.208936746
C  C286  1  0.20780000  0.49280000  0.82240000  1.0 -0.2022860448
C  C287  1  0.95940000  0.76950000  0.30610000  1.0 -0.2022860448
C  C288  1  0.13600000  0.93950000  0.43350000  1.0 -0.2523992824
N  N1  1  0.63300000  0.30400000  0.71136000  1.0 -0.1644902023
N  N2  1  0.66629000  0.28072000  0.63037000  1.0 -0.1704219063
N  N3  1  0.77261000  0.34930000  0.78292000  1.0 -0.1704219063
N  N4  1  0.61551000  0.18255000  0.64219000  1.0 -0.1267013418
N  N5  1  0.30400000  0.71136000  0.63300000  1.0 -0.1644902023
N  N6  1  0.28072000  0.63037000  0.66629000  1.0 -0.1704219063
N  N7  1  0.34930000  0.78292000  0.77261000  1.0 -0.1704219063
N  N8  1  0.18255000  0.64219000  0.61551000  1.0 -0.1267013418
N  N9  1  0.71136000  0.63300000  0.30400000  1.0 -0.1644902023
N  N10  1  0.63037000  0.66629000  0.28072000  1.0 -0.1704219063
N  N11  1  0.78292000  0.77261000  0.34930000  1.0 -0.1704219063
N  N12  1  0.64219000  0.61551000  0.18255000  1.0 -0.1267013418
N  N13  1  0.36700000  0.69600000  0.28864000  1.0 -0.1644902023
N  N14  1  0.33371000  0.71928000  0.36963000  1.0 -0.1704219063
N  N15  1  0.22739000  0.65070000  0.21708000  1.0 -0.1704219063
N  N16  1  0.38449000  0.81745000  0.35781000  1.0 -0.1267013418
N  N17  1  0.69600000  0.28864000  0.36700000  1.0 -0.1644902023
N  N18  1  0.71928000  0.36963000  0.33371000  1.0 -0.1704219063
N  N19  1  0.65070000  0.21708000  0.22739000  1.0 -0.1704219063
N  N20  1  0.81745000  0.35781000  0.38449000  1.0 -0.1267013418
N  N21  1  0.28864000  0.36700000  0.69600000  1.0 -0.1644902023
N  N22  1  0.36963000  0.33371000  0.71928000  1.0 -0.1704219063
N  N23  1  0.21708000  0.22739000  0.65070000  1.0 -0.1704219063
N  N24  1  0.35781000  0.38449000  0.81745000  1.0 -0.1267013418
O  O1  1  0.43522000  0.26323000  0.73445000  1.0 -0.5144088658
O  O2  1  0.51468000  0.24715000  0.73086000  1.0 -0.522510534
O  O3  1  0.57717000  0.45294000  0.85993000  1.0 -0.5488611088
O  O4  1  0.66071000  0.43791000  0.86777000  1.0 -0.522510534
O  O5  1  0.51924000  0.42515000  0.71945000  1.0 -0.522510534
O  O6  1  0.61071000  0.41968000  0.73371000  1.0 -0.522510534
O  O7  1  0.36306000  0.23376000  0.58723000  1.0 -0.522510534
O  O8  1  0.45002000  0.22625000  0.59094000  1.0 -0.522510534
O  O9  1  0.95321000  0.55750000  0.98623000  1.0 -0.5313436729
O  O10  1  0.09003000  0.64719000  0.12560000  1.0 -0.5488611088
O  O11  1  0.98821000  0.49577000  0.90202000  1.0 -0.522510534
O  O12  1  0.12608000  0.58660000  0.04190000  1.0 -0.5313436729
O  O13  1  0.26323000  0.73445000  0.43522000  1.0 -0.5144088658
O  O14  1  0.24715000  0.73086000  0.51468000  1.0 -0.522510534
O  O15  1  0.45294000  0.85993000  0.57717000  1.0 -0.5488611088
O  O16  1  0.43791000  0.86777000  0.66071000  1.0 -0.522510534
O  O17  1  0.42515000  0.71945000  0.51924000  1.0 -0.522510534
O  O18  1  0.41968000  0.73371000  0.61071000  1.0 -0.522510534
O  O19  1  0.23376000  0.58723000  0.36306000  1.0 -0.522510534
O  O20  1  0.22625000  0.59094000  0.45002000  1.0 -0.522510534
O  O21  1  0.55750000  0.98623000  0.95321000  1.0 -0.5313436729
O  O22  1  0.64719000  0.12560000  0.09003000  1.0 -0.5488611088
O  O23  1  0.49577000  0.90202000  0.98821000  1.0 -0.522510534
O  O24  1  0.58660000  0.04190000  0.12608000  1.0 -0.5313436729
O  O25  1  0.73445000  0.43522000  0.26323000  1.0 -0.5144088658
O  O26  1  0.73086000  0.51468000  0.24715000  1.0 -0.522510534
O  O27  1  0.85993000  0.57717000  0.45294000  1.0 -0.5488611088
O  O28  1  0.86777000  0.66071000  0.43791000  1.0 -0.522510534
O  O29  1  0.71945000  0.51924000  0.42515000  1.0 -0.522510534
O  O30  1  0.73371000  0.61071000  0.41968000  1.0 -0.522510534
O  O31  1  0.58723000  0.36306000  0.23376000  1.0 -0.522510534
O  O32  1  0.59094000  0.45002000  0.22625000  1.0 -0.522510534
O  O33  1  0.98623000  0.95321000  0.55750000  1.0 -0.5313436729
O  O34  1  0.12560000  0.09003000  0.64719000  1.0 -0.5488611088
O  O35  1  0.90202000  0.98821000  0.49577000  1.0 -0.522510534
O  O36  1  0.04190000  0.12608000  0.58660000  1.0 -0.5313436729
O  O37  1  0.56478000  0.73677000  0.26555000  1.0 -0.5144088658
O  O38  1  0.48532000  0.75285000  0.26914000  1.0 -0.522510534
O  O39  1  0.42283000  0.54706000  0.14007000  1.0 -0.5488611088
O  O40  1  0.33929000  0.56209000  0.13223000  1.0 -0.522510534
O  O41  1  0.48076000  0.57485000  0.28055000  1.0 -0.522510534
O  O42  1  0.38929000  0.58032000  0.26629000  1.0 -0.522510534
O  O43  1  0.63694000  0.76624000  0.41277000  1.0 -0.522510534
O  O44  1  0.54998000  0.77375000  0.40906000  1.0 -0.522510534
O  O45  1  0.04679000  0.44250000  0.01377000  1.0 -0.5313436729
O  O46  1  0.90997000  0.35281000  0.87440000  1.0 -0.5488611088
O  O47  1  0.01179000  0.50423000  0.09798000  1.0 -0.522510534
O  O48  1  0.87392000  0.41340000  0.95810000  1.0 -0.5313436729
O  O49  1  0.73677000  0.26555000  0.56478000  1.0 -0.5144088658
O  O50  1  0.75285000  0.26914000  0.48532000  1.0 -0.522510534
O  O51  1  0.54706000  0.14007000  0.42283000  1.0 -0.5488611088
O  O52  1  0.56209000  0.13223000  0.33929000  1.0 -0.522510534
O  O53  1  0.57485000  0.28055000  0.48076000  1.0 -0.522510534
O  O54  1  0.58032000  0.26629000  0.38929000  1.0 -0.522510534
O  O55  1  0.76624000  0.41277000  0.63694000  1.0 -0.522510534
O  O56  1  0.77375000  0.40906000  0.54998000  1.0 -0.522510534
O  O57  1  0.44250000  0.01377000  0.04679000  1.0 -0.5313436729
O  O58  1  0.35281000  0.87440000  0.90997000  1.0 -0.5488611088
O  O59  1  0.50423000  0.09798000  0.01179000  1.0 -0.522510534
O  O60  1  0.41340000  0.95810000  0.87392000  1.0 -0.5313436729
O  O61  1  0.26555000  0.56478000  0.73677000  1.0 -0.5144088658
O  O62  1  0.26914000  0.48532000  0.75285000  1.0 -0.522510534
O  O63  1  0.14007000  0.42283000  0.54706000  1.0 -0.5488611088
O  O64  1  0.13223000  0.33929000  0.56209000  1.0 -0.522510534
O  O65  1  0.28055000  0.48076000  0.57485000  1.0 -0.522510534
O  O66  1  0.26629000  0.38929000  0.58032000  1.0 -0.522510534
O  O67  1  0.41277000  0.63694000  0.76624000  1.0 -0.522510534
O  O68  1  0.40906000  0.54998000  0.77375000  1.0 -0.522510534
O  O69  1  0.01377000  0.04679000  0.44250000  1.0 -0.5313436729
O  O70  1  0.87440000  0.90997000  0.35281000  1.0 -0.5488611088
O  O71  1  0.09798000  0.01179000  0.50423000  1.0 -0.522510534
O  O72  1  0.95810000  0.87392000  0.41340000  1.0 -0.5313436729
