# DDEC6 charges by PACMAN v1.1 (https://github.com/mtap-research/PACMAN-charge/)
data_XAJZOY_ASR_pacman
_symmetry_space_group_name_H-M   'P 1'
_cell_length_a   13.16300000
_cell_length_b   14.79300000
_cell_length_c   13.21500000
_cell_angle_alpha   90.00000000
_cell_angle_beta   119.74000000
_cell_angle_gamma   90.00000000
_symmetry_Int_Tables_number   1
_chemical_formula_structural   Al3P3HO13
_chemical_formula_sum   'Al18 P18 H6 O78'
_cell_volume   2234.29651562
_cell_formula_units_Z   6
loop_
 _symmetry_equiv_pos_site_id
 _symmetry_equiv_pos_as_xyz
  1  'x, y, z'
loop_
 _atom_site_type_symbol
 _atom_site_label
 _atom_site_symmetry_multiplicity
 _atom_site_fract_x
 _atom_site_fract_y
 _atom_site_fract_z
 _atom_site_occupancy
 _atom_site_charge
Al  Al1  1  0.82390000  0.83460000  0.39900000  1.0 1.7214427305
Al  Al2  1  0.17610000  0.33460000  0.60100000  1.0 1.7214427305
Al  Al3  1  0.08650000  0.83020000  0.17930000  1.0 1.7214427305
Al  Al4  1  0.91350000  0.33020000  0.82070000  1.0 1.7132482442
Al  Al5  1  0.60280000  0.82720000  0.92190000  1.0 1.733137122
Al  Al6  1  0.39720000  0.32720000  0.07810000  1.0 1.733137122
Al  Al7  1  0.50640000  0.69060000  0.26810000  1.0 1.7524624976
Al  Al8  1  0.49360000  0.19060000  0.73190000  1.0 1.7596994949
Al  Al9  1  0.27210000  0.69400000  0.49760000  1.0 1.7596994949
Al  Al10  1  0.72790000  0.19400000  0.50240000  1.0 1.7596994949
Al  Al11  1  0.72570000  0.70720000  0.72540000  1.0 1.8119872722
Al  Al12  1  0.27430000  0.20720000  0.27460000  1.0 1.8119872722
Al  Al13  1  0.50260000  0.96330000  0.27210000  1.0 1.7718648823
Al  Al14  1  0.49740000  0.46330000  0.72790000  1.0 1.7800917538
Al  Al15  1  0.72620000  0.95540000  0.72830000  1.0 1.7800917538
Al  Al16  1  0.27380000  0.45540000  0.27170000  1.0 1.7859005841
Al  Al17  1  0.27170000  0.96590000  0.50150000  1.0 1.7718648823
Al  Al18  1  0.72830000  0.46590000  0.49850000  1.0 1.7718648823
P  P1  1  0.59330000  0.82940000  0.15920000  1.0 1.5226075562
P  P2  1  0.40670000  0.32940000  0.84080000  1.0 1.5226075562
P  P3  1  0.07120000  0.83110000  0.40710000  1.0 1.5397781643
P  P4  1  0.92880000  0.33110000  0.59290000  1.0 1.5397781643
P  P5  1  0.84640000  0.82890000  0.93540000  1.0 1.5083895238
P  P6  1  0.15360000  0.32890000  0.06460000  1.0 1.5083895238
P  P7  1  0.26610000  0.66920000  0.26130000  1.0 1.5772963675
P  P8  1  0.73390000  0.16920000  0.73870000  1.0 1.5772963675
P  P9  1  0.49520000  0.67270000  0.73340000  1.0 1.5772963675
P  P10  1  0.50480000  0.17270000  0.26660000  1.0 1.5772963675
P  P11  1  0.73780000  0.67920000  0.49760000  1.0 1.5707719835
P  P12  1  0.26220000  0.17920000  0.50240000  1.0 1.5707719835
P  P13  1  0.26130000  0.99100000  0.26090000  1.0 1.6086781733
P  P14  1  0.73870000  0.49100000  0.73910000  1.0 1.6086781733
P  P15  1  0.73720000  0.98680000  0.49790000  1.0 1.6034459584
P  P16  1  0.26280000  0.48680000  0.50210000  1.0 1.6086781733
P  P17  1  0.49610000  0.98430000  0.73800000  1.0 1.6034459584
P  P18  1  0.50390000  0.48430000  0.26200000  1.0 1.6034459584
H  H1  1  0.59190000  0.83360000  0.64130000  1.0 0.4700944634
H  H2  1  0.40810000  0.33360000  0.35870000  1.0 0.4700944634
H  H3  1  0.49700000  0.83440000  0.38630000  1.0 0.489436126
H  H4  1  0.50300000  0.33440000  0.61370000  1.0 0.489436126
H  H5  1  0.38170000  0.82740000  0.45960000  1.0 0.5214992972
H  H6  1  0.61830000  0.32740000  0.54040000  1.0 0.5214992972
O  O1  1  0.67210000  0.83320000  0.69250000  1.0 -0.9284109262
O  O2  1  0.32790000  0.33320000  0.30750000  1.0 -0.9284109262
O  O3  1  0.53930000  0.91460000  0.17340000  1.0 -0.8110043539
O  O4  1  0.46070000  0.41460000  0.82660000  1.0 -0.8110043539
O  O5  1  0.50100000  0.83400000  0.31800000  1.0 -0.799218867
O  O6  1  0.49900000  0.33400000  0.68200000  1.0 -0.799218867
O  O7  1  0.72180000  0.82100000  0.24860000  1.0 -0.8510354248
O  O8  1  0.27820000  0.32100000  0.75140000  1.0 -0.8510354248
O  O9  1  0.53670000  0.74420000  0.17160000  1.0 -0.7890383413
O  O10  1  0.46330000  0.24420000  0.82840000  1.0 -0.7890383413
O  O11  1  0.58670000  0.82510000  0.04080000  1.0 -0.7597028849
O  O12  1  0.41330000  0.32510000  0.95920000  1.0 -0.7597028849
O  O13  1  0.96090000  0.82900000  0.41400000  1.0 -0.7787001617
O  O14  1  0.03910000  0.32900000  0.58600000  1.0 -0.7787001617
O  O15  1  0.14150000  0.91520000  0.46950000  1.0 -0.8110043539
O  O16  1  0.85850000  0.41520000  0.53050000  1.0 -0.8110043539
O  O17  1  0.13760000  0.74530000  0.46480000  1.0 -0.8110043539
O  O18  1  0.86240000  0.24530000  0.53520000  1.0 -0.8110043539
O  O19  1  0.03950000  0.83000000  0.28070000  1.0 -0.8386130675
O  O20  1  0.96050000  0.33000000  0.71930000  1.0 -0.8386130675
O  O21  1  0.83530000  0.91780000  0.86820000  1.0 -0.8110043539
O  O22  1  0.16470000  0.41780000  0.13180000  1.0 -0.8110043539
O  O23  1  0.74910000  0.82280000  0.96880000  1.0 -0.8386130675
O  O24  1  0.25090000  0.32280000  0.03120000  1.0 -0.8386130675
O  O25  1  0.83900000  0.75070000  0.86800000  1.0 -0.7890383413
O  O26  1  0.16100000  0.25070000  0.13200000  1.0 -0.7890383413
O  O27  1  0.96370000  0.82770000  0.04490000  1.0 -0.7597028849
O  O28  1  0.03630000  0.32770000  0.95510000  1.0 -0.7597028849
O  O29  1  0.31360000  0.68530000  0.39050000  1.0 -0.8191473734
O  O30  1  0.68640000  0.18530000  0.60950000  1.0 -0.8191473734
O  O31  1  0.15980000  0.73460000  0.19200000  1.0 -0.8110043539
O  O32  1  0.84020000  0.23460000  0.80800000  1.0 -0.8110043539
O  O33  1  0.22410000  0.57620000  0.22660000  1.0 -0.7787001617
O  O34  1  0.77590000  0.07620000  0.77340000  1.0 -0.7787001617
O  O35  1  0.36170000  0.69100000  0.24270000  1.0 -0.7787001617
O  O36  1  0.63830000  0.19100000  0.75730000  1.0 -0.7787001617
O  O37  1  0.38180000  0.70730000  0.63890000  1.0 -0.7890383413
O  O38  1  0.61820000  0.20730000  0.36110000  1.0 -0.7890383413
O  O39  1  0.53780000  0.72900000  0.84880000  1.0 -0.8110043539
O  O40  1  0.46220000  0.22900000  0.15120000  1.0 -0.8110043539
O  O41  1  0.57870000  0.67240000  0.68780000  1.0 -0.8386130675
O  O42  1  0.42130000  0.17240000  0.31220000  1.0 -0.8386130675
O  O43  1  0.48600000  0.58610000  0.77300000  1.0 -0.7410882202
O  O44  1  0.51400000  0.08610000  0.22700000  1.0 -0.7410882202
O  O45  1  0.81150000  0.73540000  0.46690000  1.0 -0.8191473734
O  O46  1  0.18850000  0.23540000  0.53310000  1.0 -0.8191473734
O  O47  1  0.77380000  0.70470000  0.61870000  1.0 -0.7890383413
O  O48  1  0.22620000  0.20470000  0.38130000  1.0 -0.7890383413
O  O49  1  0.77050000  0.58200000  0.49550000  1.0 -0.8191473734
O  O50  1  0.22950000  0.08200000  0.50450000  1.0 -0.8191473734
O  O51  1  0.60570000  0.68940000  0.41710000  1.0 -0.8305002935
O  O52  1  0.39430000  0.18940000  0.58290000  1.0 -0.8386130675
O  O53  1  0.16290000  0.93120000  0.19330000  1.0 -0.8191473734
O  O54  1  0.83710000  0.43120000  0.80670000  1.0 -0.8191473734
O  O55  1  0.30540000  0.98010000  0.39090000  1.0 -0.8305002935
O  O56  1  0.69460000  0.48010000  0.60910000  1.0 -0.8305002935
O  O57  1  0.35930000  0.96550000  0.23090000  1.0 -0.7890383413
O  O58  1  0.64070000  0.46550000  0.76910000  1.0 -0.7890383413
O  O59  1  0.22260000  0.08970000  0.22530000  1.0 -0.799218867
O  O60  1  0.77740000  0.58970000  0.77470000  1.0 -0.799218867
O  O61  1  0.61700000  0.96690000  0.41400000  1.0 -0.799218867
O  O62  1  0.38300000  0.46690000  0.58600000  1.0 -0.799218867
O  O63  1  0.76090000  0.95600000  0.61900000  1.0 -0.799218867
O  O64  1  0.23910000  0.45600000  0.38100000  1.0 -0.799218867
O  O65  1  0.80980000  0.93110000  0.45590000  1.0 -0.7890383413
O  O66  1  0.19020000  0.43110000  0.54410000  1.0 -0.7890383413
O  O67  1  0.76800000  0.08570000  0.49000000  1.0 -0.799218867
O  O68  1  0.23200000  0.58570000  0.51000000  1.0 -0.799218867
O  O69  1  0.37880000  0.94640000  0.64150000  1.0 -0.7890383413
O  O70  1  0.62120000  0.44640000  0.35850000  1.0 -0.7787001617
O  O71  1  0.53710000  0.92450000  0.84350000  1.0 -0.8191473734
O  O72  1  0.46290000  0.42450000  0.15650000  1.0 -0.8191473734
O  O73  1  0.58250000  0.98030000  0.69790000  1.0 -0.8191473734
O  O74  1  0.41750000  0.48030000  0.30210000  1.0 -0.8110043539
O  O75  1  0.47750000  0.08230000  0.77080000  1.0 -0.799218867
O  O76  1  0.52250000  0.58230000  0.22920000  1.0 -0.799218867
O  O77  1  0.32400000  0.82700000  0.48100000  1.0 -0.7787001617
O  O78  1  0.67600000  0.32700000  0.51900000  1.0 -0.7787001617
