# DDEC6 charges by PACMAN v1.1 (https://github.com/mtap-research/PACMAN-charge/)
data_XAKZAL_ASR_pacman
_symmetry_space_group_name_H-M   'P 1'
_cell_length_a   30.07330000
_cell_length_b   30.07330000
_cell_length_c   30.07330000
_cell_angle_alpha   94.84100000
_cell_angle_beta   94.84100000
_cell_angle_gamma   146.22400000
_symmetry_Int_Tables_number   1
_chemical_formula_structural   Mn3H57C51N8O9
_chemical_formula_sum   'Mn24 H456 C408 N64 O72'
_cell_volume   14468.78869242
_cell_formula_units_Z   8
loop_
 _symmetry_equiv_pos_site_id
 _symmetry_equiv_pos_as_xyz
  1  'x, y, z'
loop_
 _atom_site_type_symbol
 _atom_site_label
 _atom_site_symmetry_multiplicity
 _atom_site_fract_x
 _atom_site_fract_y
 _atom_site_fract_z
 _atom_site_occupancy
 _atom_site_charge
Mn  Mn1  1  0.61971000  0.51329000  0.33328000  1.0 0.7611268473
Mn  Mn2  1  0.53643000  0.36971000  0.60642000  1.0 0.7611268473
Mn  Mn3  1  0.76329000  0.93001000  0.39358000  1.0 0.7611268473
Mn  Mn4  1  0.18001000  0.28643000  0.66666667  1.0 0.7611268473
Mn  Mn5  1  0.63029000  0.23671000  0.16672000  1.0 0.7611268473
Mn  Mn6  1  0.71357000  0.38029000  0.89358000  1.0 0.7611268473
Mn  Mn7  1  0.48671000  0.81999000  0.10642000  1.0 0.7611268473
Mn  Mn8  1  0.06999000  0.46357000  0.83328000  1.0 0.7611268473
Mn  Mn9  1  0.48220000  0.26852000  0.36670000  1.0 0.8533255793
Mn  Mn10  1  0.36550000  0.23220000  0.71368000  1.0 0.8533255793
Mn  Mn11  1  0.51852000  0.65182000  0.28632000  1.0 0.8533255793
Mn  Mn12  1  0.90182000  0.11550000  0.63330000  1.0 0.8533255793
Mn  Mn13  1  0.76780000  0.48148000  0.13330000  1.0 0.8533255793
Mn  Mn14  1  0.88450000  0.51780000  0.78632000  1.0 0.8533255793
Mn  Mn15  1  0.73148000  0.09818000  0.21368000  1.0 0.8533255793
Mn  Mn16  1  0.34818000  0.63450000  0.86670000  1.0 0.8533255793
Mn  Mn17  1  0.83043000  0.65863000  0.25240000  1.0 0.7680393483
Mn  Mn18  1  0.82803000  0.58043000  0.67180000  1.0 0.7680393483
Mn  Mn19  1  0.90863000  0.15623000  0.32820000  1.0 0.7680393483
Mn  Mn20  1  0.40623000  0.57803000  0.74760000  1.0 0.7680393483
Mn  Mn21  1  0.41957000  0.09137000  0.24760000  1.0 0.7680393483
Mn  Mn22  1  0.42197000  0.16957000  0.82820000  1.0 0.7611268473
Mn  Mn23  1  0.34137000  0.59377000  0.17180000  1.0 0.7680393483
Mn  Mn24  1  0.84377000  0.17197000  0.75240000  1.0 0.7680393483
H  H1  1  0.59780000  0.44640000  0.49320000  1.0 0.1196232768
H  H2  1  0.35460000  0.34780000  0.65140000  1.0 0.1196232768
H  H3  1  0.69640000  0.70320000  0.34860000  1.0 0.1196232768
H  H4  1  0.95320000  0.10460000  0.50680000  1.0 0.1196232768
H  H5  1  0.65220000  0.30360000  0.00680000  1.0 0.1196232768
H  H6  1  0.89540000  0.40220000  0.84860000  1.0 0.1196232768
H  H7  1  0.55360000  0.04680000  0.15140000  1.0 0.1196232768
H  H8  1  0.29680000  0.64540000  0.99320000  1.0 0.1196232768
H  H9  1  0.66960000  0.55560000  0.55420000  1.0 0.1293308846
H  H10  1  0.36540000  0.41960000  0.61400000  1.0 0.1293308846
H  H11  1  0.80560000  0.75140000  0.38600000  1.0 0.1293308846
H  H12  1  0.00140000  0.11540000  0.44580000  1.0 0.1293308846
H  H13  1  0.58040000  0.19440000  0.94580000  1.0 0.1293308846
H  H14  1  0.88460000  0.33040000  0.88600000  1.0 0.1293308846
H  H15  1  0.44440000  0.99860000  0.11400000  1.0 0.1293308846
H  H16  1  0.24860000  0.63460000  0.05420000  1.0 0.1293308846
H  H17  1  0.74600000  0.67800000  0.53960000  1.0 0.1103167396
H  H18  1  0.45640000  0.49600000  0.56800000  1.0 0.1103167396
H  H19  1  0.92800000  0.88840000  0.43200000  1.0 0.1103167396
H  H20  1  0.13840000  0.20640000  0.46040000  1.0 0.1103167396
H  H21  1  0.50400000  0.07200000  0.96040000  1.0 0.1103167396
H  H22  1  0.79360000  0.25400000  0.93200000  1.0 0.1103167396
H  H23  1  0.32200000  0.86160000  0.06800000  1.0 0.1103167396
H  H24  1  0.11160000  0.54360000  0.03960000  1.0 0.1103167396
H  H25  1  0.75190000  0.69200000  0.46510000  1.0 0.1293308846
H  H26  1  0.53680000  0.50190000  0.55990000  1.0 0.1293308846
H  H27  1  0.94200000  0.97690000  0.44010000  1.0 0.1293308846
H  H28  1  0.22690000  0.28680000  0.53490000  1.0 0.1293308846
H  H29  1  0.49810000  0.05800000  0.03490000  1.0 0.1293308846
H  H30  1  0.71320000  0.24810000  0.94010000  1.0 0.1293308846
H  H31  1  0.30800000  0.77310000  0.05990000  1.0 0.1293308846
H  H32  1  0.02310000  0.46320000  0.96510000  1.0 0.1293308846
H  H33  1  0.48530000  0.30130000  0.22140000  1.0 0.1407632807
H  H34  1  0.51390000  0.23530000  0.68400000  1.0 0.1407632807
H  H35  1  0.55130000  0.82990000  0.31600000  1.0 0.1407632807
H  H36  1  0.07990000  0.26390000  0.77860000  1.0 0.1407632807
H  H37  1  0.76470000  0.44870000  0.27860000  1.0 0.1407632807
H  H38  1  0.73610000  0.51470000  0.81600000  1.0 0.1407632807
H  H39  1  0.69870000  0.92010000  0.18400000  1.0 0.1407632807
H  H40  1  0.17010000  0.48610000  0.72140000  1.0 0.1407632807
H  H41  1  0.44570000  0.24470000  0.25640000  1.0 0.1407632807
H  H42  1  0.43930000  0.19570000  0.70100000  1.0 0.1407632807
H  H43  1  0.49470000  0.73830000  0.29900000  1.0 0.1407632807
H  H44  1  0.98830000  0.18930000  0.74360000  1.0 0.1407632807
H  H45  1  0.80430000  0.50530000  0.24360000  1.0 0.1407632807
H  H46  1  0.81070000  0.55430000  0.79900000  1.0 0.1407632807
H  H47  1  0.75530000  0.01170000  0.20100000  1.0 0.1407632807
H  H48  1  0.26170000  0.56070000  0.75640000  1.0 0.1407632807
H  H49  1  0.38920000  0.28250000  0.22270000  1.0 0.1103167396
H  H50  1  0.41650000  0.13920000  0.60670000  1.0 0.1103167396
H  H51  1  0.53250000  0.80980000  0.39330000  1.0 0.1103167396
H  H52  1  0.05980000  0.16650000  0.77730000  1.0 0.1103167396
H  H53  1  0.86080000  0.46750000  0.27730000  1.0 0.1103167396
H  H54  1  0.83350000  0.61080000  0.89330000  1.0 0.1103167396
H  H55  1  0.71750000  0.94020000  0.10670000  1.0 0.1103167396
H  H56  1  0.19020000  0.58350000  0.72270000  1.0 0.1103167396
H  H57  1  0.34560000  0.21740000  0.25220000  1.0 0.0907386001
H  H58  1  0.34340000  0.09560000  0.62820000  1.0 0.0907386001
H  H59  1  0.46740000  0.71520000  0.37180000  1.0 0.0907386001
H  H60  1  0.96520000  0.09340000  0.74780000  1.0 0.0907386001
H  H61  1  0.90440000  0.53260000  0.24780000  1.0 0.0907386001
H  H62  1  0.90660000  0.65440000  0.87180000  1.0 0.0907386001
H  H63  1  0.78260000  0.03480000  0.12820000  1.0 0.0907386001
H  H64  1  0.28480000  0.65660000  0.75220000  1.0 0.0907386001
H  H65  1  0.35480000  0.17780000  0.17220000  1.0 0.1196232768
H  H66  1  0.43260000  0.10480000  0.67700000  1.0 0.1196232768
H  H67  1  0.42780000  0.75560000  0.32300000  1.0 0.1196232768
H  H68  1  0.00560000  0.18260000  0.82780000  1.0 0.1196232768
H  H69  1  0.89520000  0.57220000  0.32780000  1.0 0.1196232768
H  H70  1  0.81740000  0.64520000  0.82300000  1.0 0.1196232768
H  H71  1  0.82220000  0.99440000  0.17700000  1.0 0.1196232768
H  H72  1  0.24440000  0.56740000  0.67220000  1.0 0.1196232768
H  H73  1  0.30680000  0.18300000  0.16120000  1.0 0.1103167396
H  H74  1  0.39560000  0.05680000  0.62380000  1.0 0.1103167396
H  H75  1  0.43300000  0.77180000  0.37620000  1.0 0.1103167396
H  H76  1  0.02180000  0.14560000  0.83880000  1.0 0.1103167396
H  H77  1  0.94320000  0.56700000  0.33880000  1.0 0.1103167396
H  H78  1  0.85440000  0.69320000  0.87620000  1.0 0.1103167396
H  H79  1  0.81700000  0.97820000  0.12380000  1.0 0.1103167396
H  H80  1  0.22820000  0.60440000  0.66120000  1.0 0.1103167396
H  H81  1  0.27370000  0.09040000  0.20330000  1.0 0.1196232768
H  H82  1  0.32040000  0.02370000  0.68330000  1.0 0.1196232768
H  H83  1  0.34040000  0.63710000  0.31670000  1.0 0.1196232768
H  H84  1  0.88710000  0.07040000  0.79670000  1.0 0.1196232768
H  H85  1  0.97630000  0.65960000  0.29670000  1.0 0.1196232768
H  H86  1  0.92960000  0.72630000  0.81670000  1.0 0.1196232768
H  H87  1  0.90960000  0.11290000  0.18330000  1.0 0.1196232768
H  H88  1  0.36290000  0.67960000  0.70330000  1.0 0.1196232768
H  H89  1  0.22760000  0.09830000  0.19790000  1.0 0.1103167396
H  H90  1  0.27970000  0.97760000  0.62930000  1.0 0.1103167396
H  H91  1  0.34830000  0.65040000  0.37070000  1.0 0.1103167396
H  H92  1  0.90040000  0.02970000  0.80210000  1.0 0.1103167396
H  H93  1  0.02240000  0.65170000  0.30210000  1.0 0.1103167396
H  H94  1  0.97030000  0.77240000  0.87070000  1.0 0.1103167396
H  H95  1  0.90170000  0.09960000  0.12930000  1.0 0.1103167396
H  H96  1  0.34960000  0.72030000  0.69790000  1.0 0.1103167396
H  H97  1  0.22930000  0.05410000  0.11240000  1.0 0.1103167396
H  H98  1  0.36690000  0.97930000  0.67520000  1.0 0.1103167396
H  H99  1  0.30410000  0.69170000  0.32480000  1.0 0.1103167396
H  H100  1  0.94170000  0.11690000  0.88760000  1.0 0.1103167396
H  H101  1  0.02070000  0.69590000  0.38760000  1.0 0.1103167396
H  H102  1  0.88310000  0.77070000  0.82480000  1.0 0.1103167396
H  H103  1  0.94590000  0.05830000  0.17520000  1.0 0.1103167396
H  H104  1  0.30830000  0.63310000  0.61240000  1.0 0.1103167396
H  H105  1  0.17520000  0.98490000  0.14010000  1.0 0.1103167396
H  H106  1  0.28510000  0.92520000  0.69030000  1.0 0.1103167396
H  H107  1  0.23490000  0.59480000  0.30970000  1.0 0.1103167396
H  H108  1  0.84480000  0.03510000  0.85990000  1.0 0.1103167396
H  H109  1  0.07480000  0.76510000  0.35990000  1.0 0.1103167396
H  H110  1  0.96490000  0.82480000  0.80970000  1.0 0.1103167396
H  H111  1  0.01510000  0.15520000  0.19030000  1.0 0.1103167396
H  H112  1  0.40520000  0.71490000  0.64010000  1.0 0.1103167396
H  H113  1  0.15350000  0.01640000  0.12550000  1.0 0.1196232768
H  H114  1  0.27800000  0.90350000  0.63710000  1.0 0.1196232768
H  H115  1  0.26640000  0.64090000  0.36290000  1.0 0.1196232768
H  H116  1  0.89090000  0.02800000  0.87450000  1.0 0.1196232768
H  H117  1  0.09650000  0.73360000  0.37450000  1.0 0.1196232768
H  H118  1  0.97200000  0.84650000  0.86290000  1.0 0.1196232768
H  H119  1  0.98360000  0.10910000  0.13710000  1.0 0.1196232768
H  H120  1  0.35910000  0.72200000  0.62550000  1.0 0.1196232768
H  H121  1  0.56260000  0.56670000  0.34310000  1.0 0.1196232768
H  H122  1  0.46950000  0.31260000  0.49590000  1.0 0.1196232768
H  H123  1  0.81670000  0.97360000  0.50410000  1.0 0.1196232768
H  H124  1  0.22360000  0.21950000  0.65690000  1.0 0.1196232768
H  H125  1  0.68740000  0.18330000  0.15690000  1.0 0.1196232768
H  H126  1  0.78050000  0.43740000  0.00410000  1.0 0.1196232768
H  H127  1  0.43330000  0.77640000  0.99590000  1.0 0.1196232768
H  H128  1  0.02640000  0.53050000  0.84310000  1.0 0.1196232768
H  H129  1  0.44980000  0.51600000  0.34520000  1.0 0.1407632807
H  H130  1  0.35460000  0.19980000  0.43380000  1.0 0.1407632807
H  H131  1  0.76600000  0.92080000  0.56620000  1.0 0.1407632807
H  H132  1  0.17080000  0.10460000  0.65480000  1.0 0.1407632807
H  H133  1  0.80020000  0.23400000  0.15480000  1.0 0.1407632807
H  H134  1  0.89540000  0.55020000  0.06620000  1.0 0.1407632807
H  H135  1  0.48400000  0.82920000  0.93380000  1.0 0.1407632807
H  H136  1  0.07920000  0.64540000  0.84520000  1.0 0.1407632807
H  H137  1  0.31590000  0.29180000  0.33650000  1.0 0.1293308846
H  H138  1  0.22940000  0.06590000  0.52410000  1.0 0.1293308846
H  H139  1  0.54180000  0.70530000  0.47590000  1.0 0.1293308846
H  H140  1  0.95530000  0.97940000  0.66350000  1.0 0.1293308846
H  H141  1  0.93410000  0.45820000  0.16350000  1.0 0.1293308846
H  H142  1  0.02060000  0.68410000  0.97590000  1.0 0.1293308846
H  H143  1  0.70820000  0.04470000  0.02410000  1.0 0.1293308846
H  H144  1  0.29470000  0.77060000  0.83650000  1.0 0.1293308846
H  H145  1  0.43270000  0.34890000  0.33500000  1.0 0.1103167396
H  H146  1  0.34770000  0.18270000  0.58380000  1.0 0.1103167396
H  H147  1  0.59890000  0.76390000  0.41620000  1.0 0.1103167396
H  H148  1  0.01390000  0.09770000  0.66500000  1.0 0.1103167396
H  H149  1  0.81730000  0.40110000  0.16500000  1.0 0.1103167396
H  H150  1  0.90230000  0.56730000  0.91620000  1.0 0.1103167396
H  H151  1  0.65110000  0.98610000  0.08380000  1.0 0.1103167396
H  H152  1  0.23610000  0.65230000  0.83500000  1.0 0.1103167396
H  H153  1  0.27850000  0.36450000  0.30960000  1.0 0.1293308846
H  H154  1  0.21890000  0.02850000  0.41400000  1.0 0.1293308846
H  H155  1  0.61450000  0.80490000  0.58600000  1.0 0.1293308846
H  H156  1  0.05490000  0.96890000  0.69040000  1.0 0.1293308846
H  H157  1  0.97150000  0.38550000  0.19040000  1.0 0.1293308846
H  H158  1  0.03110000  0.72150000  0.08600000  1.0 0.1293308846
H  H159  1  0.63550000  0.94510000  0.91400000  1.0 0.1293308846
H  H160  1  0.19510000  0.78110000  0.80960000  1.0 0.1293308846
H  H161  1  0.31070000  0.40130000  0.36460000  1.0 0.1196232768
H  H162  1  0.19610000  0.06070000  0.40940000  1.0 0.1196232768
H  H163  1  0.65130000  0.78670000  0.59060000  1.0 0.1196232768
H  H164  1  0.03670000  0.94610000  0.63540000  1.0 0.1196232768
H  H165  1  0.93930000  0.34870000  0.13540000  1.0 0.1196232768
H  H166  1  0.05390000  0.68930000  0.09060000  1.0 0.1196232768
H  H167  1  0.59870000  0.96330000  0.90940000  1.0 0.1196232768
H  H168  1  0.21330000  0.80390000  0.86460000  1.0 0.1196232768
H  H169  1  0.19530000  0.96240000  0.26230000  1.0 0.1196232768
H  H170  1  0.18300000  0.94530000  0.73290000  1.0 0.1196232768
H  H171  1  0.21240000  0.45010000  0.26710000  1.0 0.1196232768
H  H172  1  0.70010000  0.93300000  0.73770000  1.0 0.1196232768
H  H173  1  0.05470000  0.78760000  0.23770000  1.0 0.1196232768
H  H174  1  0.06700000  0.80470000  0.76710000  1.0 0.1196232768
H  H175  1  0.03760000  0.29990000  0.23290000  1.0 0.1196232768
H  H176  1  0.54990000  0.81700000  0.76230000  1.0 0.1196232768
H  H177  1  0.08630000  0.91930000  0.26560000  1.0 0.1196232768
H  H178  1  0.07070000  0.83630000  0.66700000  1.0 0.1196232768
H  H179  1  0.16930000  0.40370000  0.33300000  1.0 0.1196232768
H  H180  1  0.65370000  0.82070000  0.73440000  1.0 0.1196232768
H  H181  1  0.16370000  0.83070000  0.23440000  1.0 0.1196232768
H  H182  1  0.17930000  0.91370000  0.83300000  1.0 0.1196232768
H  H183  1  0.08070000  0.34630000  0.16700000  1.0 0.1196232768
H  H184  1  0.59630000  0.92930000  0.76560000  1.0 0.1196232768
H  H185  1  0.11550000  0.01240000  0.30730000  1.0 0.1103167396
H  H186  1  0.05820000  0.86550000  0.60310000  1.0 0.1103167396
H  H187  1  0.26240000  0.45510000  0.39690000  1.0 0.1103167396
H  H188  1  0.70510000  0.80820000  0.69270000  1.0 0.1103167396
H  H189  1  0.13450000  0.73760000  0.19270000  1.0 0.1103167396
H  H190  1  0.19180000  0.88450000  0.89690000  1.0 0.1103167396
H  H191  1  0.98760000  0.29490000  0.10310000  1.0 0.1103167396
H  H192  1  0.54490000  0.94180000  0.80730000  1.0 0.1103167396
H  H193  1  0.25010000  0.14680000  0.34590000  1.0 0.1293308846
H  H194  1  0.15420000  0.00010000  0.60330000  1.0 0.1293308846
H  H195  1  0.39680000  0.55090000  0.39670000  1.0 0.1293308846
H  H196  1  0.80090000  0.90420000  0.65410000  1.0 0.1293308846
H  H197  1  0.99990000  0.60320000  0.15410000  1.0 0.1293308846
H  H198  1  0.09580000  0.74990000  0.89670000  1.0 0.1293308846
H  H199  1  0.85320000  0.19910000  0.10330000  1.0 0.1293308846
H  H200  1  0.44910000  0.84580000  0.84590000  1.0 0.1293308846
H  H201  1  0.61480000  0.25850000  0.30510000  1.0 0.1407632807
H  H202  1  0.55970000  0.36480000  0.85630000  1.0 0.1407632807
H  H203  1  0.50850000  0.70340000  0.14370000  1.0 0.1407632807
H  H204  1  0.95340000  0.30970000  0.69490000  1.0 0.1407632807
H  H205  1  0.63520000  0.49150000  0.19490000  1.0 0.1407632807
H  H206  1  0.69030000  0.38520000  0.64370000  1.0 0.1407632807
H  H207  1  0.74150000  0.04660000  0.35630000  1.0 0.1407632807
H  H208  1  0.29660000  0.44030000  0.80510000  1.0 0.1407632807
H  H209  1  0.67560000  0.35200000  0.32180000  1.0 0.1407632807
H  H210  1  0.60380000  0.42560000  0.82360000  1.0 0.1407632807
H  H211  1  0.60200000  0.78020000  0.17640000  1.0 0.1407632807
H  H212  1  0.03020000  0.35380000  0.67820000  1.0 0.1407632807
H  H213  1  0.57440000  0.39800000  0.17820000  1.0 0.1407632807
H  H214  1  0.64620000  0.32440000  0.67640000  1.0 0.1407632807
H  H215  1  0.64800000  0.96980000  0.32360000  1.0 0.1407632807
H  H216  1  0.21980000  0.39620000  0.82180000  1.0 0.1407632807
H  H217  1  0.72970000  0.34240000  0.37090000  1.0 0.0976101836
H  H218  1  0.60880000  0.47970000  0.88730000  1.0 0.0976101836
H  H219  1  0.59240000  0.72150000  0.11270000  1.0 0.0976101836
H  H220  1  0.97150000  0.35880000  0.62910000  1.0 0.0976101836
H  H221  1  0.52030000  0.40760000  0.12910000  1.0 0.0976101836
H  H222  1  0.64120000  0.27030000  0.61270000  1.0 0.0976101836
H  H223  1  0.65760000  0.02850000  0.38730000  1.0 0.0976101836
H  H224  1  0.27850000  0.39120000  0.87090000  1.0 0.0976101836
H  H225  1  0.69600000  0.35280000  0.40060000  1.0 0.0976101836
H  H226  1  0.54540000  0.44600000  0.84320000  1.0 0.0976101836
H  H227  1  0.60280000  0.70220000  0.15680000  1.0 0.0976101836
H  H228  1  0.95220000  0.29540000  0.59940000  1.0 0.0976101836
H  H229  1  0.55400000  0.39720000  0.09940000  1.0 0.0976101836
H  H230  1  0.70460000  0.30400000  0.65680000  1.0 0.0976101836
H  H231  1  0.64720000  0.04780000  0.34320000  1.0 0.0976101836
H  H232  1  0.29780000  0.45460000  0.90060000  1.0 0.0976101836
H  H233  1  0.60380000  0.19570000  0.36090000  1.0 0.1103167396
H  H234  1  0.49290000  0.35380000  0.90810000  1.0 0.1103167396
H  H235  1  0.44570000  0.58480000  0.09190000  1.0 0.1103167396
H  H236  1  0.83480000  0.24290000  0.63910000  1.0 0.1103167396
H  H237  1  0.64620000  0.55430000  0.13910000  1.0 0.1103167396
H  H238  1  0.75710000  0.39620000  0.59190000  1.0 0.1103167396
H  H239  1  0.80430000  0.16520000  0.40810000  1.0 0.1103167396
H  H240  1  0.41520000  0.50710000  0.86090000  1.0 0.1103167396
H  H241  1  0.57500000  0.20940000  0.39340000  1.0 0.1103167396
H  H242  1  0.43160000  0.32500000  0.86560000  1.0 0.1103167396
H  H243  1  0.45940000  0.56600000  0.13440000  1.0 0.1103167396
H  H244  1  0.81600000  0.18160000  0.60660000  1.0 0.1103167396
H  H245  1  0.67500000  0.54060000  0.10660000  1.0 0.1103167396
H  H246  1  0.81840000  0.42500000  0.63440000  1.0 0.1103167396
H  H247  1  0.79060000  0.18400000  0.36560000  1.0 0.1103167396
H  H248  1  0.43400000  0.56840000  0.89340000  1.0 0.1103167396
H  H249  1  0.71620000  0.27300000  0.42360000  1.0 0.0976101836
H  H250  1  0.54260000  0.46620000  0.94320000  1.0 0.0976101836
H  H251  1  0.52300000  0.59940000  0.05680000  1.0 0.0976101836
H  H252  1  0.84940000  0.29260000  0.57640000  1.0 0.0976101836
H  H253  1  0.53380000  0.47700000  0.07640000  1.0 0.0976101836
H  H254  1  0.70740000  0.28380000  0.55680000  1.0 0.0976101836
H  H255  1  0.72700000  0.15060000  0.44320000  1.0 0.0976101836
H  H256  1  0.40060000  0.45740000  0.92360000  1.0 0.0976101836
H  H257  1  0.68850000  0.28820000  0.45630000  1.0 0.0976101836
H  H258  1  0.48220000  0.43850000  0.90030000  1.0 0.0976101836
H  H259  1  0.53820000  0.58190000  0.09970000  1.0 0.0976101836
H  H260  1  0.83190000  0.23220000  0.54370000  1.0 0.0976101836
H  H261  1  0.56150000  0.46180000  0.04370000  1.0 0.0976101836
H  H262  1  0.76780000  0.31150000  0.59970000  1.0 0.0976101836
H  H263  1  0.71180000  0.16810000  0.40030000  1.0 0.0976101836
H  H264  1  0.41810000  0.51780000  0.95630000  1.0 0.0976101836
H  H265  1  0.59260000  0.12960000  0.41620000  1.0 0.1196232768
H  H266  1  0.42640000  0.34260000  0.96300000  1.0 0.1196232768
H  H267  1  0.37960000  0.46340000  0.03700000  1.0 0.1196232768
H  H268  1  0.71340000  0.17640000  0.58380000  1.0 0.1196232768
H  H269  1  0.65740000  0.62040000  0.08380000  1.0 0.1196232768
H  H270  1  0.82360000  0.40740000  0.53700000  1.0 0.1196232768
H  H271  1  0.87040000  0.28660000  0.46300000  1.0 0.1196232768
H  H272  1  0.53660000  0.57360000  0.91620000  1.0 0.1196232768
H  H273  1  0.64320000  0.18080000  0.46980000  1.0 0.1103167396
H  H274  1  0.42340000  0.39320000  0.96240000  1.0 0.1103167396
H  H275  1  0.43080000  0.46100000  0.03760000  1.0 0.1103167396
H  H276  1  0.71100000  0.17340000  0.53020000  1.0 0.1103167396
H  H277  1  0.60680000  0.56920000  0.03020000  1.0 0.1103167396
H  H278  1  0.82660000  0.35680000  0.53760000  1.0 0.1103167396
H  H279  1  0.81920000  0.28900000  0.46240000  1.0 0.1103167396
H  H280  1  0.53900000  0.57660000  0.96980000  1.0 0.1103167396
H  H281  1  0.56400000  0.14410000  0.44830000  1.0 0.1293308846
H  H282  1  0.36570000  0.31400000  0.91990000  1.0 0.1293308846
H  H283  1  0.39410000  0.44580000  0.08010000  1.0 0.1293308846
H  H284  1  0.69580000  0.11570000  0.55170000  1.0 0.1293308846
H  H285  1  0.68600000  0.60590000  0.05170000  1.0 0.1293308846
H  H286  1  0.88430000  0.43600000  0.58010000  1.0 0.1293308846
H  H287  1  0.85590000  0.30420000  0.41990000  1.0 0.1293308846
H  H288  1  0.55420000  0.63430000  0.94830000  1.0 0.1293308846
H  H289  1  0.66310000  0.66520000  0.26790000  1.0 0.1196232768
H  H290  1  0.64520000  0.41310000  0.49790000  1.0 0.1196232768
H  H291  1  0.91520000  0.14730000  0.50210000  1.0 0.1196232768
H  H292  1  0.39730000  0.39520000  0.73210000  1.0 0.1196232768
H  H293  1  0.58690000  0.08480000  0.23210000  1.0 0.1196232768
H  H294  1  0.60480000  0.33690000  0.00210000  1.0 0.1196232768
H  H295  1  0.33480000  0.60270000  0.99790000  1.0 0.1196232768
H  H296  1  0.85270000  0.35480000  0.76790000  1.0 0.1196232768
H  H297  1  0.69600000  0.74760000  0.22700000  1.0 0.1293308846
H  H298  1  0.71900000  0.44600000  0.44840000  1.0 0.1293308846
H  H299  1  0.99760000  0.27060000  0.55160000  1.0 0.1293308846
H  H300  1  0.52060000  0.46900000  0.77300000  1.0 0.1293308846
H  H301  1  0.55400000  0.00240000  0.27300000  1.0 0.1293308846
H  H302  1  0.53100000  0.30400000  0.05160000  1.0 0.1293308846
H  H303  1  0.25240000  0.47940000  0.94840000  1.0 0.1293308846
H  H304  1  0.72940000  0.28100000  0.72700000  1.0 0.1293308846
H  H305  1  0.78360000  0.80470000  0.17970000  1.0 0.1103167396
H  H306  1  0.85390000  0.53360000  0.47890000  1.0 0.1103167396
H  H307  1  0.05470000  0.37500000  0.52110000  1.0 0.1103167396
H  H308  1  0.62500000  0.60390000  0.82030000  1.0 0.1103167396
H  H309  1  0.46640000  0.94530000  0.32030000  1.0 0.1103167396
H  H310  1  0.39610000  0.21640000  0.02110000  1.0 0.1103167396
H  H311  1  0.19530000  0.37500000  0.97890000  1.0 0.1103167396
H  H312  1  0.62500000  0.14610000  0.67970000  1.0 0.1103167396
H  H313  1  0.84380000  0.78550000  0.17750000  1.0 0.1407632807
H  H314  1  0.91630000  0.59380000  0.55830000  1.0 0.1407632807
H  H315  1  0.03550000  0.35800000  0.44170000  1.0 0.1407632807
H  H316  1  0.60800000  0.66630000  0.82250000  1.0 0.1407632807
H  H317  1  0.40620000  0.96450000  0.32250000  1.0 0.1407632807
H  H318  1  0.33370000  0.15620000  0.94170000  1.0 0.1407632807
H  H319  1  0.21450000  0.39200000  0.05830000  1.0 0.1407632807
H  H320  1  0.64200000  0.08370000  0.67750000  1.0 0.1407632807
H  H321  1  0.75280000  0.49420000  0.33320000  1.0 0.1293308846
H  H322  1  0.66960000  0.50280000  0.75860000  1.0 0.1293308846
H  H323  1  0.74420000  0.91100000  0.24140000  1.0 0.1293308846
H  H324  1  0.16100000  0.41960000  0.66680000  1.0 0.1293308846
H  H325  1  0.49720000  0.25580000  0.16680000  1.0 0.1293308846
H  H326  1  0.58040000  0.24720000  0.74140000  1.0 0.1293308846
H  H327  1  0.50580000  0.83900000  0.25860000  1.0 0.1293308846
H  H328  1  0.08900000  0.33040000  0.83320000  1.0 0.1293308846
H  H329  1  0.71250000  0.49840000  0.36050000  1.0 0.1407632807
H  H330  1  0.60200000  0.46250000  0.71410000  1.0 0.1407632807
H  H331  1  0.74840000  0.88790000  0.28590000  1.0 0.1407632807
H  H332  1  0.13790000  0.35200000  0.63950000  1.0 0.1407632807
H  H333  1  0.53750000  0.25160000  0.13950000  1.0 0.1407632807
H  H334  1  0.64800000  0.28750000  0.78590000  1.0 0.1407632807
H  H335  1  0.50160000  0.86210000  0.21410000  1.0 0.1407632807
H  H336  1  0.11210000  0.39800000  0.86050000  1.0 0.1407632807
H  H337  1  0.83810000  0.57260000  0.40930000  1.0 0.0907386001
H  H338  1  0.67880000  0.58810000  0.76550000  1.0 0.0907386001
H  H339  1  0.82260000  0.91330000  0.23450000  1.0 0.0907386001
H  H340  1  0.16330000  0.42880000  0.59070000  1.0 0.0907386001
H  H341  1  0.41190000  0.17740000  0.09070000  1.0 0.0907386001
H  H342  1  0.57120000  0.16190000  0.73450000  1.0 0.0907386001
H  H343  1  0.42740000  0.83670000  0.26550000  1.0 0.0907386001
H  H344  1  0.08670000  0.32120000  0.90930000  1.0 0.0907386001
H  H345  1  0.88970000  0.63620000  0.37810000  1.0 0.0976101836
H  H346  1  0.76160000  0.63970000  0.75350000  1.0 0.0976101836
H  H347  1  0.88620000  0.00810000  0.24650000  1.0 0.0976101836
H  H348  1  0.25810000  0.51160000  0.62190000  1.0 0.0976101836
H  H349  1  0.36030000  0.11380000  0.12190000  1.0 0.0976101836
H  H350  1  0.48840000  0.11030000  0.74650000  1.0 0.0976101836
H  H351  1  0.36380000  0.74190000  0.25350000  1.0 0.0976101836
H  H352  1  0.99190000  0.23840000  0.87810000  1.0 0.0976101836
H  H353  1  0.80260000  0.61520000  0.43260000  1.0 0.1103167396
H  H354  1  0.62000000  0.55260000  0.68740000  1.0 0.1103167396
H  H355  1  0.86520000  0.93260000  0.31260000  1.0 0.1103167396
H  H356  1  0.18260000  0.37000000  0.56740000  1.0 0.1103167396
H  H357  1  0.44740000  0.13480000  0.06740000  1.0 0.1103167396
H  H358  1  0.63000000  0.19740000  0.81260000  1.0 0.1103167396
H  H359  1  0.38480000  0.81740000  0.18740000  1.0 0.1103167396
H  H360  1  0.06740000  0.38000000  0.93260000  1.0 0.1103167396
H  H361  1  0.85280000  0.67780000  0.40100000  1.0 0.1103167396
H  H362  1  0.70180000  0.60280000  0.67500000  1.0 0.1103167396
H  H363  1  0.92780000  0.02680000  0.32500000  1.0 0.1103167396
H  H364  1  0.27680000  0.45180000  0.59900000  1.0 0.1103167396
H  H365  1  0.39720000  0.07220000  0.09900000  1.0 0.1103167396
H  H366  1  0.54820000  0.14720000  0.82500000  1.0 0.1103167396
H  H367  1  0.32220000  0.72320000  0.17500000  1.0 0.1103167396
H  H368  1  0.97320000  0.29820000  0.90100000  1.0 0.1103167396
H  H369  1  0.93040000  0.69590000  0.48030000  1.0 0.0907386001
H  H370  1  0.70010000  0.68040000  0.73450000  1.0 0.0907386001
H  H371  1  0.94590000  0.96560000  0.26550000  1.0 0.0907386001
H  H372  1  0.21560000  0.45010000  0.51970000  1.0 0.0907386001
H  H373  1  0.31960000  0.05410000  0.01970000  1.0 0.0907386001
H  H374  1  0.54990000  0.06960000  0.76550000  1.0 0.0907386001
H  H375  1  0.30410000  0.78440000  0.23450000  1.0 0.0907386001
H  H376  1  0.03440000  0.29990000  0.98030000  1.0 0.0907386001
H  H377  1  0.97940000  0.75960000  0.44920000  1.0 0.0907386001
H  H378  1  0.78020000  0.72940000  0.71980000  1.0 0.0907386001
H  H379  1  0.00960000  0.06040000  0.28020000  1.0 0.0907386001
H  H380  1  0.31040000  0.53020000  0.55080000  1.0 0.0907386001
H  H381  1  0.27060000  0.99040000  0.05080000  1.0 0.0907386001
H  H382  1  0.46980000  0.02060000  0.78020000  1.0 0.0907386001
H  H383  1  0.24040000  0.68960000  0.21980000  1.0 0.0907386001
H  H384  1  0.93960000  0.21980000  0.94920000  1.0 0.0907386001
H  H385  1  0.92230000  0.78220000  0.47230000  1.0 0.1293308846
H  H386  1  0.70000000  0.67230000  0.64010000  1.0 0.1293308846
H  H387  1  0.03220000  0.05990000  0.35990000  1.0 0.1293308846
H  H388  1  0.30990000  0.45000000  0.52770000  1.0 0.1293308846
H  H389  1  0.32770000  0.96780000  0.02770000  1.0 0.1293308846
H  H390  1  0.55000000  0.07770000  0.85990000  1.0 0.1293308846
H  H391  1  0.21780000  0.69010000  0.14010000  1.0 0.1293308846
H  H392  1  0.94010000  0.30000000  0.97230000  1.0 0.1293308846
H  H393  1  0.99440000  0.82150000  0.51150000  1.0 0.1103167396
H  H394  1  0.73290000  0.74440000  0.67290000  1.0 0.1103167396
H  H395  1  0.07150000  0.06000000  0.32710000  1.0 0.1103167396
H  H396  1  0.31000000  0.48290000  0.48850000  1.0 0.1103167396
H  H397  1  0.25560000  0.92850000  0.98850000  1.0 0.1103167396
H  H398  1  0.51710000  0.00560000  0.82710000  1.0 0.1103167396
H  H399  1  0.17850000  0.69000000  0.17290000  1.0 0.1103167396
H  H400  1  0.94000000  0.26710000  0.01150000  1.0 0.1103167396
H  H401  1  0.89920000  0.73650000  0.51130000  1.0 0.1196232768
H  H402  1  0.63790000  0.64920000  0.66270000  1.0 0.1196232768
H  H403  1  0.98650000  0.97520000  0.33730000  1.0 0.1196232768
H  H404  1  0.22520000  0.38790000  0.48870000  1.0 0.1196232768
H  H405  1  0.35080000  0.01350000  0.98870000  1.0 0.1196232768
H  H406  1  0.61210000  0.10080000  0.83730000  1.0 0.1196232768
H  H407  1  0.26350000  0.77480000  0.16270000  1.0 0.1196232768
H  H408  1  0.02480000  0.36210000  0.01130000  1.0 0.1196232768
H  H409  1  0.01050000  0.18940000  0.26950000  1.0 0.1103167396
H  H410  1  0.99100000  0.76050000  0.32110000  1.0 0.1103167396
H  H411  1  0.43940000  0.66990000  0.67890000  1.0 0.1103167396
H  H412  1  0.91990000  0.74100000  0.73050000  1.0 0.1103167396
H  H413  1  0.23950000  0.56060000  0.23050000  1.0 0.1103167396
H  H414  1  0.25900000  0.98950000  0.17890000  1.0 0.1103167396
H  H415  1  0.81060000  0.08010000  0.82110000  1.0 0.1103167396
H  H416  1  0.33010000  0.00900000  0.76950000  1.0 0.1103167396
H  H417  1  0.11680000  0.22910000  0.27250000  1.0 0.1407632807
H  H418  1  0.09430000  0.86680000  0.38770000  1.0 0.1407632807
H  H419  1  0.47910000  0.70660000  0.61230000  1.0 0.1407632807
H  H420  1  0.95660000  0.84430000  0.72750000  1.0 0.1407632807
H  H421  1  0.13320000  0.52090000  0.22750000  1.0 0.1407632807
H  H422  1  0.15570000  0.88320000  0.11230000  1.0 0.1407632807
H  H423  1  0.77090000  0.04340000  0.88770000  1.0 0.1407632807
H  H424  1  0.29340000  0.90570000  0.77250000  1.0 0.1407632807
H  H425  1  0.17320000  0.29070000  0.41090000  1.0 0.1407632807
H  H426  1  0.01230000  0.92320000  0.38250000  1.0 0.1407632807
H  H427  1  0.54070000  0.62980000  0.61750000  1.0 0.1407632807
H  H428  1  0.87980000  0.76230000  0.58910000  1.0 0.1407632807
H  H429  1  0.07680000  0.45930000  0.08910000  1.0 0.1407632807
H  H430  1  0.23770000  0.82680000  0.11750000  1.0 0.1407632807
H  H431  1  0.70930000  0.12020000  0.88250000  1.0 0.1407632807
H  H432  1  0.37020000  0.98770000  0.91090000  1.0 0.1407632807
H  H433  1  0.06490000  0.24850000  0.40500000  1.0 0.1103167396
H  H434  1  0.90990000  0.81490000  0.31640000  1.0 0.1103167396
H  H435  1  0.49850000  0.59350000  0.68360000  1.0 0.1103167396
H  H436  1  0.84350000  0.65990000  0.59500000  1.0 0.1103167396
H  H437  1  0.18510000  0.50150000  0.09500000  1.0 0.1103167396
H  H438  1  0.34010000  0.93510000  0.18360000  1.0 0.1103167396
H  H439  1  0.75150000  0.15650000  0.81640000  1.0 0.1103167396
H  H440  1  0.40650000  0.09010000  0.90500000  1.0 0.1103167396
H  H441  1  0.23460000  0.27880000  0.37340000  1.0 0.1293308846
H  H442  1  0.11120000  0.98460000  0.45580000  1.0 0.1293308846
H  H443  1  0.52880000  0.65540000  0.54420000  1.0 0.1293308846
H  H444  1  0.90540000  0.86120000  0.62660000  1.0 0.1293308846
H  H445  1  0.01540000  0.47120000  0.12660000  1.0 0.1293308846
H  H446  1  0.13880000  0.76540000  0.04420000  1.0 0.1293308846
H  H447  1  0.72120000  0.09460000  0.95580000  1.0 0.1293308846
H  H448  1  0.34460000  0.88880000  0.87340000  1.0 0.1293308846
H  H449  1  0.20170000  0.24190000  0.31800000  1.0 0.1293308846
H  H450  1  0.13370000  0.95170000  0.45980000  1.0 0.1293308846
H  H451  1  0.49190000  0.67390000  0.54020000  1.0 0.1293308846
H  H452  1  0.92390000  0.88370000  0.68200000  1.0 0.1293308846
H  H453  1  0.04830000  0.50810000  0.18200000  1.0 0.1293308846
H  H454  1  0.11630000  0.79830000  0.04020000  1.0 0.1293308846
H  H455  1  0.75810000  0.07610000  0.95980000  1.0 0.1293308846
H  H456  1  0.32610000  0.86630000  0.81800000  1.0 0.1293308846
C  C1  1  0.67578000  0.57545000  0.43263000  1.0 0.2874524034
C  C2  1  0.49315000  0.42578000  0.60033000  1.0 0.2874524034
C  C3  1  0.82545000  0.89282000  0.39967000  1.0 0.2874524034
C  C4  1  0.14282000  0.24315000  0.56737000  1.0 0.2874524034
C  C5  1  0.57422000  0.17455000  0.06737000  1.0 0.2874524034
C  C6  1  0.75685000  0.32422000  0.89967000  1.0 0.2874524034
C  C7  1  0.42455000  0.85718000  0.10033000  1.0 0.2874524034
C  C8  1  0.10718000  0.50685000  0.93263000  1.0 0.2874524034
C  C9  1  0.62978000  0.50148000  0.44126000  1.0 -0.1496873437
C  C10  1  0.43852000  0.37978000  0.62830000  1.0 -0.1496873437
C  C11  1  0.75148000  0.81022000  0.37170000  1.0 -0.1496873437
C  C12  1  0.06022000  0.18852000  0.55874000  1.0 -0.1496873437
C  C13  1  0.62022000  0.24852000  0.05874000  1.0 -0.1496873437
C  C14  1  0.81148000  0.37022000  0.87170000  1.0 -0.1496873437
C  C15  1  0.49852000  0.93978000  0.12830000  1.0 -0.1496873437
C  C16  1  0.18978000  0.56148000  0.94126000  1.0 -0.1496873437
C  C17  1  0.62892000  0.49638000  0.48710000  1.0 -0.0880664401
C  C18  1  0.39182000  0.37892000  0.63254000  1.0 -0.0880664401
C  C19  1  0.74638000  0.75928000  0.36746000  1.0 -0.0880664401
C  C20  1  0.00928000  0.14182000  0.51290000  1.0 -0.0880664401
C  C21  1  0.62108000  0.25362000  0.01290000  1.0 -0.0880664401
C  C22  1  0.85818000  0.37108000  0.86746000  1.0 -0.0880664401
C  C23  1  0.50362000  0.99072000  0.13254000  1.0 -0.0880664401
C  C24  1  0.24072000  0.60818000  0.98710000  1.0 -0.0880664401
C  C25  1  0.67130000  0.56073000  0.52343000  1.0 -0.1330441213
C  C26  1  0.39787000  0.42130000  0.61057000  1.0 -0.1330441213
C  C27  1  0.81073000  0.78730000  0.38943000  1.0 -0.1330441213
C  C28  1  0.03730000  0.14787000  0.47657000  1.0 -0.1330441213
C  C29  1  0.57870000  0.18927000  0.97657000  1.0 -0.1330441213
C  C30  1  0.85213000  0.32870000  0.88943000  1.0 -0.1330441213
C  C31  1  0.43927000  0.96270000  0.11057000  1.0 -0.1330441213
C  C32  1  0.21270000  0.60213000  0.02343000  1.0 -0.1330441213
C  C33  1  0.71652000  0.63303000  0.51455000  1.0 -0.0797137507
C  C34  1  0.45197000  0.46652000  0.58349000  1.0 -0.0797137507
C  C35  1  0.88303000  0.86848000  0.41651000  1.0 -0.0797137507
C  C36  1  0.11848000  0.20197000  0.48545000  1.0 -0.0797137507
C  C37  1  0.53348000  0.11697000  0.98545000  1.0 -0.0797137507
C  C38  1  0.79803000  0.28348000  0.91651000  1.0 -0.0797137507
C  C39  1  0.36697000  0.88152000  0.08349000  1.0 -0.0797137507
C  C40  1  0.13152000  0.54803000  0.01455000  1.0 -0.0797137507
C  C41  1  0.71968000  0.64125000  0.47033000  1.0 -0.2090771013
C  C42  1  0.49935000  0.46968000  0.57843000  1.0 -0.2090771013
C  C43  1  0.89125000  0.92092000  0.42157000  1.0 -0.2090771013
C  C44  1  0.17092000  0.24935000  0.52967000  1.0 -0.2090771013
C  C45  1  0.53032000  0.10875000  0.02967000  1.0 -0.2090771013
C  C46  1  0.75065000  0.28032000  0.92157000  1.0 -0.2090771013
C  C47  1  0.35875000  0.82908000  0.07843000  1.0 -0.2090771013
C  C48  1  0.07908000  0.50065000  0.97033000  1.0 -0.2090771013
C  C49  1  0.58242000  0.42913000  0.40455000  1.0 0.4290784262
C  C50  1  0.42787000  0.33242000  0.65329000  1.0 0.4290784262
C  C51  1  0.67913000  0.77458000  0.34671000  1.0 0.4290784262
C  C52  1  0.02458000  0.17787000  0.59545000  1.0 0.4290784262
C  C53  1  0.66758000  0.32087000  0.09545000  1.0 0.4290784262
C  C54  1  0.82213000  0.41758000  0.84671000  1.0 0.4290784262
C  C55  1  0.57087000  0.97542000  0.15329000  1.0 0.4290784262
C  C56  1  0.22542000  0.57213000  0.90455000  1.0 0.4290784262
C  C57  1  0.51601000  0.35928000  0.28689000  1.0 0.4511041641
C  C58  1  0.47912000  0.26601000  0.65673000  1.0 0.4511041641
C  C59  1  0.60928000  0.82239000  0.34327000  1.0 0.4511041641
C  C60  1  0.07239000  0.22912000  0.71311000  1.0 0.4511041641
C  C61  1  0.73399000  0.39072000  0.21311000  1.0 0.4511041641
C  C62  1  0.77088000  0.48399000  0.84327000  1.0 0.4511041641
C  C63  1  0.64072000  0.92761000  0.15673000  1.0 0.4511041641
C  C64  1  0.17761000  0.52088000  0.78689000  1.0 0.4511041641
C  C65  1  0.45812000  0.28428000  0.24660000  1.0 -0.3194099774
C  C66  1  0.46152000  0.20812000  0.67384000  1.0 -0.3194099774
C  C67  1  0.53428000  0.78768000  0.32616000  1.0 -0.3194099774
C  C68  1  0.03768000  0.21152000  0.75340000  1.0 -0.3194099774
C  C69  1  0.79188000  0.46572000  0.25340000  1.0 -0.3194099774
C  C70  1  0.78848000  0.54188000  0.82616000  1.0 -0.3194099774
C  C71  1  0.71572000  0.96232000  0.17384000  1.0 -0.3194099774
C  C72  1  0.21232000  0.53848000  0.74660000  1.0 -0.3194099774
C  C73  1  0.37597000  0.24067000  0.22824000  1.0 -0.1408808766
C  C74  1  0.39773000  0.12597000  0.63530000  1.0 -0.1408808766
C  C75  1  0.49067000  0.76243000  0.36470000  1.0 -0.1408808766
C  C76  1  0.01243000  0.14773000  0.77176000  1.0 -0.1408808766
C  C77  1  0.87403000  0.50933000  0.27176000  1.0 -0.1408808766
C  C78  1  0.85227000  0.62403000  0.86470000  1.0 -0.1408808766
C  C79  1  0.75933000  0.98757000  0.13530000  1.0 -0.1408808766
C  C80  1  0.23757000  0.60227000  0.72824000  1.0 -0.1408808766
C  C81  1  0.32070000  0.17190000  0.18400000  1.0 -0.1693116557
C  C82  1  0.38670000  0.07070000  0.64880000  1.0 -0.1693116557
C  C83  1  0.42190000  0.73790000  0.35120000  1.0 -0.1693116557
C  C84  1  0.98790000  0.13670000  0.81600000  1.0 -0.1693116557
C  C85  1  0.92930000  0.57810000  0.31600000  1.0 -0.1693116557
C  C86  1  0.86330000  0.67930000  0.85120000  1.0 -0.1693116557
C  C87  1  0.82810000  0.01210000  0.14880000  1.0 -0.1693116557
C  C88  1  0.26210000  0.61330000  0.68400000  1.0 -0.1693116557
C  C89  1  0.25940000  0.10330000  0.18310000  1.0 -0.1031945833
C  C90  1  0.32630000  0.00940000  0.65610000  1.0 -0.1031945833
C  C91  1  0.35330000  0.67020000  0.34390000  1.0 -0.1031945833
C  C92  1  0.92020000  0.07630000  0.81690000  1.0 -0.1031945833
C  C93  1  0.99060000  0.64670000  0.31690000  1.0 -0.1031945833
C  C94  1  0.92370000  0.74060000  0.84390000  1.0 -0.1031945833
C  C95  1  0.89670000  0.07980000  0.15610000  1.0 -0.1031945833
C  C96  1  0.32980000  0.67370000  0.68310000  1.0 -0.1031945833
C  C97  1  0.19860000  0.03300000  0.13580000  1.0 -0.3743755259
C  C98  1  0.31280000  0.94860000  0.66560000  1.0 -0.3743755259
C  C99  1  0.28300000  0.64720000  0.33440000  1.0 -0.3743755259
C  C100  1  0.89720000  0.06280000  0.86420000  1.0 -0.3743755259
C  C101  1  0.05140000  0.71700000  0.36420000  1.0 -0.3743755259
C  C102  1  0.93720000  0.80140000  0.83440000  1.0 -0.3743755259
C  C103  1  0.96700000  0.10280000  0.16560000  1.0 -0.3743755259
C  C104  1  0.35280000  0.68720000  0.63580000  1.0 -0.3743755259
C  C105  1  0.51132000  0.50958000  0.34150000  1.0 0.0976101836
C  C106  1  0.41982000  0.26132000  0.50174000  1.0 0.0976101836
C  C107  1  0.75958000  0.91808000  0.49826000  1.0 0.0976101836
C  C108  1  0.16808000  0.16982000  0.65850000  1.0 0.0976101836
C  C109  1  0.73868000  0.24042000  0.15850000  1.0 0.0976101836
C  C110  1  0.83018000  0.48868000  0.99826000  1.0 0.0976101836
C  C111  1  0.49042000  0.83192000  0.00174000  1.0 0.0976101836
C  C112  1  0.08192000  0.58018000  0.84150000  1.0 0.0976101836
C  C113  1  0.44443000  0.47984000  0.34267000  1.0 -0.2013445255
C  C114  1  0.35176000  0.19443000  0.46459000  1.0 -0.2013445255
C  C115  1  0.72984000  0.88717000  0.53541000  1.0 -0.2013445255
C  C116  1  0.13717000  0.10176000  0.65733000  1.0 -0.2013445255
C  C117  1  0.80557000  0.27016000  0.15733000  1.0 -0.2013445255
C  C118  1  0.89824000  0.55557000  0.03541000  1.0 -0.2013445255
C  C119  1  0.52016000  0.86283000  0.96459000  1.0 -0.2013445255
C  C120  1  0.11283000  0.64824000  0.84267000  1.0 -0.2013445255
C  C121  1  0.36987000  0.39791000  0.34018000  1.0 0.161622893
C  C122  1  0.27969000  0.11987000  0.47196000  1.0 0.161622893
C  C123  1  0.64791000  0.80773000  0.52804000  1.0 0.161622893
C  C124  1  0.05773000  0.02969000  0.65982000  1.0 0.161622893
C  C125  1  0.88013000  0.35209000  0.15982000  1.0 0.161622893
C  C126  1  0.97031000  0.63013000  0.02804000  1.0 0.161622893
C  C127  1  0.60209000  0.94227000  0.97196000  1.0 0.161622893
C  C128  1  0.19227000  0.72031000  0.84018000  1.0 0.161622893
C  C129  1  0.36630000  0.34894000  0.33764000  1.0 -0.2013445255
C  C130  1  0.27866000  0.11630000  0.51736000  1.0 -0.2013445255
C  C131  1  0.59894000  0.76130000  0.48264000  1.0 -0.2013445255
C  C132  1  0.01130000  0.02866000  0.66236000  1.0 -0.2013445255
C  C133  1  0.88370000  0.40106000  0.16236000  1.0 -0.2013445255
C  C134  1  0.97134000  0.63370000  0.98264000  1.0 -0.2013445255
C  C135  1  0.65106000  0.98870000  0.01736000  1.0 -0.2013445255
C  C136  1  0.23870000  0.72134000  0.83764000  1.0 -0.2013445255
C  C137  1  0.43602000  0.38334000  0.33676000  1.0 0.0788563177
C  C138  1  0.34926000  0.18602000  0.55268000  1.0 0.0788563177
C  C139  1  0.63334000  0.79658000  0.44732000  1.0 0.0788563177
C  C140  1  0.04658000  0.09926000  0.66324000  1.0 0.0788563177
C  C141  1  0.81398000  0.36666000  0.16324000  1.0 0.0788563177
C  C142  1  0.90074000  0.56398000  0.94732000  1.0 0.0788563177
C  C143  1  0.61666000  0.95342000  0.05268000  1.0 0.0788563177
C  C144  1  0.20342000  0.65074000  0.83676000  1.0 0.0788563177
C  C145  1  0.29372000  0.36296000  0.33928000  1.0 -0.2228354924
C  C146  1  0.20444000  0.04372000  0.43076000  1.0 -0.2228354924
C  C147  1  0.61296000  0.77368000  0.56924000  1.0 -0.2228354924
C  C148  1  0.02368000  0.95444000  0.66072000  1.0 -0.2228354924
C  C149  1  0.95628000  0.38704000  0.16072000  1.0 -0.2228354924
C  C150  1  0.04556000  0.70628000  0.06924000  1.0 -0.2228354924
C  C151  1  0.63704000  0.97632000  0.93076000  1.0 -0.2228354924
C  C152  1  0.22632000  0.79556000  0.83928000  1.0 -0.2228354924
C  C153  1  0.30530000  0.13547000  0.33077000  1.0 0.2778014205
C  C154  1  0.22453000  0.05530000  0.66983000  1.0 0.2778014205
C  C155  1  0.38547000  0.55470000  0.33017000  1.0 0.2778014205
C  C156  1  0.80470000  0.97453000  0.66923000  1.0 0.2778014205
C  C157  1  0.94470000  0.61453000  0.16923000  1.0 0.2778014205
C  C158  1  0.02547000  0.69470000  0.83017000  1.0 0.2778014205
C  C159  1  0.86453000  0.19530000  0.16983000  1.0 0.2778014205
C  C160  1  0.44530000  0.77547000  0.83077000  1.0 0.2778014205
C  C161  1  0.28842000  0.08051000  0.30373000  1.0 -0.1496873437
C  C162  1  0.23469000  0.03842000  0.70791000  1.0 -0.1496873437
C  C163  1  0.33051000  0.52678000  0.29209000  1.0 -0.1496873437
C  C164  1  0.77678000  0.98469000  0.69627000  1.0 -0.1496873437
C  C165  1  0.96158000  0.66949000  0.19627000  1.0 -0.1496873437
C  C166  1  0.01531000  0.71158000  0.79209000  1.0 -0.1496873437
C  C167  1  0.91949000  0.22322000  0.20791000  1.0 -0.1496873437
C  C168  1  0.47322000  0.76531000  0.80373000  1.0 -0.1496873437
C  C169  1  0.20676000  0.00013000  0.27989000  1.0 -0.1097706799
C  C170  1  0.17687000  0.95676000  0.70663000  1.0 -0.1097706799
C  C171  1  0.25013000  0.47024000  0.29337000  1.0 -0.1097706799
C  C172  1  0.72024000  0.92687000  0.72011000  1.0 -0.1097706799
C  C173  1  0.04324000  0.74987000  0.22011000  1.0 -0.1097706799
C  C174  1  0.07313000  0.79324000  0.79337000  1.0 -0.1097706799
C  C175  1  0.99987000  0.27976000  0.20663000  1.0 -0.1097706799
C  C176  1  0.52976000  0.82313000  0.77989000  1.0 -0.1097706799
C  C177  1  0.14207000  0.97446000  0.28153000  1.0 -0.1408808766
C  C178  1  0.11054000  0.89207000  0.66761000  1.0 -0.1408808766
C  C179  1  0.22446000  0.44293000  0.33239000  1.0 -0.1408808766
C  C180  1  0.69293000  0.86054000  0.71847000  1.0 -0.1408808766
C  C181  1  0.10793000  0.77554000  0.21847000  1.0 -0.1408808766
C  C182  1  0.13946000  0.85793000  0.83239000  1.0 -0.1408808766
C  C183  1  0.02554000  0.30707000  0.16761000  1.0 -0.1408808766
C  C184  1  0.55707000  0.88946000  0.78153000  1.0 -0.1408808766
C  C185  1  0.15973000  0.02957000  0.30630000  1.0 -0.0797137507
C  C186  1  0.10343000  0.90973000  0.63016000  1.0 -0.0797137507
C  C187  1  0.27957000  0.47327000  0.36984000  1.0 -0.0797137507
C  C188  1  0.72327000  0.85343000  0.69370000  1.0 -0.0797137507
C  C189  1  0.09027000  0.72043000  0.19370000  1.0 -0.0797137507
C  C190  1  0.14657000  0.84027000  0.86984000  1.0 -0.0797137507
C  C191  1  0.97043000  0.27673000  0.13016000  1.0 -0.0797137507
C  C192  1  0.52673000  0.89657000  0.80630000  1.0 -0.0797137507
C  C193  1  0.23958000  0.10911000  0.32989000  1.0 -0.2384465403
C  C194  1  0.15969000  0.98958000  0.63047000  1.0 -0.2384465403
C  C195  1  0.35911000  0.52922000  0.36953000  1.0 -0.2384465403
C  C196  1  0.77922000  0.90969000  0.67011000  1.0 -0.2384465403
C  C197  1  0.01042000  0.64089000  0.17011000  1.0 -0.2384465403
C  C198  1  0.09031000  0.76042000  0.86953000  1.0 -0.2384465403
C  C199  1  0.89089000  0.22078000  0.13047000  1.0 -0.2384465403
C  C200  1  0.47078000  0.84031000  0.82989000  1.0 -0.2384465403
C  C201  1  0.35382000  0.10427000  0.29749000  1.0 0.4290784262
C  C202  1  0.30633000  0.10382000  0.74955000  1.0 0.4290784262
C  C203  1  0.35427000  0.55678000  0.25045000  1.0 0.4290784262
C  C204  1  0.80678000  0.05633000  0.70251000  1.0 0.4290784262
C  C205  1  0.89618000  0.64573000  0.20251000  1.0 0.4290784262
C  C206  1  0.94367000  0.64618000  0.75045000  1.0 0.4290784262
C  C207  1  0.89573000  0.19322000  0.24955000  1.0 0.4290784262
C  C208  1  0.44322000  0.69367000  0.79749000  1.0 0.4290784262
C  C209  1  0.56342000  0.26717000  0.33599000  1.0 0.4620348624
C  C210  1  0.47743000  0.31342000  0.79625000  1.0 0.4620348624
C  C211  1  0.51717000  0.68118000  0.20375000  1.0 0.4620348624
C  C212  1  0.93118000  0.22743000  0.66401000  1.0 0.4620348624
C  C213  1  0.68658000  0.48283000  0.16401000  1.0 0.4620348624
C  C214  1  0.77257000  0.43658000  0.70375000  1.0 0.4620348624
C  C215  1  0.73283000  0.06882000  0.29625000  1.0 0.4620348624
C  C216  1  0.31882000  0.52257000  0.83599000  1.0 0.4620348624
C  C217  1  0.63513000  0.29927000  0.33060000  1.0 -0.3104084535
C  C218  1  0.55453000  0.38513000  0.83586000  1.0 -0.3104084535
C  C219  1  0.54927000  0.71867000  0.16414000  1.0 -0.3104084535
C  C220  1  0.96867000  0.30453000  0.66940000  1.0 -0.3104084535
C  C221  1  0.61487000  0.45073000  0.16940000  1.0 -0.3104084535
C  C222  1  0.69547000  0.36487000  0.66414000  1.0 -0.3104084535
C  C223  1  0.70073000  0.03133000  0.33586000  1.0 -0.3104084535
C  C224  1  0.28133000  0.44547000  0.83060000  1.0 -0.3104084535
C  C225  1  0.67873000  0.31468000  0.37481000  1.0 -0.1330441213
C  C226  1  0.55392000  0.42873000  0.86405000  1.0 -0.1330441213
C  C227  1  0.56468000  0.68987000  0.13595000  1.0 -0.1330441213
C  C228  1  0.93987000  0.30392000  0.62519000  1.0 -0.1330441213
C  C229  1  0.57127000  0.43532000  0.12519000  1.0 -0.1330441213
C  C230  1  0.69608000  0.32127000  0.63595000  1.0 -0.1330441213
C  C231  1  0.68532000  0.06013000  0.36405000  1.0 -0.1330441213
C  C232  1  0.31013000  0.44608000  0.87481000  1.0 -0.1330441213
C  C233  1  0.62407000  0.23513000  0.38760000  1.0 -0.1693116557
C  C234  1  0.48647000  0.37407000  0.88894000  1.0 -0.1693116557
C  C235  1  0.48513000  0.59753000  0.11106000  1.0 -0.1693116557
C  C236  1  0.84753000  0.23647000  0.61240000  1.0 -0.1693116557
C  C237  1  0.62593000  0.51487000  0.11240000  1.0 -0.1693116557
C  C238  1  0.76353000  0.37593000  0.61106000  1.0 -0.1693116557
C  C239  1  0.76487000  0.15247000  0.38894000  1.0 -0.1693116557
C  C240  1  0.40247000  0.51353000  0.88760000  1.0 -0.1693116557
C  C241  1  0.66757000  0.24820000  0.42957000  1.0 -0.1229915135
C  C242  1  0.48800000  0.41757000  0.91937000  1.0 -0.1229915135
C  C243  1  0.49820000  0.56863000  0.08063000  1.0 -0.1229915135
C  C244  1  0.81863000  0.23800000  0.57043000  1.0 -0.1229915135
C  C245  1  0.58243000  0.50180000  0.07043000  1.0 -0.1229915135
C  C246  1  0.76200000  0.33243000  0.58063000  1.0 -0.1229915135
C  C247  1  0.75180000  0.18137000  0.41937000  1.0 -0.1229915135
C  C248  1  0.43137000  0.51200000  0.92957000  1.0 -0.1229915135
C  C249  1  0.61202000  0.16880000  0.44202000  1.0 -0.3828366288
C  C250  1  0.42000000  0.36202000  0.94322000  1.0 -0.3828366288
C  C251  1  0.41880000  0.47678000  0.05678000  1.0 -0.3828366288
C  C252  1  0.72678000  0.17000000  0.55798000  1.0 -0.3828366288
C  C253  1  0.63798000  0.58120000  0.05798000  1.0 -0.3828366288
C  C254  1  0.83000000  0.38798000  0.55678000  1.0 -0.3828366288
C  C255  1  0.83120000  0.27322000  0.44322000  1.0 -0.3828366288
C  C256  1  0.52322000  0.58000000  0.94202000  1.0 -0.3828366288
C  C257  1  0.78981000  0.71291000  0.22212000  1.0 0.2778014205
C  C258  1  0.81769000  0.53981000  0.57690000  1.0 0.2778014205
C  C259  1  0.96291000  0.24079000  0.42310000  1.0 0.2778014205
C  C260  1  0.49079000  0.56769000  0.77788000  1.0 0.2778014205
C  C261  1  0.46019000  0.03709000  0.27788000  1.0 0.2778014205
C  C262  1  0.43231000  0.21019000  0.92310000  1.0 0.2778014205
C  C263  1  0.28709000  0.50921000  0.07690000  1.0 0.2778014205
C  C264  1  0.75921000  0.18231000  0.72212000  1.0 0.2778014205
C  C265  1  0.73470000  0.67615000  0.24885000  1.0 -0.1496873437
C  C266  1  0.73585000  0.48470000  0.55855000  1.0 -0.1496873437
C  C267  1  0.92615000  0.17730000  0.44145000  1.0 -0.1496873437
C  C268  1  0.42730000  0.48585000  0.75115000  1.0 -0.1496873437
C  C269  1  0.51530000  0.07385000  0.25115000  1.0 -0.1496873437
C  C270  1  0.51415000  0.26530000  0.94145000  1.0 -0.1496873437
C  C271  1  0.32385000  0.57270000  0.05855000  1.0 -0.1496873437
C  C272  1  0.82270000  0.26415000  0.74885000  1.0 -0.1496873437
C  C273  1  0.70058000  0.69012000  0.24970000  1.0 -0.0797137507
C  C274  1  0.70088000  0.45058000  0.51046000  1.0 -0.0797137507
C  C275  1  0.94012000  0.19042000  0.48954000  1.0 -0.0797137507
C  C276  1  0.44042000  0.45088000  0.75030000  1.0 -0.0797137507
C  C277  1  0.54942000  0.05988000  0.25030000  1.0 -0.0797137507
C  C278  1  0.54912000  0.29942000  0.98954000  1.0 -0.0797137507
C  C279  1  0.30988000  0.55958000  0.01046000  1.0 -0.0797137507
C  C280  1  0.80958000  0.29912000  0.74970000  1.0 -0.0797137507
C  C281  1  0.71907000  0.73799000  0.22526000  1.0 -0.1330441213
C  C282  1  0.74381000  0.46907000  0.48108000  1.0 -0.1330441213
C  C283  1  0.98799000  0.26273000  0.51892000  1.0 -0.1330441213
C  C284  1  0.51273000  0.49381000  0.77474000  1.0 -0.1330441213
C  C285  1  0.53093000  0.01201000  0.27474000  1.0 -0.1330441213
C  C286  1  0.50619000  0.28093000  0.01892000  1.0 -0.1330441213
C  C287  1  0.26201000  0.48727000  0.98108000  1.0 -0.1330441213
C  C288  1  0.73727000  0.25619000  0.72526000  1.0 -0.1330441213
C  C289  1  0.77178000  0.77261000  0.19779000  1.0 -0.0713176504
C  C290  1  0.82399000  0.52178000  0.49917000  1.0 -0.0713176504
C  C291  1  0.02261000  0.32482000  0.50083000  1.0 -0.0713176504
C  C292  1  0.57482000  0.57399000  0.80221000  1.0 -0.0713176504
C  C293  1  0.47822000  0.97739000  0.30221000  1.0 -0.0713176504
C  C294  1  0.42601000  0.22822000  0.00083000  1.0 -0.0713176504
C  C295  1  0.22739000  0.42518000  0.99917000  1.0 -0.0713176504
C  C296  1  0.67518000  0.17601000  0.69779000  1.0 -0.0713176504
C  C297  1  0.80714000  0.76076000  0.19630000  1.0 -0.2228354924
C  C298  1  0.86084000  0.55714000  0.54638000  1.0 -0.2228354924
C  C299  1  0.01076000  0.31446000  0.45362000  1.0 -0.2228354924
C  C300  1  0.56446000  0.61084000  0.80370000  1.0 -0.2228354924
C  C301  1  0.44286000  0.98924000  0.30370000  1.0 -0.2228354924
C  C302  1  0.38916000  0.19286000  0.95362000  1.0 -0.2228354924
C  C303  1  0.23924000  0.43554000  0.04638000  1.0 -0.2228354924
C  C304  1  0.68554000  0.13916000  0.69630000  1.0 -0.2228354924
C  C305  1  0.71181000  0.62462000  0.27723000  1.0 0.4235101752
C  C306  1  0.68458000  0.46181000  0.58719000  1.0 0.4235101752
C  C307  1  0.87462000  0.09739000  0.41281000  1.0 0.4235101752
C  C308  1  0.34739000  0.43458000  0.72277000  1.0 0.4235101752
C  C309  1  0.53819000  0.12538000  0.22277000  1.0 0.4235101752
C  C310  1  0.56542000  0.28819000  0.91281000  1.0 0.4235101752
C  C311  1  0.37538000  0.65261000  0.08719000  1.0 0.4235101752
C  C312  1  0.90261000  0.31542000  0.77723000  1.0 0.4235101752
C  C313  1  0.76830000  0.56989000  0.31519000  1.0 0.4511041641
C  C314  1  0.70311000  0.51830000  0.69841000  1.0 0.4511041641
C  C315  1  0.81989000  0.00470000  0.30159000  1.0 0.4511041641
C  C316  1  0.25470000  0.45311000  0.68481000  1.0 0.4511041641
C  C317  1  0.48170000  0.18011000  0.18481000  1.0 0.4511041641
C  C318  1  0.54689000  0.23170000  0.80159000  1.0 0.4511041641
C  C319  1  0.43011000  0.74530000  0.19841000  1.0 0.4511041641
C  C320  1  0.99530000  0.29689000  0.81519000  1.0 0.4511041641
C  C321  1  0.76140000  0.53193000  0.34893000  1.0 -0.3194099774
C  C322  1  0.66247000  0.51140000  0.72947000  1.0 -0.3194099774
C  C323  1  0.78193000  0.93300000  0.27053000  1.0 -0.3194099774
C  C324  1  0.18300000  0.41247000  0.65107000  1.0 -0.3194099774
C  C325  1  0.48860000  0.21807000  0.15107000  1.0 -0.3194099774
C  C326  1  0.58753000  0.23860000  0.77053000  1.0 -0.3194099774
C  C327  1  0.46807000  0.81700000  0.22947000  1.0 -0.3194099774
C  C328  1  0.06700000  0.33753000  0.84893000  1.0 -0.3194099774
C  C329  1  0.84060000  0.59961000  0.39021000  1.0 -0.1408808766
C  C330  1  0.70039000  0.59060000  0.74099000  1.0 -0.1408808766
C  C331  1  0.84961000  0.95940000  0.25901000  1.0 -0.1408808766
C  C332  1  0.20940000  0.45039000  0.60979000  1.0 -0.1408808766
C  C333  1  0.40940000  0.15039000  0.10979000  1.0 -0.1408808766
C  C334  1  0.54961000  0.15940000  0.75901000  1.0 -0.1408808766
C  C335  1  0.40039000  0.79060000  0.24099000  1.0 -0.1408808766
C  C336  1  0.04060000  0.29961000  0.89021000  1.0 -0.1408808766
C  C337  1  0.85172000  0.65216000  0.42048000  1.0 -0.1881667246
C  C338  1  0.68124000  0.60172000  0.69956000  1.0 -0.1881667246
C  C339  1  0.90216000  0.98168000  0.30044000  1.0 -0.1881667246
C  C340  1  0.23168000  0.43124000  0.57952000  1.0 -0.1881667246
C  C341  1  0.39828000  0.09784000  0.07952000  1.0 -0.1881667246
C  C342  1  0.56876000  0.14828000  0.80044000  1.0 -0.1881667246
C  C343  1  0.34784000  0.76832000  0.19956000  1.0 -0.1881667246
C  C344  1  0.01832000  0.31876000  0.92048000  1.0 -0.1881667246
C  C345  1  0.93001000  0.72090000  0.46131000  1.0 -0.1097706799
C  C346  1  0.71870000  0.68001000  0.70911000  1.0 -0.1097706799
C  C347  1  0.97090000  0.00959000  0.29089000  1.0 -0.1097706799
C  C348  1  0.25959000  0.46870000  0.53869000  1.0 -0.1097706799
C  C349  1  0.31999000  0.02910000  0.03869000  1.0 -0.1097706799
C  C350  1  0.53130000  0.06999000  0.79089000  1.0 -0.1097706799
C  C351  1  0.27910000  0.74041000  0.20911000  1.0 -0.1097706799
C  C352  1  0.99041000  0.28130000  0.96131000  1.0 -0.1097706799
C  C353  1  0.93710000  0.76940000  0.49170000  1.0 -0.3971543909
C  C354  1  0.69540000  0.68710000  0.66770000  1.0 -0.3971543909
C  C355  1  0.01940000  0.02770000  0.33230000  1.0 -0.3971543909
C  C356  1  0.27770000  0.44540000  0.50830000  1.0 -0.3971543909
C  C357  1  0.31290000  0.98060000  0.00830000  1.0 -0.3971543909
C  C358  1  0.55460000  0.06290000  0.83230000  1.0 -0.3971543909
C  C359  1  0.23060000  0.72230000  0.16770000  1.0 -0.3971543909
C  C360  1  0.97230000  0.30460000  0.99170000  1.0 -0.3971543909
C  C361  1  0.04358000  0.20960000  0.29898000  1.0 0.0788563177
C  C362  1  0.99460000  0.79358000  0.33398000  1.0 0.0788563177
C  C363  1  0.45960000  0.66062000  0.66602000  1.0 0.0788563177
C  C364  1  0.91062000  0.74460000  0.70102000  1.0 0.0788563177
C  C365  1  0.20642000  0.54040000  0.20102000  1.0 0.0788563177
C  C366  1  0.25540000  0.95642000  0.16602000  1.0 0.0788563177
C  C367  1  0.79040000  0.08938000  0.83398000  1.0 0.0788563177
C  C368  1  0.33938000  0.00540000  0.79898000  1.0 0.0788563177
C  C369  1  0.10625000  0.23234000  0.30059000  1.0 -0.2090771013
C  C370  1  0.05566000  0.85625000  0.37391000  1.0 -0.2090771013
C  C371  1  0.48234000  0.68175000  0.62609000  1.0 -0.2090771013
C  C372  1  0.93175000  0.80566000  0.69941000  1.0 -0.2090771013
C  C373  1  0.14375000  0.51766000  0.19941000  1.0 -0.2090771013
C  C374  1  0.19434000  0.89375000  0.12609000  1.0 -0.2090771013
C  C375  1  0.76766000  0.06825000  0.87391000  1.0 -0.2090771013
C  C376  1  0.31825000  0.94434000  0.80059000  1.0 -0.2090771013
C  C377  1  0.15411000  0.25984000  0.34255000  1.0 0.161622893
C  C378  1  0.06156000  0.90411000  0.39427000  1.0 0.161622893
C  C379  1  0.50984000  0.66729000  0.60573000  1.0 0.161622893
C  C380  1  0.91729000  0.81156000  0.65745000  1.0 0.161622893
C  C381  1  0.09589000  0.49016000  0.15745000  1.0 0.161622893
C  C382  1  0.18844000  0.84589000  0.10573000  1.0 0.161622893
C  C383  1  0.74016000  0.08271000  0.89427000  1.0 0.161622893
C  C384  1  0.33271000  0.93844000  0.84255000  1.0 0.161622893
C  C385  1  0.13902000  0.26803000  0.38105000  1.0 -0.2090771013
C  C386  1  0.00797000  0.88902000  0.37099000  1.0 -0.2090771013
C  C387  1  0.51803000  0.63698000  0.62901000  1.0 -0.2090771013
C  C388  1  0.88698000  0.75797000  0.61895000  1.0 -0.2090771013
C  C389  1  0.11098000  0.48197000  0.11895000  1.0 -0.2090771013
C  C390  1  0.24203000  0.86098000  0.12901000  1.0 -0.2090771013
C  C391  1  0.73197000  0.11302000  0.87099000  1.0 -0.2090771013
C  C392  1  0.36302000  0.99203000  0.88105000  1.0 -0.2090771013
C  C393  1  0.07523000  0.24393000  0.37736000  1.0 0.0687979589
C  C394  1  0.94787000  0.82523000  0.33130000  1.0 0.0687979589
C  C395  1  0.49393000  0.61657000  0.66870000  1.0 0.0687979589
C  C396  1  0.86657000  0.69787000  0.62264000  1.0 0.0687979589
C  C397  1  0.17477000  0.50607000  0.12264000  1.0 0.0687979589
C  C398  1  0.30213000  0.92477000  0.16870000  1.0 0.0687979589
C  C399  1  0.75607000  0.13343000  0.83130000  1.0 0.0687979589
C  C400  1  0.38343000  0.05213000  0.87736000  1.0 0.0687979589
C  C401  1  0.22161000  0.28210000  0.34371000  1.0 -0.2384465403
C  C402  1  0.12790000  0.97161000  0.43951000  1.0 -0.2384465403
C  C403  1  0.53210000  0.68839000  0.56049000  1.0 -0.2384465403
C  C404  1  0.93839000  0.87790000  0.65629000  1.0 -0.2384465403
C  C405  1  0.02839000  0.46790000  0.15629000  1.0 -0.2384465403
C  C406  1  0.12210000  0.77839000  0.06049000  1.0 -0.2384465403
C  C407  1  0.71790000  0.06161000  0.93951000  1.0 -0.2384465403
C  C408  1  0.31161000  0.87210000  0.84371000  1.0 -0.2384465403
N  N1  1  0.57954000  0.43180000  0.36106000  1.0 -0.3194099774
N  N2  1  0.46848000  0.32954000  0.64774000  1.0 -0.3194099774
N  N3  1  0.68180000  0.82074000  0.35226000  1.0 -0.3194099774
N  N4  1  0.07074000  0.21848000  0.63894000  1.0 -0.3194099774
N  N5  1  0.67046000  0.31820000  0.13894000  1.0 -0.3194099774
N  N6  1  0.78152000  0.42046000  0.85226000  1.0 -0.3104084535
N  N7  1  0.56820000  0.92926000  0.14774000  1.0 -0.3194099774
N  N8  1  0.17926000  0.53152000  0.86106000  1.0 -0.3194099774
N  N9  1  0.52870000  0.35752000  0.32840000  1.0 -0.3265681789
N  N10  1  0.45030000  0.27870000  0.67118000  1.0 -0.3265681789
N  N11  1  0.60752000  0.77912000  0.32882000  1.0 -0.3265681789
N  N12  1  0.02912000  0.20030000  0.67160000  1.0 -0.3265681789
N  N13  1  0.72130000  0.39248000  0.17160000  1.0 -0.3265681789
N  N14  1  0.79970000  0.47130000  0.82882000  1.0 -0.3265681789
N  N15  1  0.64248000  0.97088000  0.17118000  1.0 -0.3265681789
N  N16  1  0.22088000  0.54970000  0.82840000  1.0 -0.3265681789
N  N17  1  0.50838000  0.46305000  0.33833000  1.0 -0.2090771013
N  N18  1  0.42005000  0.25838000  0.54533000  1.0 -0.2090771013
N  N19  1  0.71305000  0.87472000  0.45467000  1.0 -0.2090771013
N  N20  1  0.12472000  0.17005000  0.66167000  1.0 -0.2090771013
N  N21  1  0.74162000  0.28695000  0.16167000  1.0 -0.2090771013
N  N22  1  0.82995000  0.49162000  0.95467000  1.0 -0.2090771013
N  N23  1  0.53695000  0.87528000  0.04533000  1.0 -0.2090771013
N  N24  1  0.12528000  0.57995000  0.83833000  1.0 -0.2090771013
N  N25  1  0.43199000  0.17947000  0.31952000  1.0 -0.3265681789
N  N26  1  0.36247000  0.18199000  0.75252000  1.0 -0.3265681789
N  N27  1  0.42947000  0.60995000  0.24748000  1.0 -0.3265681789
N  N28  1  0.85995000  0.11247000  0.68048000  1.0 -0.3265681789
N  N29  1  0.81801000  0.57053000  0.18048000  1.0 -0.3265681789
N  N30  1  0.88753000  0.56801000  0.74748000  1.0 -0.3265681789
N  N31  1  0.82053000  0.14005000  0.25252000  1.0 -0.3265681789
N  N32  1  0.39005000  0.63753000  0.81952000  1.0 -0.3265681789
N  N33  1  0.48904000  0.19558000  0.30936000  1.0 -0.3104084535
N  N34  1  0.42968000  0.23904000  0.79346000  1.0 -0.3104084535
N  N35  1  0.44558000  0.63622000  0.20654000  1.0 -0.3104084535
N  N36  1  0.88622000  0.17968000  0.69064000  1.0 -0.3104084535
N  N37  1  0.76096000  0.55442000  0.19064000  1.0 -0.3104084535
N  N38  1  0.82032000  0.51096000  0.70654000  1.0 -0.3104084535
N  N39  1  0.80442000  0.11378000  0.29346000  1.0 -0.3104084535
N  N40  1  0.36378000  0.57032000  0.80936000  1.0 -0.3104084535
N  N41  1  0.74803000  0.61599000  0.28060000  1.0 -0.3104084535
N  N42  1  0.71743000  0.49803000  0.63204000  1.0 -0.3104084535
N  N43  1  0.86599000  0.08539000  0.36796000  1.0 -0.3104084535
N  N44  1  0.33539000  0.46743000  0.71940000  1.0 -0.3104084535
N  N45  1  0.50197000  0.13401000  0.21940000  1.0 -0.3104084535
N  N46  1  0.53257000  0.25197000  0.86796000  1.0 -0.3104084535
N  N47  1  0.38401000  0.66461000  0.13204000  1.0 -0.3104084535
N  N48  1  0.91461000  0.28257000  0.78060000  1.0 -0.3104084535
N  N49  1  0.72633000  0.57110000  0.31183000  1.0 -0.2905205079
N  N50  1  0.66450000  0.47633000  0.65523000  1.0 -0.2905205079
N  N51  1  0.82110000  0.00927000  0.34477000  1.0 -0.2905205079
N  N52  1  0.25927000  0.41450000  0.68817000  1.0 -0.2905205079
N  N53  1  0.52367000  0.17890000  0.18817000  1.0 -0.2905205079
N  N54  1  0.58550000  0.27367000  0.84477000  1.0 -0.2905205079
N  N55  1  0.42890000  0.74073000  0.15523000  1.0 -0.2905205079
N  N56  1  0.99073000  0.33550000  0.81183000  1.0 -0.2905205079
N  N57  1  0.02686000  0.21437000  0.33683000  1.0 -0.2013445255
N  N58  1  0.94003000  0.77686000  0.31249000  1.0 -0.2013445255
N  N59  1  0.46437000  0.62754000  0.68751000  1.0 -0.2013445255
N  N60  1  0.87754000  0.69003000  0.66317000  1.0 -0.2013445255
N  N61  1  0.22314000  0.53563000  0.16317000  1.0 -0.2013445255
N  N62  1  0.30997000  0.97314000  0.18751000  1.0 -0.2013445255
N  N63  1  0.78563000  0.12246000  0.81249000  1.0 -0.2013445255
N  N64  1  0.37246000  0.05997000  0.83683000  1.0 -0.2013445255
O  O1  1  0.68247000  0.58925000  0.39108000  1.0 -0.4726557012
O  O2  1  0.54139000  0.43247000  0.59322000  1.0 -0.4726557012
O  O3  1  0.83925000  0.94817000  0.40678000  1.0 -0.4726557012
O  O4  1  0.19817000  0.29139000  0.60892000  1.0 -0.4726557012
O  O5  1  0.56753000  0.16075000  0.10892000  1.0 -0.4726557012
O  O6  1  0.70861000  0.31753000  0.90678000  1.0 -0.4726557012
O  O7  1  0.41075000  0.80183000  0.09322000  1.0 -0.4726557012
O  O8  1  0.05183000  0.45861000  0.89108000  1.0 -0.4726557012
O  O9  1  0.54467000  0.36526000  0.41565000  1.0 -0.4726557012
O  O10  1  0.37902000  0.29467000  0.67941000  1.0 -0.4726557012
O  O11  1  0.61526000  0.69961000  0.32059000  1.0 -0.4726557012
O  O12  1  0.94961000  0.12902000  0.58435000  1.0 -0.4726557012
O  O13  1  0.70533000  0.38474000  0.08435000  1.0 -0.4726557012
O  O14  1  0.87098000  0.45533000  0.82059000  1.0 -0.4726557012
O  O15  1  0.63474000  0.05039000  0.17941000  1.0 -0.4726557012
O  O16  1  0.30039000  0.62098000  0.91565000  1.0 -0.4726557012
O  O17  1  0.54829000  0.42245000  0.27816000  1.0 -0.4726557012
O  O18  1  0.52013000  0.29829000  0.62584000  1.0 -0.4726557012
O  O19  1  0.67245000  0.89429000  0.37416000  1.0 -0.4726557012
O  O20  1  0.14429000  0.27013000  0.72184000  1.0 -0.4726557012
O  O21  1  0.70171000  0.32755000  0.22184000  1.0 -0.4726557012
O  O22  1  0.72987000  0.45171000  0.87416000  1.0 -0.4726557012
O  O23  1  0.57755000  0.85571000  0.12584000  1.0 -0.4726557012
O  O24  1  0.10571000  0.47987000  0.77816000  1.0 -0.4726557012
O  O25  1  0.38034000  0.21175000  0.35661000  1.0 -0.4918127604
O  O26  1  0.27373000  0.13034000  0.66859000  1.0 -0.4918127604
O  O27  1  0.46175000  0.60514000  0.33141000  1.0 -0.4918127604
O  O28  1  0.85514000  0.02373000  0.64339000  1.0 -0.4918127604
O  O29  1  0.86966000  0.53825000  0.14339000  1.0 -0.4918127604
O  O30  1  0.97627000  0.61966000  0.83141000  1.0 -0.4918127604
O  O31  1  0.78825000  0.14486000  0.16859000  1.0 -0.4918127604
O  O32  1  0.39486000  0.72627000  0.85661000  1.0 -0.4918127604
O  O33  1  0.33301000  0.05186000  0.26971000  1.0 -0.4513919913
O  O34  1  0.31330000  0.08301000  0.78115000  1.0 -0.4513919913
O  O35  1  0.30186000  0.53215000  0.21885000  1.0 -0.4513919913
O  O36  1  0.78215000  0.06330000  0.73029000  1.0 -0.4513919913
O  O37  1  0.91699000  0.69814000  0.23029000  1.0 -0.4513919913
O  O38  1  0.93670000  0.66699000  0.71885000  1.0 -0.4513919913
O  O39  1  0.94814000  0.21785000  0.28115000  1.0 -0.4513919913
O  O40  1  0.46785000  0.68670000  0.76971000  1.0 -0.4513919913
O  O41  1  0.57882000  0.31337000  0.36777000  1.0 -0.4988629819
O  O42  1  0.46105000  0.32882000  0.76545000  1.0 -0.4988629819
O  O43  1  0.56337000  0.69560000  0.23455000  1.0 -0.4988629819
O  O44  1  0.94560000  0.21105000  0.63223000  1.0 -0.4988629819
O  O45  1  0.67118000  0.43663000  0.13223000  1.0 -0.4988629819
O  O46  1  0.78895000  0.42118000  0.73455000  1.0 -0.4988629819
O  O47  1  0.68663000  0.05440000  0.26545000  1.0 -0.4988629819
O  O48  1  0.30440000  0.53895000  0.86777000  1.0 -0.4988629819
O  O49  1  0.82730000  0.70546000  0.21890000  1.0 -0.4606587925
O  O50  1  0.85840000  0.57730000  0.62184000  1.0 -0.4606587925
O  O51  1  0.95546000  0.23656000  0.37816000  1.0 -0.4606587925
O  O52  1  0.48656000  0.60840000  0.78110000  1.0 -0.4606587925
O  O53  1  0.42270000  0.04454000  0.28110000  1.0 -0.4606587925
O  O54  1  0.39160000  0.17270000  0.87816000  1.0 -0.4606587925
O  O55  1  0.29454000  0.51344000  0.12184000  1.0 -0.4606587925
O  O56  1  0.76344000  0.14160000  0.71890000  1.0 -0.4606587925
O  O57  1  0.65647000  0.58904000  0.29833000  1.0 -0.4513919913
O  O58  1  0.60814000  0.40647000  0.56743000  1.0 -0.4513919913
O  O59  1  0.83904000  0.04071000  0.43257000  1.0 -0.4513919913
O  O60  1  0.29071000  0.35814000  0.70167000  1.0 -0.4513919913
O  O61  1  0.59353000  0.16096000  0.20167000  1.0 -0.4513919913
O  O62  1  0.64186000  0.34353000  0.93257000  1.0 -0.4513919913
O  O63  1  0.41096000  0.70929000  0.06743000  1.0 -0.4513919913
O  O64  1  0.95929000  0.39186000  0.79833000  1.0 -0.4513919913
O  O65  1  0.82074000  0.60430000  0.29122000  1.0 -0.4918127604
O  O66  1  0.77952000  0.57074000  0.71644000  1.0 -0.4847155996
O  O67  1  0.85430000  0.06308000  0.28356000  1.0 -0.4847155996
O  O68  1  0.31308000  0.52952000  0.70878000  1.0 -0.4847155996
O  O69  1  0.42926000  0.14570000  0.20878000  1.0 -0.4847155996
O  O70  1  0.47048000  0.17926000  0.78356000  1.0 -0.4847155996
O  O71  1  0.39570000  0.68692000  0.21644000  1.0 -0.4918127604
O  O72  1  0.93692000  0.22048000  0.79122000  1.0 -0.4847155996
