# DDEC6 charges by PACMAN v1.1 (https://github.com/mtap-research/PACMAN-charge/)
data_XAKZEP_ASR_pacman
_symmetry_space_group_name_H-M   'P 1'
_cell_length_a   29.54400000
_cell_length_b   29.54400000
_cell_length_c   29.54400000
_cell_angle_alpha   95.17680000
_cell_angle_beta   95.17680000
_cell_angle_gamma   145.03900000
_symmetry_Int_Tables_number   1
_chemical_formula_structural   Mn3H33C39N8O9
_chemical_formula_sum   'Mn24 H264 C312 N64 O72'
_cell_volume   14094.26896469
_cell_formula_units_Z   8
loop_
 _symmetry_equiv_pos_site_id
 _symmetry_equiv_pos_as_xyz
  1  'x, y, z'
loop_
 _atom_site_type_symbol
 _atom_site_label
 _atom_site_symmetry_multiplicity
 _atom_site_fract_x
 _atom_site_fract_y
 _atom_site_fract_z
 _atom_site_occupancy
 _atom_site_charge
Mn  Mn1  1  0.86944000  0.08572000  0.37044000  1.0 0.9058640323
Mn  Mn2  1  0.74900000  0.61944000  0.28372000  1.0 0.9058640323
Mn  Mn3  1  0.33572000  0.46528000  0.71628000  1.0 0.9058640323
Mn  Mn4  1  0.71528000  0.49900000  0.62956000  1.0 0.9058640323
Mn  Mn5  1  0.38056000  0.66428000  0.12956000  1.0 0.9058640323
Mn  Mn6  1  0.50100000  0.13056000  0.21628000  1.0 0.9058640323
Mn  Mn7  1  0.91428000  0.28472000  0.78372000  1.0 0.9058640323
Mn  Mn8  1  0.53472000  0.25100000  0.87044000  1.0 0.9058640323
Mn  Mn9  1  0.84019000  0.16339000  0.24632000  1.0 0.8788640031
Mn  Mn10  1  0.84387000  0.59019000  0.17680000  1.0 0.8788640031
Mn  Mn11  1  0.41339000  0.66707000  0.82320000  1.0 0.8788640031
Mn  Mn12  1  0.91707000  0.59387000  0.75368000  1.0 0.8788640031
Mn  Mn13  1  0.40981000  0.58661000  0.25368000  1.0 0.8788640031
Mn  Mn14  1  0.40613000  0.15981000  0.32320000  1.0 0.8788640031
Mn  Mn15  1  0.83661000  0.08293000  0.67680000  1.0 0.8788640031
Mn  Mn16  1  0.33293000  0.15613000  0.74632000  1.0 0.8788640031
Mn  Mn17  1  0.69853000  0.80703000  0.33490000  1.0 0.8788640031
Mn  Mn18  1  0.61363000  0.44853000  0.39150000  1.0 0.8788640031
Mn  Mn19  1  0.05703000  0.22213000  0.60850000  1.0 0.8788640031
Mn  Mn20  1  0.47213000  0.36363000  0.66510000  1.0 0.8788640031
Mn  Mn21  1  0.55147000  0.94297000  0.16510000  1.0 0.8870091609
Mn  Mn22  1  0.63637000  0.30147000  0.10850000  1.0 0.8788640031
Mn  Mn23  1  0.19297000  0.52787000  0.89150000  1.0 0.8788640031
Mn  Mn24  1  0.77787000  0.38637000  0.83490000  1.0 0.8718977741
H  H1  1  0.07070000  0.16170000  0.35760000  1.0 0.1323249431
H  H2  1  0.96310000  0.82070000  0.40900000  1.0 0.1323249431
H  H3  1  0.41170000  0.55410000  0.59100000  1.0 0.1323249431
H  H4  1  0.80410000  0.71310000  0.64240000  1.0 0.1323249431
H  H5  1  0.17930000  0.58830000  0.14240000  1.0 0.1323249431
H  H6  1  0.28690000  0.92930000  0.09100000  1.0 0.1323249431
H  H7  1  0.83830000  0.19590000  0.90900000  1.0 0.1323249431
H  H8  1  0.44590000  0.03690000  0.85760000  1.0 0.1323249431
H  H9  1  0.16610000  0.24440000  0.31770000  1.0 0.1096711289
H  H10  1  0.09840000  0.91610000  0.42170000  1.0 0.1096711289
H  H11  1  0.49440000  0.67670000  0.57830000  1.0 0.1096711289
H  H12  1  0.92670000  0.84840000  0.68230000  1.0 0.1096711289
H  H13  1  0.08390000  0.50560000  0.18230000  1.0 0.1096711289
H  H14  1  0.15160000  0.83390000  0.07830000  1.0 0.1096711289
H  H15  1  0.75560000  0.07330000  0.92170000  1.0 0.1096711289
H  H16  1  0.32330000  0.90160000  0.81770000  1.0 0.1096711289
H  H17  1  0.17040000  0.31330000  0.27850000  1.0 0.12092686
H  H18  1  0.14190000  0.92040000  0.35710000  1.0 0.12092686
H  H19  1  0.56330000  0.78480000  0.64290000  1.0 0.12092686
H  H20  1  0.03480000  0.89190000  0.72150000  1.0 0.12092686
H  H21  1  0.07960000  0.43670000  0.22150000  1.0 0.12092686
H  H22  1  0.10810000  0.82960000  0.14290000  1.0 0.12092686
H  H23  1  0.68670000  0.96520000  0.85710000  1.0 0.12092686
H  H24  1  0.21520000  0.85810000  0.77850000  1.0 0.12092686
H  H25  1  0.06240000  0.27320000  0.26560000  1.0 0.12092686
H  H26  1  0.04680000  0.81240000  0.28920000  1.0 0.12092686
H  H27  1  0.52320000  0.75760000  0.71080000  1.0 0.12092686
H  H28  1  0.00760000  0.79680000  0.73440000  1.0 0.12092686
H  H29  1  0.18760000  0.47680000  0.23440000  1.0 0.12092686
H  H30  1  0.20320000  0.93760000  0.21080000  1.0 0.12092686
H  H31  1  0.72680000  0.99240000  0.78920000  1.0 0.12092686
H  H32  1  0.24240000  0.95320000  0.76560000  1.0 0.12092686
H  H33  1  0.65150000  0.99310000  0.32560000  1.0 0.1699958526
H  H34  1  0.57590000  0.40150000  0.15840000  1.0 0.1699958526
H  H35  1  0.24310000  0.41750000  0.84160000  1.0 0.1699958526
H  H36  1  0.66750000  0.32590000  0.67440000  1.0 0.1699958526
H  H37  1  0.59850000  0.75690000  0.17440000  1.0 0.1699958526
H  H38  1  0.67410000  0.34850000  0.34160000  1.0 0.1699958526
H  H39  1  0.00690000  0.33250000  0.65840000  1.0 0.1699958526
H  H40  1  0.58250000  0.42410000  0.82560000  1.0 0.1699958526
H  H41  1  0.71430000  0.08320000  0.35790000  1.0 0.1699958526
H  H42  1  0.60640000  0.46430000  0.13110000  1.0 0.1699958526
H  H43  1  0.33320000  0.47530000  0.86890000  1.0 0.1699958526
H  H44  1  0.72530000  0.35640000  0.64210000  1.0 0.1699958526
H  H45  1  0.53570000  0.66680000  0.14210000  1.0 0.1699958526
H  H46  1  0.64360000  0.28570000  0.36890000  1.0 0.1699958526
H  H47  1  0.91680000  0.27470000  0.63110000  1.0 0.1699958526
H  H48  1  0.52470000  0.39360000  0.85790000  1.0 0.1699958526
H  H49  1  0.69970000  0.06550000  0.30160000  1.0 0.1643020085
H  H50  1  0.64810000  0.44970000  0.13420000  1.0 0.1643020085
H  H51  1  0.31550000  0.51390000  0.86580000  1.0 0.1643020085
H  H52  1  0.76390000  0.39810000  0.69840000  1.0 0.1643020085
H  H53  1  0.55030000  0.68450000  0.19840000  1.0 0.1643020085
H  H54  1  0.60190000  0.30030000  0.36580000  1.0 0.1643020085
H  H55  1  0.93450000  0.23610000  0.63420000  1.0 0.1643020085
H  H56  1  0.48610000  0.35190000  0.80160000  1.0 0.1643020085
H  H57  1  0.93200000  0.37020000  0.32340000  1.0 0.1323249431
H  H58  1  0.85860000  0.68200000  0.06180000  1.0 0.1323249431
H  H59  1  0.62020000  0.79680000  0.93820000  1.0 0.1323249431
H  H60  1  0.04680000  0.60860000  0.67660000  1.0 0.1323249431
H  H61  1  0.31800000  0.37980000  0.17660000  1.0 0.1323249431
H  H62  1  0.39140000  0.06800000  0.43820000  1.0 0.1323249431
H  H63  1  0.62980000  0.95320000  0.56180000  1.0 0.1323249431
H  H64  1  0.20320000  0.14140000  0.82340000  1.0 0.1323249431
H  H65  1  0.86960000  0.38790000  0.32550000  1.0 0.1096711289
H  H66  1  0.79410000  0.61960000  0.98170000  1.0 0.1096711289
H  H67  1  0.63790000  0.81240000  0.01830000  1.0 0.1096711289
H  H68  1  0.06240000  0.54410000  0.67450000  1.0 0.1096711289
H  H69  1  0.38040000  0.36210000  0.17450000  1.0 0.1096711289
H  H70  1  0.45590000  0.13040000  0.51830000  1.0 0.1096711289
H  H71  1  0.61210000  0.93760000  0.48170000  1.0 0.1096711289
H  H72  1  0.18760000  0.20590000  0.82550000  1.0 0.1096711289
H  H73  1  0.73410000  0.28610000  0.27960000  1.0 0.1323249431
H  H74  1  0.70450000  0.48410000  0.94800000  1.0 0.1323249431
H  H75  1  0.53610000  0.75650000  0.05200000  1.0 0.1323249431
H  H76  1  0.00650000  0.45450000  0.72040000  1.0 0.1323249431
H  H77  1  0.51590000  0.46390000  0.22040000  1.0 0.1323249431
H  H78  1  0.54550000  0.26590000  0.55200000  1.0 0.1323249431
H  H79  1  0.71390000  0.99350000  0.44800000  1.0 0.1323249431
H  H80  1  0.24350000  0.29550000  0.77960000  1.0 0.1323249431
H  H81  1  0.65990000  0.16060000  0.23530000  1.0 0.12092686
H  H82  1  0.67460000  0.40990000  0.99930000  1.0 0.12092686
H  H83  1  0.41060000  0.67530000  0.00070000  1.0 0.12092686
H  H84  1  0.92530000  0.42460000  0.76470000  1.0 0.12092686
H  H85  1  0.59010000  0.58940000  0.26470000  1.0 0.12092686
H  H86  1  0.57540000  0.34010000  0.50070000  1.0 0.12092686
H  H87  1  0.83940000  0.07470000  0.49930000  1.0 0.12092686
H  H88  1  0.32470000  0.32540000  0.73530000  1.0 0.12092686
H  H89  1  0.71370000  0.95510000  0.13360000  1.0 0.1699958526
H  H90  1  0.83010000  0.46370000  0.25860000  1.0 0.1699958526
H  H91  1  0.20510000  0.57150000  0.74140000  1.0 0.1699958526
H  H92  1  0.82150000  0.58010000  0.86640000  1.0 0.1699958526
H  H93  1  0.53630000  0.79490000  0.36640000  1.0 0.1699958526
H  H94  1  0.41990000  0.28630000  0.24140000  1.0 0.1699958526
H  H95  1  0.04490000  0.17850000  0.75860000  1.0 0.1699958526
H  H96  1  0.42850000  0.16990000  0.63360000  1.0 0.1699958526
H  H97  1  0.64310000  0.89670000  0.15980000  1.0 0.1699958526
H  H98  1  0.73330000  0.39310000  0.24640000  1.0 0.1699958526
H  H99  1  0.14670000  0.48690000  0.75360000  1.0 0.1699958526
H  H100  1  0.73690000  0.48330000  0.84020000  1.0 0.1699958526
H  H101  1  0.60690000  0.85330000  0.34020000  1.0 0.1699958526
H  H102  1  0.51670000  0.35690000  0.25360000  1.0 0.1699958526
H  H103  1  0.10330000  0.26310000  0.74640000  1.0 0.1699958526
H  H104  1  0.51310000  0.26670000  0.65980000  1.0 0.1699958526
H  H105  1  0.63440000  0.92080000  0.11720000  1.0 0.1699958526
H  H106  1  0.76720000  0.38440000  0.21360000  1.0 0.1699958526
H  H107  1  0.17080000  0.55360000  0.78640000  1.0 0.1699958526
H  H108  1  0.80360000  0.51720000  0.88280000  1.0 0.1699958526
H  H109  1  0.61560000  0.82920000  0.38280000  1.0 0.1699958526
H  H110  1  0.48280000  0.36560000  0.28640000  1.0 0.1699958526
H  H111  1  0.07920000  0.19640000  0.71360000  1.0 0.1699958526
H  H112  1  0.44640000  0.23280000  0.61720000  1.0 0.1699958526
H  H113  1  0.94140000  0.20060000  0.18340000  1.0 0.1096711289
H  H114  1  0.00800000  0.69140000  0.24080000  1.0 0.1096711289
H  H115  1  0.45060000  0.76720000  0.75920000  1.0 0.1096711289
H  H116  1  0.01720000  0.75800000  0.81660000  1.0 0.1096711289
H  H117  1  0.30860000  0.54940000  0.31660000  1.0 0.1096711289
H  H118  1  0.24200000  0.05860000  0.25920000  1.0 0.1096711289
H  H119  1  0.79940000  0.98280000  0.74080000  1.0 0.1096711289
H  H120  1  0.23280000  0.99200000  0.68340000  1.0 0.1096711289
H  H121  1  0.00170000  0.26280000  0.12050000  1.0 0.139105701
H  H122  1  0.13120000  0.75170000  0.23890000  1.0 0.139105701
H  H123  1  0.51280000  0.89230000  0.76110000  1.0 0.139105701
H  H124  1  0.14230000  0.88120000  0.87950000  1.0 0.139105701
H  H125  1  0.24830000  0.48720000  0.37950000  1.0 0.139105701
H  H126  1  0.11880000  0.99830000  0.26110000  1.0 0.139105701
H  H127  1  0.73720000  0.85770000  0.73890000  1.0 0.139105701
H  H128  1  0.10770000  0.86880000  0.62050000  1.0 0.139105701
H  H129  1  0.90240000  0.30130000  0.11330000  1.0 0.139105701
H  H130  1  0.03910000  0.65240000  0.10110000  1.0 0.139105701
H  H131  1  0.55130000  0.93800000  0.89890000  1.0 0.139105701
H  H132  1  0.18800000  0.78910000  0.88670000  1.0 0.139105701
H  H133  1  0.34760000  0.44870000  0.38670000  1.0 0.139105701
H  H134  1  0.21090000  0.09760000  0.39890000  1.0 0.139105701
H  H135  1  0.69870000  0.81200000  0.60110000  1.0 0.139105701
H  H136  1  0.06200000  0.96090000  0.61330000  1.0 0.139105701
H  H137  1  0.85570000  0.25330000  0.17900000  1.0 0.1096711289
H  H138  1  0.92670000  0.60570000  0.10240000  1.0 0.1096711289
H  H139  1  0.50330000  0.82430000  0.89760000  1.0 0.1096711289
H  H140  1  0.07430000  0.67670000  0.82100000  1.0 0.1096711289
H  H141  1  0.39430000  0.49670000  0.32100000  1.0 0.1096711289
H  H142  1  0.32330000  0.14430000  0.39760000  1.0 0.1096711289
H  H143  1  0.74670000  0.92570000  0.60240000  1.0 0.1096711289
H  H144  1  0.17570000  0.07330000  0.67900000  1.0 0.1096711289
H  H145  1  0.94050000  0.29790000  0.04500000  1.0 0.1323249431
H  H146  1  0.14550000  0.69050000  0.14260000  1.0 0.1323249431
H  H147  1  0.54790000  0.00290000  0.85740000  1.0 0.1323249431
H  H148  1  0.25290000  0.89550000  0.95500000  1.0 0.1323249431
H  H149  1  0.30950000  0.45210000  0.45500000  1.0 0.1323249431
H  H150  1  0.10450000  0.05950000  0.35740000  1.0 0.1323249431
H  H151  1  0.70210000  0.74710000  0.64260000  1.0 0.1323249431
H  H152  1  0.99710000  0.85450000  0.54500000  1.0 0.1323249431
H  H153  1  0.97380000  0.27470000  0.04750000  1.0 0.1323249431
H  H154  1  0.17630000  0.72380000  0.19910000  1.0 0.1323249431
H  H155  1  0.52470000  0.97720000  0.80090000  1.0 0.1323249431
H  H156  1  0.22720000  0.92630000  0.95250000  1.0 0.1323249431
H  H157  1  0.27620000  0.47530000  0.45250000  1.0 0.1323249431
H  H158  1  0.07370000  0.02620000  0.30090000  1.0 0.1323249431
H  H159  1  0.72530000  0.77280000  0.69910000  1.0 0.1323249431
H  H160  1  0.02280000  0.82370000  0.54750000  1.0 0.1323249431
H  H161  1  0.71190000  0.76670000  0.46880000  1.0 0.1323249431
H  H162  1  0.49310000  0.46190000  0.44520000  1.0 0.1323249431
H  H163  1  0.01670000  0.04790000  0.55480000  1.0 0.1323249431
H  H164  1  0.29790000  0.24310000  0.53120000  1.0 0.1323249431
H  H165  1  0.53810000  0.98330000  0.03120000  1.0 0.1323249431
H  H166  1  0.75690000  0.28810000  0.05480000  1.0 0.1323249431
H  H167  1  0.23330000  0.70210000  0.94520000  1.0 0.1323249431
H  H168  1  0.95210000  0.50690000  0.96880000  1.0 0.1323249431
H  H169  1  0.79210000  0.85350000  0.54420000  1.0 0.0984398157
H  H170  1  0.49790000  0.54210000  0.43860000  1.0 0.0984398157
H  H171  1  0.10350000  0.05930000  0.56140000  1.0 0.0984398157
H  H172  1  0.30930000  0.24790000  0.45580000  1.0 0.0984398157
H  H173  1  0.45790000  0.89650000  0.95580000  1.0 0.0984398157
H  H174  1  0.75210000  0.20790000  0.06140000  1.0 0.0984398157
H  H175  1  0.14650000  0.69070000  0.93860000  1.0 0.0984398157
H  H176  1  0.94070000  0.50210000  0.04420000  1.0 0.0984398157
H  H177  1  0.87900000  0.99000000  0.56060000  1.0 0.12092686
H  H178  1  0.56840000  0.62900000  0.38900000  1.0 0.12092686
H  H179  1  0.24000000  0.17940000  0.61100000  1.0 0.12092686
H  H180  1  0.42940000  0.31840000  0.43940000  1.0 0.12092686
H  H181  1  0.37100000  0.76000000  0.93940000  1.0 0.12092686
H  H182  1  0.68160000  0.12100000  0.11100000  1.0 0.12092686
H  H183  1  0.01000000  0.57060000  0.88900000  1.0 0.12092686
H  H184  1  0.82060000  0.43160000  0.06060000  1.0 0.12092686
H  H185  1  0.88260000  0.03550000  0.49890000  1.0 0.12092686
H  H186  1  0.63370000  0.63260000  0.34710000  1.0 0.12092686
H  H187  1  0.28550000  0.28660000  0.65290000  1.0 0.12092686
H  H188  1  0.53660000  0.38370000  0.50110000  1.0 0.12092686
H  H189  1  0.36740000  0.71450000  0.00110000  1.0 0.12092686
H  H190  1  0.61630000  0.11740000  0.15290000  1.0 0.12092686
H  H191  1  0.96450000  0.46340000  0.84710000  1.0 0.12092686
H  H192  1  0.71340000  0.36630000  0.99890000  1.0 0.12092686
H  H193  1  0.77100000  0.98690000  0.25550000  1.0 0.1699958526
H  H194  1  0.76550000  0.52100000  0.28410000  1.0 0.1699958526
H  H195  1  0.23690000  0.48140000  0.71590000  1.0 0.1699958526
H  H196  1  0.73140000  0.51550000  0.74450000  1.0 0.1699958526
H  H197  1  0.47900000  0.76310000  0.24450000  1.0 0.1699958526
H  H198  1  0.48450000  0.22900000  0.21590000  1.0 0.1699958526
H  H199  1  0.01310000  0.26860000  0.78410000  1.0 0.1699958526
H  H200  1  0.51860000  0.23450000  0.75550000  1.0 0.1699958526
H  H201  1  0.68150000  0.89150000  0.22920000  1.0 0.1699958526
H  H202  1  0.70230000  0.43150000  0.29000000  1.0 0.1699958526
H  H203  1  0.14150000  0.41230000  0.71000000  1.0 0.1699958526
H  H204  1  0.66230000  0.45230000  0.77080000  1.0 0.1699958526
H  H205  1  0.56850000  0.85850000  0.27080000  1.0 0.1699958526
H  H206  1  0.54770000  0.31850000  0.21000000  1.0 0.1699958526
H  H207  1  0.10850000  0.33770000  0.79000000  1.0 0.1699958526
H  H208  1  0.58770000  0.29770000  0.72920000  1.0 0.1699958526
H  H209  1  0.76220000  0.93230000  0.22350000  1.0 0.1699958526
H  H210  1  0.78870000  0.51220000  0.32990000  1.0 0.1699958526
H  H211  1  0.18230000  0.45880000  0.67010000  1.0 0.1699958526
H  H212  1  0.70880000  0.53870000  0.77650000  1.0 0.1699958526
H  H213  1  0.48780000  0.81770000  0.27650000  1.0 0.1699958526
H  H214  1  0.46130000  0.23780000  0.17010000  1.0 0.1699958526
H  H215  1  0.06770000  0.29120000  0.82990000  1.0 0.1699958526
H  H216  1  0.54120000  0.21130000  0.72350000  1.0 0.1699958526
H  H217  1  0.22900000  0.57830000  0.00290000  1.0 0.12092686
H  H218  1  0.47610000  0.97900000  0.15070000  1.0 0.12092686
H  H219  1  0.82830000  0.32540000  0.84930000  1.0 0.12092686
H  H220  1  0.57540000  0.22610000  0.99710000  1.0 0.12092686
H  H221  1  0.02100000  0.17170000  0.49710000  1.0 0.12092686
H  H222  1  0.77390000  0.77100000  0.34930000  1.0 0.12092686
H  H223  1  0.42170000  0.42460000  0.65070000  1.0 0.12092686
H  H224  1  0.67460000  0.52390000  0.50290000  1.0 0.12092686
H  H225  1  0.17220000  0.52640000  0.06400000  1.0 0.139105701
H  H226  1  0.35820000  0.92220000  0.14580000  1.0 0.139105701
H  H227  1  0.77640000  0.21240000  0.85420000  1.0 0.139105701
H  H228  1  0.46240000  0.10820000  0.93600000  1.0 0.139105701
H  H229  1  0.07780000  0.22360000  0.43600000  1.0 0.139105701
H  H230  1  0.89180000  0.82780000  0.35420000  1.0 0.139105701
H  H231  1  0.47360000  0.53760000  0.64580000  1.0 0.139105701
H  H232  1  0.78760000  0.64180000  0.56400000  1.0 0.139105701
H  H233  1  0.99700000  0.29780000  0.97220000  1.0 0.139105701
H  H234  1  0.27480000  0.74700000  0.19920000  1.0 0.139105701
H  H235  1  0.54780000  0.07560000  0.80080000  1.0 0.139105701
H  H236  1  0.32560000  0.02480000  0.02780000  1.0 0.139105701
H  H237  1  0.25300000  0.45220000  0.52780000  1.0 0.139105701
H  H238  1  0.97520000  0.00300000  0.30080000  1.0 0.139105701
H  H239  1  0.70220000  0.67440000  0.69920000  1.0 0.139105701
H  H240  1  0.92440000  0.72520000  0.47220000  1.0 0.139105701
H  H241  1  0.03290000  0.36030000  0.91160000  1.0 0.1096711289
H  H242  1  0.37130000  0.78290000  0.17260000  1.0 0.1096711289
H  H243  1  0.61030000  0.19870000  0.82740000  1.0 0.1096711289
H  H244  1  0.44870000  0.12130000  0.08840000  1.0 0.1096711289
H  H245  1  0.21710000  0.38970000  0.58840000  1.0 0.1096711289
H  H246  1  0.87870000  0.96710000  0.32740000  1.0 0.1096711289
H  H247  1  0.63970000  0.55130000  0.67260000  1.0 0.1096711289
H  H248  1  0.80130000  0.62870000  0.41160000  1.0 0.1096711289
H  H249  1  0.04460000  0.40690000  0.08610000  1.0 0.1323249431
H  H250  1  0.20850000  0.79460000  0.13770000  1.0 0.1323249431
H  H251  1  0.65690000  0.07080000  0.86230000  1.0 0.1323249431
H  H252  1  0.32080000  0.95850000  0.91390000  1.0 0.1323249431
H  H253  1  0.20540000  0.34310000  0.41390000  1.0 0.1323249431
H  H254  1  0.04150000  0.95540000  0.36230000  1.0 0.1323249431
H  H255  1  0.59310000  0.67920000  0.63770000  1.0 0.1323249431
H  H256  1  0.92920000  0.79150000  0.58610000  1.0 0.1323249431
H  H257  1  0.07840000  0.38470000  0.09130000  1.0 0.139105701
H  H258  1  0.23710000  0.82840000  0.19370000  1.0 0.139105701
H  H259  1  0.63470000  0.04340000  0.80630000  1.0 0.139105701
H  H260  1  0.29340000  0.98710000  0.90870000  1.0 0.139105701
H  H261  1  0.17160000  0.36530000  0.40870000  1.0 0.139105701
H  H262  1  0.01290000  0.92160000  0.30630000  1.0 0.139105701
H  H263  1  0.61530000  0.70660000  0.69370000  1.0 0.139105701
H  H264  1  0.95660000  0.76290000  0.59130000  1.0 0.139105701
C  C1  1  0.00457000  0.16476000  0.33673000  1.0 0.3035312876
C  C2  1  0.91784000  0.75457000  0.33981000  1.0 0.3035312876
C  C3  1  0.41476000  0.57803000  0.66019000  1.0 0.3035312876
C  C4  1  0.82803000  0.66784000  0.66327000  1.0 0.3035312876
C  C5  1  0.24543000  0.58524000  0.16327000  1.0 0.3035312876
C  C6  1  0.33216000  0.99543000  0.16019000  1.0 0.3035312876
C  C7  1  0.83524000  0.17197000  0.83981000  1.0 0.3035312876
C  C8  1  0.42197000  0.08216000  0.83673000  1.0 0.3035312876
C  C9  1  0.06933000  0.18529000  0.33902000  1.0 -0.2267837791
C  C10  1  0.98031000  0.81933000  0.38404000  1.0 -0.2267837791
C  C11  1  0.43529000  0.59627000  0.61596000  1.0 -0.2267837791
C  C12  1  0.84627000  0.73031000  0.66098000  1.0 -0.2267837791
C  C13  1  0.18067000  0.56471000  0.16098000  1.0 -0.2267837791
C  C14  1  0.26969000  0.93067000  0.11596000  1.0 -0.2267837791
C  C15  1  0.81471000  0.15373000  0.88404000  1.0 -0.2267837791
C  C16  1  0.40373000  0.01969000  0.83902000  1.0 -0.2267837791
C  C17  1  0.12644000  0.23486000  0.31670000  1.0 -0.077554796
C  C18  1  0.05974000  0.87644000  0.39158000  1.0 -0.077554796
C  C19  1  0.48486000  0.66816000  0.60842000  1.0 -0.077554796
C  C20  1  0.91816000  0.80974000  0.68330000  1.0 -0.077554796
C  C21  1  0.12356000  0.51514000  0.18330000  1.0 -0.077554796
C  C22  1  0.19026000  0.87356000  0.10842000  1.0 -0.077554796
C  C23  1  0.76514000  0.08184000  0.89158000  1.0 -0.077554796
C  C24  1  0.33184000  0.94026000  0.81670000  1.0 -0.077554796
C  C25  1  0.12656000  0.27260000  0.29176000  1.0 -0.1565931474
C  C26  1  0.08480000  0.87656000  0.35396000  1.0 -0.1565931474
C  C27  1  0.52260000  0.73084000  0.64604000  1.0 -0.1565931474
C  C28  1  0.98084000  0.83480000  0.70824000  1.0 -0.1565931474
C  C29  1  0.12344000  0.47740000  0.20824000  1.0 -0.1565931474
C  C30  1  0.16520000  0.87344000  0.14604000  1.0 -0.1565931474
C  C31  1  0.72740000  0.01916000  0.85396000  1.0 -0.1565931474
C  C32  1  0.26916000  0.91520000  0.79176000  1.0 -0.1565931474
C  C33  1  0.06466000  0.25195000  0.28621000  1.0 -0.0912435052
C  C34  1  0.02845000  0.81466000  0.31271000  1.0 -0.0912435052
C  C35  1  0.50195000  0.71574000  0.68729000  1.0 -0.0912435052
C  C36  1  0.96574000  0.77845000  0.71379000  1.0 -0.0912435052
C  C37  1  0.18534000  0.49805000  0.21379000  1.0 -0.0912435052
C  C38  1  0.22155000  0.93534000  0.18729000  1.0 -0.0912435052
C  C39  1  0.74805000  0.03426000  0.81271000  1.0 -0.0912435052
C  C40  1  0.28426000  0.97155000  0.78621000  1.0 -0.0912435052
C  C41  1  0.00557000  0.20172000  0.30929000  1.0 -0.150718942
C  C42  1  0.94628000  0.75557000  0.30385000  1.0 -0.150718942
C  C43  1  0.45172000  0.64243000  0.69615000  1.0 -0.150718942
C  C44  1  0.89243000  0.69628000  0.69071000  1.0 -0.150718942
C  C45  1  0.24443000  0.54828000  0.19071000  1.0 -0.150718942
C  C46  1  0.30372000  0.99443000  0.19615000  1.0 -0.150718942
C  C47  1  0.79828000  0.10757000  0.80385000  1.0 -0.150718942
C  C48  1  0.35757000  0.05372000  0.80929000  1.0 -0.150718942
C  C49  1  0.94137000  0.18288000  0.30125000  1.0 0.4310733176
C  C50  1  0.89012000  0.69137000  0.25849000  1.0 0.4310733176
C  C51  1  0.43288000  0.63163000  0.74151000  1.0 0.4310733176
C  C52  1  0.88163000  0.64012000  0.69875000  1.0 0.4310733176
C  C53  1  0.30863000  0.56712000  0.19875000  1.0 0.4310733176
C  C54  1  0.35988000  0.05863000  0.24151000  1.0 0.4310733176
C  C55  1  0.81712000  0.11837000  0.75849000  1.0 0.4310733176
C  C56  1  0.36837000  0.10988000  0.80125000  1.0 0.4310733176
C  C57  1  0.77286000  0.07625000  0.33593000  1.0 0.5272270771
C  C58  1  0.68693000  0.52286000  0.19661000  1.0 0.5272270771
C  C59  1  0.32625000  0.49032000  0.80339000  1.0 0.5272270771
C  C60  1  0.74032000  0.43693000  0.66407000  1.0 0.5272270771
C  C61  1  0.47714000  0.67375000  0.16407000  1.0 0.5272270771
C  C62  1  0.56307000  0.22714000  0.30339000  1.0 0.5272270771
C  C63  1  0.92375000  0.25968000  0.69661000  1.0 0.5272270771
C  C64  1  0.50968000  0.31307000  0.83593000  1.0 0.5272270771
C  C65  1  0.70348000  0.05241000  0.32971000  1.0 -0.5479526722
C  C66  1  0.62377000  0.45348000  0.15107000  1.0 -0.5479526722
C  C67  1  0.30241000  0.47270000  0.84893000  1.0 -0.5479526722
C  C68  1  0.72270000  0.37377000  0.67029000  1.0 -0.5479526722
C  C69  1  0.54652000  0.69759000  0.17029000  1.0 -0.5479526722
C  C70  1  0.62623000  0.29652000  0.34893000  1.0 -0.5479526722
C  C71  1  0.94759000  0.27730000  0.65107000  1.0 -0.5479526722
C  C72  1  0.52730000  0.37623000  0.82971000  1.0 -0.5479526722
C  C73  1  0.83310000  0.25295000  0.27905000  1.0 0.2903333775
C  C74  1  0.80405000  0.58310000  0.08015000  1.0 0.2903333775
C  C75  1  0.50295000  0.72390000  0.91985000  1.0 0.2903333775
C  C76  1  0.97390000  0.55405000  0.72095000  1.0 0.2903333775
C  C77  1  0.41690000  0.49705000  0.22095000  1.0 0.2903333775
C  C78  1  0.44595000  0.16690000  0.41985000  1.0 0.2903333775
C  C79  1  0.74705000  0.02610000  0.58015000  1.0 0.2903333775
C  C80  1  0.27610000  0.19595000  0.77905000  1.0 0.2903333775
C  C81  1  0.87604000  0.32669000  0.30553000  1.0 -0.2172643792
C  C82  1  0.82051000  0.62604000  0.04935000  1.0 -0.2172643792
C  C83  1  0.57669000  0.77116000  0.95065000  1.0 -0.2172643792
C  C84  1  0.02116000  0.57051000  0.69447000  1.0 -0.2172643792
C  C85  1  0.37396000  0.42331000  0.19447000  1.0 -0.2172643792
C  C86  1  0.42949000  0.12396000  0.45065000  1.0 -0.2172643792
C  C87  1  0.67331000  0.97884000  0.54935000  1.0 -0.2172643792
C  C88  1  0.22884000  0.17949000  0.80553000  1.0 -0.2172643792
C  C89  1  0.83920000  0.33770000  0.30630000  1.0 -0.0711986443
C  C90  1  0.78290000  0.58920000  0.00150000  1.0 -0.0711986443
C  C91  1  0.58770000  0.78140000  0.99850000  1.0 -0.0711986443
C  C92  1  0.03140000  0.53290000  0.69370000  1.0 -0.0711986443
C  C93  1  0.41080000  0.41230000  0.19370000  1.0 -0.0711986443
C  C94  1  0.46710000  0.16080000  0.49850000  1.0 -0.0711986443
C  C95  1  0.66230000  0.96860000  0.50150000  1.0 -0.0711986443
C  C96  1  0.21860000  0.21710000  0.80630000  1.0 -0.0711986443
C  C97  1  0.75891000  0.27756000  0.27987000  1.0 -0.1405873454
C  C98  1  0.72904000  0.50891000  0.98135000  1.0 -0.1405873454
C  C99  1  0.52756000  0.74769000  0.01865000  1.0 -0.1405873454
C  C100  1  0.99769000  0.47904000  0.72013000  1.0 -0.1405873454
C  C101  1  0.49109000  0.47244000  0.22013000  1.0 -0.1405873454
C  C102  1  0.52096000  0.24109000  0.51865000  1.0 -0.1405873454
C  C103  1  0.72244000  0.00231000  0.48135000  1.0 -0.1405873454
C  C104  1  0.25231000  0.27096000  0.77987000  1.0 -0.1405873454
C  C105  1  0.71556000  0.20325000  0.25341000  1.0 -0.0711986443
C  C106  1  0.71215000  0.46556000  0.01231000  1.0 -0.0711986443
C  C107  1  0.45325000  0.69984000  0.98769000  1.0 -0.0711986443
C  C108  1  0.94984000  0.46215000  0.74659000  1.0 -0.0711986443
C  C109  1  0.53444000  0.54675000  0.24659000  1.0 -0.0711986443
C  C110  1  0.53785000  0.28444000  0.48769000  1.0 -0.0711986443
C  C111  1  0.79675000  0.05016000  0.51231000  1.0 -0.0711986443
C  C112  1  0.30016000  0.28785000  0.75341000  1.0 -0.0711986443
C  C113  1  0.74955000  0.18947000  0.25258000  1.0 -0.1405873454
C  C114  1  0.74697000  0.49955000  0.06008000  1.0 -0.1405873454
C  C115  1  0.43947000  0.68689000  0.93992000  1.0 -0.1405873454
C  C116  1  0.93689000  0.49697000  0.74742000  1.0 -0.1405873454
C  C117  1  0.50045000  0.56053000  0.24742000  1.0 -0.1405873454
C  C118  1  0.50303000  0.25045000  0.43992000  1.0 -0.1405873454
C  C119  1  0.81053000  0.06311000  0.56008000  1.0 -0.1405873454
C  C120  1  0.31311000  0.25303000  0.75258000  1.0 -0.1405873454
C  C121  1  0.69812000  0.10905000  0.22191000  1.0 0.4489823266
C  C122  1  0.72621000  0.44812000  0.08907000  1.0 0.4489823266
C  C123  1  0.35905000  0.63714000  0.91093000  1.0 0.4489823266
C  C124  1  0.88714000  0.47621000  0.77809000  1.0 0.4489823266
C  C125  1  0.55188000  0.64095000  0.27809000  1.0 0.4489823266
C  C126  1  0.52379000  0.30188000  0.41093000  1.0 0.4489823266
C  C127  1  0.89095000  0.11286000  0.58907000  1.0 0.4489823266
C  C128  1  0.36286000  0.27379000  0.72191000  1.0 0.4489823266
C  C129  1  0.71760000  0.01563000  0.17949000  1.0 0.5272270771
C  C130  1  0.78811000  0.46760000  0.20197000  1.0 0.5272270771
C  C131  1  0.26563000  0.58614000  0.79803000  1.0 0.5272270771
C  C132  1  0.83614000  0.53811000  0.82051000  1.0 0.5272270771
C  C133  1  0.53240000  0.73437000  0.32051000  1.0 0.5272270771
C  C134  1  0.46189000  0.28240000  0.29803000  1.0 0.5272270771
C  C135  1  0.98437000  0.16386000  0.70197000  1.0 0.5246008209
C  C136  1  0.41386000  0.21189000  0.67949000  1.0 0.5272270771
C  C137  1  0.67324000  0.94036000  0.14440000  1.0 -0.564325148
C  C138  1  0.77884000  0.42324000  0.23288000  1.0 -0.564325148
C  C139  1  0.19036000  0.54596000  0.76712000  1.0 -0.564325148
C  C140  1  0.79596000  0.52884000  0.85560000  1.0 -0.564325148
C  C141  1  0.57676000  0.80964000  0.35560000  1.0 -0.564325148
C  C142  1  0.47116000  0.32676000  0.26712000  1.0 -0.564325148
C  C143  1  0.05964000  0.20404000  0.73288000  1.0 -0.564325148
C  C144  1  0.45404000  0.22116000  0.64440000  1.0 -0.564325148
C  C145  1  0.93640000  0.22520000  0.17080000  1.0 0.1096711289
C  C146  1  0.01560000  0.68640000  0.21120000  1.0 0.1096711289
C  C147  1  0.47520000  0.80440000  0.78880000  1.0 0.1096711289
C  C148  1  0.05440000  0.76560000  0.82920000  1.0 0.1096711289
C  C149  1  0.31360000  0.52480000  0.32920000  1.0 0.1096711289
C  C150  1  0.23440000  0.06360000  0.28880000  1.0 0.1096711289
C  C151  1  0.77480000  0.94560000  0.71120000  1.0 0.1096711289
C  C152  1  0.19560000  0.98440000  0.67080000  1.0 0.1096711289
C  C153  1  0.97031000  0.25993000  0.13144000  1.0 -0.2267837791
C  C154  1  0.08887000  0.72031000  0.21038000  1.0 -0.2267837791
C  C155  1  0.50993000  0.87849000  0.78962000  1.0 -0.2267837791
C  C156  1  0.12849000  0.83887000  0.86856000  1.0 -0.2267837791
C  C157  1  0.27969000  0.49007000  0.36856000  1.0 -0.2267837791
C  C158  1  0.16113000  0.02969000  0.28962000  1.0 -0.2267837791
C  C159  1  0.74007000  0.87151000  0.71038000  1.0 -0.2267837791
C  C160  1  0.12151000  0.91113000  0.63144000  1.0 -0.2267837791
C  C161  1  0.95657000  0.28786000  0.11123000  1.0 0.1096711289
C  C162  1  0.09534000  0.70657000  0.16871000  1.0 0.1096711289
C  C163  1  0.53786000  0.92663000  0.83129000  1.0 0.1096711289
C  C164  1  0.17663000  0.84534000  0.88877000  1.0 0.1096711289
C  C165  1  0.29343000  0.46214000  0.38877000  1.0 0.1096711289
C  C166  1  0.15466000  0.04343000  0.33129000  1.0 0.12092686
C  C167  1  0.71214000  0.82337000  0.66871000  1.0 0.1096711289
C  C168  1  0.07337000  0.90466000  0.61123000  1.0 0.12092686
C  C169  1  0.91432000  0.28364000  0.12816000  1.0 -0.21161927
C  C170  1  0.03616000  0.66432000  0.13068000  1.0 -0.21161927
C  C171  1  0.53364000  0.90548000  0.86932000  1.0 -0.21161927
C  C172  1  0.15548000  0.78616000  0.87184000  1.0 -0.21161927
C  C173  1  0.33568000  0.46636000  0.37184000  1.0 -0.21161927
C  C174  1  0.21384000  0.08568000  0.36932000  1.0 -0.21161927
C  C175  1  0.71636000  0.84452000  0.63068000  1.0 -0.21161927
C  C176  1  0.09452000  0.96384000  0.62816000  1.0 -0.2172643792
C  C177  1  0.88540000  0.25410000  0.16770000  1.0 0.0884394304
C  C178  1  0.96770000  0.63540000  0.13130000  1.0 0.0884394304
C  C179  1  0.50410000  0.83640000  0.86870000  1.0 0.0884394304
C  C180  1  0.08640000  0.71770000  0.83230000  1.0 0.0884394304
C  C181  1  0.36460000  0.49590000  0.33230000  1.0 0.0884394304
C  C182  1  0.28230000  0.11460000  0.36870000  1.0 0.0884394304
C  C183  1  0.74590000  0.91360000  0.63130000  1.0 0.0884394304
C  C184  1  0.16360000  0.03230000  0.66770000  1.0 0.0884394304
C  C185  1  0.98010000  0.31050000  0.06500000  1.0 -0.1761070934
C  C186  1  0.16510000  0.73010000  0.16960000  1.0 -0.1761070934
C  C187  1  0.56050000  0.99550000  0.83040000  1.0 -0.1761070934
C  C188  1  0.24550000  0.91510000  0.93500000  1.0 -0.1761070934
C  C189  1  0.26990000  0.43950000  0.43500000  1.0 -0.1761070934
C  C190  1  0.08490000  0.01990000  0.33040000  1.0 -0.1761070934
C  C191  1  0.68950000  0.75450000  0.66960000  1.0 -0.1761070934
C  C192  1  0.00450000  0.83490000  0.56500000  1.0 -0.1761070934
C  C193  1  0.74858000  0.84698000  0.43686000  1.0 0.2807188093
C  C194  1  0.56172000  0.49858000  0.40160000  1.0 0.2807188093
C  C195  1  0.09698000  0.16012000  0.59840000  1.0 0.2807188093
C  C196  1  0.41012000  0.31172000  0.56314000  1.0 0.2807188093
C  C197  1  0.50142000  0.90302000  0.06314000  1.0 0.2807188093
C  C198  1  0.68828000  0.25142000  0.09840000  1.0 0.2807188093
C  C199  1  0.15302000  0.58988000  0.90160000  1.0 0.2807188093
C  C200  1  0.83988000  0.43828000  0.93686000  1.0 0.2807188093
C  C201  1  0.74714000  0.82179000  0.47451000  1.0 -0.2014300466
C  C202  1  0.52263000  0.49714000  0.42535000  1.0 -0.2014300466
C  C203  1  0.07179000  0.09728000  0.57465000  1.0 -0.2014300466
C  C204  1  0.34728000  0.27263000  0.52549000  1.0 -0.2014300466
C  C205  1  0.50286000  0.92821000  0.02549000  1.0 -0.2014300466
C  C206  1  0.72737000  0.25286000  0.07465000  1.0 -0.2014300466
C  C207  1  0.17821000  0.65272000  0.92535000  1.0 -0.2014300466
C  C208  1  0.90272000  0.47737000  0.97451000  1.0 -0.2014300466
C  C209  1  0.79415000  0.87283000  0.51920000  1.0 -0.077554796
C  C210  1  0.52495000  0.54415000  0.42132000  1.0 -0.077554796
C  C211  1  0.12283000  0.10363000  0.57868000  1.0 -0.077554796
C  C212  1  0.35363000  0.27495000  0.48080000  1.0 -0.077554796
C  C213  1  0.45585000  0.87717000  0.98080000  1.0 -0.077554796
C  C214  1  0.72505000  0.20585000  0.07868000  1.0 -0.077554796
C  C215  1  0.12717000  0.64637000  0.92132000  1.0 -0.077554796
C  C216  1  0.89637000  0.47505000  0.01920000  1.0 -0.077554796
C  C217  1  0.84597000  0.95407000  0.52912000  1.0 -0.1259306945
C  C218  1  0.56685000  0.59597000  0.39190000  1.0 -0.1259306945
C  C219  1  0.20407000  0.17495000  0.60810000  1.0 -0.1259306945
C  C220  1  0.42495000  0.31685000  0.47088000  1.0 -0.1259306945
C  C221  1  0.40403000  0.79593000  0.97088000  1.0 -0.1259306945
C  C222  1  0.68315000  0.15403000  0.10810000  1.0 -0.1259306945
C  C223  1  0.04593000  0.57505000  0.89190000  1.0 -0.1259306945
C  C224  1  0.82505000  0.43315000  0.02912000  1.0 -0.1259306945
C  C225  1  0.84799000  0.98063000  0.49262000  1.0 -0.0912435052
C  C226  1  0.60537000  0.59799000  0.36736000  1.0 -0.0912435052
C  C227  1  0.23063000  0.23801000  0.63264000  1.0 -0.0912435052
C  C228  1  0.48801000  0.35537000  0.50738000  1.0 -0.0912435052
C  C229  1  0.40201000  0.76937000  0.00738000  1.0 -0.0912435052
C  C230  1  0.64463000  0.15201000  0.13264000  1.0 -0.0912435052
C  C231  1  0.01937000  0.51199000  0.86736000  1.0 -0.0912435052
C  C232  1  0.76199000  0.39463000  0.99262000  1.0 -0.0912435052
C  C233  1  0.79965000  0.92807000  0.44576000  1.0 -0.150718942
C  C234  1  0.60389000  0.54965000  0.37158000  1.0 -0.150718942
C  C235  1  0.17807000  0.23231000  0.62842000  1.0 -0.150718942
C  C236  1  0.48231000  0.35389000  0.55424000  1.0 -0.150718942
C  C237  1  0.45035000  0.82193000  0.05424000  1.0 -0.150718942
C  C238  1  0.64611000  0.20035000  0.12842000  1.0 -0.150718942
C  C239  1  0.07193000  0.51769000  0.87158000  1.0 -0.150718942
C  C240  1  0.76769000  0.39611000  0.94576000  1.0 -0.150718942
C  C241  1  0.80540000  0.96139000  0.40883000  1.0 0.4389989547
C  C242  1  0.64657000  0.55540000  0.34401000  1.0 0.4389989547
C  C243  1  0.21139000  0.30256000  0.65599000  1.0 0.4389989547
C  C244  1  0.55256000  0.39657000  0.59117000  1.0 0.4389989547
C  C245  1  0.44460000  0.78861000  0.09117000  1.0 0.4389989547
C  C246  1  0.60343000  0.19460000  0.15599000  1.0 0.4389989547
C  C247  1  0.03861000  0.44744000  0.84401000  1.0 0.4389989547
C  C248  1  0.69744000  0.35343000  0.90883000  1.0 0.4389989547
C  C249  1  0.74235000  0.90922000  0.28917000  1.0 0.496714773
C  C250  1  0.70318000  0.49235000  0.33313000  1.0 0.496714773
C  C251  1  0.15922000  0.37005000  0.66687000  1.0 0.496714773
C  C252  1  0.62005000  0.45318000  0.71083000  1.0 0.496714773
C  C253  1  0.50765000  0.84078000  0.21083000  1.0 0.496714773
C  C254  1  0.54682000  0.25765000  0.16687000  1.0 0.496714773
C  C255  1  0.09078000  0.37995000  0.83313000  1.0 0.496714773
C  C256  1  0.62995000  0.29682000  0.78917000  1.0 0.496714773
C  C257  1  0.73889000  0.93203000  0.24532000  1.0 -0.564325148
C  C258  1  0.74357000  0.48889000  0.30686000  1.0 -0.564325148
C  C259  1  0.18203000  0.43671000  0.69314000  1.0 -0.564325148
C  C260  1  0.68671000  0.49357000  0.75468000  1.0 -0.564325148
C  C261  1  0.51111000  0.81797000  0.25468000  1.0 -0.564325148
C  C262  1  0.50643000  0.26111000  0.19314000  1.0 -0.564325148
C  C263  1  0.06797000  0.31329000  0.80686000  1.0 -0.564325148
C  C264  1  0.56329000  0.25643000  0.74532000  1.0 -0.564325148
C  C265  1  0.17725000  0.52038000  0.99657000  1.0 0.0884394304
C  C266  1  0.43068000  0.92725000  0.15687000  1.0 0.0884394304
C  C267  1  0.77038000  0.27381000  0.84313000  1.0 0.0884394304
C  C268  1  0.52381000  0.18068000  0.00343000  1.0 0.0884394304
C  C269  1  0.07275000  0.22962000  0.50343000  1.0 0.0884394304
C  C270  1  0.81932000  0.82275000  0.34313000  1.0 0.0884394304
C  C271  1  0.47962000  0.47619000  0.65687000  1.0 0.0884394304
C  C272  1  0.72619000  0.56932000  0.49657000  1.0 0.0884394304
C  C273  1  0.14681000  0.49072000  0.03333000  1.0 -0.2014300466
C  C274  1  0.36348000  0.89681000  0.15609000  1.0 -0.2014300466
C  C275  1  0.74072000  0.20739000  0.84391000  1.0 -0.2014300466
C  C276  1  0.45739000  0.11348000  0.96667000  1.0 -0.2014300466
C  C277  1  0.10319000  0.25928000  0.46667000  1.0 -0.2014300466
C  C278  1  0.88652000  0.85319000  0.34391000  1.0 -0.2014300466
C  C279  1  0.50928000  0.54261000  0.65609000  1.0 -0.2014300466
C  C280  1  0.79261000  0.63652000  0.53333000  1.0 -0.2014300466
C  C281  1  0.07796000  0.40720000  0.02436000  1.0 0.1323249431
C  C282  1  0.30360000  0.82796000  0.17076000  1.0 0.1323249431
C  C283  1  0.65720000  0.13284000  0.82924000  1.0 0.1323249431
C  C284  1  0.38284000  0.05360000  0.97564000  1.0 0.1323249431
C  C285  1  0.17204000  0.34280000  0.47564000  1.0 0.1323249431
C  C286  1  0.94640000  0.92204000  0.32924000  1.0 0.1323249431
C  C287  1  0.59280000  0.61716000  0.67076000  1.0 0.1323249431
C  C288  1  0.86716000  0.69640000  0.52436000  1.0 0.1323249431
C  C289  1  0.03937000  0.35522000  0.97839000  1.0 -0.2172643792
C  C290  1  0.31098000  0.78937000  0.18415000  1.0 -0.2172643792
C  C291  1  0.60522000  0.12683000  0.81585000  1.0 -0.2172643792
C  C292  1  0.37683000  0.06098000  0.02161000  1.0 -0.2172643792
C  C293  1  0.21063000  0.39478000  0.52161000  1.0 -0.2172643792
C  C294  1  0.93902000  0.96063000  0.31585000  1.0 -0.2172643792
C  C295  1  0.64478000  0.62317000  0.68415000  1.0 -0.2172643792
C  C296  1  0.87317000  0.68902000  0.47839000  1.0 -0.2172643792
C  C297  1  0.06721000  0.39323000  0.94344000  1.0 0.0984398157
C  C298  1  0.37377000  0.81721000  0.17398000  1.0 0.0984398157
C  C299  1  0.64323000  0.19979000  0.82602000  1.0 0.0984398157
C  C300  1  0.44979000  0.12377000  0.05656000  1.0 0.0984398157
C  C301  1  0.18279000  0.35677000  0.55656000  1.0 0.0984398157
C  C302  1  0.87623000  0.93279000  0.32602000  1.0 0.0984398157
C  C303  1  0.60677000  0.55021000  0.67398000  1.0 0.0984398157
C  C304  1  0.80021000  0.62623000  0.44344000  1.0 0.0984398157
C  C305  1  0.04050000  0.37270000  0.06940000  1.0 -0.2014300466
C  C306  1  0.22110000  0.79050000  0.16780000  1.0 -0.2014300466
C  C307  1  0.62270000  0.05330000  0.83220000  1.0 -0.2014300466
C  C308  1  0.30330000  0.97110000  0.93060000  1.0 -0.2014300466
C  C309  1  0.20950000  0.37730000  0.43060000  1.0 -0.2014300466
C  C310  1  0.02890000  0.95950000  0.33220000  1.0 -0.2014300466
C  C311  1  0.62730000  0.69670000  0.66780000  1.0 -0.2014300466
C  C312  1  0.94670000  0.77890000  0.56940000  1.0 -0.2014300466
N  N1  1  0.88285000  0.13337000  0.32204000  1.0 -0.3366188335
N  N2  1  0.81081000  0.63285000  0.24948000  1.0 -0.3366188335
N  N3  1  0.38337000  0.56133000  0.75052000  1.0 -0.3366188335
N  N4  1  0.81133000  0.56081000  0.67796000  1.0 -0.3366188335
N  N5  1  0.36715000  0.61663000  0.17796000  1.0 -0.3366188335
N  N6  1  0.43919000  0.11715000  0.25052000  1.0 -0.3366188335
N  N7  1  0.86663000  0.18867000  0.74948000  1.0 -0.3366188335
N  N8  1  0.43867000  0.18919000  0.82204000  1.0 -0.3366188335
N  N9  1  0.82281000  0.11776000  0.31005000  1.0 -0.3197990727
N  N10  1  0.76276000  0.57281000  0.20505000  1.0 -0.3197990727
N  N11  1  0.36776000  0.55771000  0.79495000  1.0 -0.3197990727
N  N12  1  0.80771000  0.51276000  0.68995000  1.0 -0.3197990727
N  N13  1  0.42719000  0.63224000  0.18995000  1.0 -0.3197990727
N  N14  1  0.48724000  0.17719000  0.29495000  1.0 -0.3197990727
N  N15  1  0.88224000  0.19229000  0.70505000  1.0 -0.3197990727
N  N16  1  0.44229000  0.23724000  0.81005000  1.0 -0.3197990727
N  N17  1  0.73352000  0.09859000  0.21455000  1.0 -0.3292928118
N  N18  1  0.76897000  0.48352000  0.13493000  1.0 -0.3292928118
N  N19  1  0.34859000  0.63404000  0.86507000  1.0 -0.3292928118
N  N20  1  0.88404000  0.51897000  0.78545000  1.0 -0.3292928118
N  N21  1  0.51648000  0.65141000  0.28545000  1.0 -0.3292928118
N  N22  1  0.48103000  0.26648000  0.36507000  1.0 -0.3292928118
N  N23  1  0.90141000  0.11596000  0.63493000  1.0 -0.3292928118
N  N24  1  0.36596000  0.23103000  0.71455000  1.0 -0.3292928118
N  N25  1  0.68084000  0.02365000  0.18257000  1.0 -0.2966143914
N  N26  1  0.74827000  0.43084000  0.15719000  1.0 -0.2966143914
N  N27  1  0.27365000  0.59108000  0.84281000  1.0 -0.2966143914
N  N28  1  0.84108000  0.49827000  0.81743000  1.0 -0.2966143914
N  N29  1  0.56916000  0.72635000  0.31743000  1.0 -0.2966143914
N  N30  1  0.50173000  0.31916000  0.34281000  1.0 -0.2966143914
N  N31  1  0.97635000  0.15892000  0.65719000  1.0 -0.2966143914
N  N32  1  0.40892000  0.25173000  0.68257000  1.0 -0.2966143914
N  N33  1  0.89900000  0.22751000  0.18907000  1.0 -0.21161927
N  N34  1  0.95993000  0.64900000  0.17149000  1.0 -0.21161927
N  N35  1  0.47751000  0.78844000  0.82851000  1.0 -0.21161927
N  N36  1  0.03844000  0.70993000  0.81093000  1.0 -0.21161927
N  N37  1  0.35100000  0.52249000  0.31093000  1.0 -0.21161927
N  N38  1  0.29007000  0.10100000  0.32851000  1.0 -0.21161927
N  N39  1  0.77249000  0.96156000  0.67149000  1.0 -0.21161927
N  N40  1  0.21156000  0.04007000  0.68907000  1.0 -0.21161927
N  N41  1  0.76564000  0.91665000  0.36413000  1.0 -0.3366188335
N  N42  1  0.65151000  0.51564000  0.34899000  1.0 -0.3366188335
N  N43  1  0.16665000  0.30252000  0.65101000  1.0 -0.3292928118
N  N44  1  0.55252000  0.40151000  0.63587000  1.0 -0.3366188335
N  N45  1  0.48436000  0.83335000  0.13587000  1.0 -0.3366188335
N  N46  1  0.59849000  0.23436000  0.15101000  1.0 -0.3292928118
N  N47  1  0.08335000  0.44748000  0.84899000  1.0 -0.3292928118
N  N48  1  0.69748000  0.34849000  0.86413000  1.0 -0.3292928118
N  N49  1  0.77707000  0.95516000  0.33139000  1.0 -0.3197990727
N  N50  1  0.69568000  0.52707000  0.32191000  1.0 -0.3197990727
N  N51  1  0.20516000  0.37377000  0.67809000  1.0 -0.3197990727
N  N52  1  0.62377000  0.44568000  0.66861000  1.0 -0.3197990727
N  N53  1  0.47293000  0.79484000  0.16861000  1.0 -0.3197990727
N  N54  1  0.55432000  0.22293000  0.17809000  1.0 -0.3197990727
N  N55  1  0.04484000  0.37623000  0.82191000  1.0 -0.3197990727
N  N56  1  0.62623000  0.30432000  0.83139000  1.0 -0.3197990727
N  N57  1  0.13899000  0.47310000  0.95147000  1.0 -0.21161927
N  N58  1  0.43752000  0.88899000  0.16589000  1.0 -0.21161927
N  N59  1  0.72310000  0.27163000  0.83411000  1.0 -0.21161927
N  N60  1  0.52163000  0.18752000  0.04853000  1.0 -0.21161927
N  N61  1  0.11101000  0.27690000  0.54853000  1.0 -0.21161927
N  N62  1  0.81248000  0.86101000  0.33411000  1.0 -0.21161927
N  N63  1  0.52690000  0.47837000  0.66589000  1.0 -0.21161927
N  N64  1  0.72837000  0.56248000  0.45147000  1.0 -0.21161927
O  O1  1  0.95527000  0.11980000  0.36311000  1.0 -0.4730626525
O  O2  1  0.84216000  0.70527000  0.33547000  1.0 -0.4796723086
O  O3  1  0.36980000  0.50669000  0.66453000  1.0 -0.4730626525
O  O4  1  0.75669000  0.59216000  0.63689000  1.0 -0.4730626525
O  O5  1  0.29473000  0.63020000  0.13689000  1.0 -0.4730626525
O  O6  1  0.40784000  0.04473000  0.16453000  1.0 -0.4730626525
O  O7  1  0.88020000  0.24331000  0.83547000  1.0 -0.4730626525
O  O8  1  0.49331000  0.15784000  0.86311000  1.0 -0.4730626525
O  O9  1  0.94223000  0.21380000  0.27231000  1.0 -0.4730626525
O  O10  1  0.91992000  0.69223000  0.22843000  1.0 -0.4730626525
O  O11  1  0.46380000  0.69149000  0.77157000  1.0 -0.4730626525
O  O12  1  0.94149000  0.66992000  0.72769000  1.0 -0.4730626525
O  O13  1  0.30777000  0.53620000  0.22769000  1.0 -0.4730626525
O  O14  1  0.33008000  0.05777000  0.27157000  1.0 -0.4730626525
O  O15  1  0.78620000  0.05851000  0.72843000  1.0 -0.4730626525
O  O16  1  0.30851000  0.08008000  0.77231000  1.0 -0.4730626525
O  O17  1  0.78070000  0.05389000  0.36809000  1.0 -0.5147151478
O  O18  1  0.66261000  0.53070000  0.22681000  1.0 -0.5147151478
O  O19  1  0.30389000  0.43580000  0.77319000  1.0 -0.5152593084
O  O20  1  0.68580000  0.41261000  0.63191000  1.0 -0.5147151478
O  O21  1  0.46930000  0.69611000  0.13191000  1.0 -0.5152593084
O  O22  1  0.58739000  0.21930000  0.27319000  1.0 -0.5147151478
O  O23  1  0.94611000  0.31420000  0.72681000  1.0 -0.5147151478
O  O24  1  0.56420000  0.33739000  0.86809000  1.0 -0.5147151478
O  O25  1  0.87370000  0.24705000  0.27981000  1.0 -0.463449055
O  O26  1  0.84389000  0.62370000  0.12665000  1.0 -0.463449055
O  O27  1  0.49705000  0.71724000  0.87335000  1.0 -0.463449055
O  O28  1  0.96724000  0.59389000  0.72019000  1.0 -0.463449055
O  O29  1  0.37630000  0.50295000  0.22019000  1.0 -0.463449055
O  O30  1  0.40611000  0.12630000  0.37335000  1.0 -0.463449055
O  O31  1  0.75295000  0.03276000  0.62665000  1.0 -0.463449055
O  O32  1  0.28276000  0.15611000  0.77981000  1.0 -0.463449055
O  O33  1  0.62220000  0.05322000  0.20150000  1.0 -0.445463983
O  O34  1  0.67070000  0.37220000  0.06898000  1.0 -0.4431167223
O  O35  1  0.30322000  0.60172000  0.93102000  1.0 -0.445463983
O  O36  1  0.85172000  0.42070000  0.79850000  1.0 -0.4431167223
O  O37  1  0.62780000  0.69678000  0.29850000  1.0 -0.445463983
O  O38  1  0.57930000  0.37780000  0.43102000  1.0 -0.445463983
O  O39  1  0.94678000  0.14828000  0.56898000  1.0 -0.445463983
O  O40  1  0.39828000  0.32930000  0.70150000  1.0 -0.445463983
O  O41  1  0.79113000  0.06921000  0.20660000  1.0 -0.4880827756
O  O42  1  0.83453000  0.54113000  0.22192000  1.0 -0.4880827756
O  O43  1  0.31921000  0.61261000  0.77808000  1.0 -0.4880827756
O  O44  1  0.86261000  0.58453000  0.79340000  1.0 -0.4880827756
O  O45  1  0.45887000  0.68079000  0.29340000  1.0 -0.4880827756
O  O46  1  0.41547000  0.20887000  0.27808000  1.0 -0.4880827756
O  O47  1  0.93079000  0.13739000  0.72192000  1.0 -0.4880827756
O  O48  1  0.38739000  0.16547000  0.70660000  1.0 -0.4880827756
O  O49  1  0.70044000  0.79180000  0.39358000  1.0 -0.4796723086
O  O50  1  0.55686000  0.45044000  0.40864000  1.0 -0.4796723086
O  O51  1  0.04180000  0.14822000  0.59136000  1.0 -0.4796723086
O  O52  1  0.39822000  0.30686000  0.60642000  1.0 -0.4796723086
O  O53  1  0.54956000  0.95820000  0.10642000  1.0 -0.4796723086
O  O54  1  0.69314000  0.29956000  0.09136000  1.0 -0.4730626525
O  O55  1  0.20820000  0.60178000  0.90864000  1.0 -0.4796723086
O  O56  1  0.85178000  0.44314000  0.89358000  1.0 -0.4730626525
O  O57  1  0.85038000  0.03525000  0.42033000  1.0 -0.4796723086
O  O58  1  0.68005000  0.60038000  0.31513000  1.0 -0.4796723086
O  O59  1  0.28525000  0.36492000  0.68487000  1.0 -0.4796723086
O  O60  1  0.61492000  0.43005000  0.57967000  1.0 -0.4796723086
O  O61  1  0.39962000  0.71475000  0.07967000  1.0 -0.4796723086
O  O62  1  0.56995000  0.14962000  0.18487000  1.0 -0.4796723086
O  O63  1  0.96475000  0.38508000  0.81513000  1.0 -0.4796723086
O  O64  1  0.63508000  0.31995000  0.92033000  1.0 -0.4796723086
O  O65  1  0.70265000  0.83721000  0.27894000  1.0 -0.4796723086
O  O66  1  0.67371000  0.45265000  0.36544000  1.0 -0.4796723086
O  O67  1  0.08721000  0.30827000  0.63456000  1.0 -0.4796723086
O  O68  1  0.55827000  0.42371000  0.72106000  1.0 -0.4796723086
O  O69  1  0.54735000  0.91279000  0.22106000  1.0 -0.4796723086
O  O70  1  0.57629000  0.29735000  0.13456000  1.0 -0.4796723086
O  O71  1  0.16279000  0.44173000  0.86544000  1.0 -0.4796723086
O  O72  1  0.69173000  0.32629000  0.77894000  1.0 -0.4796723086
