# DDEC6 charges by PACMAN v1.1 (https://github.com/mtap-research/PACMAN-charge/)
data_XAKZUF_FSR_pacman
_symmetry_space_group_name_H-M   'P 1'
_cell_length_a   30.08150000
_cell_length_b   30.08150000
_cell_length_c   30.08150000
_cell_angle_alpha   94.83580000
_cell_angle_beta   94.83580000
_cell_angle_gamma   146.24300000
_symmetry_Int_Tables_number   1
_chemical_formula_structural   Mn3H46C47(NO)10
_chemical_formula_sum   'Mn24 H368 C376 N80 O80'
_cell_volume   14474.14815721
_cell_formula_units_Z   8
loop_
 _symmetry_equiv_pos_site_id
 _symmetry_equiv_pos_as_xyz
  1  'x, y, z'
loop_
 _atom_site_type_symbol
 _atom_site_label
 _atom_site_symmetry_multiplicity
 _atom_site_fract_x
 _atom_site_fract_y
 _atom_site_fract_z
 _atom_site_occupancy
 _atom_site_charge
Mn  Mn1  1  0.99938000  0.77776000  0.37002000  1.0 0.8603151398
Mn  Mn2  1  0.87936000  0.74938000  0.72162000  1.0 0.8603151398
Mn  Mn3  1  0.02776000  0.15774000  0.27838000  1.0 0.8603151398
Mn  Mn4  1  0.40774000  0.62936000  0.62998000  1.0 0.8603151398
Mn  Mn5  1  0.25062000  0.97224000  0.12998000  1.0 0.8603151398
Mn  Mn6  1  0.37064000  0.00062000  0.77838000  1.0 0.8603151398
Mn  Mn7  1  0.22224000  0.59226000  0.22162000  1.0 0.8603151398
Mn  Mn8  1  0.84226000  0.12064000  0.87002000  1.0 0.8603151398
Mn  Mn9  1  0.91874000  0.58873000  0.24825000  1.0 0.8805732072
Mn  Mn10  1  0.92049000  0.66874000  0.83001000  1.0 0.8805732072
Mn  Mn11  1  0.83873000  0.09048000  0.16999000  1.0 0.8805732072
Mn  Mn12  1  0.34048000  0.67049000  0.75175000  1.0 0.8805732072
Mn  Mn13  1  0.33126000  0.16127000  0.25175000  1.0 0.8805732072
Mn  Mn14  1  0.32951000  0.08126000  0.66999000  1.0 0.8805732072
Mn  Mn15  1  0.41127000  0.65952000  0.33001000  1.0 0.8805732072
Mn  Mn16  1  0.90952000  0.07951000  0.74825000  1.0 0.8805732072
Mn  Mn17  1  0.12164000  0.01459000  0.33383000  1.0 0.8603151398
Mn  Mn18  1  0.03781000  0.87164000  0.60705000  1.0 0.8698330016
Mn  Mn19  1  0.26459000  0.43076000  0.39295000  1.0 0.8698330016
Mn  Mn20  1  0.68076000  0.78781000  0.66617000  1.0 0.8698330016
Mn  Mn21  1  0.12836000  0.73541000  0.16617000  1.0 0.8698330016
Mn  Mn22  1  0.21219000  0.87836000  0.89295000  1.0 0.8698330016
Mn  Mn23  1  0.98541000  0.31924000  0.10705000  1.0 0.8698330016
Mn  Mn24  1  0.56924000  0.96219000  0.83383000  1.0 0.8698330016
H  H1  1  0.77520000  0.66980000  0.35720000  1.0 0.1300517746
H  H2  1  0.66800000  0.52520000  0.60540000  1.0 0.1300517746
H  H3  1  0.91980000  0.06260000  0.39460000  1.0 0.1300517746
H  H4  1  0.31260000  0.41800000  0.64280000  1.0 0.1300517746
H  H5  1  0.47480000  0.08020000  0.14280000  1.0 0.1300517746
H  H6  1  0.58200000  0.22480000  0.89460000  1.0 0.1300517746
H  H7  1  0.33020000  0.68740000  0.10540000  1.0 0.1300517746
H  H8  1  0.93740000  0.33200000  0.85720000  1.0 0.1300517746
H  H9  1  0.64090000  0.54300000  0.31830000  1.0 0.1110692316
H  H10  1  0.57260000  0.39090000  0.59790000  1.0 0.1110692316
H  H11  1  0.79300000  0.97470000  0.40210000  1.0 0.1110692316
H  H12  1  0.22470000  0.32260000  0.68170000  1.0 0.1110692316
H  H13  1  0.60910000  0.20700000  0.18170000  1.0 0.1110692316
H  H14  1  0.67740000  0.35910000  0.90210000  1.0 0.1110692316
H  H15  1  0.45700000  0.77530000  0.09790000  1.0 0.1110692316
H  H16  1  0.02530000  0.42740000  0.81830000  1.0 0.1110692316
H  H17  1  0.59920000  0.44100000  0.27340000  1.0 0.1197121303
H  H18  1  0.57580000  0.34920000  0.65820000  1.0 0.1197121303
H  H19  1  0.69100000  0.91760000  0.34180000  1.0 0.1197121303
H  H20  1  0.16760000  0.32580000  0.72660000  1.0 0.1197121303
H  H21  1  0.65080000  0.30900000  0.22660000  1.0 0.1197121303
H  H22  1  0.67420000  0.40080000  0.84180000  1.0 0.1197121303
H  H23  1  0.55900000  0.83240000  0.15820000  1.0 0.1197121303
H  H24  1  0.08240000  0.42420000  0.77340000  1.0 0.1197121303
H  H25  1  0.70280000  0.47530000  0.26510000  1.0 0.1110692316
H  H26  1  0.68770000  0.45280000  0.72750000  1.0 0.1110692316
H  H27  1  0.72530000  0.96020000  0.27250000  1.0 0.1110692316
H  H28  1  0.21020000  0.43770000  0.73490000  1.0 0.1110692316
H  H29  1  0.54720000  0.27470000  0.23490000  1.0 0.1110692316
H  H30  1  0.56230000  0.29720000  0.77250000  1.0 0.1110692316
H  H31  1  0.52470000  0.78980000  0.22750000  1.0 0.1110692316
H  H32  1  0.03980000  0.31230000  0.76510000  1.0 0.1110692316
H  H33  1  0.11530000  0.74060000  0.32590000  1.0 0.1197121303
H  H34  1  0.03940000  0.86530000  0.87470000  1.0 0.1197121303
H  H35  1  0.99060000  0.16470000  0.12530000  1.0 0.1197121303
H  H36  1  0.41470000  0.78940000  0.67410000  1.0 0.1197121303
H  H37  1  0.13470000  0.00940000  0.17410000  1.0 0.1197121303
H  H38  1  0.21060000  0.88470000  0.62530000  1.0 0.1197121303
H  H39  1  0.25940000  0.58530000  0.37470000  1.0 0.1197121303
H  H40  1  0.83530000  0.96060000  0.82590000  1.0 0.1197121303
H  H41  1  0.14510000  0.80080000  0.29690000  1.0 0.1300517746
H  H42  1  0.09820000  0.89510000  0.84430000  1.0 0.1300517746
H  H43  1  0.05080000  0.25390000  0.15570000  1.0 0.1300517746
H  H44  1  0.50390000  0.84820000  0.70310000  1.0 0.1300517746
H  H45  1  0.10490000  0.94920000  0.20310000  1.0 0.1300517746
H  H46  1  0.15180000  0.85490000  0.65570000  1.0 0.1300517746
H  H47  1  0.19920000  0.49610000  0.34430000  1.0 0.1300517746
H  H48  1  0.74610000  0.90180000  0.79690000  1.0 0.1300517746
H  H49  1  0.21420000  0.85640000  0.39420000  1.0 0.1110692316
H  H50  1  0.07000000  0.96420000  0.85780000  1.0 0.1110692316
H  H51  1  0.10640000  0.21220000  0.14220000  1.0 0.1110692316
H  H52  1  0.46220000  0.82000000  0.60580000  1.0 0.1110692316
H  H53  1  0.03580000  0.89360000  0.10580000  1.0 0.1110692316
H  H54  1  0.18000000  0.78580000  0.64220000  1.0 0.1110692316
H  H55  1  0.14360000  0.53780000  0.35780000  1.0 0.1110692316
H  H56  1  0.78780000  0.93000000  0.89420000  1.0 0.1110692316
H  H57  1  0.25590000  0.86770000  0.35660000  1.0 0.1110692316
H  H58  1  0.14930000  0.00590000  0.88820000  1.0 0.1110692316
H  H59  1  0.11770000  0.26110000  0.11180000  1.0 0.1110692316
H  H60  1  0.51110000  0.89930000  0.64340000  1.0 0.1110692316
H  H61  1  0.99410000  0.88230000  0.14340000  1.0 0.1110692316
H  H62  1  0.10070000  0.74410000  0.61180000  1.0 0.1110692316
H  H63  1  0.13230000  0.48890000  0.38820000  1.0 0.1110692316
H  H64  1  0.73890000  0.85070000  0.85660000  1.0 0.1110692316
H  H65  1  0.24830000  0.91450000  0.36140000  1.0 0.1300517746
H  H66  1  0.13690000  0.99830000  0.83380000  1.0 0.1300517746
H  H67  1  0.16450000  0.30310000  0.16620000  1.0 0.1300517746
H  H68  1  0.55310000  0.88690000  0.63860000  1.0 0.1300517746
H  H69  1  0.00170000  0.83550000  0.13860000  1.0 0.1300517746
H  H70  1  0.11310000  0.75170000  0.66620000  1.0 0.1300517746
H  H71  1  0.08550000  0.44690000  0.33380000  1.0 0.1300517746
H  H72  1  0.69690000  0.86310000  0.86140000  1.0 0.1300517746
H  H73  1  0.09200000  0.71540000  0.51040000  1.0 0.1489947211
H  H74  1  0.83160000  0.84200000  0.87660000  1.0 0.1489947211
H  H75  1  0.96540000  0.95500000  0.12340000  1.0 0.1489947211
H  H76  1  0.20500000  0.58160000  0.48960000  1.0 0.1489947211
H  H77  1  0.15800000  0.03460000  0.98960000  1.0 0.1489947211
H  H78  1  0.41840000  0.90800000  0.62340000  1.0 0.1489947211
H  H79  1  0.28460000  0.79500000  0.37660000  1.0 0.1489947211
H  H80  1  0.04500000  0.16840000  0.01040000  1.0 0.1489947211
H  H81  1  0.15200000  0.79410000  0.49010000  1.0 0.1489947211
H  H82  1  0.91190000  0.90200000  0.85790000  1.0 0.1489947211
H  H83  1  0.04410000  0.05400000  0.14210000  1.0 0.1489947211
H  H84  1  0.30400000  0.66190000  0.50990000  1.0 0.1489947211
H  H85  1  0.09800000  0.95590000  0.00990000  1.0 0.1489947211
H  H86  1  0.33810000  0.84800000  0.64210000  1.0 0.1489947211
H  H87  1  0.20590000  0.69600000  0.35790000  1.0 0.1489947211
H  H88  1  0.94600000  0.08810000  0.99010000  1.0 0.1489947211
H  H89  1  0.14140000  0.79940000  0.54060000  1.0 0.1562627644
H  H90  1  0.85080000  0.89140000  0.84200000  1.0 0.1562627644
H  H91  1  0.04940000  0.00880000  0.15800000  1.0 0.1562627644
H  H92  1  0.25880000  0.60080000  0.45940000  1.0 0.1562627644
H  H93  1  0.10860000  0.95060000  0.95940000  1.0 0.1562627644
H  H94  1  0.39920000  0.85860000  0.65800000  1.0 0.1562627644
H  H95  1  0.20060000  0.74120000  0.34200000  1.0 0.1562627644
H  H96  1  0.99120000  0.14920000  0.04060000  1.0 0.1562627644
H  H97  1  0.91270000  0.46820000  0.32550000  1.0 0.1197121303
H  H98  1  0.83720000  0.66270000  0.94450000  1.0 0.1197121303
H  H99  1  0.71820000  0.89270000  0.05550000  1.0 0.1197121303
H  H100  1  0.14270000  0.58720000  0.67450000  1.0 0.1197121303
H  H101  1  0.33730000  0.28180000  0.17450000  1.0 0.1197121303
H  H102  1  0.41280000  0.08730000  0.55550000  1.0 0.1197121303
H  H103  1  0.53180000  0.85730000  0.44450000  1.0 0.1197121303
H  H104  1  0.10730000  0.16280000  0.82550000  1.0 0.1197121303
H  H105  1  0.97850000  0.45500000  0.32530000  1.0 0.1110692316
H  H106  1  0.90320000  0.72850000  0.02350000  1.0 0.1110692316
H  H107  1  0.70500000  0.87970000  0.97650000  1.0 0.1110692316
H  H108  1  0.12970000  0.65320000  0.67470000  1.0 0.1110692316
H  H109  1  0.27150000  0.29500000  0.17470000  1.0 0.1110692316
H  H110  1  0.34680000  0.02150000  0.47650000  1.0 0.1110692316
H  H111  1  0.54500000  0.87030000  0.52350000  1.0 0.1110692316
H  H112  1  0.12030000  0.09680000  0.82530000  1.0 0.1110692316
H  H113  1  0.07610000  0.52320000  0.28390000  1.0 0.1197121303
H  H114  1  0.04220000  0.82610000  0.05290000  1.0 0.1197121303
H  H115  1  0.77320000  0.98930000  0.94710000  1.0 0.1197121303
H  H116  1  0.23930000  0.79220000  0.71610000  1.0 0.1197121303
H  H117  1  0.17390000  0.22680000  0.21610000  1.0 0.1197121303
H  H118  1  0.20780000  0.92390000  0.44710000  1.0 0.1197121303
H  H119  1  0.47680000  0.76070000  0.55290000  1.0 0.1197121303
H  H120  1  0.01070000  0.95780000  0.78390000  1.0 0.1197121303
H  H121  1  0.10230000  0.59990000  0.23920000  1.0 0.1110692316
H  H122  1  0.11310000  0.85230000  0.00240000  1.0 0.1110692316
H  H123  1  0.84990000  0.11070000  0.99760000  1.0 0.1110692316
H  H124  1  0.36070000  0.86310000  0.76080000  1.0 0.1110692316
H  H125  1  0.14770000  0.15010000  0.26080000  1.0 0.1110692316
H  H126  1  0.13690000  0.89770000  0.49760000  1.0 0.1110692316
H  H127  1  0.40010000  0.63930000  0.50240000  1.0 0.1110692316
H  H128  1  0.88930000  0.88690000  0.73920000  1.0 0.1110692316
H  H129  1  0.00670000  0.71380000  0.12490000  1.0 0.1300517746
H  H130  1  0.13180000  0.75670000  0.79290000  1.0 0.1300517746
H  H131  1  0.96380000  0.33890000  0.20710000  1.0 0.1300517746
H  H132  1  0.58890000  0.88180000  0.87510000  1.0 0.1300517746
H  H133  1  0.24330000  0.03620000  0.37510000  1.0 0.1300517746
H  H134  1  0.11820000  0.99330000  0.70710000  1.0 0.1300517746
H  H135  1  0.28620000  0.41110000  0.29290000  1.0 0.1300517746
H  H136  1  0.66110000  0.86820000  0.62490000  1.0 0.1300517746
H  H137  1  0.01550000  0.76270000  0.16280000  1.0 0.1382838633
H  H138  1  0.10270000  0.76550000  0.75280000  1.0 0.1382838633
H  H139  1  0.01270000  0.34990000  0.24720000  1.0 0.1382838633
H  H140  1  0.59990000  0.85270000  0.83720000  1.0 0.1382838633
H  H141  1  0.23450000  0.98730000  0.33720000  1.0 0.1382838633
H  H142  1  0.14730000  0.98450000  0.74720000  1.0 0.1382838633
H  H143  1  0.23730000  0.40010000  0.25280000  1.0 0.1382838633
H  H144  1  0.65010000  0.89730000  0.66280000  1.0 0.1382838633
H  H145  1  0.86630000  0.64020000  0.14110000  1.0 0.1197121303
H  H146  1  0.97520000  0.61630000  0.72610000  1.0 0.1197121303
H  H147  1  0.89020000  0.24910000  0.27390000  1.0 0.1197121303
H  H148  1  0.49910000  0.72520000  0.85890000  1.0 0.1197121303
H  H149  1  0.38370000  0.10980000  0.35890000  1.0 0.1197121303
H  H150  1  0.27480000  0.13370000  0.77390000  1.0 0.1197121303
H  H151  1  0.35980000  0.50090000  0.22610000  1.0 0.1197121303
H  H152  1  0.75090000  0.02480000  0.64110000  1.0 0.1197121303
H  H153  1  0.90840000  0.68860000  0.10220000  1.0 0.1110692316
H  H154  1  0.05620000  0.65840000  0.71980000  1.0 0.1110692316
H  H155  1  0.93860000  0.33640000  0.28020000  1.0 0.1110692316
H  H156  1  0.58640000  0.80620000  0.89780000  1.0 0.1110692316
H  H157  1  0.34160000  0.06140000  0.39780000  1.0 0.1110692316
H  H158  1  0.19380000  0.09160000  0.78020000  1.0 0.1110692316
H  H159  1  0.31140000  0.41360000  0.21980000  1.0 0.1110692316
H  H160  1  0.66360000  0.94380000  0.60220000  1.0 0.1110692316
H  H161  1  0.86710000  0.60560000  0.09830000  1.0 0.1197121303
H  H162  1  0.01880000  0.61710000  0.76150000  1.0 0.1197121303
H  H163  1  0.85560000  0.25730000  0.23850000  1.0 0.1197121303
H  H164  1  0.50730000  0.76880000  0.90170000  1.0 0.1197121303
H  H165  1  0.38290000  0.14440000  0.40170000  1.0 0.1197121303
H  H166  1  0.23120000  0.13290000  0.73850000  1.0 0.1197121303
H  H167  1  0.39440000  0.49270000  0.26150000  1.0 0.1197121303
H  H168  1  0.74270000  0.98120000  0.59830000  1.0 0.1197121303
H  H169  1  0.75890000  0.48980000  0.18150000  1.0 0.1110692316
H  H170  1  0.82740000  0.50890000  0.76910000  1.0 0.1110692316
H  H171  1  0.73980000  0.05830000  0.23090000  1.0 0.1110692316
H  H172  1  0.30830000  0.57740000  0.81850000  1.0 0.1110692316
H  H173  1  0.49110000  0.26020000  0.31850000  1.0 0.1110692316
H  H174  1  0.42260000  0.24110000  0.73090000  1.0 0.1110692316
H  H175  1  0.51020000  0.69170000  0.26910000  1.0 0.1110692316
H  H176  1  0.94170000  0.17260000  0.68150000  1.0 0.1110692316
H  H177  1  0.65210000  0.38170000  0.11260000  1.0 0.1382838633
H  H178  1  0.78950000  0.40210000  0.77040000  1.0 0.1382838633
H  H179  1  0.63170000  0.01910000  0.22960000  1.0 0.1382838633
H  H180  1  0.26910000  0.53950000  0.88740000  1.0 0.1382838633
H  H181  1  0.59790000  0.36830000  0.38740000  1.0 0.1382838633
H  H182  1  0.46050000  0.34790000  0.72960000  1.0 0.1382838633
H  H183  1  0.61830000  0.73090000  0.27040000  1.0 0.1382838633
H  H184  1  0.98090000  0.21050000  0.61260000  1.0 0.1382838633
H  H185  1  0.73350000  0.32650000  0.11520000  1.0 0.1382838633
H  H186  1  0.86830000  0.48350000  0.90700000  1.0 0.1382838633
H  H187  1  0.57650000  0.96130000  0.09300000  1.0 0.1382838633
H  H188  1  0.21130000  0.61830000  0.88480000  1.0 0.1382838633
H  H189  1  0.51650000  0.42350000  0.38480000  1.0 0.1382838633
H  H190  1  0.38170000  0.26650000  0.59300000  1.0 0.1382838633
H  H191  1  0.67350000  0.78870000  0.40700000  1.0 0.1382838633
H  H192  1  0.03870000  0.13170000  0.61520000  1.0 0.1382838633
H  H193  1  0.83880000  0.43640000  0.18020000  1.0 0.1110692316
H  H194  1  0.90860000  0.58880000  0.90240000  1.0 0.1110692316
H  H195  1  0.68640000  0.00620000  0.09760000  1.0 0.1110692316
H  H196  1  0.25620000  0.65860000  0.81980000  1.0 0.1110692316
H  H197  1  0.41120000  0.31360000  0.31980000  1.0 0.1110692316
H  H198  1  0.34140000  0.16120000  0.59760000  1.0 0.1110692316
H  H199  1  0.56360000  0.74380000  0.40240000  1.0 0.1110692316
H  H200  1  0.99380000  0.09140000  0.68020000  1.0 0.1110692316
H  H201  1  0.58320000  0.20860000  0.08040000  1.0 0.1197121303
H  H202  1  0.75280000  0.33320000  0.87460000  1.0 0.1197121303
H  H203  1  0.45860000  0.87820000  0.12540000  1.0 0.1197121303
H  H204  1  0.12820000  0.50280000  0.91960000  1.0 0.1197121303
H  H205  1  0.66680000  0.54140000  0.41960000  1.0 0.1197121303
H  H206  1  0.49720000  0.41680000  0.62540000  1.0 0.1197121303
H  H207  1  0.79140000  0.87180000  0.37460000  1.0 0.1197121303
H  H208  1  0.12180000  0.24720000  0.58040000  1.0 0.1197121303
H  H209  1  0.61760000  0.26140000  0.04400000  1.0 0.1197121303
H  H210  1  0.82360000  0.36760000  0.85620000  1.0 0.1197121303
H  H211  1  0.51140000  0.96740000  0.14380000  1.0 0.1197121303
H  H212  1  0.21740000  0.57360000  0.95600000  1.0 0.1197121303
H  H213  1  0.63240000  0.48860000  0.45600000  1.0 0.1197121303
H  H214  1  0.42640000  0.38240000  0.64380000  1.0 0.1197121303
H  H215  1  0.73860000  0.78260000  0.35620000  1.0 0.1197121303
H  H216  1  0.03260000  0.17640000  0.54400000  1.0 0.1197121303
H  H217  1  0.23930000  0.18680000  0.46530000  1.0 0.1300517746
H  H218  1  0.02400000  0.98930000  0.55250000  1.0 0.1300517746
H  H219  1  0.43680000  0.47150000  0.44750000  1.0 0.1300517746
H  H220  1  0.72150000  0.77400000  0.53470000  1.0 0.1300517746
H  H221  1  0.01070000  0.56320000  0.03470000  1.0 0.1300517746
H  H222  1  0.22600000  0.76070000  0.94750000  1.0 0.1300517746
H  H223  1  0.81320000  0.27850000  0.05250000  1.0 0.1300517746
H  H224  1  0.52850000  0.97600000  0.96530000  1.0 0.1300517746
H  H225  1  0.23690000  0.17520000  0.53990000  1.0 0.0972354726
H  H226  1  0.94700000  0.98690000  0.56170000  1.0 0.0972354726
H  H227  1  0.42520000  0.38530000  0.43830000  1.0 0.0972354726
H  H228  1  0.63530000  0.69700000  0.46010000  1.0 0.0972354726
H  H229  1  0.01310000  0.57480000  0.96010000  1.0 0.0972354726
H  H230  1  0.30300000  0.76310000  0.93830000  1.0 0.0972354726
H  H231  1  0.82480000  0.36470000  0.06170000  1.0 0.0972354726
H  H232  1  0.61470000  0.05300000  0.03990000  1.0 0.0972354726
H  H233  1  0.17020000  0.05590000  0.55570000  1.0 0.1197121303
H  H234  1  0.86450000  0.92020000  0.61430000  1.0 0.1197121303
H  H235  1  0.30590000  0.25020000  0.38570000  1.0 0.1197121303
H  H236  1  0.50020000  0.61450000  0.44430000  1.0 0.1197121303
H  H237  1  0.07980000  0.69410000  0.94430000  1.0 0.1197121303
H  H238  1  0.38550000  0.82980000  0.88570000  1.0 0.1197121303
H  H239  1  0.94410000  0.49980000  0.11430000  1.0 0.1197121303
H  H240  1  0.74980000  0.13550000  0.05570000  1.0 0.1197121303
H  H241  1  0.11060000  0.95320000  0.49500000  1.0 0.1197121303
H  H242  1  0.86560000  0.86060000  0.65740000  1.0 0.1110692316
H  H243  1  0.20320000  0.20820000  0.34260000  1.0 0.1197121303
H  H244  1  0.45820000  0.61560000  0.50500000  1.0 0.1110692316
H  H245  1  0.13940000  0.79680000  0.00500000  1.0 0.1197121303
H  H246  1  0.38440000  0.88940000  0.84260000  1.0 0.1197121303
H  H247  1  0.04680000  0.54180000  0.15740000  1.0 0.1197121303
H  H248  1  0.79180000  0.13440000  0.99500000  1.0 0.1110692316
H  H249  1  0.97570000  0.75990000  0.25780000  1.0 0.1300517746
H  H250  1  0.96790000  0.72570000  0.71580000  1.0 0.1300517746
H  H251  1  0.00990000  0.25210000  0.28420000  1.0 0.1300517746
H  H252  1  0.50210000  0.71790000  0.74220000  1.0 0.1300517746
H  H253  1  0.27430000  0.99010000  0.24220000  1.0 0.1300517746
H  H254  1  0.28210000  0.02430000  0.78420000  1.0 0.1300517746
H  H255  1  0.24010000  0.49790000  0.21580000  1.0 0.1300517746
H  H256  1  0.74790000  0.03210000  0.75780000  1.0 0.1300517746
H  H257  1  0.00780000  0.81480000  0.22280000  1.0 0.1300517746
H  H258  1  0.03500000  0.75780000  0.69300000  1.0 0.1300517746
H  H259  1  0.06480000  0.34200000  0.30700000  1.0 0.1300517746
H  H260  1  0.59200000  0.78500000  0.77720000  1.0 0.1300517746
H  H261  1  0.24220000  0.93520000  0.27720000  1.0 0.1300517746
H  H262  1  0.21500000  0.99220000  0.80700000  1.0 0.1300517746
H  H263  1  0.18520000  0.40800000  0.19300000  1.0 0.1300517746
H  H264  1  0.65800000  0.96500000  0.72280000  1.0 0.1300517746
H  H265  1  0.86420000  0.72580000  0.25620000  1.0 0.1110692316
H  H266  1  0.85800000  0.61420000  0.63840000  1.0 0.1110692316
H  H267  1  0.97580000  0.21960000  0.36160000  1.0 0.1110692316
H  H268  1  0.46960000  0.60800000  0.74380000  1.0 0.1110692316
H  H269  1  0.38580000  0.02420000  0.24380000  1.0 0.1110692316
H  H270  1  0.39200000  0.13580000  0.86160000  1.0 0.1110692316
H  H271  1  0.27420000  0.53040000  0.13840000  1.0 0.1110692316
H  H272  1  0.78040000  0.14200000  0.75620000  1.0 0.1110692316
H  H273  1  0.84960000  0.68420000  0.20760000  1.0 0.1300517746
H  H274  1  0.89200000  0.59960000  0.66540000  1.0 0.1300517746
H  H275  1  0.93420000  0.22660000  0.33460000  1.0 0.1300517746
H  H276  1  0.47660000  0.64200000  0.79240000  1.0 0.1300517746
H  H277  1  0.40040000  0.06580000  0.29240000  1.0 0.1300517746
H  H278  1  0.35800000  0.15040000  0.83460000  1.0 0.1300517746
H  H279  1  0.31580000  0.52340000  0.16540000  1.0 0.1300517746
H  H280  1  0.77340000  0.10800000  0.70760000  1.0 0.1300517746
H  H281  1  0.89040000  0.76730000  0.21430000  1.0 0.1197121303
H  H282  1  0.92610000  0.64040000  0.62310000  1.0 0.1197121303
H  H283  1  0.01730000  0.30300000  0.37690000  1.0 0.1197121303
H  H284  1  0.55300000  0.67610000  0.78570000  1.0 0.1197121303
H  H285  1  0.35960000  0.98270000  0.28570000  1.0 0.1197121303
H  H286  1  0.32390000  0.10960000  0.87690000  1.0 0.1197121303
H  H287  1  0.23270000  0.44700000  0.12310000  1.0 0.1197121303
H  H288  1  0.69700000  0.07390000  0.71430000  1.0 0.1197121303
H  H289  1  0.28010000  0.93970000  0.00200000  1.0 0.1110692316
H  H290  1  0.52810000  0.03010000  0.84040000  1.0 0.1110692316
H  H291  1  0.18970000  0.68770000  0.15960000  1.0 0.1110692316
H  H292  1  0.93770000  0.27810000  0.99800000  1.0 0.1110692316
H  H293  1  0.96990000  0.81030000  0.49800000  1.0 0.1110692316
H  H294  1  0.72190000  0.71990000  0.65960000  1.0 0.1110692316
H  H295  1  0.06030000  0.06230000  0.34040000  1.0 0.1110692316
H  H296  1  0.31230000  0.47190000  0.50200000  1.0 0.1110692316
H  H297  1  0.39200000  0.05990000  0.06390000  1.0 0.1300517746
H  H298  1  0.57810000  0.14200000  0.83210000  1.0 0.1300517746
H  H299  1  0.30990000  0.74600000  0.16790000  1.0 0.1300517746
H  H300  1  0.99600000  0.32810000  0.93610000  1.0 0.1300517746
H  H301  1  0.85800000  0.69010000  0.43610000  1.0 0.1300517746
H  H302  1  0.67190000  0.60800000  0.66790000  1.0 0.1300517746
H  H303  1  0.94010000  0.00400000  0.33210000  1.0 0.1300517746
H  H304  1  0.25400000  0.42190000  0.56390000  1.0 0.1300517746
H  H305  1  0.50380000  0.19310000  0.97210000  1.0 0.1382838633
H  H306  1  0.78170000  0.25380000  0.81070000  1.0 0.1382838633
H  H307  1  0.44310000  0.97100000  0.18930000  1.0 0.1382838633
H  H308  1  0.22100000  0.53170000  0.02790000  1.0 0.1382838633
H  H309  1  0.74620000  0.55690000  0.52790000  1.0 0.1382838633
H  H310  1  0.46830000  0.49620000  0.68930000  1.0 0.1382838633
H  H311  1  0.80690000  0.77900000  0.31070000  1.0 0.1382838633
H  H312  1  0.02900000  0.21830000  0.47210000  1.0 0.1382838633
H  H313  1  0.39620000  0.07300000  0.91360000  1.0 0.1110692316
H  H314  1  0.73260000  0.14620000  0.82320000  1.0 0.1110692316
H  H315  1  0.32300000  0.90940000  0.17680000  1.0 0.1110692316
H  H316  1  0.15940000  0.48260000  0.08640000  1.0 0.1110692316
H  H317  1  0.85380000  0.67700000  0.58640000  1.0 0.1110692316
H  H318  1  0.51740000  0.60380000  0.67680000  1.0 0.1110692316
H  H319  1  0.92700000  0.84060000  0.32320000  1.0 0.1110692316
H  H320  1  0.09060000  0.26740000  0.41360000  1.0 0.1110692316
H  H321  1  0.51240000  0.21010000  0.09210000  1.0 0.1197121303
H  H322  1  0.67030000  0.26240000  0.80230000  1.0 0.1197121303
H  H323  1  0.46010000  0.86800000  0.19770000  1.0 0.1197121303
H  H324  1  0.11800000  0.42030000  0.90790000  1.0 0.1197121303
H  H325  1  0.73760000  0.53990000  0.40790000  1.0 0.1197121303
H  H326  1  0.57970000  0.48760000  0.69770000  1.0 0.1197121303
H  H327  1  0.78990000  0.88200000  0.30230000  1.0 0.1197121303
H  H328  1  0.13200000  0.32970000  0.59210000  1.0 0.1197121303
H  H329  1  0.54710000  0.26360000  0.05590000  1.0 0.1197121303
H  H330  1  0.74120000  0.29710000  0.78350000  1.0 0.1197121303
H  H331  1  0.51360000  0.95770000  0.21650000  1.0 0.1197121303
H  H332  1  0.20770000  0.49120000  0.94410000  1.0 0.1197121303
H  H333  1  0.70290000  0.48640000  0.44410000  1.0 0.1197121303
H  H334  1  0.50880000  0.45290000  0.71650000  1.0 0.1197121303
H  H335  1  0.73640000  0.79230000  0.28350000  1.0 0.1197121303
H  H336  1  0.04230000  0.25880000  0.55590000  1.0 0.1197121303
H  H337  1  0.89820000  0.62220000  0.40660000  1.0 0.1382838633
H  H338  1  0.74160000  0.64820000  0.77600000  1.0 0.1382838633
H  H339  1  0.87220000  0.96560000  0.22400000  1.0 0.1382838633
H  H340  1  0.21560000  0.49160000  0.59340000  1.0 0.1382838633
H  H341  1  0.35180000  0.12780000  0.09340000  1.0 0.1382838633
H  H342  1  0.50840000  0.10180000  0.72400000  1.0 0.1382838633
H  H343  1  0.37780000  0.78440000  0.27600000  1.0 0.1382838633
H  H344  1  0.03440000  0.25840000  0.90660000  1.0 0.1382838633
H  H345  1  0.83800000  0.55350000  0.49930000  1.0 0.1382838633
H  H346  1  0.58870000  0.58800000  0.78450000  1.0 0.1382838633
H  H347  1  0.80350000  0.80420000  0.21550000  1.0 0.1382838633
H  H348  1  0.05420000  0.33870000  0.50070000  1.0 0.1382838633
H  H349  1  0.41200000  0.19650000  0.00070000  1.0 0.1382838633
H  H350  1  0.66130000  0.16200000  0.71550000  1.0 0.1382838633
H  H351  1  0.44650000  0.94580000  0.28450000  1.0 0.1382838633
H  H352  1  0.19580000  0.41130000  0.99930000  1.0 0.1382838633
H  H353  1  0.82730000  0.52180000  0.44790000  1.0 0.1382838633
H  H354  1  0.62940000  0.57730000  0.80550000  1.0 0.1382838633
H  H355  1  0.77180000  0.82390000  0.19450000  1.0 0.1382838633
H  H356  1  0.07390000  0.37940000  0.55210000  1.0 0.1382838633
H  H357  1  0.42270000  0.22820000  0.05210000  1.0 0.1382838633
H  H358  1  0.62060000  0.17270000  0.69450000  1.0 0.1382838633
H  H359  1  0.47820000  0.92610000  0.30550000  1.0 0.1382838633
H  H360  1  0.17610000  0.37060000  0.94790000  1.0 0.1382838633
H  H361  1  0.88780000  0.55080000  0.49160000  1.0 0.1489947211
H  H362  1  0.64620000  0.63780000  0.83700000  1.0 0.1489947211
H  H363  1  0.80080000  0.80920000  0.16300000  1.0 0.1489947211
H  H364  1  0.05920000  0.39620000  0.50840000  1.0 0.1489947211
H  H365  1  0.36220000  0.19920000  0.00840000  1.0 0.1489947211
H  H366  1  0.60380000  0.11220000  0.66300000  1.0 0.1489947211
H  H367  1  0.44920000  0.94080000  0.33700000  1.0 0.1489947211
H  H368  1  0.19080000  0.35380000  0.99160000  1.0 0.1489947211
C  C1  1  0.82583000  0.65335000  0.33778000  1.0 0.3121587426
C  C2  1  0.73805000  0.57583000  0.67248000  1.0 0.3121587426
C  C3  1  0.90335000  0.06557000  0.32752000  1.0 0.3121587426
C  C4  1  0.31557000  0.48805000  0.66222000  1.0 0.3121587426
C  C5  1  0.42417000  0.09665000  0.16222000  1.0 0.3121587426
C  C6  1  0.51195000  0.17417000  0.82752000  1.0 0.3121587426
C  C7  1  0.34665000  0.68443000  0.17248000  1.0 0.3121587426
C  C8  1  0.93443000  0.26195000  0.83778000  1.0 0.3121587426
C  C9  1  0.76097000  0.63014000  0.33911000  1.0 -0.2287679309
C  C10  1  0.67186000  0.51097000  0.63083000  1.0 -0.2287679309
C  C11  1  0.88014000  0.04103000  0.36917000  1.0 -0.2287679309
C  C12  1  0.29103000  0.42186000  0.66089000  1.0 -0.2287679309
C  C13  1  0.48903000  0.11986000  0.16089000  1.0 -0.2287679309
C  C14  1  0.57814000  0.23903000  0.86917000  1.0 -0.2287679309
C  C15  1  0.36986000  0.70897000  0.13083000  1.0 -0.2287679309
C  C16  1  0.95897000  0.32814000  0.83911000  1.0 -0.2287679309
C  C17  1  0.68140000  0.55520000  0.31600000  1.0 -0.0605218581
C  C18  1  0.61540000  0.43140000  0.62620000  1.0 -0.0605218581
C  C19  1  0.80520000  0.98920000  0.37380000  1.0 -0.0605218581
C  C20  1  0.23920000  0.36540000  0.68400000  1.0 -0.0605218581
C  C21  1  0.56860000  0.19480000  0.18400000  1.0 -0.0605218581
C  C22  1  0.63460000  0.31860000  0.87380000  1.0 -0.0605218581
C  C23  1  0.44480000  0.76080000  0.12620000  1.0 -0.0605218581
C  C24  1  0.01080000  0.38460000  0.81600000  1.0 -0.0605218581
C  C25  1  0.65640000  0.49480000  0.28880000  1.0 -0.154021459
C  C26  1  0.61760000  0.40640000  0.66160000  1.0 -0.154021459
C  C27  1  0.74480000  0.95600000  0.33840000  1.0 -0.154021459
C  C28  1  0.20600000  0.36760000  0.71120000  1.0 -0.154021459
C  C29  1  0.59360000  0.25520000  0.21120000  1.0 -0.154021459
C  C30  1  0.63240000  0.34360000  0.83840000  1.0 -0.154021459
C  C31  1  0.50520000  0.79400000  0.16160000  1.0 -0.154021459
C  C32  1  0.04400000  0.38240000  0.78880000  1.0 -0.154021459
C  C33  1  0.71850000  0.51536000  0.28446000  1.0 -0.0898141899
C  C34  1  0.68404000  0.46850000  0.70314000  1.0 -0.0898141899
C  C35  1  0.76536000  0.98090000  0.29686000  1.0 -0.0898141899
C  C36  1  0.23090000  0.43404000  0.71554000  1.0 -0.0898141899
C  C37  1  0.53150000  0.23464000  0.21554000  1.0 -0.0898141899
C  C38  1  0.56596000  0.28150000  0.79686000  1.0 -0.0898141899
C  C39  1  0.48464000  0.76910000  0.20314000  1.0 -0.0898141899
C  C40  1  0.01910000  0.31596000  0.78446000  1.0 -0.0898141899
C  C41  1  0.80169000  0.59325000  0.30814000  1.0 -0.1661958493
C  C42  1  0.74355000  0.55169000  0.70844000  1.0 -0.1661958493
C  C43  1  0.84325000  0.03511000  0.29156000  1.0 -0.1661958493
C  C44  1  0.28511000  0.49355000  0.69186000  1.0 -0.1661958493
C  C45  1  0.44831000  0.15675000  0.19186000  1.0 -0.1661958493
C  C46  1  0.50645000  0.19831000  0.79156000  1.0 -0.1661958493
C  C47  1  0.40675000  0.71489000  0.20844000  1.0 -0.1661958493
C  C48  1  0.96489000  0.25645000  0.80814000  1.0 -0.1661958493
C  C49  1  0.86210000  0.61083000  0.30073000  1.0 0.4289548785
C  C50  1  0.81137000  0.61210000  0.75127000  1.0 0.4289548785
C  C51  1  0.86083000  0.06010000  0.24873000  1.0 0.4289548785
C  C52  1  0.31010000  0.56137000  0.69927000  1.0 0.4289548785
C  C53  1  0.38790000  0.13917000  0.19927000  1.0 0.4289548785
C  C54  1  0.43863000  0.13790000  0.74873000  1.0 0.4289548785
C  C55  1  0.38917000  0.68990000  0.25127000  1.0 0.4289548785
C  C56  1  0.93990000  0.18863000  0.80073000  1.0 0.4289548785
C  C57  1  0.07111000  0.76619000  0.33550000  1.0 0.4553811938
C  C58  1  0.98561000  0.82111000  0.80492000  1.0 0.449307697
C  C59  1  0.01619000  0.18069000  0.19508000  1.0 0.449307697
C  C60  1  0.43069000  0.73561000  0.66450000  1.0 0.4553811938
C  C61  1  0.17889000  0.98381000  0.16450000  1.0 0.4553811938
C  C62  1  0.26439000  0.92889000  0.69508000  1.0 0.4553811938
C  C63  1  0.23381000  0.56931000  0.30492000  1.0 0.4553811938
C  C64  1  0.81931000  0.01439000  0.83550000  1.0 0.449307697
C  C65  1  0.13699000  0.78954000  0.32753000  1.0 -0.2482439277
C  C66  1  0.05946000  0.88699000  0.84745000  1.0 -0.2482439277
C  C67  1  0.03954000  0.21201000  0.15255000  1.0 -0.2482439277
C  C68  1  0.46201000  0.80946000  0.67247000  1.0 -0.2482439277
C  C69  1  0.11301000  0.96046000  0.17247000  1.0 -0.2482439277
C  C70  1  0.19054000  0.86301000  0.65255000  1.0 -0.2482439277
C  C71  1  0.21046000  0.53799000  0.34745000  1.0 -0.2482439277
C  C72  1  0.78799000  0.94054000  0.82753000  1.0 -0.2482439277
C  C73  1  0.22130000  0.86358000  0.36308000  1.0 -0.3397607798
C  C74  1  0.10822000  0.97130000  0.85772000  1.0 -0.3397607798
C  C75  1  0.11358000  0.25050000  0.14228000  1.0 -0.3397607798
C  C76  1  0.50050000  0.85822000  0.63692000  1.0 -0.3397607798
C  C77  1  0.02870000  0.88642000  0.13692000  1.0 -0.3397607798
C  C78  1  0.14178000  0.77870000  0.64228000  1.0 -0.3397607798
C  C79  1  0.13642000  0.49950000  0.35772000  1.0 -0.3397607798
C  C80  1  0.74950000  0.89178000  0.86308000  1.0 -0.3397607798
C  C81  1  0.03820000  0.74520000  0.44860000  1.0 0.0202715417
C  C82  1  0.83960000  0.78820000  0.79300000  1.0 0.0202715417
C  C83  1  0.99520000  0.04660000  0.20700000  1.0 0.0202715417
C  C84  1  0.29660000  0.58960000  0.55140000  1.0 0.0202715417
C  C85  1  0.21180000  0.00480000  0.05140000  1.0 0.0202715417
C  C86  1  0.41040000  0.96180000  0.70700000  1.0 0.0202715417
C  C87  1  0.25480000  0.70340000  0.29300000  1.0 0.0202715417
C  C88  1  0.95340000  0.16040000  0.94860000  1.0 0.0202715417
C  C89  1  0.99703000  0.70692000  0.51635000  1.0 -0.1119469585
C  C90  1  0.73068000  0.74703000  0.79011000  1.0 -0.117238222
C  C91  1  0.95692000  0.94057000  0.20989000  1.0 -0.1119469585
C  C92  1  0.19057000  0.48068000  0.48365000  1.0 -0.1119469585
C  C93  1  0.25297000  0.04308000  0.98365000  1.0 -0.1119469585
C  C94  1  0.51932000  0.00297000  0.70989000  1.0 -0.117238222
C  C95  1  0.29308000  0.80943000  0.29011000  1.0 -0.1119469585
C  C96  1  0.05943000  0.26932000  0.01635000  1.0 -0.1119469585
C  C97  1  0.11280000  0.76290000  0.50910000  1.0 -0.3212716291
C  C98  1  0.85370000  0.86280000  0.84990000  1.0 -0.3212716291
C  C99  1  0.01290000  0.00380000  0.15010000  1.0 -0.3212716291
C  C100  1  0.25380000  0.60370000  0.49090000  1.0 -0.3212716291
C  C101  1  0.13720000  0.98710000  0.99090000  1.0 -0.3212716291
C  C102  1  0.39630000  0.88720000  0.65010000  1.0 -0.3212716291
C  C103  1  0.23710000  0.74620000  0.34990000  1.0 -0.3212716291
C  C104  1  0.99620000  0.14630000  0.00910000  1.0 -0.3212716291
C  C105  1  0.96346000  0.53813000  0.27939000  1.0 0.2889384084
C  C106  1  0.93407000  0.71346000  0.92533000  1.0 0.2889384084
C  C107  1  0.78813000  0.00874000  0.07467000  1.0 0.2889384084
C  C108  1  0.25874000  0.68407000  0.72061000  1.0 0.2889384084
C  C109  1  0.28654000  0.21187000  0.22061000  1.0 0.2889384084
C  C110  1  0.31593000  0.03654000  0.57467000  1.0 0.2889384084
C  C111  1  0.46187000  0.74126000  0.42533000  1.0 0.2889384084
C  C112  1  0.99126000  0.06593000  0.77939000  1.0 0.2889384084
C  C113  1  0.95003000  0.49392000  0.30695000  1.0 -0.2186710015
C  C114  1  0.89308000  0.70003000  0.95611000  1.0 -0.2186710015
C  C115  1  0.74392000  0.93697000  0.04389000  1.0 -0.2186710015
C  C116  1  0.18697000  0.64308000  0.69305000  1.0 -0.2186710015
C  C117  1  0.29997000  0.25608000  0.19305000  1.0 -0.2186710015
C  C118  1  0.35692000  0.04997000  0.54389000  1.0 -0.2186710015
C  C119  1  0.50608000  0.81303000  0.45611000  1.0 -0.2186710015
C  C120  1  0.06303000  0.10692000  0.80695000  1.0 -0.2186710015
C  C121  1  0.99048000  0.48742000  0.30750000  1.0 -0.0700993969
C  C122  1  0.93298000  0.74048000  0.00306000  1.0 -0.0700993969
C  C123  1  0.73742000  0.92992000  0.99694000  1.0 -0.0700993969
C  C124  1  0.17992000  0.68298000  0.69250000  1.0 -0.0700993969
C  C125  1  0.25952000  0.26258000  0.19250000  1.0 -0.0700993969
C  C126  1  0.31702000  0.00952000  0.49694000  1.0 -0.0700993969
C  C127  1  0.51258000  0.82008000  0.50306000  1.0 -0.0700993969
C  C128  1  0.07008000  0.06702000  0.80750000  1.0 -0.0700993969
C  C129  1  0.04755000  0.52689000  0.28284000  1.0 -0.1397080834
C  C130  1  0.01471000  0.79755000  0.02066000  1.0 -0.1397080834
C  C131  1  0.77689000  0.99405000  0.97934000  1.0 -0.1397080834
C  C132  1  0.24405000  0.76471000  0.71716000  1.0 -0.1397080834
C  C133  1  0.20245000  0.22311000  0.21716000  1.0 -0.1397080834
C  C134  1  0.23529000  0.95245000  0.47934000  1.0 -0.1397080834
C  C135  1  0.47311000  0.75595000  0.52066000  1.0 -0.1397080834
C  C136  1  0.00595000  0.98529000  0.78284000  1.0 -0.1397080834
C  C137  1  0.06272000  0.57223000  0.25635000  1.0 -0.0802002343
C  C138  1  0.05637000  0.81272000  0.99049000  1.0 -0.0898141899
C  C139  1  0.82223000  0.06588000  0.00951000  1.0 -0.0898141899
C  C140  1  0.31588000  0.80637000  0.74365000  1.0 -0.0898141899
C  C141  1  0.18728000  0.17777000  0.24365000  1.0 -0.0898141899
C  C142  1  0.19363000  0.93728000  0.50951000  1.0 -0.0898141899
C  C143  1  0.42777000  0.68412000  0.49049000  1.0 -0.0898141899
C  C144  1  0.93412000  0.94363000  0.75635000  1.0 -0.0802002343
C  C145  1  0.02120000  0.57832000  0.25412000  1.0 -0.1598534345
C  C146  1  0.01708000  0.77120000  0.94288000  1.0 -0.1598534345
C  C147  1  0.82832000  0.07420000  0.05712000  1.0 -0.1598534345
C  C148  1  0.32420000  0.76708000  0.74588000  1.0 -0.1598534345
C  C149  1  0.22880000  0.17168000  0.24588000  1.0 -0.1598534345
C  C150  1  0.23292000  0.97880000  0.55712000  1.0 -0.1598534345
C  C151  1  0.42168000  0.67580000  0.44288000  1.0 -0.1598534345
C  C152  1  0.92580000  0.98292000  0.75412000  1.0 -0.1598534345
C  C153  1  0.03968000  0.62527000  0.22335000  1.0 0.4416060687
C  C154  1  0.06633000  0.78968000  0.91441000  1.0 0.4416060687
C  C155  1  0.87527000  0.15192000  0.08559000  1.0 0.4416060687
C  C156  1  0.40192000  0.81633000  0.77665000  1.0 0.4416060687
C  C157  1  0.21032000  0.12473000  0.27665000  1.0 0.4416060687
C  C158  1  0.18367000  0.96032000  0.58559000  1.0 0.4416060687
C  C159  1  0.37473000  0.59808000  0.41441000  1.0 0.4416060687
C  C160  1  0.84808000  0.93367000  0.72335000  1.0 0.4416060687
C  C161  1  0.97498000  0.67195000  0.18253000  1.0 0.449307697
C  C162  1  0.04245000  0.72498000  0.80303000  1.0 0.449307697
C  C163  1  0.92195000  0.23942000  0.19697000  1.0 0.449307697
C  C164  1  0.48942000  0.79245000  0.81747000  1.0 0.449307697
C  C165  1  0.27502000  0.07805000  0.31747000  1.0 0.449307697
C  C166  1  0.20755000  0.02502000  0.69697000  1.0 0.449307697
C  C167  1  0.32805000  0.51058000  0.30303000  1.0 0.449307697
C  C168  1  0.76058000  0.95755000  0.68253000  1.0 0.449307697
C  C169  1  0.97941000  0.70667000  0.14688000  1.0 -0.2482439277
C  C170  1  0.08253000  0.72941000  0.77274000  1.0 -0.2482439277
C  C171  1  0.95667000  0.30979000  0.22726000  1.0 -0.2482439277
C  C172  1  0.55979000  0.83253000  0.85312000  1.0 -0.2482439277
C  C173  1  0.27059000  0.04333000  0.35312000  1.0 -0.2482439277
C  C174  1  0.16747000  0.02059000  0.72726000  1.0 -0.2482439277
C  C175  1  0.29333000  0.44021000  0.27274000  1.0 -0.2482439277
C  C176  1  0.69021000  0.91747000  0.64688000  1.0 -0.2482439277
C  C177  1  0.89844000  0.65600000  0.11984000  1.0 -0.3301589084
C  C178  1  0.02860000  0.64844000  0.74244000  1.0 -0.3301589084
C  C179  1  0.90600000  0.28616000  0.25756000  1.0 -0.3301589084
C  C180  1  0.53616000  0.77860000  0.88016000  1.0 -0.3301589084
C  C181  1  0.35156000  0.09400000  0.38016000  1.0 -0.3301589084
C  C182  1  0.22140000  0.10156000  0.75756000  1.0 -0.3301589084
C  C183  1  0.34400000  0.46384000  0.24244000  1.0 -0.3301589084
C  C184  1  0.71384000  0.97140000  0.61984000  1.0 -0.3301589084
C  C185  1  0.75240000  0.45419000  0.16859000  1.0 0.0841504425
C  C186  1  0.83381000  0.50240000  0.79821000  1.0 0.0841504425
C  C187  1  0.70419000  0.03560000  0.20179000  1.0 0.0841504425
C  C188  1  0.28560000  0.58381000  0.83141000  1.0 0.0841504425
C  C189  1  0.49760000  0.29581000  0.33141000  1.0 0.0841504425
C  C190  1  0.41619000  0.24760000  0.70179000  1.0 0.0841504425
C  C191  1  0.54581000  0.71440000  0.29821000  1.0 0.0841504425
C  C192  1  0.96440000  0.16619000  0.66859000  1.0 0.0841504425
C  C193  1  0.68680000  0.38850000  0.12830000  1.0 -0.2287679309
C  C194  1  0.80850000  0.43680000  0.79830000  1.0 -0.2287679309
C  C195  1  0.63850000  0.01020000  0.20170000  1.0 -0.2287679309
C  C196  1  0.26020000  0.55850000  0.87170000  1.0 -0.2287679309
C  C197  1  0.56320000  0.36150000  0.37170000  1.0 -0.2287679309
C  C198  1  0.44150000  0.31320000  0.70170000  1.0 -0.2287679309
C  C199  1  0.61150000  0.73980000  0.29830000  1.0 -0.2287679309
C  C200  1  0.98980000  0.19150000  0.62830000  1.0 -0.2287679309
C  C201  1  0.67510000  0.33265000  0.11215000  1.0 0.1489947211
C  C202  1  0.81295000  0.42510000  0.84245000  1.0 0.1489947211
C  C203  1  0.58265000  0.97050000  0.15755000  1.0 0.1489947211
C  C204  1  0.22050000  0.56295000  0.88785000  1.0 0.1489947211
C  C205  1  0.57490000  0.41735000  0.38785000  1.0 0.1489947211
C  C206  1  0.43705000  0.32490000  0.65755000  1.0 0.1489947211
C  C207  1  0.66735000  0.77950000  0.34245000  1.0 0.1489947211
C  C208  1  0.02950000  0.18705000  0.61215000  1.0 0.1489947211
C  C209  1  0.73340000  0.35587000  0.12927000  1.0 -0.2073322687
C  C210  1  0.85413000  0.48340000  0.87753000  1.0 -0.2073322687
C  C211  1  0.60587000  0.97660000  0.12247000  1.0 -0.2073322687
C  C212  1  0.22660000  0.60413000  0.87073000  1.0 -0.2073322687
C  C213  1  0.51660000  0.39413000  0.37073000  1.0 -0.2073322687
C  C214  1  0.39587000  0.26660000  0.62247000  1.0 -0.2073322687
C  C215  1  0.64413000  0.77340000  0.37753000  1.0 -0.2073322687
C  C216  1  0.02340000  0.14587000  0.62927000  1.0 -0.2073322687
C  C217  1  0.79770000  0.42319000  0.16829000  1.0 0.0905839788
C  C218  1  0.87941000  0.54770000  0.87451000  1.0 0.0905839788
C  C219  1  0.67319000  0.00490000  0.12549000  1.0 0.0905839788
C  C220  1  0.25490000  0.62941000  0.83171000  1.0 0.0905839788
C  C221  1  0.45230000  0.32681000  0.33171000  1.0 0.0905839788
C  C222  1  0.37059000  0.20230000  0.62549000  1.0 0.0905839788
C  C223  1  0.57681000  0.74510000  0.37451000  1.0 0.0905839788
C  C224  1  0.99510000  0.12059000  0.66829000  1.0 0.0905839788
C  C225  1  0.59980000  0.25173000  0.07273000  1.0 -0.2186710015
C  C226  1  0.77707000  0.34980000  0.84807000  1.0 -0.2186710015
C  C227  1  0.50173000  0.92900000  0.15193000  1.0 -0.2186710015
C  C228  1  0.17900000  0.52707000  0.92727000  1.0 -0.2186710015
C  C229  1  0.65020000  0.49827000  0.42727000  1.0 -0.2186710015
C  C230  1  0.47293000  0.40020000  0.65193000  1.0 -0.2186710015
C  C231  1  0.74827000  0.82100000  0.34807000  1.0 -0.2186710015
C  C232  1  0.07100000  0.22293000  0.57273000  1.0 -0.2186710015
C  C233  1  0.17401000  0.07606000  0.43347000  1.0 0.3006561488
C  C234  1  0.99054000  0.92401000  0.59795000  1.0 0.3006561488
C  C235  1  0.32606000  0.39259000  0.40205000  1.0 0.3006561488
C  C236  1  0.64259000  0.74054000  0.56653000  1.0 0.3006561488
C  C237  1  0.07599000  0.67394000  0.06653000  1.0 0.3006561488
C  C238  1  0.25946000  0.82599000  0.90205000  1.0 0.3006561488
C  C239  1  0.92394000  0.35741000  0.09795000  1.0 0.3006561488
C  C240  1  0.60741000  0.00946000  0.93347000  1.0 0.3006561488
C  C241  1  0.21185000  0.13830000  0.47095000  1.0 -0.2186710015
C  C242  1  0.99090000  0.96185000  0.57355000  1.0 -0.2186710015
C  C243  1  0.38830000  0.41735000  0.42645000  1.0 -0.2186710015
C  C244  1  0.66735000  0.74090000  0.52905000  1.0 -0.2186710015
C  C245  1  0.03815000  0.61170000  0.02905000  1.0 -0.2186710015
C  C246  1  0.25910000  0.78815000  0.92645000  1.0 -0.2186710015
C  C247  1  0.86170000  0.33265000  0.07355000  1.0 -0.2186710015
C  C248  1  0.58265000  0.00910000  0.97095000  1.0 -0.2186710015
C  C249  1  0.21094000  0.13187000  0.51541000  1.0 -0.0802002343
C  C250  1  0.94553000  0.96094000  0.57907000  1.0 -0.0802002343
C  C251  1  0.38187000  0.36646000  0.42093000  1.0 -0.0802002343
C  C252  1  0.61646000  0.69553000  0.48459000  1.0 -0.0802002343
C  C253  1  0.03906000  0.61813000  0.98459000  1.0 -0.0802002343
C  C254  1  0.30447000  0.78906000  0.92093000  1.0 -0.0802002343
C  C255  1  0.86813000  0.38354000  0.07907000  1.0 -0.0802002343
C  C256  1  0.63354000  0.05447000  0.01541000  1.0 -0.0802002343
C  C257  1  0.17169000  0.06122000  0.52491000  1.0 -0.1397080834
C  C258  1  0.89678000  0.92169000  0.61047000  1.0 -0.1397080834
C  C259  1  0.31122000  0.28631000  0.38953000  1.0 -0.1397080834
C  C260  1  0.53631000  0.64678000  0.47509000  1.0 -0.1397080834
C  C261  1  0.07831000  0.68878000  0.97509000  1.0 -0.1397080834
C  C262  1  0.35322000  0.82831000  0.88953000  1.0 -0.1397080834
C  C263  1  0.93878000  0.46369000  0.11047000  1.0 -0.1397080834
C  C264  1  0.71369000  0.10322000  0.02491000  1.0 -0.1397080834
C  C265  1  0.13572000  0.00035000  0.48867000  1.0 -0.0802002343
C  C266  1  0.89705000  0.88572000  0.63537000  1.0 -0.0802002343
C  C267  1  0.25035000  0.26168000  0.36463000  1.0 -0.0802002343
C  C268  1  0.51168000  0.64705000  0.51133000  1.0 -0.0802002343
C  C269  1  0.11428000  0.74965000  0.01133000  1.0 -0.0802002343
C  C270  1  0.35295000  0.86428000  0.86463000  1.0 -0.0802002343
C  C271  1  0.99965000  0.48832000  0.13537000  1.0 -0.0802002343
C  C272  1  0.73832000  0.10295000  0.98867000  1.0 -0.0802002343
C  C273  1  0.13444000  0.00472000  0.44296000  1.0 -0.1598534345
C  C274  1  0.94148000  0.88444000  0.62972000  1.0 -0.1598534345
C  C275  1  0.25472000  0.31176000  0.37028000  1.0 -0.1598534345
C  C276  1  0.56176000  0.69148000  0.55704000  1.0 -0.1598534345
C  C277  1  0.11556000  0.74528000  0.05704000  1.0 -0.1598534345
C  C278  1  0.30852000  0.86556000  0.87028000  1.0 -0.1598534345
C  C279  1  0.99528000  0.43824000  0.12972000  1.0 -0.1598534345
C  C280  1  0.68824000  0.05852000  0.94296000  1.0 -0.1598534345
C  C281  1  0.09277000  0.93575000  0.40652000  1.0 0.4416060687
C  C282  1  0.93625000  0.84277000  0.65702000  1.0 0.4416060687
C  C283  1  0.18575000  0.27923000  0.34298000  1.0 0.4416060687
C  C284  1  0.52923000  0.68625000  0.59348000  1.0 0.4416060687
C  C285  1  0.15723000  0.81425000  0.09348000  1.0 0.4416060687
C  C286  1  0.31375000  0.90723000  0.84298000  1.0 0.4416060687
C  C287  1  0.06425000  0.47077000  0.15702000  1.0 0.4416060687
C  C288  1  0.72077000  0.06375000  0.90652000  1.0 0.4416060687
C  C289  1  0.02955000  0.86517000  0.28812000  1.0 0.449307697
C  C290  1  0.99143000  0.77955000  0.66438000  1.0 0.449307697
C  C291  1  0.11517000  0.32705000  0.33562000  1.0 0.449307697
C  C292  1  0.57705000  0.74143000  0.71188000  1.0 0.449307697
C  C293  1  0.22045000  0.88483000  0.21188000  1.0 0.449307697
C  C294  1  0.25857000  0.97045000  0.83562000  1.0 0.449307697
C  C295  1  0.13483000  0.42295000  0.16438000  1.0 0.449307697
C  C296  1  0.67295000  0.00857000  0.78812000  1.0 0.449307697
C  C297  1  0.98017000  0.79392000  0.24809000  1.0 -0.2705380007
C  C298  1  0.98208000  0.73017000  0.68625000  1.0 -0.2705380007
C  C299  1  0.04392000  0.29583000  0.31375000  1.0 -0.2705380007
C  C300  1  0.54583000  0.73208000  0.75191000  1.0 -0.2705380007
C  C301  1  0.26983000  0.95608000  0.25191000  1.0 -0.2705380007
C  C302  1  0.26792000  0.01983000  0.81375000  1.0 -0.2705380007
C  C303  1  0.20608000  0.45417000  0.18625000  1.0 -0.2705380007
C  C304  1  0.70417000  0.01792000  0.74809000  1.0 -0.2705380007
C  C305  1  0.88660000  0.73710000  0.22970000  1.0 -0.3500567231
C  C306  1  0.90690000  0.63660000  0.64950000  1.0 -0.3500567231
C  C307  1  0.98710000  0.25740000  0.35050000  1.0 -0.3500567231
C  C308  1  0.50740000  0.65690000  0.77030000  1.0 -0.3500567231
C  C309  1  0.36340000  0.01290000  0.27030000  1.0 -0.3500567231
C  C310  1  0.34310000  0.11340000  0.85050000  1.0 -0.3500567231
C  C311  1  0.26290000  0.49260000  0.14950000  1.0 -0.3500567231
C  C312  1  0.74260000  0.09310000  0.72970000  1.0 -0.3500567231
C  C313  1  0.32648000  0.99206000  0.99574000  1.0 0.1110692316
C  C314  1  0.58074000  0.07648000  0.83442000  1.0 0.1110692316
C  C315  1  0.24206000  0.74632000  0.16558000  1.0 0.1110692316
C  C316  1  0.99632000  0.33074000  0.00426000  1.0 0.1110692316
C  C317  1  0.92352000  0.75794000  0.50426000  1.0 0.1110692316
C  C318  1  0.66926000  0.67352000  0.66558000  1.0 0.1110692316
C  C319  1  0.00794000  0.00368000  0.33442000  1.0 0.1110692316
C  C320  1  0.25368000  0.41926000  0.49574000  1.0 0.1110692316
C  C321  1  0.39264000  0.06387000  0.03291000  1.0 -0.2186710015
C  C322  1  0.60973000  0.14264000  0.82877000  1.0 -0.2186710015
C  C323  1  0.31387000  0.78096000  0.17123000  1.0 -0.2186710015
C  C324  1  0.03096000  0.35973000  0.96709000  1.0 -0.2186710015
C  C325  1  0.85736000  0.68613000  0.46709000  1.0 -0.2186710015
C  C326  1  0.64027000  0.60736000  0.67123000  1.0 -0.2186710015
C  C327  1  0.93613000  0.96904000  0.32877000  1.0 -0.2186710015
C  C328  1  0.21904000  0.39027000  0.53291000  1.0 -0.2186710015
C  C329  1  0.45990000  0.14165000  0.02435000  1.0 0.1489947211
C  C330  1  0.68555000  0.20990000  0.81825000  1.0 0.1489947211
C  C331  1  0.39165000  0.86730000  0.18175000  1.0 0.1489947211
C  C332  1  0.11730000  0.43555000  0.97565000  1.0 0.1489947211
C  C333  1  0.79010000  0.60835000  0.47565000  1.0 0.1489947211
C  C334  1  0.56445000  0.54010000  0.68175000  1.0 0.1489947211
C  C335  1  0.85835000  0.88270000  0.31825000  1.0 0.1489947211
C  C336  1  0.13270000  0.31445000  0.52435000  1.0 0.1489947211
C  C337  1  0.45852000  0.14175000  0.97947000  1.0 -0.1966169536
C  C338  1  0.72905000  0.20852000  0.81677000  1.0 -0.1966169536
C  C339  1  0.39175000  0.91228000  0.18323000  1.0 -0.1966169536
C  C340  1  0.16228000  0.47905000  0.02053000  1.0 -0.1966169536
C  C341  1  0.79148000  0.60825000  0.52053000  1.0 -0.1966169536
C  C342  1  0.52095000  0.54148000  0.68323000  1.0 -0.1966169536
C  C343  1  0.85825000  0.83772000  0.31677000  1.0 -0.1966169536
C  C344  1  0.08772000  0.27095000  0.47947000  1.0 -0.1966169536
C  C345  1  0.39398000  0.07015000  0.94473000  1.0 0.0630405998
C  C346  1  0.69925000  0.14398000  0.82383000  1.0 0.0630405998
C  C347  1  0.32015000  0.87542000  0.17617000  1.0 0.0630405998
C  C348  1  0.12542000  0.44925000  0.05527000  1.0 0.0630405998
C  C349  1  0.85602000  0.67985000  0.55527000  1.0 0.0630405998
C  C350  1  0.55075000  0.60602000  0.67617000  1.0 0.0630405998
C  C351  1  0.92985000  0.87458000  0.32383000  1.0 0.0630405998
C  C352  1  0.12458000  0.30075000  0.44473000  1.0 0.0630405998
C  C353  1  0.53130000  0.22100000  0.06370000  1.0 -0.2482439277
C  C354  1  0.71760000  0.28130000  0.81030000  1.0 -0.2482439277
C  C355  1  0.47100000  0.90730000  0.18970000  1.0 -0.2482439277
C  C356  1  0.15730000  0.46760000  0.93630000  1.0 -0.2482439277
C  C357  1  0.71870000  0.52900000  0.43630000  1.0 -0.2482439277
C  C358  1  0.53240000  0.46870000  0.68970000  1.0 -0.2482439277
C  C359  1  0.77900000  0.84270000  0.31030000  1.0 -0.2482439277
C  C360  1  0.09270000  0.28240000  0.56370000  1.0 -0.2482439277
C  C361  1  0.94080000  0.66730000  0.43390000  1.0 0.1110692316
C  C362  1  0.75690000  0.69080000  0.77350000  1.0 0.1110692316
C  C363  1  0.91730000  0.98340000  0.22650000  1.0 0.1110692316
C  C364  1  0.23340000  0.50690000  0.56610000  1.0 0.1110692316
C  C365  1  0.30920000  0.08270000  0.06610000  1.0 0.1110692316
C  C366  1  0.49310000  0.05920000  0.72650000  1.0 0.1110692316
C  C367  1  0.33270000  0.76660000  0.27350000  1.0 0.1110692316
C  C368  1  0.01660000  0.24310000  0.93390000  1.0 0.1110692316
C  C369  1  0.86650000  0.56100000  0.47870000  1.0 -0.3500567231
C  C370  1  0.63780000  0.61650000  0.80550000  1.0 -0.3500567231
C  C371  1  0.81100000  0.83230000  0.19450000  1.0 -0.3500567231
C  C372  1  0.08230000  0.38780000  0.52130000  1.0 -0.3500567231
C  C373  1  0.38350000  0.18900000  0.02130000  1.0 -0.3500567231
C  C374  1  0.61220000  0.13350000  0.69450000  1.0 -0.3500567231
C  C375  1  0.43900000  0.91770000  0.30550000  1.0 -0.3500567231
C  C376  1  0.16770000  0.36220000  0.97870000  1.0 -0.3500567231
N  N1  1  0.94159000  0.68402000  0.32281000  1.0 -0.3655001857
N  N2  1  0.86878000  0.69159000  0.75757000  1.0 -0.364628157
N  N3  1  0.93402000  0.11121000  0.24243000  1.0 -0.3655001857
N  N4  1  0.36121000  0.61878000  0.67719000  1.0 -0.3655001857
N  N5  1  0.30841000  0.06598000  0.17719000  1.0 -0.3655001857
N  N6  1  0.38122000  0.05841000  0.74243000  1.0 -0.3655001857
N  N7  1  0.31598000  0.63879000  0.25757000  1.0 -0.3655001857
N  N8  1  0.88879000  0.13122000  0.82281000  1.0 -0.3655001857
N  N9  1  0.99480000  0.69443000  0.31143000  1.0 -0.3212716291
N  N10  1  0.93337000  0.74480000  0.80037000  1.0 -0.3212716291
N  N11  1  0.94443000  0.13300000  0.19963000  1.0 -0.3212716291
N  N12  1  0.38300000  0.68337000  0.68857000  1.0 -0.3212716291
N  N13  1  0.25520000  0.05557000  0.18857000  1.0 -0.3212716291
N  N14  1  0.31663000  0.00520000  0.69963000  1.0 -0.3212716291
N  N15  1  0.30557000  0.61700000  0.30037000  1.0 -0.3212716291
N  N16  1  0.86700000  0.06663000  0.81143000  1.0 -0.3212716291
N  N17  1  0.04440000  0.73350000  0.48890000  1.0 0.072410667
N  N18  1  0.80550000  0.79440000  0.81090000  1.0 0.072410667
N  N19  1  0.98350000  0.99460000  0.18910000  1.0 0.072410667
N  N20  1  0.24460000  0.55550000  0.51110000  1.0 0.072410667
N  N21  1  0.20560000  0.01650000  0.01110000  1.0 0.072410667
N  N22  1  0.44450000  0.95560000  0.68910000  1.0 0.072410667
N  N23  1  0.26650000  0.75540000  0.31090000  1.0 0.072410667
N  N24  1  0.00540000  0.19450000  0.98890000  1.0 0.072410667
N  N25  1  0.99797000  0.62844000  0.21787000  1.0 -0.3301589084
N  N26  1  0.03010000  0.74797000  0.86953000  1.0 -0.3301589084
N  N27  1  0.87844000  0.16057000  0.13047000  1.0 -0.3301589084
N  N28  1  0.41057000  0.78010000  0.78213000  1.0 -0.3301589084
N  N29  1  0.25203000  0.12156000  0.28213000  1.0 -0.3301589084
N  N30  1  0.21990000  0.00203000  0.63047000  1.0 -0.3301589084
N  N31  1  0.37156000  0.58943000  0.36953000  1.0 -0.3301589084
N  N32  1  0.83943000  0.96990000  0.71787000  1.0 -0.3301589084
N  N33  1  0.01500000  0.66831000  0.18431000  1.0 -0.3088243886
N  N34  1  0.08069000  0.76500000  0.84669000  1.0 -0.3088243886
N  N35  1  0.91831000  0.23400000  0.15331000  1.0 -0.3088243886
N  N36  1  0.48400000  0.83069000  0.81569000  1.0 -0.3088243886
N  N37  1  0.23500000  0.08169000  0.31569000  1.0 -0.3088243886
N  N38  1  0.16931000  0.98500000  0.65331000  1.0 -0.3088243886
N  N39  1  0.33169000  0.51600000  0.34669000  1.0 -0.3088243886
N  N40  1  0.76600000  0.91931000  0.68431000  1.0 -0.3088243886
N  N41  1  0.80531000  0.46859000  0.18910000  1.0 -0.2186710015
N  N42  1  0.86621000  0.55531000  0.83672000  1.0 -0.2186710015
N  N43  1  0.71859000  0.02949000  0.16328000  1.0 -0.2186710015
N  N44  1  0.27949000  0.61621000  0.81090000  1.0 -0.2186710015
N  N45  1  0.44469000  0.28141000  0.31090000  1.0 -0.2186710015
N  N46  1  0.38379000  0.19469000  0.66328000  1.0 -0.2186710015
N  N47  1  0.53141000  0.72051000  0.33672000  1.0 -0.2186710015
N  N48  1  0.97051000  0.13379000  0.68910000  1.0 -0.2186710015
N  N49  1  0.08544000  0.93530000  0.36222000  1.0 -0.3301589084
N  N50  1  0.97322000  0.83544000  0.65014000  1.0 -0.3397607798
N  N51  1  0.18530000  0.32308000  0.34986000  1.0 -0.3397607798
N  N52  1  0.57308000  0.72322000  0.63778000  1.0 -0.3397607798
N  N53  1  0.16456000  0.81470000  0.13778000  1.0 -0.3397607798
N  N54  1  0.27678000  0.91456000  0.84986000  1.0 -0.3397607798
N  N55  1  0.06470000  0.42692000  0.15014000  1.0 -0.3397607798
N  N56  1  0.67692000  0.02678000  0.86222000  1.0 -0.3301589084
N  N57  1  0.04089000  0.86394000  0.33023000  1.0 -0.3212716291
N  N58  1  0.96066000  0.79089000  0.67695000  1.0 -0.3212716291
N  N59  1  0.11394000  0.28371000  0.32305000  1.0 -0.3212716291
N  N60  1  0.53371000  0.71066000  0.66977000  1.0 -0.3212716291
N  N61  1  0.20911000  0.88606000  0.16977000  1.0 -0.3212716291
N  N62  1  0.28934000  0.95911000  0.82305000  1.0 -0.3212716291
N  N63  1  0.13606000  0.46629000  0.17695000  1.0 -0.3212716291
N  N64  1  0.71629000  0.03934000  0.83023000  1.0 -0.3212716291
N  N65  1  0.32639000  0.99458000  0.95217000  1.0 -0.2186710015
N  N66  1  0.62422000  0.07639000  0.83181000  1.0 -0.2186710015
N  N67  1  0.24458000  0.79241000  0.16819000  1.0 -0.2186710015
N  N68  1  0.04241000  0.37422000  0.04783000  1.0 -0.2186710015
N  N69  1  0.92361000  0.75542000  0.54783000  1.0 -0.2186710015
N  N70  1  0.62578000  0.67361000  0.66819000  1.0 -0.2186710015
N  N71  1  0.00542000  0.95759000  0.33181000  1.0 -0.2186710015
N  N72  1  0.20759000  0.37578000  0.45217000  1.0 -0.2186710015
N  N73  1  0.93870000  0.64970000  0.47480000  1.0 0.0905839788
N  N74  1  0.71390000  0.68870000  0.78900000  1.0 0.0905839788
N  N75  1  0.89970000  0.92490000  0.21100000  1.0 0.0905839788
N  N76  1  0.17490000  0.46390000  0.52520000  1.0 0.0905839788
N  N77  1  0.31130000  0.10030000  0.02520000  1.0 0.0905839788
N  N78  1  0.53610000  0.06130000  0.71100000  1.0 0.0905839788
N  N79  1  0.35030000  0.82510000  0.28900000  1.0 0.0905839788
N  N80  1  0.07510000  0.28610000  0.97480000  1.0 0.0905839788
O  O1  1  0.89939000  0.72353000  0.36572000  1.0 -0.4893017868
O  O2  1  0.78367000  0.64939000  0.67586000  1.0 -0.4796040995
O  O3  1  0.97353000  0.10781000  0.32414000  1.0 -0.4796040995
O  O4  1  0.35781000  0.53367000  0.63428000  1.0 -0.4893017868
O  O5  1  0.35061000  0.02647000  0.13428000  1.0 -0.4893017868
O  O6  1  0.46633000  0.10061000  0.82414000  1.0 -0.4893017868
O  O7  1  0.27647000  0.64219000  0.17586000  1.0 -0.4893017868
O  O8  1  0.89219000  0.21633000  0.86572000  1.0 -0.4893017868
O  O9  1  0.83686000  0.55462000  0.27278000  1.0 -0.4796040995
O  O10  1  0.81408000  0.58686000  0.78224000  1.0 -0.4796040995
O  O11  1  0.80462000  0.03184000  0.21776000  1.0 -0.4796040995
O  O12  1  0.28184000  0.56408000  0.72722000  1.0 -0.4796040995
O  O13  1  0.41314000  0.19538000  0.22722000  1.0 -0.4796040995
O  O14  1  0.43592000  0.16314000  0.71776000  1.0 -0.4796040995
O  O15  1  0.44538000  0.71816000  0.28224000  1.0 -0.4796040995
O  O16  1  0.96816000  0.18592000  0.77278000  1.0 -0.4796040995
O  O17  1  0.09273000  0.81820000  0.36609000  1.0 -0.5027367606
O  O18  1  0.97664000  0.84273000  0.77453000  1.0 -0.5027367606
O  O19  1  0.06820000  0.20211000  0.22547000  1.0 -0.5027367606
O  O20  1  0.45211000  0.72664000  0.63391000  1.0 -0.5027367606
O  O21  1  0.15727000  0.93180000  0.13391000  1.0 -0.5027367606
O  O22  1  0.27336000  0.90727000  0.72547000  1.0 -0.5027367606
O  O23  1  0.18180000  0.54789000  0.27453000  1.0 -0.5027367606
O  O24  1  0.79789000  0.02336000  0.86609000  1.0 -0.5027367606
O  O25  1  0.99140000  0.73377000  0.43077000  1.0 -0.1119469585
O  O26  1  0.81063000  0.74140000  0.75763000  1.0 -0.1119469585
O  O27  1  0.98377000  0.05300000  0.24237000  1.0 -0.1119469585
O  O28  1  0.30300000  0.56063000  0.56923000  1.0 -0.1119469585
O  O29  1  0.25860000  0.01623000  0.06923000  1.0 -0.1119469585
O  O30  1  0.43937000  0.00860000  0.74237000  1.0 -0.1119469585
O  O31  1  0.26623000  0.69700000  0.25763000  1.0 -0.1119469585
O  O32  1  0.94700000  0.18937000  0.93077000  1.0 -0.1119469585
O  O33  1  0.92052000  0.53962000  0.28028000  1.0 -0.4796040995
O  O34  1  0.89024000  0.67052000  0.88090000  1.0 -0.4796040995
O  O35  1  0.78962000  0.00934000  0.11910000  1.0 -0.4796040995
O  O36  1  0.25934000  0.64024000  0.71972000  1.0 -0.4796040995
O  O37  1  0.32948000  0.21038000  0.21972000  1.0 -0.4796040995
O  O38  1  0.35976000  0.07948000  0.61910000  1.0 -0.4796040995
O  O39  1  0.46038000  0.74066000  0.38090000  1.0 -0.4796040995
O  O40  1  0.99066000  0.10976000  0.78028000  1.0 -0.4796040995
O  O41  1  0.09458000  0.66152000  0.20182000  1.0 -0.4736139033
O  O42  1  0.14276000  0.84458000  0.93306000  1.0 -0.4736139033
O  O43  1  0.91152000  0.20970000  0.06694000  1.0 -0.4736139033
O  O44  1  0.45970000  0.89276000  0.79818000  1.0 -0.4736139033
O  O45  1  0.15542000  0.08848000  0.29818000  1.0 -0.4736139033
O  O46  1  0.10724000  0.90542000  0.56694000  1.0 -0.4736139033
O  O47  1  0.33848000  0.54030000  0.43306000  1.0 -0.4736139033
O  O48  1  0.79030000  0.85724000  0.70182000  1.0 -0.4736139033
O  O49  1  0.92764000  0.64333000  0.20955000  1.0 -0.4893017868
O  O50  1  0.96809000  0.67764000  0.78431000  1.0 -0.4893017868
O  O51  1  0.89333000  0.18378000  0.21569000  1.0 -0.4893017868
O  O52  1  0.43378000  0.71809000  0.79045000  1.0 -0.4893017868
O  O53  1  0.32236000  0.10667000  0.29045000  1.0 -0.4893017868
O  O54  1  0.28191000  0.07236000  0.71569000  1.0 -0.4893017868
O  O55  1  0.35667000  0.56622000  0.28431000  1.0 -0.4893017868
O  O56  1  0.81622000  0.03191000  0.70955000  1.0 -0.4893017868
O  O57  1  0.17823000  0.08868000  0.39165000  1.0 -0.4736139033
O  O58  1  0.03658000  0.92823000  0.58955000  1.0 -0.4736139033
O  O59  1  0.33868000  0.44703000  0.41045000  1.0 -0.4736139033
O  O60  1  0.69703000  0.78658000  0.60835000  1.0 -0.4736139033
O  O61  1  0.07177000  0.66132000  0.10835000  1.0 -0.4736139033
O  O62  1  0.21342000  0.82177000  0.91045000  1.0 -0.4736139033
O  O63  1  0.91132000  0.30297000  0.08955000  1.0 -0.4736139033
O  O64  1  0.55297000  0.96342000  0.89165000  1.0 -0.4736139033
O  O65  1  0.06365000  0.87591000  0.41810000  1.0 -0.4893017868
O  O66  1  0.89555000  0.81365000  0.68774000  1.0 -0.4893017868
O  O67  1  0.12591000  0.20781000  0.31226000  1.0 -0.4893017868
O  O68  1  0.45781000  0.64555000  0.58190000  1.0 -0.4893017868
O  O69  1  0.18635000  0.87409000  0.08190000  1.0 -0.4893017868
O  O70  1  0.35445000  0.93635000  0.81226000  1.0 -0.4893017868
O  O71  1  0.12409000  0.54219000  0.18774000  1.0 -0.4893017868
O  O72  1  0.79219000  0.10445000  0.91810000  1.0 -0.4893017868
O  O73  1  0.05762000  0.92577000  0.27867000  1.0 -0.4893017868
O  O74  1  0.02895000  0.80762000  0.63185000  1.0 -0.4893017868
O  O75  1  0.17577000  0.39710000  0.36815000  1.0 -0.4893017868
O  O76  1  0.64710000  0.77895000  0.72133000  1.0 -0.4893017868
O  O77  1  0.19238000  0.82423000  0.22133000  1.0 -0.4893017868
O  O78  1  0.22105000  0.94238000  0.86815000  1.0 -0.4893017868
O  O79  1  0.07423000  0.35290000  0.13185000  1.0 -0.4893017868
O  O80  1  0.60290000  0.97105000  0.77867000  1.0 -0.4893017868
