# DDEC6 charges by PACMAN v1.1 (https://github.com/mtap-research/PACMAN-charge/)
data_XALBAO_FSR_pacman
_symmetry_space_group_name_H-M   'P 1'
_cell_length_a   29.87070000
_cell_length_b   29.87070000
_cell_length_c   29.87070000
_cell_angle_alpha   94.96030000
_cell_angle_beta   94.96030000
_cell_angle_gamma   145.79900000
_symmetry_Int_Tables_number   1
_chemical_formula_structural   Mn3H43C46(NO)10
_chemical_formula_sum   'Mn24 H344 C368 N80 O80'
_cell_volume   14318.92388887
_cell_formula_units_Z   8
loop_
 _symmetry_equiv_pos_site_id
 _symmetry_equiv_pos_as_xyz
  1  'x, y, z'
loop_
 _atom_site_type_symbol
 _atom_site_label
 _atom_site_symmetry_multiplicity
 _atom_site_fract_x
 _atom_site_fract_y
 _atom_site_fract_z
 _atom_site_occupancy
 _atom_site_charge
Mn  Mn1  1  0.62345000  0.28899000  0.10608000  1.0 0.8791936693
Mn  Mn2  1  0.76737000  0.37345000  0.83446000  1.0 0.8791936693
Mn  Mn3  1  0.53899000  0.93291000  0.16554000  1.0 0.8791936693
Mn  Mn4  1  0.18291000  0.51737000  0.89392000  1.0 0.8791936693
Mn  Mn5  1  0.62655000  0.46101000  0.39392000  1.0 0.8791936693
Mn  Mn6  1  0.48263000  0.37655000  0.66554000  1.0 0.8791936693
Mn  Mn7  1  0.71101000  0.81709000  0.33446000  1.0 0.8791936693
Mn  Mn8  1  0.06709000  0.23263000  0.60608000  1.0 0.8791936693
Mn  Mn9  1  0.50276000  0.13234000  0.22104000  1.0 0.8491600395
Mn  Mn10  1  0.53172000  0.25276000  0.87042000  1.0 0.8491600395
Mn  Mn11  1  0.38234000  0.66130000  0.12958000  1.0 0.8491600395
Mn  Mn12  1  0.91130000  0.28172000  0.77896000  1.0 0.8491600395
Mn  Mn13  1  0.74724000  0.61766000  0.27896000  1.0 0.8491600395
Mn  Mn14  1  0.71828000  0.49724000  0.62958000  1.0 0.8491600395
Mn  Mn15  1  0.86766000  0.08870000  0.37042000  1.0 0.8491600395
Mn  Mn16  1  0.33870000  0.46828000  0.72104000  1.0 0.8491600395
Mn  Mn17  1  0.83100000  0.57871000  0.17073000  1.0 0.8873956506
Mn  Mn18  1  0.91027000  0.58100000  0.75229000  1.0 0.8873956506
Mn  Mn19  1  0.82871000  0.15798000  0.24771000  1.0 0.8873956506
Mn  Mn20  1  0.40798000  0.66027000  0.82927000  1.0 0.8873956506
Mn  Mn21  1  0.41900000  0.17129000  0.32927000  1.0 0.8873956506
Mn  Mn22  1  0.33973000  0.16900000  0.74771000  1.0 0.8873956506
Mn  Mn23  1  0.42129000  0.59202000  0.25229000  1.0 0.8873956506
Mn  Mn24  1  0.84202000  0.08973000  0.67073000  1.0 0.8791936693
H  H1  1  0.74020000  0.27240000  0.05040000  1.0 0.1301970114
H  H2  1  0.93980000  0.49020000  0.96780000  1.0 0.1301970114
H  H3  1  0.52240000  0.97200000  0.03220000  1.0 0.1301970114
H  H4  1  0.22200000  0.68980000  0.94960000  1.0 0.1301970114
H  H5  1  0.50980000  0.47760000  0.44960000  1.0 0.1301970114
H  H6  1  0.31020000  0.25980000  0.53220000  1.0 0.1301970114
H  H7  1  0.72760000  0.77800000  0.46780000  1.0 0.1301970114
H  H8  1  0.02800000  0.06020000  0.55040000  1.0 0.1301970114
H  H9  1  0.74020000  0.19720000  0.06260000  1.0 0.1027564232
H  H10  1  0.92760000  0.49020000  0.04300000  1.0 0.1027564232
H  H11  1  0.44720000  0.88460000  0.95700000  1.0 0.1027564232
H  H12  1  0.13460000  0.67760000  0.93740000  1.0 0.1027564232
H  H13  1  0.50980000  0.55280000  0.43740000  1.0 0.1027564232
H  H14  1  0.32240000  0.25980000  0.45700000  1.0 0.1027564232
H  H15  1  0.80280000  0.86540000  0.54300000  1.0 0.1027564232
H  H16  1  0.11540000  0.07240000  0.56260000  1.0 0.1027564232
H  H17  1  0.67160000  0.11410000  0.11330000  1.0 0.1198207929
H  H18  1  0.80830000  0.42160000  0.05750000  1.0 0.1198207929
H  H19  1  0.36410000  0.75080000  0.94250000  1.0 0.1198207929
H  H20  1  0.00080000  0.55830000  0.88670000  1.0 0.1198207929
H  H21  1  0.57840000  0.63590000  0.38670000  1.0 0.1198207929
H  H22  1  0.44170000  0.32840000  0.44250000  1.0 0.1198207929
H  H23  1  0.88590000  0.99920000  0.55750000  1.0 0.1198207929
H  H24  1  0.24920000  0.19170000  0.61330000  1.0 0.1198207929
H  H25  1  0.61410000  0.11720000  0.15710000  1.0 0.1198207929
H  H26  1  0.70700000  0.36410000  0.99690000  1.0 0.1198207929
H  H27  1  0.36720000  0.71010000  0.00310000  1.0 0.1198207929
H  H28  1  0.96010000  0.45700000  0.84290000  1.0 0.1198207929
H  H29  1  0.63590000  0.63280000  0.34290000  1.0 0.1198207929
H  H30  1  0.54300000  0.38590000  0.50310000  1.0 0.1198207929
H  H31  1  0.88280000  0.03990000  0.49690000  1.0 0.1198207929
H  H32  1  0.28990000  0.29300000  0.65710000  1.0 0.1198207929
H  H33  1  0.47970000  0.22290000  0.21660000  1.0 0.1301970114
H  H34  1  0.51310000  0.22970000  0.75680000  1.0 0.1301970114
H  H35  1  0.47290000  0.75630000  0.24320000  1.0 0.1301970114
H  H36  1  0.00630000  0.26310000  0.78340000  1.0 0.1301970114
H  H37  1  0.77030000  0.52710000  0.28340000  1.0 0.1301970114
H  H38  1  0.73690000  0.52030000  0.74320000  1.0 0.1301970114
H  H39  1  0.77710000  0.99370000  0.25680000  1.0 0.1301970114
H  H40  1  0.24370000  0.48690000  0.71660000  1.0 0.1301970114
H  H41  1  0.51570000  0.29300000  0.19530000  1.0 0.1396668999
H  H42  1  0.57040000  0.26570000  0.72270000  1.0 0.1396668999
H  H43  1  0.54300000  0.84770000  0.27730000  1.0 0.1396668999
H  H44  1  0.09770000  0.32040000  0.80470000  1.0 0.1396668999
H  H45  1  0.73430000  0.45700000  0.30470000  1.0 0.1396668999
H  H46  1  0.67960000  0.48430000  0.77730000  1.0 0.1396668999
H  H47  1  0.70700000  0.90230000  0.22270000  1.0 0.1396668999
H  H48  1  0.15230000  0.42960000  0.69530000  1.0 0.1396668999
H  H49  1  0.36240000  0.11300000  0.14140000  1.0 0.1198207929
H  H50  1  0.47100000  0.11240000  0.74940000  1.0 0.1198207929
H  H51  1  0.36300000  0.72160000  0.25060000  1.0 0.1198207929
H  H52  1  0.97160000  0.22100000  0.85860000  1.0 0.1198207929
H  H53  1  0.88760000  0.63700000  0.35860000  1.0 0.1198207929
H  H54  1  0.77900000  0.63760000  0.75060000  1.0 0.1198207929
H  H55  1  0.88700000  0.02840000  0.24940000  1.0 0.1198207929
H  H56  1  0.27840000  0.52900000  0.64140000  1.0 0.1198207929
H  H57  1  0.35890000  0.16040000  0.16410000  1.0 0.1301970114
H  H58  1  0.44480000  0.10890000  0.69850000  1.0 0.1301970114
H  H59  1  0.41040000  0.74630000  0.30150000  1.0 0.1301970114
H  H60  1  0.99630000  0.19480000  0.83590000  1.0 0.1301970114
H  H61  1  0.89110000  0.58960000  0.33590000  1.0 0.1301970114
H  H62  1  0.80520000  0.64110000  0.80150000  1.0 0.1301970114
H  H63  1  0.83960000  0.00370000  0.19850000  1.0 0.1301970114
H  H64  1  0.25370000  0.55520000  0.66410000  1.0 0.1301970114
H  H65  1  0.39770000  0.18330000  0.12100000  1.0 0.1198207929
H  H66  1  0.52670000  0.14770000  0.71440000  1.0 0.1198207929
H  H67  1  0.43330000  0.81230000  0.28560000  1.0 0.1301970114
H  H68  1  0.06230000  0.27670000  0.87900000  1.0 0.1198207929
H  H69  1  0.85230000  0.56670000  0.37900000  1.0 0.1301970114
H  H70  1  0.72330000  0.60230000  0.78560000  1.0 0.1198207929
H  H71  1  0.81670000  0.93770000  0.21440000  1.0 0.1301970114
H  H72  1  0.18770000  0.47330000  0.62100000  1.0 0.1198207929
H  H73  1  0.55790000  0.21870000  0.99640000  1.0 0.1198207929
H  H74  1  0.81150000  0.30790000  0.83920000  1.0 0.1198207929
H  H75  1  0.46870000  0.97230000  0.16080000  1.0 0.1198207929
H  H76  1  0.22230000  0.56150000  0.00360000  1.0 0.1198207929
H  H77  1  0.69210000  0.53130000  0.50360000  1.0 0.1198207929
H  H78  1  0.43850000  0.44210000  0.66080000  1.0 0.1198207929
H  H79  1  0.78130000  0.77770000  0.33920000  1.0 0.1198207929
H  H80  1  0.02770000  0.18850000  0.49640000  1.0 0.1198207929
H  H81  1  0.44150000  0.10680000  0.93430000  1.0 0.1396668999
H  H82  1  0.75720000  0.19150000  0.83470000  1.0 0.1396668999
H  H83  1  0.35680000  0.92250000  0.16530000  1.0 0.1396668999
H  H84  1  0.17250000  0.50720000  0.06570000  1.0 0.1396668999
H  H85  1  0.80850000  0.64320000  0.56570000  1.0 0.1396668999
H  H86  1  0.49280000  0.55850000  0.66530000  1.0 0.1396668999
H  H87  1  0.89320000  0.82750000  0.33470000  1.0 0.1396668999
H  H88  1  0.07750000  0.24280000  0.43430000  1.0 0.1396668999
H  H89  1  0.31060000  0.00260000  0.02800000  1.0 0.1396668999
H  H90  1  0.53260000  0.06060000  0.80800000  1.0 0.1396668999
H  H91  1  0.25260000  0.72460000  0.19200000  1.0 0.1396668999
H  H92  1  0.97460000  0.28260000  0.97200000  1.0 0.1396668999
H  H93  1  0.93940000  0.74740000  0.47200000  1.0 0.1396668999
H  H94  1  0.71740000  0.68940000  0.69200000  1.0 0.1396668999
H  H95  1  0.99740000  0.02540000  0.30800000  1.0 0.1396668999
H  H96  1  0.27540000  0.46740000  0.52800000  1.0 0.1396668999
H  H97  1  0.42920000  0.10800000  0.08580000  1.0 0.1120512612
H  H98  1  0.59340000  0.17920000  0.82120000  1.0 0.1120512612
H  H99  1  0.35800000  0.77220000  0.17880000  1.0 0.1120512612
H  H100  1  0.02220000  0.34340000  0.91420000  1.0 0.1120512612
H  H101  1  0.82080000  0.64200000  0.41420000  1.0 0.1120512612
H  H102  1  0.65660000  0.57080000  0.67880000  1.0 0.1120512612
H  H103  1  0.89200000  0.97780000  0.32120000  1.0 0.1120512612
H  H104  1  0.22780000  0.40660000  0.58580000  1.0 0.1120512612
H  H105  1  0.29200000  0.99000000  0.90600000  1.0 0.1301970114
H  H106  1  0.63600000  0.04200000  0.80200000  1.0 0.1301970114
H  H107  1  0.24000000  0.83400000  0.19800000  1.0 0.1301970114
H  H108  1  0.08400000  0.38600000  0.09400000  1.0 0.1301970114
H  H109  1  0.95800000  0.76000000  0.59400000  1.0 0.1301970114
H  H110  1  0.61400000  0.70800000  0.69800000  1.0 0.1301970114
H  H111  1  0.01000000  0.91600000  0.30200000  1.0 0.1301970114
H  H112  1  0.16600000  0.36400000  0.40600000  1.0 0.1301970114
H  H113  1  0.23820000  0.95310000  0.94250000  1.0 0.1198207929
H  H114  1  0.54570000  0.98820000  0.78510000  1.0 0.1198207929
H  H115  1  0.20310000  0.76060000  0.21490000  1.0 0.1198207929
H  H116  1  0.01060000  0.29570000  0.05750000  1.0 0.1198207929
H  H117  1  0.01180000  0.79690000  0.55750000  1.0 0.1198207929
H  H118  1  0.70430000  0.76180000  0.71490000  1.0 0.1198207929
H  H119  1  0.04690000  0.98940000  0.28510000  1.0 0.1198207929
H  H120  1  0.23940000  0.45430000  0.44250000  1.0 0.1198207929
H  H121  1  0.28330000  0.92240000  0.10350000  1.0 0.1301970114
H  H122  1  0.42980000  0.03330000  0.86090000  1.0 0.1301970114
H  H123  1  0.17240000  0.56890000  0.13910000  1.0 0.1301970114
H  H124  1  0.81890000  0.17980000  0.89650000  1.0 0.1301970114
H  H125  1  0.96670000  0.82760000  0.39650000  1.0 0.1301970114
H  H126  1  0.82020000  0.71670000  0.63910000  1.0 0.1301970114
H  H127  1  0.07760000  0.18110000  0.36090000  1.0 0.1301970114
H  H128  1  0.43110000  0.57020000  0.60350000  1.0 0.1301970114
H  H129  1  0.15740000  0.85120000  0.08800000  1.0 0.1120512612
H  H130  1  0.31940000  0.90740000  0.80620000  1.0 0.1120512612
H  H131  1  0.10120000  0.51320000  0.19380000  1.0 0.1120512612
H  H132  1  0.76320000  0.06940000  0.91200000  1.0 0.1120512612
H  H133  1  0.09260000  0.89880000  0.41200000  1.0 0.1120512612
H  H134  1  0.93060000  0.84260000  0.69380000  1.0 0.1120512612
H  H135  1  0.14880000  0.23680000  0.30620000  1.0 0.1120512612
H  H136  1  0.48680000  0.68060000  0.58800000  1.0 0.1120512612
H  H137  1  0.10790000  0.82000000  0.15750000  1.0 0.1120512612
H  H138  1  0.20040000  0.85790000  0.78790000  1.0 0.1120512612
H  H139  1  0.07000000  0.41250000  0.21210000  1.0 0.1120512612
H  H140  1  0.66250000  0.95040000  0.84250000  1.0 0.1120512612
H  H141  1  0.14210000  0.93000000  0.34250000  1.0 0.1120512612
H  H142  1  0.04960000  0.89210000  0.71210000  1.0 0.1120512612
H  H143  1  0.18000000  0.33750000  0.28790000  1.0 0.1120512612
H  H144  1  0.58750000  0.79960000  0.65750000  1.0 0.1120512612
H  H145  1  0.21050000  0.95690000  0.21540000  1.0 0.1198207929
H  H146  1  0.24510000  0.96050000  0.75360000  1.0 0.1198207929
H  H147  1  0.20690000  0.49150000  0.24640000  1.0 0.1198207929
H  H148  1  0.74150000  0.99510000  0.78460000  1.0 0.1198207929
H  H149  1  0.03950000  0.79310000  0.28460000  1.0 0.1198207929
H  H150  1  0.00490000  0.78950000  0.74640000  1.0 0.1198207929
H  H151  1  0.04310000  0.25850000  0.25360000  1.0 0.1198207929
H  H152  1  0.50850000  0.75490000  0.71540000  1.0 0.1198207929
H  H153  1  0.64380000  0.34730000  0.34630000  1.0 0.1396668999
H  H154  1  0.54750000  0.39380000  0.79650000  1.0 0.1396668999
H  H155  1  0.59730000  0.75100000  0.20350000  1.0 0.1396668999
H  H156  1  0.00100000  0.29750000  0.65370000  1.0 0.1396668999
H  H157  1  0.60620000  0.40270000  0.15370000  1.0 0.1396668999
H  H158  1  0.70250000  0.35620000  0.70350000  1.0 0.1396668999
H  H159  1  0.65270000  0.99900000  0.29650000  1.0 0.1396668999
H  H160  1  0.24900000  0.45250000  0.84630000  1.0 0.1396668999
H  H161  1  0.61450000  0.28770000  0.37600000  1.0 0.1198207929
H  H162  1  0.48850000  0.36450000  0.82680000  1.0 0.1198207929
H  H163  1  0.53770000  0.66170000  0.17320000  1.0 0.1198207929
H  H164  1  0.91170000  0.23850000  0.62400000  1.0 0.1198207929
H  H165  1  0.63550000  0.46230000  0.12400000  1.0 0.1198207929
H  H166  1  0.76150000  0.38550000  0.67320000  1.0 0.1198207929
H  H167  1  0.71230000  0.08830000  0.32680000  1.0 0.1198207929
H  H168  1  0.33830000  0.51150000  0.87600000  1.0 0.1198207929
H  H169  1  0.74300000  0.37760000  0.33100000  1.0 0.1301970114
H  H170  1  0.66200000  0.49300000  0.86540000  1.0 0.1301970114
H  H171  1  0.62760000  0.79660000  0.13460000  1.0 0.1301970114
H  H172  1  0.04660000  0.41200000  0.66900000  1.0 0.1301970114
H  H173  1  0.50700000  0.37240000  0.16900000  1.0 0.1301970114
H  H174  1  0.58800000  0.25700000  0.63460000  1.0 0.1301970114
H  H175  1  0.62240000  0.95340000  0.36540000  1.0 0.1301970114
H  H176  1  0.20340000  0.33800000  0.83100000  1.0 0.1301970114
H  H177  1  0.75890000  0.40230000  0.38620000  1.0 0.1301970114
H  H178  1  0.62270000  0.50890000  0.85660000  1.0 0.1301970114
H  H179  1  0.65230000  0.76610000  0.14340000  1.0 0.1301970114
H  H180  1  0.01610000  0.37270000  0.61380000  1.0 0.1301970114
H  H181  1  0.49110000  0.34770000  0.11380000  1.0 0.1301970114
H  H182  1  0.62730000  0.24110000  0.64340000  1.0 0.1301970114
H  H183  1  0.59770000  0.98390000  0.35660000  1.0 0.1301970114
H  H184  1  0.23390000  0.37730000  0.88620000  1.0 0.1301970114
H  H185  1  0.71400000  0.31860000  0.36140000  1.0 0.1027564232
H  H186  1  0.60260000  0.46400000  0.89540000  1.0 0.1027564232
H  H187  1  0.56860000  0.70720000  0.10460000  1.0 0.1027564232
H  H188  1  0.95720000  0.35260000  0.63860000  1.0 0.1027564232
H  H189  1  0.53600000  0.43140000  0.13860000  1.0 0.1027564232
H  H190  1  0.64740000  0.28600000  0.60460000  1.0 0.1027564232
H  H191  1  0.68140000  0.04280000  0.39540000  1.0 0.1027564232
H  H192  1  0.29280000  0.39740000  0.86140000  1.0 0.1027564232
H  H193  1  0.57240000  0.14510000  0.31270000  1.0 0.1566640117
H  H194  1  0.50970000  0.32240000  0.92730000  1.0 0.1566640117
H  H195  1  0.39510000  0.58240000  0.07270000  1.0 0.1566640117
H  H196  1  0.83240000  0.25970000  0.68730000  1.0 0.1566640117
H  H197  1  0.67760000  0.60490000  0.18730000  1.0 0.1566640117
H  H198  1  0.74030000  0.42760000  0.57270000  1.0 0.1566640117
H  H199  1  0.85490000  0.16760000  0.42730000  1.0 0.1566640117
H  H200  1  0.41760000  0.49030000  0.81270000  1.0 0.1566640117
H  H201  1  0.66090000  0.12620000  0.34510000  1.0 0.1566640117
H  H202  1  0.56580000  0.41090000  0.03470000  1.0 0.1566640117
H  H203  1  0.37620000  0.53110000  0.96530000  1.0 0.1566640117
H  H204  1  0.78110000  0.31580000  0.65490000  1.0 0.1566640117
H  H205  1  0.58910000  0.62380000  0.15490000  1.0 0.1566640117
H  H206  1  0.68420000  0.33910000  0.46530000  1.0 0.1566640117
H  H207  1  0.87380000  0.21890000  0.53470000  1.0 0.1566640117
H  H208  1  0.46890000  0.43420000  0.84510000  1.0 0.1566640117
H  H209  1  0.64960000  0.16640000  0.36720000  1.0 0.1396668999
H  H210  1  0.53240000  0.39960000  0.98320000  1.0 0.1396668999
H  H211  1  0.41640000  0.54920000  0.01680000  1.0 0.1396668999
H  H212  1  0.79920000  0.28240000  0.63280000  1.0 0.1396668999
H  H213  1  0.60040000  0.58360000  0.13280000  1.0 0.1396668999
H  H214  1  0.71760000  0.35040000  0.51680000  1.0 0.1396668999
H  H215  1  0.83360000  0.20080000  0.48320000  1.0 0.1396668999
H  H216  1  0.45080000  0.46760000  0.86720000  1.0 0.1396668999
H  H217  1  0.60510000  0.08750000  0.38060000  1.0 0.1566640117
H  H218  1  0.47450000  0.35510000  0.01760000  1.0 0.1566640117
H  H219  1  0.33750000  0.45690000  0.98240000  1.0 0.1566640117
H  H220  1  0.70690000  0.22450000  0.61940000  1.0 0.1566640117
H  H221  1  0.64490000  0.66250000  0.11940000  1.0 0.1566640117
H  H222  1  0.77550000  0.39490000  0.48240000  1.0 0.1566640117
H  H223  1  0.91250000  0.29310000  0.51760000  1.0 0.1566640117
H  H224  1  0.54310000  0.52550000  0.88060000  1.0 0.1566640117
H  H225  1  0.82840000  0.65970000  0.05750000  1.0 0.1301970114
H  H226  1  0.02090000  0.57840000  0.66870000  1.0 0.1301970114
H  H227  1  0.90970000  0.35220000  0.33130000  1.0 0.1301970114
H  H228  1  0.60220000  0.77090000  0.94250000  1.0 0.1301970114
H  H229  1  0.42160000  0.09030000  0.44250000  1.0 0.1301970114
H  H230  1  0.22910000  0.17160000  0.83130000  1.0 0.1301970114
H  H231  1  0.34030000  0.39780000  0.16870000  1.0 0.1301970114
H  H232  1  0.64780000  0.97910000  0.55750000  1.0 0.1301970114
H  H233  1  0.75590000  0.59150000  0.97860000  1.0 0.1120512612
H  H234  1  0.02730000  0.50590000  0.66440000  1.0 0.1120512612
H  H235  1  0.84150000  0.36290000  0.33560000  1.0 0.1120512612
H  H236  1  0.61290000  0.77730000  0.02140000  1.0 0.1120512612
H  H237  1  0.49410000  0.15850000  0.52140000  1.0 0.1120512612
H  H238  1  0.22270000  0.24410000  0.83560000  1.0 0.1120512612
H  H239  1  0.40850000  0.38710000  0.16440000  1.0 0.1120512612
H  H240  1  0.63710000  0.97270000  0.47860000  1.0 0.1120512612
H  H241  1  0.67080000  0.45900000  0.94800000  1.0 0.1198207929
H  H242  1  0.97280000  0.42080000  0.71180000  1.0 0.1198207929
H  H243  1  0.70900000  0.26100000  0.28820000  1.0 0.1198207929
H  H244  1  0.51100000  0.72280000  0.05200000  1.0 0.1198207929
H  H245  1  0.57920000  0.29100000  0.55200000  1.0 0.1198207929
H  H246  1  0.27720000  0.32920000  0.78820000  1.0 0.1198207929
H  H247  1  0.54100000  0.48900000  0.21180000  1.0 0.1198207929
H  H248  1  0.73900000  0.02720000  0.44800000  1.0 0.1198207929
H  H249  1  0.64660000  0.38830000  0.99730000  1.0 0.1120512612
H  H250  1  0.89930000  0.39660000  0.75830000  1.0 0.1120512612
H  H251  1  0.63830000  0.14100000  0.24170000  1.0 0.1120512612
H  H252  1  0.39100000  0.64930000  0.00270000  1.0 0.1120512612
H  H253  1  0.60340000  0.36170000  0.50270000  1.0 0.1120512612
H  H254  1  0.35070000  0.35340000  0.74170000  1.0 0.1120512612
H  H255  1  0.61170000  0.60900000  0.25830000  1.0 0.1120512612
H  H256  1  0.85900000  0.10070000  0.49730000  1.0 0.1120512612
H  H257  1  0.74550000  0.40490000  0.25080000  1.0 0.1396668999
H  H258  1  0.74470000  0.49550000  0.84060000  1.0 0.1396668999
H  H259  1  0.65490000  0.90410000  0.15940000  1.0 0.1396668999
H  H260  1  0.15410000  0.49470000  0.74920000  1.0 0.1396668999
H  H261  1  0.50450000  0.34510000  0.24920000  1.0 0.1396668999
H  H262  1  0.50530000  0.25450000  0.65940000  1.0 0.1396668999
H  H263  1  0.59510000  0.84590000  0.34060000  1.0 0.1396668999
H  H264  1  0.09590000  0.25530000  0.75080000  1.0 0.1396668999
H  H265  1  0.74140000  0.36520000  0.20760000  1.0 0.1301970114
H  H266  1  0.78380000  0.49140000  0.87620000  1.0 0.1301970114
H  H267  1  0.61520000  0.90760000  0.12380000  1.0 0.1301970114
H  H268  1  0.15760000  0.53380000  0.79240000  1.0 0.1301970114
H  H269  1  0.50860000  0.38480000  0.29240000  1.0 0.1301970114
H  H270  1  0.46620000  0.25860000  0.62380000  1.0 0.1301970114
H  H271  1  0.63480000  0.84240000  0.37620000  1.0 0.1301970114
H  H272  1  0.09240000  0.21620000  0.70760000  1.0 0.1301970114
H  H273  1  0.88630000  0.48340000  0.22850000  1.0 0.1198207929
H  H274  1  0.90780000  0.63630000  0.90290000  1.0 0.1198207929
H  H275  1  0.73340000  0.00490000  0.09710000  1.0 0.1198207929
H  H276  1  0.25490000  0.65780000  0.77150000  1.0 0.1198207929
H  H277  1  0.36370000  0.26660000  0.27150000  1.0 0.1198207929
H  H278  1  0.34220000  0.11370000  0.59710000  1.0 0.1198207929
H  H279  1  0.51660000  0.74510000  0.40290000  1.0 0.1198207929
H  H280  1  0.99510000  0.09220000  0.72850000  1.0 0.1198207929
H  H281  1  0.85420000  0.44560000  0.27200000  1.0 0.1198207929
H  H282  1  0.83220000  0.60420000  0.90860000  1.0 0.1198207929
H  H283  1  0.69560000  0.92360000  0.09140000  1.0 0.1198207929
H  H284  1  0.17360000  0.58220000  0.72800000  1.0 0.1198207929
H  H285  1  0.39580000  0.30440000  0.22800000  1.0 0.1198207929
H  H286  1  0.41780000  0.14580000  0.59140000  1.0 0.1198207929
H  H287  1  0.55440000  0.82640000  0.40860000  1.0 0.1198207929
H  H288  1  0.07640000  0.16780000  0.77200000  1.0 0.1198207929
H  H289  1  0.89190000  0.52580000  0.27090000  1.0 0.1198207929
H  H290  1  0.87100000  0.64190000  0.86610000  1.0 0.1198207929
H  H291  1  0.77580000  0.00490000  0.13390000  1.0 0.1198207929
H  H292  1  0.25490000  0.62100000  0.72910000  1.0 0.1198207929
H  H293  1  0.35810000  0.22420000  0.22910000  1.0 0.1198207929
H  H294  1  0.37900000  0.10810000  0.63390000  1.0 0.1198207929
H  H295  1  0.47420000  0.74510000  0.36610000  1.0 0.1198207929
H  H296  1  0.99510000  0.12900000  0.77090000  1.0 0.1198207929
H  H297  1  0.01780000  0.75060000  0.81640000  1.0 0.1198207929
H  H298  1  0.45140000  0.76780000  0.76720000  1.0 0.1198207929
H  H299  1  0.00060000  0.68420000  0.23280000  1.0 0.1198207929
H  H300  1  0.93420000  0.20140000  0.18360000  1.0 0.1198207929
H  H301  1  0.23220000  0.99940000  0.68360000  1.0 0.1198207929
H  H302  1  0.79860000  0.98220000  0.73280000  1.0 0.1198207929
H  H303  1  0.24940000  0.06580000  0.26720000  1.0 0.1198207929
H  H304  1  0.31580000  0.54860000  0.31640000  1.0 0.1198207929
H  H305  1  0.11900000  0.84650000  0.89090000  1.0 0.1301970114
H  H306  1  0.47810000  0.86900000  0.77250000  1.0 0.1301970114
H  H307  1  0.09650000  0.70560000  0.22750000  1.0 0.1301970114
H  H308  1  0.95560000  0.22810000  0.10910000  1.0 0.1301970114
H  H309  1  0.13100000  0.90350000  0.60910000  1.0 0.1301970114
H  H310  1  0.77190000  0.88100000  0.72750000  1.0 0.1301970114
H  H311  1  0.15350000  0.04440000  0.27250000  1.0 0.1301970114
H  H312  1  0.29440000  0.52190000  0.39090000  1.0 0.1301970114
H  H313  1  0.17230000  0.76230000  0.88160000  1.0 0.1396668999
H  H314  1  0.54070000  0.92230000  0.91000000  1.0 0.1396668999
H  H315  1  0.01230000  0.63070000  0.09000000  1.0 0.1396668999
H  H316  1  0.88070000  0.29070000  0.11840000  1.0 0.1396668999
H  H317  1  0.07770000  0.98770000  0.61840000  1.0 0.1396668999
H  H318  1  0.70930000  0.82770000  0.59000000  1.0 0.1396668999
H  H319  1  0.23770000  0.11930000  0.41000000  1.0 0.1396668999
H  H320  1  0.36930000  0.45930000  0.38160000  1.0 0.1396668999
H  H321  1  0.04930000  0.65310000  0.82720000  1.0 0.1198207929
H  H322  1  0.47210000  0.79930000  0.89620000  1.0 0.1198207929
H  H323  1  0.90310000  0.57590000  0.10380000  1.0 0.1198207929
H  H324  1  0.82590000  0.22210000  0.17280000  1.0 0.1198207929
H  H325  1  0.20070000  0.09690000  0.67280000  1.0 0.1198207929
H  H326  1  0.77790000  0.95070000  0.60380000  1.0 0.1198207929
H  H327  1  0.34690000  0.17410000  0.39620000  1.0 0.1198207929
H  H328  1  0.42410000  0.52790000  0.32720000  1.0 0.1198207929
H  H329  1  0.24400000  0.88210000  0.95290000  1.0 0.1198207929
H  H330  1  0.54110000  0.99400000  0.86190000  1.0 0.1198207929
H  H331  1  0.13210000  0.67920000  0.13810000  1.0 0.1198207929
H  H332  1  0.92920000  0.29110000  0.04710000  1.0 0.1198207929
H  H333  1  0.00600000  0.86790000  0.54710000  1.0 0.1198207929
H  H334  1  0.70890000  0.75600000  0.63810000  1.0 0.1198207929
H  H335  1  0.11790000  0.07080000  0.36190000  1.0 0.1198207929
H  H336  1  0.32080000  0.45890000  0.45290000  1.0 0.1198207929
H  H337  1  0.29710000  0.91850000  0.91620000  1.0 0.1198207929
H  H338  1  0.63090000  0.04710000  0.87860000  1.0 0.1198207929
H  H339  1  0.16850000  0.75230000  0.12140000  1.0 0.1198207929
H  H340  1  0.00230000  0.38090000  0.08380000  1.0 0.1198207929
H  H341  1  0.95290000  0.83150000  0.58380000  1.0 0.1198207929
H  H342  1  0.61910000  0.70290000  0.62140000  1.0 0.1198207929
H  H343  1  0.08150000  0.99770000  0.37860000  1.0 0.1198207929
H  H344  1  0.24770000  0.36910000  0.41620000  1.0 0.1198207929
C  C1  1  0.67550000  0.24024000  0.09654000  1.0 0.2980213944
C  C2  1  0.82896000  0.42550000  0.93526000  1.0 0.2980213944
C  C3  1  0.49024000  0.89370000  0.06474000  1.0 0.2980213944
C  C4  1  0.14370000  0.57896000  0.90346000  1.0 0.2980213944
C  C5  1  0.57450000  0.50976000  0.40346000  1.0 0.2980213944
C  C6  1  0.42104000  0.32450000  0.56474000  1.0 0.2980213944
C  C7  1  0.75976000  0.85630000  0.43526000  1.0 0.2980213944
C  C8  1  0.10630000  0.17104000  0.59654000  1.0 0.2980213944
C  C9  1  0.71364000  0.24053000  0.07217000  1.0 -0.2101583609
C  C10  1  0.89147000  0.46364000  0.97311000  1.0 -0.2101583609
C  C11  1  0.49053000  0.91836000  0.02689000  1.0 -0.2101583609
C  C12  1  0.16836000  0.64147000  0.92783000  1.0 -0.2101583609
C  C13  1  0.53636000  0.50947000  0.42783000  1.0 -0.2101583609
C  C14  1  0.35853000  0.28636000  0.52689000  1.0 -0.2101583609
C  C15  1  0.75947000  0.83164000  0.47311000  1.0 -0.2101583609
C  C16  1  0.08164000  0.10853000  0.57217000  1.0 -0.2101583609
C  C17  1  0.71318000  0.19538000  0.07916000  1.0 -0.0798353438
C  C18  1  0.88402000  0.46318000  0.01780000  1.0 -0.0798353438
C  C19  1  0.44538000  0.86622000  0.98220000  1.0 -0.0798353438
C  C20  1  0.11622000  0.63402000  0.92084000  1.0 -0.0798353438
C  C21  1  0.53682000  0.55462000  0.42084000  1.0 -0.0798353438
C  C22  1  0.36598000  0.28682000  0.48220000  1.0 -0.0798353438
C  C23  1  0.80462000  0.88378000  0.51780000  1.0 -0.0798353438
C  C24  1  0.13378000  0.11598000  0.57916000  1.0 -0.0798353438
C  C25  1  0.67394000  0.14722000  0.10976000  1.0 -0.1380682871
C  C26  1  0.81418000  0.42394000  0.02672000  1.0 -0.1380682871
C  C27  1  0.39722000  0.78746000  0.97328000  1.0 -0.1380682871
C  C28  1  0.03746000  0.56418000  0.89024000  1.0 -0.1380682871
C  C29  1  0.57606000  0.60278000  0.39024000  1.0 -0.1380682871
C  C30  1  0.43582000  0.32606000  0.47328000  1.0 -0.1380682871
C  C31  1  0.85278000  0.96254000  0.52672000  1.0 -0.1380682871
C  C32  1  0.21254000  0.18582000  0.60976000  1.0 -0.1380682871
C  C33  1  0.63857000  0.14809000  0.13486000  1.0 -0.0798353438
C  C34  1  0.75371000  0.38857000  0.99048000  1.0 -0.0798353438
C  C35  1  0.39809000  0.76323000  0.00952000  1.0 -0.0798353438
C  C36  1  0.01323000  0.50371000  0.86514000  1.0 -0.0798353438
C  C37  1  0.61143000  0.60191000  0.36514000  1.0 -0.0798353438
C  C38  1  0.49629000  0.36143000  0.50952000  1.0 -0.0798353438
C  C39  1  0.85191000  0.98677000  0.49048000  1.0 -0.0798353438
C  C40  1  0.23677000  0.24629000  0.63486000  1.0 -0.0798353438
C  C41  1  0.63681000  0.19283000  0.12904000  1.0 -0.1523952872
C  C42  1  0.75777000  0.38681000  0.94398000  1.0 -0.1523952872
C  C43  1  0.44283000  0.81379000  0.05602000  1.0 -0.1523952872
C  C44  1  0.06379000  0.50777000  0.87096000  1.0 -0.1523952872
C  C45  1  0.61319000  0.55717000  0.37096000  1.0 -0.1523952872
C  C46  1  0.49223000  0.36319000  0.55602000  1.0 -0.1523952872
C  C47  1  0.80717000  0.93621000  0.44398000  1.0 -0.1523952872
C  C48  1  0.18621000  0.24223000  0.62904000  1.0 -0.1523952872
C  C49  1  0.59550000  0.18827000  0.15677000  1.0 0.4396960328
C  C50  1  0.68873000  0.34550000  0.90723000  1.0 0.4396960328
C  C51  1  0.43827000  0.78150000  0.09277000  1.0 0.4396960328
C  C52  1  0.03150000  0.43873000  0.84323000  1.0 0.4396960328
C  C53  1  0.65450000  0.56173000  0.34323000  1.0 0.4396960328
C  C54  1  0.56127000  0.40450000  0.59277000  1.0 0.4396960328
C  C55  1  0.81173000  0.96850000  0.40723000  1.0 0.4396960328
C  C56  1  0.21850000  0.31127000  0.65677000  1.0 0.4396960328
C  C57  1  0.53338000  0.24501000  0.16439000  1.0 0.4597511977
C  C58  1  0.61899000  0.28338000  0.78837000  1.0 0.4597511977
C  C59  1  0.49501000  0.83062000  0.21163000  1.0 0.4597511977
C  C60  1  0.08062000  0.36899000  0.83561000  1.0 0.4597511977
C  C61  1  0.71662000  0.50499000  0.33561000  1.0 0.4597511977
C  C62  1  0.63101000  0.46662000  0.71163000  1.0 0.4597511977
C  C63  1  0.75499000  0.91938000  0.28837000  1.0 0.4597511977
C  C64  1  0.16938000  0.38101000  0.66439000  1.0 0.4597511977
C  C65  1  0.48562000  0.23871000  0.18733000  1.0 -0.2907188073
C  C66  1  0.54829000  0.23562000  0.74691000  1.0 -0.2907188073
C  C67  1  0.48871000  0.80138000  0.25309000  1.0 -0.2907188073
C  C68  1  0.05138000  0.29829000  0.81267000  1.0 -0.2907188073
C  C69  1  0.76438000  0.51129000  0.31267000  1.0 -0.2907188073
C  C70  1  0.70171000  0.51438000  0.75309000  1.0 -0.2907188073
C  C71  1  0.76129000  0.94862000  0.24691000  1.0 -0.2907188073
C  C72  1  0.19862000  0.45171000  0.68733000  1.0 -0.2907188073
C  C73  1  0.39130000  0.16630000  0.14960000  1.0 -0.3556757666
C  C74  1  0.49170000  0.14130000  0.72500000  1.0 -0.3556757666
C  C75  1  0.41630000  0.76670000  0.27500000  1.0 -0.3556757666
C  C76  1  0.01670000  0.24170000  0.85040000  1.0 -0.3556757666
C  C77  1  0.85870000  0.58370000  0.35040000  1.0 -0.3556757666
C  C78  1  0.75830000  0.60870000  0.77500000  1.0 -0.3556757666
C  C79  1  0.83370000  0.98330000  0.22500000  1.0 -0.3556757666
C  C80  1  0.23330000  0.50830000  0.64960000  1.0 -0.3556757666
C  C81  1  0.50607000  0.17234000  0.00281000  1.0 0.1027564232
C  C82  1  0.75326000  0.25607000  0.83373000  1.0 0.1027564232
C  C83  1  0.42234000  0.91953000  0.16627000  1.0 0.1027564232
C  C84  1  0.16953000  0.50326000  0.99719000  1.0 0.1027564232
C  C85  1  0.74393000  0.57766000  0.49719000  1.0 0.1027564232
C  C86  1  0.49674000  0.49393000  0.66627000  1.0 0.1027564232
C  C87  1  0.82766000  0.83047000  0.33373000  1.0 0.1027564232
C  C88  1  0.08047000  0.24674000  0.50281000  1.0 0.1027564232
C  C89  1  0.43703000  0.10729000  0.96532000  1.0 -0.2026578516
C  C90  1  0.72171000  0.18703000  0.82974000  1.0 -0.2026578516
C  C91  1  0.35729000  0.89197000  0.17026000  1.0 -0.2026578516
C  C92  1  0.14197000  0.47171000  0.03468000  1.0 -0.2026578516
C  C93  1  0.81297000  0.64271000  0.53468000  1.0 -0.2026578516
C  C94  1  0.52829000  0.56297000  0.67026000  1.0 -0.2026578516
C  C95  1  0.89271000  0.85803000  0.32974000  1.0 -0.2026578516
C  C96  1  0.10803000  0.27829000  0.46532000  1.0 -0.2026578516
C  C97  1  0.36064000  0.04239000  0.97423000  1.0 0.1653633952
C  C98  1  0.63641000  0.11064000  0.81825000  1.0 0.1653633952
C  C99  1  0.29239000  0.81816000  0.18175000  1.0 0.1653633952
C  C100  1  0.06816000  0.38641000  0.02577000  1.0 0.1653633952
C  C101  1  0.88936000  0.70761000  0.52577000  1.0 0.1653633952
C  C102  1  0.61359000  0.63936000  0.68175000  1.0 0.1653633952
C  C103  1  0.95761000  0.93184000  0.31825000  1.0 0.1653633952
C  C104  1  0.18184000  0.36359000  0.47423000  1.0 0.1653633952
C  C105  1  0.36159000  0.04633000  0.02032000  1.0 -0.1929311868
C  C106  1  0.59127000  0.11159000  0.81526000  1.0 -0.1929311868
C  C107  1  0.29633000  0.77601000  0.18474000  1.0 -0.1929311868
C  C108  1  0.02601000  0.34127000  0.97968000  1.0 -0.1929311868
C  C109  1  0.88841000  0.70367000  0.47968000  1.0 -0.1929311868
C  C110  1  0.65873000  0.63841000  0.68474000  1.0 -0.1929311868
C  C111  1  0.95367000  0.97399000  0.31526000  1.0 -0.1929311868
C  C112  1  0.22399000  0.40873000  0.52032000  1.0 -0.1929311868
C  C113  1  0.43171000  0.10951000  0.05442000  1.0 0.0709810663
C  C114  1  0.62729000  0.18171000  0.82220000  1.0 0.0709810663
C  C115  1  0.35951000  0.80509000  0.17780000  1.0 0.0709810663
C  C116  1  0.05509000  0.37729000  0.94558000  1.0 0.0709810663
C  C117  1  0.81829000  0.64049000  0.44558000  1.0 0.0709810663
C  C118  1  0.62271000  0.56829000  0.67780000  1.0 0.0709810663
C  C119  1  0.89049000  0.94491000  0.32220000  1.0 0.0709810663
C  C120  1  0.19491000  0.37271000  0.55442000  1.0 0.0709810663
C  C121  1  0.28211000  0.97100000  0.93451000  1.0 -0.2379318237
C  C122  1  0.59760000  0.03211000  0.81111000  1.0 -0.2379318237
C  C123  1  0.22100000  0.78649000  0.18889000  1.0 -0.2379318237
C  C124  1  0.03649000  0.34760000  0.06549000  1.0 -0.2379318237
C  C125  1  0.96789000  0.77900000  0.56549000  1.0 -0.2379318237
C  C126  1  0.65240000  0.71789000  0.68889000  1.0 -0.2379318237
C  C127  1  0.02900000  0.96351000  0.31111000  1.0 -0.2379318237
C  C128  1  0.21351000  0.40240000  0.43451000  1.0 -0.2379318237
C  C129  1  0.32927000  0.99194000  0.16981000  1.0 0.2804196269
C  C130  1  0.40946000  0.07927000  0.83733000  1.0 0.2804196269
C  C131  1  0.24194000  0.57213000  0.16267000  1.0 0.2804196269
C  C132  1  0.82213000  0.15946000  0.83019000  1.0 0.2804196269
C  C133  1  0.92073000  0.75806000  0.33019000  1.0 0.2804196269
C  C134  1  0.84054000  0.67073000  0.66267000  1.0 0.2804196269
C  C135  1  0.00806000  0.17787000  0.33733000  1.0 0.2804196269
C  C136  1  0.42787000  0.59054000  0.66981000  1.0 0.2804196269
C  C137  1  0.26850000  0.92900000  0.12690000  1.0 -0.2101583609
C  C138  1  0.39160000  0.01850000  0.83950000  1.0 -0.2101583609
C  C139  1  0.17900000  0.55210000  0.16050000  1.0 -0.2101583609
C  C140  1  0.80210000  0.14160000  0.87310000  1.0 -0.2101583609
C  C141  1  0.98150000  0.82100000  0.37310000  1.0 -0.2101583609
C  C142  1  0.85840000  0.73150000  0.66050000  1.0 -0.2101583609
C  C143  1  0.07100000  0.19790000  0.33950000  1.0 -0.2101583609
C  C144  1  0.44790000  0.60840000  0.62690000  1.0 -0.2101583609
C  C145  1  0.19240000  0.88010000  0.11910000  1.0 -0.0627854377
C  C146  1  0.32330000  0.94240000  0.81230000  1.0 -0.0627854377
C  C147  1  0.13010000  0.51100000  0.18770000  1.0 -0.0627854377
C  C148  1  0.76100000  0.07330000  0.88090000  1.0 -0.0627854377
C  C149  1  0.05760000  0.86990000  0.38090000  1.0 -0.0627854377
C  C150  1  0.92670000  0.80760000  0.68770000  1.0 -0.0627854377
C  C151  1  0.11990000  0.23900000  0.31230000  1.0 -0.0627854377
C  C152  1  0.48900000  0.67670000  0.61910000  1.0 -0.0627854377
C  C153  1  0.16360000  0.87110000  0.15710000  1.0 -0.1523952872
C  C154  1  0.25650000  0.91360000  0.79250000  1.0 -0.1523952872
C  C155  1  0.12110000  0.46400000  0.20750000  1.0 -0.1523952872
C  C156  1  0.71400000  0.00650000  0.84290000  1.0 -0.1523952872
C  C157  1  0.08640000  0.87890000  0.34290000  1.0 -0.1523952872
C  C158  1  0.99350000  0.83640000  0.70750000  1.0 -0.1523952872
C  C159  1  0.12890000  0.28600000  0.29250000  1.0 -0.1523952872
C  C160  1  0.53600000  0.74350000  0.65710000  1.0 -0.1523952872
C  C161  1  0.22520000  0.94550000  0.19590000  1.0 -0.0905400071
C  C162  1  0.27930000  0.97520000  0.77970000  1.0 -0.0905400071
C  C163  1  0.19550000  0.49960000  0.22030000  1.0 -0.0905400071
C  C164  1  0.74960000  0.02930000  0.80410000  1.0 -0.0905400071
C  C165  1  0.02480000  0.80450000  0.30410000  1.0 -0.0905400071
C  C166  1  0.97070000  0.77480000  0.72030000  1.0 -0.0905400071
C  C167  1  0.05450000  0.25040000  0.27970000  1.0 -0.0905400071
C  C168  1  0.50040000  0.72070000  0.69590000  1.0 -0.0905400071
C  C169  1  0.30649000  0.99947000  0.20356000  1.0 -0.1380682871
C  C170  1  0.35293000  0.05649000  0.80702000  1.0 -0.1380682871
C  C171  1  0.24947000  0.54591000  0.19298000  1.0 -0.1380682871
C  C172  1  0.79591000  0.10293000  0.79644000  1.0 -0.1380682871
C  C173  1  0.94351000  0.75053000  0.29644000  1.0 -0.1380682871
C  C174  1  0.89707000  0.69351000  0.69298000  1.0 -0.1380682871
C  C175  1  0.00053000  0.20409000  0.30702000  1.0 -0.1380682871
C  C176  1  0.45409000  0.64707000  0.70356000  1.0 -0.1380682871
C  C177  1  0.36608000  0.06577000  0.24905000  1.0 0.4396960328
C  C178  1  0.36703000  0.11608000  0.80031000  1.0 0.4396960328
C  C179  1  0.31577000  0.56672000  0.19969000  1.0 0.4396960328
C  C180  1  0.81672000  0.11703000  0.75095000  1.0 0.4396960328
C  C181  1  0.88392000  0.68423000  0.25095000  1.0 0.4396960328
C  C182  1  0.88297000  0.63392000  0.69969000  1.0 0.4396960328
C  C183  1  0.93423000  0.18328000  0.30031000  1.0 0.4396960328
C  C184  1  0.43328000  0.63297000  0.74905000  1.0 0.4396960328
C  C185  1  0.57173000  0.23588000  0.30501000  1.0 0.4396960328
C  C186  1  0.51672000  0.32173000  0.83585000  1.0 0.4396960328
C  C187  1  0.48588000  0.68087000  0.16415000  1.0 0.4396960328
C  C188  1  0.93087000  0.26672000  0.69499000  1.0 0.4396960328
C  C189  1  0.67827000  0.51412000  0.19499000  1.0 0.4396960328
C  C190  1  0.73328000  0.42827000  0.66415000  1.0 0.4396960328
C  C191  1  0.76412000  0.06913000  0.33585000  1.0 0.4396960328
C  C192  1  0.31913000  0.48328000  0.80501000  1.0 0.4396960328
C  C193  1  0.63595000  0.30836000  0.34871000  1.0 -0.2558113098
C  C194  1  0.53724000  0.38595000  0.82759000  1.0 -0.2558113098
C  C195  1  0.55836000  0.70965000  0.17241000  1.0 -0.2558113098
C  C196  1  0.95965000  0.28724000  0.65129000  1.0 -0.2558113098
C  C197  1  0.61405000  0.44164000  0.15129000  1.0 -0.2558113098
C  C198  1  0.71276000  0.36405000  0.67241000  1.0 -0.2558113098
C  C199  1  0.69164000  0.04035000  0.32759000  1.0 -0.2558113098
C  C200  1  0.29035000  0.46276000  0.84871000  1.0 -0.2558113098
C  C201  1  0.72060000  0.35600000  0.35760000  1.0 -0.3483801717
C  C202  1  0.61300000  0.47060000  0.86460000  1.0 -0.3483801717
C  C203  1  0.60600000  0.74840000  0.13540000  1.0 -0.3483801717
C  C204  1  0.99840000  0.36300000  0.64240000  1.0 -0.3483801717
C  C205  1  0.52940000  0.39400000  0.14240000  1.0 -0.3483801717
C  C206  1  0.63700000  0.27940000  0.63540000  1.0 -0.3483801717
C  C207  1  0.64400000  0.00160000  0.36460000  1.0 -0.3483801717
C  C208  1  0.25160000  0.38700000  0.85760000  1.0 -0.3483801717
C  C209  1  0.53860000  0.09280000  0.29460000  1.0 0.1396668999
C  C210  1  0.49400000  0.28860000  0.94580000  1.0 0.1396668999
C  C211  1  0.34280000  0.54820000  0.05420000  1.0 0.1396668999
C  C212  1  0.79820000  0.24400000  0.70540000  1.0 0.1396668999
C  C213  1  0.71140000  0.65720000  0.20540000  1.0 0.1396668999
C  C214  1  0.75600000  0.46140000  0.55420000  1.0 0.1396668999
C  C215  1  0.90720000  0.20180000  0.44580000  1.0 0.1396668999
C  C216  1  0.45180000  0.50600000  0.79460000  1.0 0.1396668999
C  C217  1  0.49940000  0.98230000  0.29030000  1.0 -0.0798353438
C  C218  1  0.45910000  0.24940000  0.01710000  1.0 -0.0798353438
C  C219  1  0.23230000  0.44200000  0.98290000  1.0 -0.0798353438
C  C220  1  0.69200000  0.20910000  0.70970000  1.0 -0.0798353438
C  C221  1  0.75060000  0.76770000  0.20970000  1.0 -0.0798353438
C  C222  1  0.79090000  0.50060000  0.48290000  1.0 -0.0798353438
C  C223  1  0.01770000  0.30800000  0.51710000  1.0 -0.0798353438
C  C224  1  0.55800000  0.54090000  0.79030000  1.0 -0.0798353438
C  C225  1  0.62270000  0.11480000  0.35550000  1.0 -0.3483801717
C  C226  1  0.51720000  0.37270000  0.00790000  1.0 -0.3483801717
C  C227  1  0.36480000  0.50930000  0.99210000  1.0 -0.3483801717
C  C228  1  0.75930000  0.26720000  0.64450000  1.0 -0.3483801717
C  C229  1  0.62730000  0.63520000  0.14450000  1.0 -0.3483801717
C  C230  1  0.73280000  0.37730000  0.49210000  1.0 -0.3483801717
C  C231  1  0.88520000  0.24070000  0.50790000  1.0 -0.3483801717
C  C232  1  0.49070000  0.48280000  0.85550000  1.0 -0.3483801717
C  C233  1  0.78323000  0.56556000  0.07619000  1.0 0.2980213944
C  C234  1  0.95704000  0.53323000  0.71767000  1.0 0.2980213944
C  C235  1  0.81556000  0.23937000  0.28233000  1.0 0.2980213944
C  C236  1  0.48937000  0.70704000  0.92381000  1.0 0.2980213944
C  C237  1  0.46677000  0.18444000  0.42381000  1.0 0.2980213944
C  C238  1  0.29296000  0.21677000  0.78233000  1.0 0.2980213944
C  C239  1  0.43444000  0.51063000  0.21767000  1.0 0.2980213944
C  C240  1  0.76063000  0.04296000  0.57619000  1.0 0.2980213944
C  C241  1  0.79208000  0.60429000  0.04557000  1.0 -0.2178984046
C  C242  1  0.99651000  0.54208000  0.68779000  1.0 -0.2178984046
C  C243  1  0.85429000  0.30872000  0.31221000  1.0 -0.2178984046
C  C244  1  0.55872000  0.74651000  0.95443000  1.0 -0.2178984046
C  C245  1  0.45792000  0.14571000  0.45443000  1.0 -0.2178984046
C  C246  1  0.25349000  0.20792000  0.81221000  1.0 -0.2178984046
C  C247  1  0.39571000  0.44128000  0.18779000  1.0 -0.2178984046
C  C248  1  0.69128000  0.00349000  0.54557000  1.0 -0.2178984046
C  C249  1  0.74920000  0.56390000  0.99850000  1.0 -0.0702750602
C  C250  1  0.00070000  0.49920000  0.68530000  1.0 -0.0702750602
C  C251  1  0.81390000  0.31540000  0.31470000  1.0 -0.0702750602
C  C252  1  0.56540000  0.75070000  0.00150000  1.0 -0.0702750602
C  C253  1  0.50080000  0.18610000  0.50150000  1.0 -0.0702750602
C  C254  1  0.24930000  0.25080000  0.81470000  1.0 -0.0702750602
C  C255  1  0.43610000  0.43460000  0.18530000  1.0 -0.0702750602
C  C256  1  0.68460000  0.99930000  0.49850000  1.0 -0.0702750602
C  C257  1  0.69791000  0.48552000  0.98063000  1.0 -0.1523952872
C  C258  1  0.96728000  0.44791000  0.71239000  1.0 -0.1523952872
C  C259  1  0.73552000  0.25489000  0.28761000  1.0 -0.1523952872
C  C260  1  0.50489000  0.71728000  0.01937000  1.0 -0.1523952872
C  C261  1  0.55209000  0.26448000  0.51937000  1.0 -0.1523952872
C  C262  1  0.28272000  0.30209000  0.78761000  1.0 -0.1523952872
C  C263  1  0.51448000  0.49511000  0.21239000  1.0 -0.1523952872
C  C264  1  0.74511000  0.03272000  0.48063000  1.0 -0.1523952872
C  C265  1  0.68514000  0.44444000  0.00998000  1.0 -0.0905400071
C  C266  1  0.92516000  0.43514000  0.74070000  1.0 -0.0905400071
C  C267  1  0.69444000  0.18446000  0.25930000  1.0 -0.0905400071
C  C268  1  0.43446000  0.67516000  0.99002000  1.0 -0.0905400071
C  C269  1  0.56486000  0.30556000  0.49002000  1.0 -0.0905400071
C  C270  1  0.32484000  0.31486000  0.75930000  1.0 -0.0905400071
C  C271  1  0.55556000  0.56554000  0.24070000  1.0 -0.0905400071
C  C272  1  0.81554000  0.07484000  0.50998000  1.0 -0.0905400071
C  C273  1  0.72714000  0.48265000  0.05779000  1.0 -0.1660355836
C  C274  1  0.91935000  0.47714000  0.74449000  1.0 -0.1660355836
C  C275  1  0.73265000  0.17486000  0.25551000  1.0 -0.1660355836
C  C276  1  0.42486000  0.66935000  0.94221000  1.0 -0.1660355836
C  C277  1  0.52286000  0.26735000  0.44221000  1.0 -0.1660355836
C  C278  1  0.33065000  0.27286000  0.75551000  1.0 -0.1660355836
C  C279  1  0.51735000  0.57514000  0.24449000  1.0 -0.1660355836
C  C280  1  0.82514000  0.08065000  0.55779000  1.0 -0.1660355836
C  C281  1  0.71014000  0.43391000  0.08545000  1.0 0.4333539732
C  C282  1  0.87469000  0.46014000  0.77623000  1.0 0.4333539732
C  C283  1  0.68391000  0.09846000  0.22377000  1.0 0.4333539732
C  C284  1  0.34846000  0.62469000  0.91455000  1.0 0.4333539732
C  C285  1  0.53986000  0.31609000  0.41455000  1.0 0.4333539732
C  C286  1  0.37531000  0.28986000  0.72377000  1.0 0.4333539732
C  C287  1  0.56609000  0.65154000  0.27623000  1.0 0.4333539732
C  C288  1  0.90154000  0.12531000  0.58545000  1.0 0.4333539732
C  C289  1  0.77681000  0.45744000  0.19685000  1.0 0.4483279266
C  C290  1  0.82996000  0.52681000  0.81937000  1.0 0.4483279266
C  C291  1  0.70744000  0.01059000  0.18063000  1.0 0.4483279266
C  C292  1  0.26059000  0.57996000  0.80315000  1.0 0.4483279266
C  C293  1  0.47319000  0.29256000  0.30315000  1.0 0.4483279266
C  C294  1  0.42004000  0.22319000  0.68063000  1.0 0.4483279266
C  C295  1  0.54256000  0.73941000  0.31937000  1.0 0.4483279266
C  C296  1  0.98941000  0.17004000  0.69685000  1.0 0.4483279266
C  C297  1  0.77405000  0.41798000  0.22723000  1.0 -0.2451945901
C  C298  1  0.79682000  0.52405000  0.85607000  1.0 -0.2379318237
C  C299  1  0.66798000  0.94075000  0.14393000  1.0 -0.2451945901
C  C300  1  0.19075000  0.54682000  0.77277000  1.0 -0.2451945901
C  C301  1  0.47595000  0.33202000  0.27277000  1.0 -0.2451945901
C  C302  1  0.45318000  0.22595000  0.64393000  1.0 -0.2451945901
C  C303  1  0.58202000  0.80925000  0.35607000  1.0 -0.2451945901
C  C304  1  0.05925000  0.20318000  0.72723000  1.0 -0.2451945901
C  C305  1  0.85898000  0.47300000  0.25178000  1.0 -0.3312112177
C  C306  1  0.85720000  0.60898000  0.88598000  1.0 -0.3312112177
C  C307  1  0.72300000  0.97122000  0.11402000  1.0 -0.3312112177
C  C308  1  0.22122000  0.60720000  0.74822000  1.0 -0.3312112177
C  C309  1  0.39102000  0.27700000  0.24822000  1.0 -0.3312112177
C  C310  1  0.39280000  0.14102000  0.61402000  1.0 -0.3312112177
C  C311  1  0.52700000  0.77878000  0.38598000  1.0 -0.3312112177
C  C312  1  0.02878000  0.14280000  0.75178000  1.0 -0.3312112177
C  C313  1  0.04902000  0.75229000  0.83071000  1.0 0.0214944618
C  C314  1  0.46831000  0.79902000  0.79673000  1.0 0.0214944618
C  C315  1  0.00229000  0.67158000  0.20327000  1.0 0.0214944618
C  C316  1  0.92158000  0.21831000  0.16929000  1.0 0.0214944618
C  C317  1  0.20098000  0.99771000  0.66929000  1.0 0.0214944618
C  C318  1  0.78169000  0.95098000  0.70327000  1.0 0.0214944618
C  C319  1  0.24771000  0.07842000  0.29673000  1.0 0.0214944618
C  C320  1  0.32842000  0.53169000  0.33071000  1.0 0.0214944618
C  C321  1  0.11360000  0.81440000  0.87200000  1.0 -0.2101583609
C  C322  1  0.49160000  0.86360000  0.79920000  1.0 -0.2101583609
C  C323  1  0.06440000  0.69240000  0.20080000  1.0 -0.2101583609
C  C324  1  0.94240000  0.24160000  0.12800000  1.0 -0.2101583609
C  C325  1  0.13640000  0.93560000  0.62800000  1.0 -0.2101583609
C  C326  1  0.75840000  0.88640000  0.70080000  1.0 -0.2101583609
C  C327  1  0.18560000  0.05760000  0.29920000  1.0 -0.2101583609
C  C328  1  0.30760000  0.50840000  0.37200000  1.0 -0.2101583609
C  C329  1  0.17360000  0.82720000  0.88460000  1.0 0.1396668999
C  C330  1  0.53900000  0.92360000  0.84640000  1.0 0.1396668999
C  C331  1  0.07720000  0.69260000  0.15360000  1.0 0.1396668999
C  C332  1  0.94260000  0.28900000  0.11540000  1.0 0.1396668999
C  C333  1  0.07640000  0.92280000  0.61540000  1.0 0.1396668999
C  C334  1  0.71100000  0.82640000  0.65360000  1.0 0.1396668999
C  C335  1  0.17280000  0.05740000  0.34640000  1.0 0.1396668999
C  C336  1  0.30740000  0.46100000  0.38460000  1.0 0.1396668999
C  C337  1  0.14480000  0.76550000  0.86930000  1.0 -0.2101583609
C  C338  1  0.52550000  0.89480000  0.87930000  1.0 -0.2101583609
C  C339  1  0.01550000  0.64620000  0.12070000  1.0 -0.2101583609
C  C340  1  0.89620000  0.27550000  0.13070000  1.0 -0.2101583609
C  C341  1  0.10520000  0.98450000  0.63070000  1.0 -0.2101583609
C  C342  1  0.72450000  0.85520000  0.62070000  1.0 -0.2101583609
C  C343  1  0.23450000  0.10380000  0.37930000  1.0 -0.2101583609
C  C344  1  0.35380000  0.47450000  0.36930000  1.0 -0.2101583609
C  C345  1  0.07150000  0.70130000  0.83400000  1.0 0.0872958504
C  C346  1  0.48750000  0.82150000  0.87020000  1.0 0.0872958504
C  C347  1  0.95130000  0.61730000  0.12980000  1.0 0.0872958504
C  C348  1  0.86730000  0.23750000  0.16600000  1.0 0.0872958504
C  C349  1  0.17850000  0.04870000  0.66600000  1.0 0.0872958504
C  C350  1  0.76250000  0.92850000  0.62980000  1.0 0.0872958504
C  C351  1  0.29870000  0.13270000  0.37020000  1.0 0.0872958504
C  C352  1  0.38270000  0.51250000  0.33400000  1.0 0.0872958504
C  C353  1  0.25310000  0.90040000  0.92430000  1.0 -0.2178984046
C  C354  1  0.57880000  0.00310000  0.85270000  1.0 -0.2178984046
C  C355  1  0.15040000  0.72610000  0.14730000  1.0 -0.2178984046
C  C356  1  0.97610000  0.32880000  0.07570000  1.0 -0.2178984046
C  C357  1  0.99690000  0.84960000  0.57570000  1.0 -0.2178984046
C  C358  1  0.67120000  0.74690000  0.64730000  1.0 -0.2178984046
C  C359  1  0.09960000  0.02390000  0.35270000  1.0 -0.2178984046
C  C360  1  0.27390000  0.42120000  0.42430000  1.0 -0.2178984046
C  C361  1  0.43710000  0.00340000  0.27090000  1.0 0.0404132414
C  C362  1  0.41620000  0.18710000  0.93370000  1.0 0.0404132414
C  C363  1  0.25340000  0.48250000  0.06630000  1.0 0.0404132414
C  C364  1  0.73250000  0.16620000  0.72910000  1.0 0.0404132414
C  C365  1  0.81290000  0.74660000  0.22910000  1.0 0.0404132414
C  C366  1  0.83380000  0.56290000  0.56630000  1.0 0.0404132414
C  C367  1  0.99660000  0.26750000  0.43370000  1.0 0.0404132414
C  C368  1  0.51750000  0.58380000  0.77090000  1.0 0.0404132414
N  N1  1  0.58842000  0.22533000  0.14915000  1.0 -0.3419671323
N  N2  1  0.68927000  0.33842000  0.86309000  1.0 -0.3419671323
N  N3  1  0.47533000  0.82618000  0.13691000  1.0 -0.3419671323
N  N4  1  0.07618000  0.43927000  0.85085000  1.0 -0.3419671323
N  N5  1  0.66158000  0.52467000  0.35085000  1.0 -0.3419671323
N  N6  1  0.56073000  0.41158000  0.63691000  1.0 -0.3419671323
N  N7  1  0.77467000  0.92382000  0.36309000  1.0 -0.3419671323
N  N8  1  0.17382000  0.31073000  0.64915000  1.0 -0.3419671323
N  N9  1  0.54364000  0.21299000  0.17723000  1.0 -0.3312112177
N  N10  1  0.61641000  0.29364000  0.83065000  1.0 -0.3312112177
N  N11  1  0.46299000  0.78576000  0.16935000  1.0 -0.3312112177
N  N12  1  0.03576000  0.36641000  0.82277000  1.0 -0.3312112177
N  N13  1  0.70636000  0.53701000  0.32277000  1.0 -0.3312112177
N  N14  1  0.63359000  0.45636000  0.66935000  1.0 -0.3312112177
N  N15  1  0.78701000  0.96424000  0.33065000  1.0 -0.3312112177
N  N16  1  0.21424000  0.38359000  0.67723000  1.0 -0.3312112177
N  N17  1  0.50604000  0.17553000  0.04677000  1.0 -0.2178984046
N  N18  1  0.70927000  0.25604000  0.83051000  1.0 -0.2101583609
N  N19  1  0.42553000  0.87876000  0.16949000  1.0 -0.2178984046
N  N20  1  0.12876000  0.45927000  0.95323000  1.0 -0.2178984046
N  N21  1  0.74396000  0.57447000  0.45323000  1.0 -0.2178984046
N  N22  1  0.54073000  0.49396000  0.66949000  1.0 -0.2178984046
N  N23  1  0.82447000  0.87124000  0.33051000  1.0 -0.2178984046
N  N24  1  0.12124000  0.29073000  0.54677000  1.0 -0.2178984046
N  N25  1  0.44431000  0.12210000  0.25601000  1.0 -0.3483801717
N  N26  1  0.43830000  0.19431000  0.82221000  1.0 -0.3483801717
N  N27  1  0.37210000  0.61609000  0.17779000  1.0 -0.3483801717
N  N28  1  0.86609000  0.18830000  0.74399000  1.0 -0.3483801717
N  N29  1  0.80569000  0.62790000  0.24399000  1.0 -0.3483801717
N  N30  1  0.81170000  0.55569000  0.67779000  1.0 -0.3483801717
N  N31  1  0.87790000  0.13391000  0.32221000  1.0 -0.3483801717
N  N32  1  0.38391000  0.56170000  0.75601000  1.0 -0.3483801717
N  N33  1  0.49579000  0.18520000  0.29955000  1.0 -0.3312112177
N  N34  1  0.44624000  0.24579000  0.81059000  1.0 -0.3312112177
N  N35  1  0.43520000  0.63565000  0.18941000  1.0 -0.3312112177
N  N36  1  0.88565000  0.19624000  0.70045000  1.0 -0.3312112177
N  N37  1  0.75421000  0.56480000  0.20045000  1.0 -0.3312112177
N  N38  1  0.80376000  0.50421000  0.68941000  1.0 -0.3312112177
N  N39  1  0.81480000  0.11435000  0.31059000  1.0 -0.3312112177
N  N40  1  0.36435000  0.55376000  0.79955000  1.0 -0.3312112177
N  N41  1  0.54690000  0.05750000  0.31480000  1.0 0.1198207929
N  N42  1  0.48210000  0.29690000  0.98940000  1.0 0.1198207929
N  N43  1  0.30750000  0.49270000  0.01060000  1.0 0.1198207929
N  N44  1  0.74270000  0.23210000  0.68520000  1.0 0.1198207929
N  N45  1  0.70310000  0.69250000  0.18520000  1.0 0.1198207929
N  N46  1  0.76790000  0.45310000  0.51060000  1.0 0.1198207929
N  N47  1  0.94250000  0.25730000  0.48940000  1.0 0.1198207929
N  N48  1  0.50730000  0.51790000  0.81480000  1.0 0.1198207929
N  N49  1  0.75303000  0.47019000  0.13058000  1.0 -0.3419671323
N  N50  1  0.87245000  0.50303000  0.78284000  1.0 -0.3419671323
N  N51  1  0.72019000  0.08961000  0.21716000  1.0 -0.3419671323
N  N52  1  0.33961000  0.62245000  0.86942000  1.0 -0.3419671323
N  N53  1  0.49697000  0.27981000  0.36942000  1.0 -0.3419671323
N  N54  1  0.37755000  0.24697000  0.71716000  1.0 -0.3419671323
N  N55  1  0.52981000  0.66039000  0.28284000  1.0 -0.3419671323
N  N56  1  0.91039000  0.12755000  0.63058000  1.0 -0.3419671323
N  N57  1  0.73712000  0.41977000  0.15309000  1.0 -0.3104877755
N  N58  1  0.83403000  0.48712000  0.81735000  1.0 -0.3104877755
N  N59  1  0.66977000  0.01668000  0.18265000  1.0 -0.3104877755
N  N60  1  0.26668000  0.58403000  0.84691000  1.0 -0.3104877755
N  N61  1  0.51288000  0.33023000  0.34691000  1.0 -0.3104877755
N  N62  1  0.41597000  0.26288000  0.68265000  1.0 -0.3104877755
N  N63  1  0.58023000  0.73332000  0.31735000  1.0 -0.3104877755
N  N64  1  0.98332000  0.16597000  0.65309000  1.0 -0.3104877755
N  N65  1  0.03048000  0.69291000  0.81059000  1.0 -0.2101583609
N  N66  1  0.46989000  0.78048000  0.83757000  1.0 -0.2101583609
N  N67  1  0.94291000  0.63232000  0.16243000  1.0 -0.2101583609
N  N68  1  0.88232000  0.21989000  0.18941000  1.0 -0.2026578516
N  N69  1  0.21952000  0.05709000  0.68941000  1.0 -0.2101583609
N  N70  1  0.78011000  0.96952000  0.66243000  1.0 -0.2026578516
N  N71  1  0.30709000  0.11768000  0.33757000  1.0 -0.2101583609
N  N72  1  0.36768000  0.53011000  0.31059000  1.0 -0.2101583609
N  N73  1  0.43920000  0.96320000  0.28740000  1.0 -0.0702750602
N  N74  1  0.40180000  0.18920000  0.97600000  1.0 -0.0702750602
N  N75  1  0.21320000  0.42580000  0.02400000  1.0 -0.0702750602
N  N76  1  0.67580000  0.15180000  0.71260000  1.0 -0.0702750602
N  N77  1  0.81080000  0.78680000  0.21260000  1.0 -0.0702750602
N  N78  1  0.84820000  0.56080000  0.52400000  1.0 -0.0702750602
N  N79  1  0.03680000  0.32420000  0.47600000  1.0 -0.0702750602
N  N80  1  0.57420000  0.59820000  0.78740000  1.0 -0.0702750602
O  O1  1  0.67837000  0.28602000  0.08829000  1.0 -0.479691268
O  O2  1  0.84008000  0.42837000  0.89235000  1.0 -0.479691268
O  O3  1  0.53602000  0.94773000  0.10765000  1.0 -0.479691268
O  O4  1  0.19773000  0.59008000  0.91171000  1.0 -0.479691268
O  O5  1  0.57163000  0.46398000  0.41171000  1.0 -0.479691268
O  O6  1  0.40992000  0.32163000  0.60765000  1.0 -0.479691268
O  O7  1  0.71398000  0.80227000  0.39235000  1.0 -0.479691268
O  O8  1  0.05227000  0.15992000  0.58829000  1.0 -0.479691268
O  O9  1  0.56692000  0.14800000  0.18708000  1.0 -0.4705657869
O  O10  1  0.62984000  0.31692000  0.91892000  1.0 -0.4705657869
O  O11  1  0.39800000  0.71092000  0.08108000  1.0 -0.4705657869
O  O12  1  0.96092000  0.37984000  0.81292000  1.0 -0.4705657869
O  O13  1  0.68308000  0.60200000  0.31292000  1.0 -0.4705657869
O  O14  1  0.62016000  0.43308000  0.58108000  1.0 -0.4705657869
O  O15  1  0.85200000  0.03908000  0.41892000  1.0 -0.4705657869
O  O16  1  0.28908000  0.37016000  0.68708000  1.0 -0.4705657869
O  O17  1  0.56146000  0.28253000  0.13197000  1.0 -0.479691268
O  O18  1  0.67949000  0.31146000  0.77893000  1.0 -0.479691268
O  O19  1  0.53253000  0.90056000  0.22107000  1.0 -0.4912087927
O  O20  1  0.15056000  0.42949000  0.86803000  1.0 -0.479691268
O  O21  1  0.68854000  0.46747000  0.36803000  1.0 -0.479691268
O  O22  1  0.57051000  0.43854000  0.72107000  1.0 -0.479691268
O  O23  1  0.71747000  0.84944000  0.27893000  1.0 -0.479691268
O  O24  1  0.09944000  0.32051000  0.63197000  1.0 -0.479691268
O  O25  1  0.40368000  0.03709000  0.17397000  1.0 -0.4912087927
O  O26  1  0.47971000  0.15368000  0.86659000  1.0 -0.4912087927
O  O27  1  0.28709000  0.61312000  0.13341000  1.0 -0.4912087927
O  O28  1  0.86312000  0.22971000  0.82603000  1.0 -0.4912087927
O  O29  1  0.84632000  0.71291000  0.32603000  1.0 -0.4912087927
O  O30  1  0.77029000  0.59632000  0.63341000  1.0 -0.4912087927
O  O31  1  0.96291000  0.13688000  0.36659000  1.0 -0.4912087927
O  O32  1  0.38688000  0.52029000  0.67397000  1.0 -0.4912087927
O  O33  1  0.33852000  0.06691000  0.27977000  1.0 -0.479691268
O  O34  1  0.30875000  0.08852000  0.77161000  1.0 -0.479691268
O  O35  1  0.31691000  0.53714000  0.22839000  1.0 -0.479691268
O  O36  1  0.78714000  0.05875000  0.72023000  1.0 -0.479691268
O  O37  1  0.91148000  0.68309000  0.22023000  1.0 -0.479691268
O  O38  1  0.94125000  0.66148000  0.72839000  1.0 -0.479691268
O  O39  1  0.93309000  0.21286000  0.27161000  1.0 -0.479691268
O  O40  1  0.46286000  0.69125000  0.77977000  1.0 -0.479691268
O  O41  1  0.59475000  0.22838000  0.27499000  1.0 -0.4999916315
O  O42  1  0.56976000  0.34475000  0.86637000  1.0 -0.4999916315
O  O43  1  0.47838000  0.70339000  0.13363000  1.0 -0.4999916315
O  O44  1  0.95339000  0.31976000  0.72501000  1.0 -0.4999916315
O  O45  1  0.65525000  0.52162000  0.22501000  1.0 -0.4999916315
O  O46  1  0.68024000  0.40525000  0.63363000  1.0 -0.4999916315
O  O47  1  0.77162000  0.04661000  0.36637000  1.0 -0.4999916315
O  O48  1  0.29661000  0.43024000  0.77499000  1.0 -0.4999916315
O  O49  1  0.49417000  0.06357000  0.25774000  1.0 -0.1154945552
O  O50  1  0.48643000  0.24417000  0.93060000  1.0 -0.1154945552
O  O51  1  0.31357000  0.55583000  0.06940000  1.0 -0.1154945552
O  O52  1  0.80583000  0.23643000  0.74226000  1.0 -0.1154945552
O  O53  1  0.75583000  0.68643000  0.24226000  1.0 -0.1154945552
O  O54  1  0.76357000  0.50583000  0.56940000  1.0 -0.1154945552
O  O55  1  0.93643000  0.19417000  0.43060000  1.0 -0.1154945552
O  O56  1  0.44417000  0.51357000  0.75774000  1.0 -0.1154945552
O  O57  1  0.82708000  0.60905000  0.12067000  1.0 -0.4705657869
O  O58  1  0.95641000  0.57708000  0.71803000  1.0 -0.4705657869
O  O59  1  0.85905000  0.23838000  0.28197000  1.0 -0.4705657869
O  O60  1  0.48838000  0.70641000  0.87933000  1.0 -0.4705657869
O  O61  1  0.42292000  0.14095000  0.37933000  1.0 -0.4705657869
O  O62  1  0.29359000  0.17292000  0.78197000  1.0 -0.4705657869
O  O63  1  0.39095000  0.51162000  0.21803000  1.0 -0.4705657869
O  O64  1  0.76162000  0.04359000  0.62067000  1.0 -0.4705657869
O  O65  1  0.65635000  0.35787000  0.06610000  1.0 -0.4705657869
O  O66  1  0.84025000  0.40635000  0.79848000  1.0 -0.4705657869
O  O67  1  0.60787000  0.04177000  0.20152000  1.0 -0.4705657869
O  O68  1  0.29177000  0.59025000  0.93390000  1.0 -0.4705657869
O  O69  1  0.59365000  0.39213000  0.43390000  1.0 -0.4705657869
O  O70  1  0.40975000  0.34365000  0.70152000  1.0 -0.4705657869
O  O71  1  0.64213000  0.70823000  0.29848000  1.0 -0.4705657869
O  O72  1  0.95823000  0.15975000  0.56610000  1.0 -0.4705657869
O  O73  1  0.82414000  0.53132000  0.21564000  1.0 -0.479691268
O  O74  1  0.85850000  0.57414000  0.79282000  1.0 -0.479691268
O  O75  1  0.78132000  0.06568000  0.20718000  1.0 -0.479691268
O  O76  1  0.31568000  0.60850000  0.78436000  1.0 -0.479691268
O  O77  1  0.42586000  0.21868000  0.28436000  1.0 -0.479691268
O  O78  1  0.39150000  0.17586000  0.70718000  1.0 -0.479691268
O  O79  1  0.46868000  0.68432000  0.29282000  1.0 -0.479691268
O  O80  1  0.93432000  0.14150000  0.71564000  1.0 -0.4705657869
