# DDEC6 charges by PACMAN v1.1 (https://github.com/mtap-research/PACMAN-charge/)
data_XALBES_FSR_pacman
_symmetry_space_group_name_H-M   'P 1'
_cell_length_a   29.83600000
_cell_length_b   29.83600000
_cell_length_c   29.83600000
_cell_angle_alpha   94.98380000
_cell_angle_beta   94.98380000
_cell_angle_gamma   145.71600000
_symmetry_Int_Tables_number   1
_chemical_formula_structural   Mn3H44C46(NO)10
_chemical_formula_sum   'Mn24 H352 C368 N80 O80'
_cell_volume   14296.27324463
_cell_formula_units_Z   8
loop_
 _symmetry_equiv_pos_site_id
 _symmetry_equiv_pos_as_xyz
  1  'x, y, z'
loop_
 _atom_site_type_symbol
 _atom_site_label
 _atom_site_symmetry_multiplicity
 _atom_site_fract_x
 _atom_site_fract_y
 _atom_site_fract_z
 _atom_site_occupancy
 _atom_site_charge
Mn  Mn1  1  0.62380000  0.23030000  0.16436000  1.0 0.8701016633
Mn  Mn2  1  0.70944000  0.37380000  0.89350000  1.0 0.8701016633
Mn  Mn3  1  0.48030000  0.81594000  0.10650000  1.0 0.8759405471
Mn  Mn4  1  0.06594000  0.45944000  0.83564000  1.0 0.8701016633
Mn  Mn5  1  0.62620000  0.51970000  0.33564000  1.0 0.8701016633
Mn  Mn6  1  0.54056000  0.37620000  0.60650000  1.0 0.8701016633
Mn  Mn7  1  0.76970000  0.93406000  0.39350000  1.0 0.8701016633
Mn  Mn8  1  0.18406000  0.29056000  0.66436000  1.0 0.8701016633
Mn  Mn9  1  0.74596000  0.46645000  0.12839000  1.0 0.8406118683
Mn  Mn10  1  0.86757000  0.49596000  0.77951000  1.0 0.8406118683
Mn  Mn11  1  0.71645000  0.08806000  0.22049000  1.0 0.8406118683
Mn  Mn12  1  0.33806000  0.61757000  0.87161000  1.0 0.8406118683
Mn  Mn13  1  0.50404000  0.28355000  0.37161000  1.0 0.8406118683
Mn  Mn14  1  0.38243000  0.25404000  0.72049000  1.0 0.8406118683
Mn  Mn15  1  0.53355000  0.66194000  0.27951000  1.0 0.8406118683
Mn  Mn16  1  0.91194000  0.13243000  0.62839000  1.0 0.8406118683
Mn  Mn17  1  0.41785000  0.09055000  0.24746000  1.0 0.8701016633
Mn  Mn18  1  0.42039000  0.16785000  0.82730000  1.0 0.8701016633
Mn  Mn19  1  0.34055000  0.59309000  0.17270000  1.0 0.8701016633
Mn  Mn20  1  0.84309000  0.17039000  0.75254000  1.0 0.8626280881
Mn  Mn21  1  0.83215000  0.65945000  0.25254000  1.0 0.8701016633
Mn  Mn22  1  0.82961000  0.58215000  0.67270000  1.0 0.8701016633
Mn  Mn23  1  0.90945000  0.15691000  0.32730000  1.0 0.8701016633
Mn  Mn24  1  0.40691000  0.57961000  0.74746000  1.0 0.8701016633
H  H1  1  0.50760000  0.05860000  0.03140000  1.0 0.1385934984
H  H2  1  0.72620000  0.25760000  0.94900000  1.0 0.1385934984
H  H3  1  0.30860000  0.77720000  0.05100000  1.0 0.1385934984
H  H4  1  0.02720000  0.47620000  0.96860000  1.0 0.1385934984
H  H5  1  0.74240000  0.69140000  0.46860000  1.0 0.1385934984
H  H6  1  0.52380000  0.49240000  0.55100000  1.0 0.1385934984
H  H7  1  0.94140000  0.97280000  0.44900000  1.0 0.1385934984
H  H8  1  0.22280000  0.27380000  0.53140000  1.0 0.1385934984
H  H9  1  0.51090000  0.07080000  0.95710000  1.0 0.0988193539
H  H10  1  0.80380000  0.26090000  0.94010000  1.0 0.0988193539
H  H11  1  0.32080000  0.86370000  0.05990000  1.0 0.0988193539
H  H12  1  0.11370000  0.55380000  0.04290000  1.0 0.0988193539
H  H13  1  0.73910000  0.67920000  0.54290000  1.0 0.0988193539
H  H14  1  0.44620000  0.48910000  0.55990000  1.0 0.0988193539
H  H15  1  0.92920000  0.88630000  0.44010000  1.0 0.0988193539
H  H16  1  0.13630000  0.19620000  0.45710000  1.0 0.0988193539
H  H17  1  0.57660000  0.18980000  0.94120000  1.0 0.1204995897
H  H18  1  0.88540000  0.32660000  0.88680000  1.0 0.1204995897
H  H19  1  0.43980000  0.99860000  0.11320000  1.0 0.1204995897
H  H20  1  0.24860000  0.63540000  0.05880000  1.0 0.1204995897
H  H21  1  0.67340000  0.56020000  0.55880000  1.0 0.1204995897
H  H22  1  0.36460000  0.42340000  0.61320000  1.0 0.1204995897
H  H23  1  0.81020000  0.75140000  0.38680000  1.0 0.1204995897
H  H24  1  0.00140000  0.11460000  0.44120000  1.0 0.1204995897
H  H25  1  0.63890000  0.29230000  0.00240000  1.0 0.1204995897
H  H26  1  0.88650000  0.38890000  0.84660000  1.0 0.1204995897
H  H27  1  0.54230000  0.03990000  0.15340000  1.0 0.1204995897
H  H28  1  0.28990000  0.63650000  0.99760000  1.0 0.1204995897
H  H29  1  0.61110000  0.45770000  0.49760000  1.0 0.1204995897
H  H30  1  0.36350000  0.36110000  0.65340000  1.0 0.1204995897
H  H31  1  0.70770000  0.71010000  0.34660000  1.0 0.1204995897
H  H32  1  0.96010000  0.11350000  0.50240000  1.0 0.1204995897
H  H33  1  0.76470000  0.48230000  0.23960000  1.0 0.1385934984
H  H34  1  0.77510000  0.51470000  0.78240000  1.0 0.1385934984
H  H35  1  0.73230000  0.99270000  0.21760000  1.0 0.1385934984
H  H36  1  0.24270000  0.52510000  0.76040000  1.0 0.1385934984
H  H37  1  0.48530000  0.26770000  0.26040000  1.0 0.1385934984
H  H38  1  0.47490000  0.23530000  0.71760000  1.0 0.1385934984
H  H39  1  0.51770000  0.75730000  0.28240000  1.0 0.1385934984
H  H40  1  0.00730000  0.22490000  0.73960000  1.0 0.1385934984
H  H41  1  0.72980000  0.42640000  0.27460000  1.0 0.1385934984
H  H42  1  0.70520000  0.47980000  0.80340000  1.0 0.1385934984
H  H43  1  0.67640000  0.90180000  0.19660000  1.0 0.1385934984
H  H44  1  0.15180000  0.45520000  0.72540000  1.0 0.1385934984
H  H45  1  0.52020000  0.32360000  0.22540000  1.0 0.1385934984
H  H46  1  0.54480000  0.27020000  0.69660000  1.0 0.1385934984
H  H47  1  0.57360000  0.84820000  0.30340000  1.0 0.1385934984
H  H48  1  0.09820000  0.29480000  0.77460000  1.0 0.1385934984
H  H49  1  0.86840000  0.49640000  0.24640000  1.0 0.1204995897
H  H50  1  0.87200000  0.61840000  0.87200000  1.0 0.1204995897
H  H51  1  0.74640000  0.00000000  0.12800000  1.0 0.1204995897
H  H52  1  0.25000000  0.62200000  0.75360000  1.0 0.1204995897
H  H53  1  0.38160000  0.25360000  0.25360000  1.0 0.1204995897
H  H54  1  0.37800000  0.13160000  0.62800000  1.0 0.1204995897
H  H55  1  0.50360000  0.75000000  0.37200000  1.0 0.1204995897
H  H56  1  0.00000000  0.12800000  0.74640000  1.0 0.1204995897
H  H57  1  0.89640000  0.56310000  0.28290000  1.0 0.1292999858
H  H58  1  0.86350000  0.64640000  0.83330000  1.0 0.1292999858
H  H59  1  0.81310000  0.03020000  0.16670000  1.0 0.1292999858
H  H60  1  0.28020000  0.61350000  0.71710000  1.0 0.1292999858
H  H61  1  0.35360000  0.18690000  0.21710000  1.0 0.1292999858
H  H62  1  0.38650000  0.10360000  0.66666667  1.0 0.1292999858
H  H63  1  0.43690000  0.71980000  0.33333333  1.0 0.1292999858
H  H64  1  0.96980000  0.13650000  0.78290000  1.0 0.1292999858
H  H65  1  0.85400000  0.48570000  0.29730000  1.0 0.1292999858
H  H66  1  0.80670000  0.60400000  0.86830000  1.0 0.1292999858
H  H67  1  0.73570000  0.93840000  0.13170000  1.0 0.1292999858
H  H68  1  0.18840000  0.55670000  0.70270000  1.0 0.1292999858
H  H69  1  0.39600000  0.26430000  0.20270000  1.0 0.1292999858
H  H70  1  0.44330000  0.14600000  0.63170000  1.0 0.1292999858
H  H71  1  0.51430000  0.81160000  0.36830000  1.0 0.1292999858
H  H72  1  0.06160000  0.19330000  0.79730000  1.0 0.1292999858
H  H73  1  0.69190000  0.18750000  0.16320000  1.0 0.1204995897
H  H74  1  0.77870000  0.44190000  0.00440000  1.0 0.1204995897
H  H75  1  0.43750000  0.77430000  0.99560000  1.0 0.1204995897
H  H76  1  0.02430000  0.52870000  0.83680000  1.0 0.1204995897
H  H77  1  0.55810000  0.56250000  0.33680000  1.0 0.1204995897
H  H78  1  0.47130000  0.30810000  0.49560000  1.0 0.1204995897
H  H79  1  0.81250000  0.97570000  0.50440000  1.0 0.1204995897
H  H80  1  0.22570000  0.22130000  0.66320000  1.0 0.1204995897
H  H81  1  0.81170000  0.24640000  0.17350000  1.0 0.1292999858
H  H82  1  0.88820000  0.56170000  0.06530000  1.0 0.1292999858
H  H83  1  0.49640000  0.82290000  0.93470000  1.0 0.1292999858
H  H84  1  0.07290000  0.63820000  0.82650000  1.0 0.1292999858
H  H85  1  0.43830000  0.50360000  0.32650000  1.0 0.1292999858
H  H86  1  0.36180000  0.18830000  0.43470000  1.0 0.1292999858
H  H87  1  0.75360000  0.92710000  0.56530000  1.0 0.1292999858
H  H88  1  0.17710000  0.11180000  0.67350000  1.0 0.1292999858
H  H89  1  0.93650000  0.46700000  0.18370000  1.0 0.1385934984
H  H90  1  0.00280000  0.68650000  0.96950000  1.0 0.1385934984
H  H91  1  0.71700000  0.03330000  0.03050000  1.0 0.1385934984
H  H92  1  0.28330000  0.75280000  0.81630000  1.0 0.1385934984
H  H93  1  0.31350000  0.28300000  0.31630000  1.0 0.1385934984
H  H94  1  0.24720000  0.06350000  0.53050000  1.0 0.1385934984
H  H95  1  0.53300000  0.71670000  0.46950000  1.0 0.1385934984
H  H96  1  0.96670000  0.99720000  0.68370000  1.0 0.1385934984
H  H97  1  0.81400000  0.40210000  0.17210000  1.0 0.109976489
H  H98  1  0.89190000  0.56400000  0.91190000  1.0 0.109976489
H  H99  1  0.65210000  0.98000000  0.08810000  1.0 0.109976489
H  H100  1  0.23000000  0.64190000  0.82790000  1.0 0.109976489
H  H101  1  0.43600000  0.34790000  0.32790000  1.0 0.109976489
H  H102  1  0.35810000  0.18600000  0.58810000  1.0 0.109976489
H  H103  1  0.59790000  0.77000000  0.41190000  1.0 0.109976489
H  H104  1  0.02000000  0.10810000  0.67210000  1.0 0.109976489
H  H105  1  0.95860000  0.36640000  0.19640000  1.0 0.1204995897
H  H106  1  0.01220000  0.70860000  0.09220000  1.0 0.1204995897
H  H107  1  0.61640000  0.92000000  0.90780000  1.0 0.1204995897
H  H108  1  0.17000000  0.76220000  0.80360000  1.0 0.1204995897
H  H109  1  0.29140000  0.38360000  0.30360000  1.0 0.1204995897
H  H110  1  0.23780000  0.04140000  0.40780000  1.0 0.1204995897
H  H111  1  0.63360000  0.83000000  0.59220000  1.0 0.1204995897
H  H112  1  0.08000000  0.98780000  0.69640000  1.0 0.1204995897
H  H113  1  0.01140000  0.45540000  0.21720000  1.0 0.1204995897
H  H114  1  0.04420000  0.76140000  0.05600000  1.0 0.1204995897
H  H115  1  0.70540000  0.98820000  0.94400000  1.0 0.1204995897
H  H116  1  0.23820000  0.79420000  0.78280000  1.0 0.1204995897
H  H117  1  0.23860000  0.29460000  0.28280000  1.0 0.1204995897
H  H118  1  0.20580000  0.98860000  0.44400000  1.0 0.1204995897
H  H119  1  0.54460000  0.76180000  0.55600000  1.0 0.1204995897
H  H120  1  0.01180000  0.95580000  0.71720000  1.0 0.1204995897
H  H121  1  0.96470000  0.56550000  0.13840000  1.0 0.1292999858
H  H122  1  0.07630000  0.71470000  0.89920000  1.0 0.1292999858
H  H123  1  0.81550000  0.17710000  0.10080000  1.0 0.1292999858
H  H124  1  0.42710000  0.82630000  0.86160000  1.0 0.1292999858
H  H125  1  0.28530000  0.18450000  0.36160000  1.0 0.1292999858
H  H126  1  0.17370000  0.03530000  0.60080000  1.0 0.1292999858
H  H127  1  0.43450000  0.57290000  0.39920000  1.0 0.1292999858
H  H128  1  0.82290000  0.92370000  0.63840000  1.0 0.1292999858
H  H129  1  0.10300000  0.69680000  0.17600000  1.0 0.109976489
H  H130  1  0.17700000  0.85300000  0.90620000  1.0 0.109976489
H  H131  1  0.94680000  0.27080000  0.09380000  1.0 0.109976489
H  H132  1  0.52080000  0.92700000  0.82400000  1.0 0.109976489
H  H133  1  0.14700000  0.05320000  0.32400000  1.0 0.109976489
H  H134  1  0.07300000  0.89700000  0.59380000  1.0 0.109976489
H  H135  1  0.30320000  0.47920000  0.40620000  1.0 0.109976489
H  H136  1  0.72920000  0.82300000  0.67600000  1.0 0.109976489
H  H137  1  0.14450000  0.79660000  0.22350000  1.0 0.1204995897
H  H138  1  0.17100000  0.89450000  0.84790000  1.0 0.1204995897
H  H139  1  0.04660000  0.32310000  0.15210000  1.0 0.1204995897
H  H140  1  0.57310000  0.92100000  0.77650000  1.0 0.1204995897
H  H141  1  0.10550000  0.95340000  0.27650000  1.0 0.1204995897
H  H142  1  0.07900000  0.85550000  0.65210000  1.0 0.1204995897
H  H143  1  0.20340000  0.42690000  0.34790000  1.0 0.1204995897
H  H144  1  0.67690000  0.82900000  0.72350000  1.0 0.1204995897
H  H145  1  0.04270000  0.76370000  0.23420000  1.0 0.1204995897
H  H146  1  0.05850000  0.79270000  0.77900000  1.0 0.1204995897
H  H147  1  0.01370000  0.27950000  0.22100000  1.0 0.1204995897
H  H148  1  0.52950000  0.80850000  0.76580000  1.0 0.1204995897
H  H149  1  0.20730000  0.98630000  0.26580000  1.0 0.1204995897
H  H150  1  0.19150000  0.95730000  0.72100000  1.0 0.1204995897
H  H151  1  0.23630000  0.47050000  0.27900000  1.0 0.1204995897
H  H152  1  0.72050000  0.94150000  0.73420000  1.0 0.1204995897
H  H153  1  0.60370000  0.44800000  0.20330000  1.0 0.1385934984
H  H154  1  0.65040000  0.35370000  0.65570000  1.0 0.1385934984
H  H155  1  0.69800000  0.99470000  0.34430000  1.0 0.1385934984
H  H156  1  0.24470000  0.40040000  0.79670000  1.0 0.1385934984
H  H157  1  0.64630000  0.30200000  0.29670000  1.0 0.1385934984
H  H158  1  0.59960000  0.39630000  0.84430000  1.0 0.1385934984
H  H159  1  0.55200000  0.75530000  0.15570000  1.0 0.1385934984
H  H160  1  0.00530000  0.34960000  0.70330000  1.0 0.1385934984
H  H161  1  0.63840000  0.51340000  0.17700000  1.0 0.1204995897
H  H162  1  0.71140000  0.38840000  0.62500000  1.0 0.1204995897
H  H163  1  0.76340000  0.08640000  0.37500000  1.0 0.1204995897
H  H164  1  0.33640000  0.46140000  0.82300000  1.0 0.1204995897
H  H165  1  0.61160000  0.23660000  0.32300000  1.0 0.1204995897
H  H166  1  0.53860000  0.36160000  0.87500000  1.0 0.1204995897
H  H167  1  0.48660000  0.66360000  0.12500000  1.0 0.1204995897
H  H168  1  0.91360000  0.28860000  0.67700000  1.0 0.1204995897
H  H169  1  0.51050000  0.34310000  0.13040000  1.0 0.1292999858
H  H170  1  0.63010000  0.26050000  0.66740000  1.0 0.1292999858
H  H171  1  0.59310000  0.96270000  0.33260000  1.0 0.1292999858
H  H172  1  0.21270000  0.38010000  0.86960000  1.0 0.1292999858
H  H173  1  0.73950000  0.40690000  0.36960000  1.0 0.1292999858
H  H174  1  0.61990000  0.48950000  0.83260000  1.0 0.1292999858
H  H175  1  0.65690000  0.78730000  0.16740000  1.0 0.1292999858
H  H176  1  0.03730000  0.36990000  0.63040000  1.0 0.1292999858
H  H177  1  0.49450000  0.38150000  0.14380000  1.0 0.1292999858
H  H178  1  0.60070000  0.24450000  0.61300000  1.0 0.1292999858
H  H179  1  0.63150000  0.98770000  0.38700000  1.0 0.1204995897
H  H180  1  0.23770000  0.35070000  0.85620000  1.0 0.1204995897
H  H181  1  0.75550000  0.36850000  0.35620000  1.0 0.1292999858
H  H182  1  0.64930000  0.50550000  0.88700000  1.0 0.1204995897
H  H183  1  0.61850000  0.76230000  0.11300000  1.0 0.1292999858
H  H184  1  0.01230000  0.39930000  0.64380000  1.0 0.1204995897
H  H185  1  0.54330000  0.40900000  0.10570000  1.0 0.109976489
H  H186  1  0.68760000  0.29330000  0.63430000  1.0 0.109976489
H  H187  1  0.65900000  0.05330000  0.36570000  1.0 0.109976489
H  H188  1  0.30330000  0.43760000  0.89430000  1.0 0.109976489
H  H189  1  0.70670000  0.34100000  0.39430000  1.0 0.109976489
H  H190  1  0.56240000  0.45670000  0.86570000  1.0 0.109976489
H  H191  1  0.59100000  0.69670000  0.13430000  1.0 0.109976489
H  H192  1  0.94670000  0.31240000  0.60570000  1.0 0.109976489
H  H193  1  0.66940000  0.48020000  0.07040000  1.0 0.1487915467
H  H194  1  0.84900000  0.41940000  0.68920000  1.0 0.1487915467
H  H195  1  0.73020000  0.15980000  0.31080000  1.0 0.1487915467
H  H196  1  0.40980000  0.59900000  0.92960000  1.0 0.1487915467
H  H197  1  0.58060000  0.26980000  0.42960000  1.0 0.1487915467
H  H198  1  0.40100000  0.33060000  0.81080000  1.0 0.1487915467
H  H199  1  0.51980000  0.59020000  0.18920000  1.0 0.1487915467
H  H200  1  0.84020000  0.15100000  0.57040000  1.0 0.1487915467
H  H201  1  0.58910000  0.43760000  0.96690000  1.0 0.1581242936
H  H202  1  0.87220000  0.33910000  0.65150000  1.0 0.1581242936
H  H203  1  0.68760000  0.22070000  0.34850000  1.0 0.1581242936
H  H204  1  0.47070000  0.62220000  0.03310000  1.0 0.1581242936
H  H205  1  0.66090000  0.31240000  0.53310000  1.0 0.1581242936
H  H206  1  0.37780000  0.41090000  0.84850000  1.0 0.1581242936
H  H207  1  0.56240000  0.52930000  0.15150000  1.0 0.1581242936
H  H208  1  0.77930000  0.12780000  0.46690000  1.0 0.1581242936
H  H209  1  0.60610000  0.47400000  0.01950000  1.0 0.1385934984
H  H210  1  0.83660000  0.35610000  0.63210000  1.0 0.1385934984
H  H211  1  0.72400000  0.20450000  0.36790000  1.0 0.1385934984
H  H212  1  0.45450000  0.58660000  0.98050000  1.0 0.1385934984
H  H213  1  0.64390000  0.27600000  0.48050000  1.0 0.1385934984
H  H214  1  0.41340000  0.39390000  0.86790000  1.0 0.1385934984
H  H215  1  0.52600000  0.54550000  0.13210000  1.0 0.1385934984
H  H216  1  0.79550000  0.16340000  0.51950000  1.0 0.1385934984
H  H217  1  0.65390000  0.53260000  0.98550000  1.0 0.1487915467
H  H218  1  0.91840000  0.40390000  0.62130000  1.0 0.1487915467
H  H219  1  0.78260000  0.29710000  0.37870000  1.0 0.1487915467
H  H220  1  0.54710000  0.66840000  0.01450000  1.0 0.1487915467
H  H221  1  0.59610000  0.21740000  0.51450000  1.0 0.1487915467
H  H222  1  0.33160000  0.34610000  0.87870000  1.0 0.1487915467
H  H223  1  0.46740000  0.45290000  0.12130000  1.0 0.1487915467
H  H224  1  0.70290000  0.08160000  0.48550000  1.0 0.1487915467
H  H225  1  0.41400000  0.97260000  0.32800000  1.0 0.1292999858
H  H226  1  0.33600000  0.16400000  0.94140000  1.0 0.1292999858
H  H227  1  0.22260000  0.39460000  0.05860000  1.0 0.1292999858
H  H228  1  0.64460000  0.08600000  0.67200000  1.0 0.1292999858
H  H229  1  0.83600000  0.77740000  0.17200000  1.0 0.1292999858
H  H230  1  0.91400000  0.58600000  0.55860000  1.0 0.1292999858
H  H231  1  0.02740000  0.35540000  0.44140000  1.0 0.1292999858
H  H232  1  0.60540000  0.66400000  0.82800000  1.0 0.1292999858
H  H233  1  0.47760000  0.95680000  0.32960000  1.0 0.109976489
H  H234  1  0.39800000  0.22760000  0.02080000  1.0 0.109976489
H  H235  1  0.20680000  0.37720000  0.97920000  1.0 0.109976489
H  H236  1  0.62720000  0.14800000  0.67040000  1.0 0.109976489
H  H237  1  0.77240000  0.79320000  0.17040000  1.0 0.109976489
H  H238  1  0.85200000  0.52240000  0.47920000  1.0 0.109976489
H  H239  1  0.04320000  0.37280000  0.52080000  1.0 0.109976489
H  H240  1  0.62280000  0.60200000  0.82960000  1.0 0.109976489
H  H241  1  0.57160000  0.02010000  0.28510000  1.0 0.1204995897
H  H242  1  0.53650000  0.32160000  0.05150000  1.0 0.1204995897
H  H243  1  0.27010000  0.48500000  0.94850000  1.0 0.1204995897
H  H244  1  0.73500000  0.28650000  0.71490000  1.0 0.1204995897
H  H245  1  0.67840000  0.72990000  0.21490000  1.0 0.1204995897
H  H246  1  0.71350000  0.42840000  0.44850000  1.0 0.1204995897
H  H247  1  0.97990000  0.26500000  0.55150000  1.0 0.1204995897
H  H248  1  0.51500000  0.46350000  0.78510000  1.0 0.1204995897
H  H249  1  0.59680000  0.09540000  0.23860000  1.0 0.109976489
H  H250  1  0.60820000  0.34680000  0.00140000  1.0 0.109976489
H  H251  1  0.34540000  0.60680000  0.99860000  1.0 0.109976489
H  H252  1  0.85680000  0.35820000  0.76140000  1.0 0.109976489
H  H253  1  0.65320000  0.65460000  0.26140000  1.0 0.109976489
H  H254  1  0.64180000  0.40320000  0.49860000  1.0 0.109976489
H  H255  1  0.90460000  0.14320000  0.50140000  1.0 0.109976489
H  H256  1  0.39320000  0.39180000  0.73860000  1.0 0.109976489
H  H257  1  0.51110000  0.25930000  0.15980000  1.0 0.1385934984
H  H258  1  0.60130000  0.26110000  0.75180000  1.0 0.1385934984
H  H259  1  0.50930000  0.84950000  0.24820000  1.0 0.1385934984
H  H260  1  0.09950000  0.35130000  0.84020000  1.0 0.1385934984
H  H261  1  0.73890000  0.49070000  0.34020000  1.0 0.1385934984
H  H262  1  0.64870000  0.48890000  0.74820000  1.0 0.1385934984
H  H263  1  0.74070000  0.90050000  0.25180000  1.0 0.1385934984
H  H264  1  0.15050000  0.39870000  0.65980000  1.0 0.1385934984
H  H265  1  0.49960000  0.20800000  0.12120000  1.0 0.1292999858
H  H266  1  0.62840000  0.24960000  0.79160000  1.0 0.1292999858
H  H267  1  0.45800000  0.83680000  0.20840000  1.0 0.1292999858
H  H268  1  0.08680000  0.37840000  0.87880000  1.0 0.1292999858
H  H269  1  0.75040000  0.54200000  0.37880000  1.0 0.1292999858
H  H270  1  0.62160000  0.50040000  0.70840000  1.0 0.1292999858
H  H271  1  0.79200000  0.91320000  0.29160000  1.0 0.1292999858
H  H272  1  0.16320000  0.37160000  0.62120000  1.0 0.1292999858
H  H273  1  0.35740000  0.09960000  0.09940000  1.0 0.1204995897
H  H274  1  0.50800000  0.10740000  0.75780000  1.0 0.1204995897
H  H275  1  0.34960000  0.75020000  0.24220000  1.0 0.1204995897
H  H276  1  0.00020000  0.25800000  0.90060000  1.0 0.1204995897
H  H277  1  0.89260000  0.65040000  0.40060000  1.0 0.1204995897
H  H278  1  0.74200000  0.64260000  0.74220000  1.0 0.1204995897
H  H279  1  0.90040000  0.99980000  0.25780000  1.0 0.1204995897
H  H280  1  0.24980000  0.49200000  0.59940000  1.0 0.1204995897
H  H281  1  0.40480000  0.18400000  0.09500000  1.0 0.109976489
H  H282  1  0.55980000  0.15480000  0.72080000  1.0 0.109976489
H  H283  1  0.43400000  0.83900000  0.27920000  1.0 0.109976489
H  H284  1  0.08900000  0.30980000  0.90500000  1.0 0.109976489
H  H285  1  0.84520000  0.56600000  0.40500000  1.0 0.109976489
H  H286  1  0.69020000  0.59520000  0.77920000  1.0 0.109976489
H  H287  1  0.81600000  0.91100000  0.22080000  1.0 0.109976489
H  H288  1  0.16100000  0.44020000  0.59500000  1.0 0.109976489
H  H289  1  0.36800000  0.14980000  0.13860000  1.0 0.1204995897
H  H290  1  0.47940000  0.11800000  0.71820000  1.0 0.1204995897
H  H291  1  0.39980000  0.76120000  0.28180000  1.0 0.1204995897
H  H292  1  0.01120000  0.22940000  0.86140000  1.0 0.1204995897
H  H293  1  0.88200000  0.60020000  0.36140000  1.0 0.1204995897
H  H294  1  0.77060000  0.63200000  0.78180000  1.0 0.1204995897
H  H295  1  0.85020000  0.98880000  0.21820000  1.0 0.1204995897
H  H296  1  0.23880000  0.52060000  0.63860000  1.0 0.1204995897
H  H297  1  0.18900000  0.50800000  0.10060000  1.0 0.109976489
H  H298  1  0.33840000  0.93900000  0.18100000  1.0 0.109976489
H  H299  1  0.75800000  0.15740000  0.81900000  1.0 0.109976489
H  H300  1  0.40740000  0.08840000  0.89940000  1.0 0.109976489
H  H301  1  0.06100000  0.24200000  0.39940000  1.0 0.109976489
H  H302  1  0.91160000  0.81100000  0.31900000  1.0 0.109976489
H  H303  1  0.49200000  0.59260000  0.68100000  1.0 0.109976489
H  H304  1  0.84260000  0.66160000  0.60060000  1.0 0.109976489
H  H305  1  0.07340000  0.45320000  0.09060000  1.0 0.1385934984
H  H306  1  0.23280000  0.82340000  0.12020000  1.0 0.1385934984
H  H307  1  0.70320000  0.11260000  0.87980000  1.0 0.1385934984
H  H308  1  0.36260000  0.98280000  0.90940000  1.0 0.1385934984
H  H309  1  0.17660000  0.29680000  0.40940000  1.0 0.1385934984
H  H310  1  0.01720000  0.92660000  0.37980000  1.0 0.1385934984
H  H311  1  0.54680000  0.63740000  0.62020000  1.0 0.1385934984
H  H312  1  0.88740000  0.76720000  0.59060000  1.0 0.1385934984
H  H313  1  0.12830000  0.51480000  0.23130000  1.0 0.1385934984
H  H314  1  0.14700000  0.87830000  0.11350000  1.0 0.1385934984
H  H315  1  0.76480000  0.03350000  0.88650000  1.0 0.1385934984
H  H316  1  0.28350000  0.89700000  0.76870000  1.0 0.1385934984
H  H317  1  0.12170000  0.23520000  0.26870000  1.0 0.1385934984
H  H318  1  0.10300000  0.87170000  0.38650000  1.0 0.1385934984
H  H319  1  0.48520000  0.71650000  0.61350000  1.0 0.1385934984
H  H320  1  0.96650000  0.85300000  0.73130000  1.0 0.1385934984
H  H321  1  0.23770000  0.55600000  0.23330000  1.0 0.109976489
H  H322  1  0.25440000  0.98770000  0.18170000  1.0 0.109976489
H  H323  1  0.80600000  0.07270000  0.81830000  1.0 0.109976489
H  H324  1  0.32270000  0.00440000  0.76670000  1.0 0.109976489
H  H325  1  0.01230000  0.19400000  0.26670000  1.0 0.109976489
H  H326  1  0.99560000  0.76230000  0.31830000  1.0 0.109976489
H  H327  1  0.44400000  0.67730000  0.68170000  1.0 0.109976489
H  H328  1  0.92730000  0.74560000  0.73330000  1.0 0.109976489
H  H329  1  0.01540000  0.47240000  0.14480000  1.0 0.1292999858
H  H330  1  0.12060000  0.76540000  0.04300000  1.0 0.1292999858
H  H331  1  0.72240000  0.07760000  0.95700000  1.0 0.1292999858
H  H332  1  0.32760000  0.87060000  0.85520000  1.0 0.1292999858
H  H333  1  0.23460000  0.27760000  0.35520000  1.0 0.1292999858
H  H334  1  0.12940000  0.98460000  0.45700000  1.0 0.1292999858
H  H335  1  0.52760000  0.67240000  0.54300000  1.0 0.1292999858
H  H336  1  0.92240000  0.87940000  0.64480000  1.0 0.1292999858
H  H337  1  0.95930000  0.38190000  0.12280000  1.0 0.1292999858
H  H338  1  0.08650000  0.70930000  0.07740000  1.0 0.1292999858
H  H339  1  0.63190000  0.00910000  0.92260000  1.0 0.1292999858
H  H340  1  0.25910000  0.83650000  0.87720000  1.0 0.1292999858
H  H341  1  0.29070000  0.36810000  0.37720000  1.0 0.1292999858
H  H342  1  0.16350000  0.04070000  0.42260000  1.0 0.1292999858
H  H343  1  0.61810000  0.74090000  0.57740000  1.0 0.1292999858
H  H344  1  0.99090000  0.91350000  0.62280000  1.0 0.1292999858
H  H345  1  0.85060000  0.62460000  0.09220000  1.0 0.1487915467
H  H346  1  0.00840000  0.60060000  0.72600000  1.0 0.1487915467
H  H347  1  0.87460000  0.28240000  0.27400000  1.0 0.1487915467
H  H348  1  0.53240000  0.75840000  0.90780000  1.0 0.1487915467
H  H349  1  0.39940000  0.12540000  0.40780000  1.0 0.1487915467
H  H350  1  0.24160000  0.14940000  0.77400000  1.0 0.1487915467
H  H351  1  0.37540000  0.46760000  0.22600000  1.0 0.1487915467
H  H352  1  0.71760000  0.99160000  0.59220000  1.0 0.1487915467
C  C1  1  0.57194000  0.16850000  0.06364000  1.0 0.3047378815
C  C2  1  0.75830000  0.32194000  0.90344000  1.0 0.3047378815
C  C3  1  0.41850000  0.85486000  0.09656000  1.0 0.3050134934
C  C4  1  0.10486000  0.50830000  0.93636000  1.0 0.3047378815
C  C5  1  0.67806000  0.58150000  0.43636000  1.0 0.3047378815
C  C6  1  0.49170000  0.42806000  0.59656000  1.0 0.3047378815
C  C7  1  0.83150000  0.89514000  0.40344000  1.0 0.3047378815
C  C8  1  0.14514000  0.24170000  0.56364000  1.0 0.3047378815
C  C9  1  0.53499000  0.10721000  0.02600000  1.0 -0.213576951
C  C10  1  0.75899000  0.28499000  0.92778000  1.0 -0.213576951
C  C11  1  0.35721000  0.83121000  0.07222000  1.0 -0.213576951
C  C12  1  0.08121000  0.50899000  0.97400000  1.0 -0.213576951
C  C13  1  0.71501000  0.64279000  0.47400000  1.0 -0.213576951
C  C14  1  0.49101000  0.46501000  0.57222000  1.0 -0.213576951
C  C15  1  0.89279000  0.91879000  0.42778000  1.0 -0.213576951
C  C16  1  0.16879000  0.24101000  0.52600000  1.0 -0.213576951
C  C17  1  0.53659000  0.11408000  0.98187000  1.0 -0.0795386434
C  C18  1  0.80472000  0.28659000  0.92251000  1.0 -0.0795386434
C  C19  1  0.36408000  0.88221000  0.07749000  1.0 -0.0795386434
C  C20  1  0.13221000  0.55472000  0.01813000  1.0 -0.0795386434
C  C21  1  0.71341000  0.63592000  0.51813000  1.0 -0.0795386434
C  C22  1  0.44528000  0.46341000  0.57749000  1.0 -0.0795386434
C  C23  1  0.88592000  0.86779000  0.42251000  1.0 -0.0795386434
C  C24  1  0.11779000  0.19528000  0.48187000  1.0 -0.0795386434
C  C25  1  0.57566000  0.18450000  0.97216000  1.0 -0.1289460429
C  C26  1  0.85350000  0.32566000  0.89116000  1.0 -0.1289460429
C  C27  1  0.43450000  0.96234000  0.10884000  1.0 -0.1289460429
C  C28  1  0.21234000  0.60350000  0.02784000  1.0 -0.1289460429
C  C29  1  0.67434000  0.56550000  0.52784000  1.0 -0.1289460429
C  C30  1  0.39650000  0.42434000  0.60884000  1.0 -0.1289460429
C  C31  1  0.81550000  0.78766000  0.39116000  1.0 -0.1289460429
C  C32  1  0.03766000  0.14650000  0.47216000  1.0 -0.1289460429
C  C33  1  0.61181000  0.24424000  0.00865000  1.0 -0.0795386434
C  C34  1  0.85316000  0.36181000  0.86757000  1.0 -0.0795386434
C  C35  1  0.49424000  0.98559000  0.13243000  1.0 -0.0795386434
C  C36  1  0.23559000  0.60316000  0.99135000  1.0 -0.0795386434
C  C37  1  0.63819000  0.50576000  0.49135000  1.0 -0.0795386434
C  C38  1  0.39684000  0.38819000  0.63243000  1.0 -0.0795386434
C  C39  1  0.75576000  0.76441000  0.36757000  1.0 -0.0795386434
C  C40  1  0.01441000  0.14684000  0.50865000  1.0 -0.0795386434
C  C41  1  0.61236000  0.24067000  0.05483000  1.0 -0.16117774
C  C42  1  0.80753000  0.36236000  0.87169000  1.0 -0.16117774
C  C43  1  0.49067000  0.93584000  0.12831000  1.0 -0.16117774
C  C44  1  0.18584000  0.55753000  0.94517000  1.0 -0.16117774
C  C45  1  0.63764000  0.50933000  0.44517000  1.0 -0.16117774
C  C46  1  0.44247000  0.38764000  0.62831000  1.0 -0.16117774
C  C47  1  0.75933000  0.81416000  0.37169000  1.0 -0.16117774
C  C48  1  0.06416000  0.19247000  0.55483000  1.0 -0.16117774
C  C49  1  0.65197000  0.30803000  0.09100000  1.0 0.4297170162
C  C50  1  0.81097000  0.40197000  0.84394000  1.0 0.4297170162
C  C51  1  0.55803000  0.96703000  0.15606000  1.0 0.4297170162
C  C52  1  0.21703000  0.56097000  0.90900000  1.0 0.4297170162
C  C53  1  0.59803000  0.44197000  0.40900000  1.0 0.4297170162
C  C54  1  0.43903000  0.34803000  0.65606000  1.0 0.4297170162
C  C55  1  0.69197000  0.78297000  0.34394000  1.0 0.4297170162
C  C56  1  0.03297000  0.18903000  0.59100000  1.0 0.4297170162
C  C57  1  0.71324000  0.37837000  0.21041000  1.0 0.4460720426
C  C58  1  0.75283000  0.46324000  0.83487000  1.0 0.4460720426
C  C59  1  0.62837000  0.91796000  0.16513000  1.0 0.4460720426
C  C60  1  0.16796000  0.50283000  0.78959000  1.0 0.4460720426
C  C61  1  0.53676000  0.37163000  0.28959000  1.0 0.4460720426
C  C62  1  0.49717000  0.28676000  0.66513000  1.0 0.4460720426
C  C63  1  0.62163000  0.83204000  0.33487000  1.0 0.4460720426
C  C64  1  0.08204000  0.24717000  0.71041000  1.0 0.4460720426
C  C65  1  0.75912000  0.44760000  0.25012000  1.0 -0.3105067418
C  C66  1  0.75900000  0.50912000  0.81152000  1.0 -0.3105067418
C  C67  1  0.69760000  0.94748000  0.18848000  1.0 -0.3105067418
C  C68  1  0.19748000  0.50900000  0.74988000  1.0 -0.3105067418
C  C69  1  0.49088000  0.30240000  0.24988000  1.0 -0.3105067418
C  C70  1  0.49100000  0.24088000  0.68848000  1.0 -0.3105067418
C  C71  1  0.55240000  0.80252000  0.31152000  1.0 -0.3105067418
C  C72  1  0.05252000  0.24100000  0.75012000  1.0 -0.3105067418
C  C73  1  0.85460000  0.50420000  0.27140000  1.0 -0.3616367386
C  C74  1  0.83320000  0.60460000  0.85040000  1.0 -0.3616367386
C  C75  1  0.75420000  0.98280000  0.14960000  1.0 -0.3616367386
C  C76  1  0.23280000  0.58320000  0.72860000  1.0 -0.3616367386
C  C77  1  0.39540000  0.24580000  0.22860000  1.0 -0.3616367386
C  C78  1  0.41680000  0.14540000  0.64960000  1.0 -0.3616367386
C  C79  1  0.49580000  0.76720000  0.35040000  1.0 -0.3616367386
C  C80  1  0.01720000  0.16680000  0.77140000  1.0 -0.3616367386
C  C81  1  0.74290000  0.24559000  0.16749000  1.0 0.0913827952
C  C82  1  0.82541000  0.49290000  0.99731000  1.0 0.0913827952
C  C83  1  0.49559000  0.82810000  0.00269000  1.0 0.0913827952
C  C84  1  0.07810000  0.57541000  0.83251000  1.0 0.0913827952
C  C85  1  0.50710000  0.50441000  0.33251000  1.0 0.0913827952
C  C86  1  0.42459000  0.25710000  0.50269000  1.0 0.0913827952
C  C87  1  0.75441000  0.92190000  0.49731000  1.0 0.0913827952
C  C88  1  0.17190000  0.17459000  0.66749000  1.0 0.0913827952
C  C89  1  0.81393000  0.28019000  0.17412000  1.0 -0.2190207621
C  C90  1  0.88981000  0.56393000  0.03374000  1.0 -0.2190207621
C  C91  1  0.53019000  0.85607000  0.96626000  1.0 -0.2190207621
C  C92  1  0.10607000  0.63981000  0.82588000  1.0 -0.2190207621
C  C93  1  0.43607000  0.46981000  0.32588000  1.0 -0.2190207621
C  C94  1  0.36019000  0.18607000  0.46626000  1.0 -0.2190207621
C  C95  1  0.71981000  0.89393000  0.53374000  1.0 -0.2190207621
C  C96  1  0.14393000  0.11019000  0.67412000  1.0 -0.2190207621
C  C97  1  0.89066000  0.36684000  0.18190000  1.0 0.1581242936
C  C98  1  0.95876000  0.64066000  0.02382000  1.0 0.1581242936
C  C99  1  0.61684000  0.93494000  0.97618000  1.0 0.1581242936
C  C100  1  0.18494000  0.70876000  0.81810000  1.0 0.1581242936
C  C101  1  0.35934000  0.38316000  0.31810000  1.0 0.1581242936
C  C102  1  0.29124000  0.10934000  0.47618000  1.0 0.1581242936
C  C103  1  0.63316000  0.81506000  0.52382000  1.0 0.1581242936
C  C104  1  0.06506000  0.04124000  0.68190000  1.0 0.1581242936
C  C105  1  0.88691000  0.40904000  0.17995000  1.0 -0.1972660639
C  C106  1  0.95696000  0.63691000  0.97787000  1.0 -0.1972660639
C  C107  1  0.65904000  0.97909000  0.02213000  1.0 -0.1972660639
C  C108  1  0.22909000  0.70696000  0.82005000  1.0 -0.1972660639
C  C109  1  0.36309000  0.34096000  0.32005000  1.0 -0.1972660639
C  C110  1  0.29304000  0.11309000  0.52213000  1.0 -0.1972660639
C  C111  1  0.59096000  0.77091000  0.47787000  1.0 -0.1972660639
C  C112  1  0.02091000  0.04304000  0.67995000  1.0 -0.1972660639
C  C113  1  0.81356000  0.37003000  0.17279000  1.0 0.0913827952
C  C114  1  0.89077000  0.56356000  0.94353000  1.0 0.0913827952
C  C115  1  0.62003000  0.94724000  0.05647000  1.0 0.0913827952
C  C116  1  0.19724000  0.64077000  0.82721000  1.0 0.0913827952
C  C117  1  0.43644000  0.37997000  0.32721000  1.0 0.0913827952
C  C118  1  0.35923000  0.18644000  0.55647000  1.0 0.0913827952
C  C119  1  0.62997000  0.80276000  0.44353000  1.0 0.0913827952
C  C120  1  0.05276000  0.10923000  0.67279000  1.0 0.0913827952
C  C121  1  0.96946000  0.40620000  0.18946000  1.0 -0.243038955
C  C122  1  0.03000000  0.71946000  0.06326000  1.0 -0.243038955
C  C123  1  0.65620000  0.96674000  0.93674000  1.0 -0.243038955
C  C124  1  0.21674000  0.78000000  0.81054000  1.0 -0.243038955
C  C125  1  0.28054000  0.34380000  0.31054000  1.0 -0.243038955
C  C126  1  0.22000000  0.03054000  0.43674000  1.0 -0.243038955
C  C127  1  0.59380000  0.78326000  0.56326000  1.0 -0.243038955
C  C128  1  0.03326000  0.97000000  0.68946000  1.0 -0.243038955
C  C129  1  0.92096000  0.58977000  0.15993000  1.0 0.2741200819
C  C130  1  0.01103000  0.67096000  0.83119000  1.0 0.2741200819
C  C131  1  0.83977000  0.17984000  0.16881000  1.0 0.2741200819
C  C132  1  0.42984000  0.76103000  0.84007000  1.0 0.2741200819
C  C133  1  0.32904000  0.16023000  0.34007000  1.0 0.2741200819
C  C134  1  0.23897000  0.07904000  0.66881000  1.0 0.2741200819
C  C135  1  0.41023000  0.57016000  0.33119000  1.0 0.2741200819
C  C136  1  0.82016000  0.98897000  0.65993000  1.0 0.2741200819
C  C137  1  0.98073000  0.60676000  0.15649000  1.0 -0.2277526507
C  C138  1  0.07424000  0.73073000  0.87397000  1.0 -0.2277526507
C  C139  1  0.85676000  0.20027000  0.12603000  1.0 -0.2277526507
C  C140  1  0.45027000  0.82424000  0.84351000  1.0 -0.2277526507
C  C141  1  0.26927000  0.14324000  0.34351000  1.0 -0.2277526507
C  C142  1  0.17576000  0.01927000  0.62603000  1.0 -0.2277526507
C  C143  1  0.39324000  0.54973000  0.37397000  1.0 -0.2277526507
C  C144  1  0.79973000  0.92576000  0.65649000  1.0 -0.2277526507
C  C145  1  0.06230000  0.68410000  0.17980000  1.0 -0.0795386434
C  C146  1  0.13250000  0.81230000  0.87820000  1.0 -0.0795386434
C  C147  1  0.93410000  0.25430000  0.12180000  1.0 -0.0795386434
C  C148  1  0.50430000  0.88250000  0.82020000  1.0 -0.0795386434
C  C149  1  0.18770000  0.06590000  0.32020000  1.0 -0.0795386434
C  C150  1  0.11750000  0.93770000  0.62180000  1.0 -0.0795386434
C  C151  1  0.31590000  0.49570000  0.37820000  1.0 -0.0795386434
C  C152  1  0.74570000  0.86750000  0.67980000  1.0 -0.0795386434
C  C153  1  0.08750000  0.74340000  0.20810000  1.0 -0.1489119672
C  C154  1  0.12940000  0.83750000  0.84410000  1.0 -0.1489119672
C  C155  1  0.99340000  0.28530000  0.15590000  1.0 -0.1489119672
C  C156  1  0.53530000  0.87940000  0.79190000  1.0 -0.1489119672
C  C157  1  0.16250000  0.00660000  0.29190000  1.0 -0.1489119672
C  C158  1  0.12060000  0.91250000  0.65590000  1.0 -0.1489119672
C  C159  1  0.25660000  0.46470000  0.34410000  1.0 -0.1489119672
C  C160  1  0.71470000  0.87060000  0.70810000  1.0 -0.1489119672
C  C161  1  0.02630000  0.72341000  0.21391000  1.0 -0.0980398176
C  C162  1  0.06239000  0.77630000  0.80289000  1.0 -0.0980398176
C  C163  1  0.97341000  0.25950000  0.19711000  1.0 -0.0980398176
C  C164  1  0.50950000  0.81239000  0.78609000  1.0 -0.0980398176
C  C165  1  0.22370000  0.02659000  0.28609000  1.0 -0.0980398176
C  C166  1  0.18761000  0.97370000  0.69711000  1.0 -0.0980398176
C  C167  1  0.27659000  0.49050000  0.30289000  1.0 -0.0980398176
C  C168  1  0.74050000  0.93761000  0.71391000  1.0 -0.0980398176
C  C169  1  0.94368000  0.64736000  0.19084000  1.0 -0.1489119672
C  C170  1  0.00284000  0.69368000  0.79632000  1.0 -0.1489119672
C  C171  1  0.89736000  0.20652000  0.20368000  1.0 -0.1489119672
C  C172  1  0.45652000  0.75284000  0.80916000  1.0 -0.1489119672
C  C173  1  0.30632000  0.10264000  0.30916000  1.0 -0.1489119672
C  C174  1  0.24716000  0.05632000  0.70368000  1.0 -0.1489119672
C  C175  1  0.35264000  0.54348000  0.29632000  1.0 -0.1489119672
C  C176  1  0.79348000  0.99716000  0.69084000  1.0 -0.1489119672
C  C177  1  0.88548000  0.63281000  0.19929000  1.0 0.4297170162
C  C178  1  0.93619000  0.63548000  0.75267000  1.0 0.4297170162
C  C179  1  0.88281000  0.18352000  0.24733000  1.0 0.4297170162
C  C180  1  0.43352000  0.68619000  0.80071000  1.0 0.4297170162
C  C181  1  0.36452000  0.11719000  0.30071000  1.0 0.4297170162
C  C182  1  0.31381000  0.11452000  0.74733000  1.0 0.4297170162
C  C183  1  0.36719000  0.56648000  0.25267000  1.0 0.4297170162
C  C184  1  0.81648000  0.06381000  0.69929000  1.0 0.4297170162
C  C185  1  0.67786000  0.48243000  0.16449000  1.0 0.4460720426
C  C186  1  0.76337000  0.42786000  0.69543000  1.0 0.4460720426
C  C187  1  0.73243000  0.06794000  0.30457000  1.0 0.4460720426
C  C188  1  0.31794000  0.51337000  0.83551000  1.0 0.4460720426
C  C189  1  0.57214000  0.26757000  0.33551000  1.0 0.4460720426
C  C190  1  0.48663000  0.32214000  0.80457000  1.0 0.4460720426
C  C191  1  0.51757000  0.68206000  0.19543000  1.0 0.4460720426
C  C192  1  0.93206000  0.23663000  0.66449000  1.0 0.4460720426
C  C193  1  0.61485000  0.46295000  0.17340000  1.0 -0.2598366284
C  C194  1  0.69145000  0.36485000  0.65190000  1.0 -0.2598366284
C  C195  1  0.71295000  0.03955000  0.34810000  1.0 -0.2598366284
C  C196  1  0.28955000  0.44145000  0.82660000  1.0 -0.2598366284
C  C197  1  0.63515000  0.28705000  0.32660000  1.0 -0.2598366284
C  C198  1  0.55855000  0.38515000  0.84810000  1.0 -0.2598366284
C  C199  1  0.53705000  0.71045000  0.15190000  1.0 -0.2598366284
C  C200  1  0.96045000  0.30855000  0.67340000  1.0 -0.2598366284
C  C201  1  0.53360000  0.39290000  0.13490000  1.0 -0.3443441087
C  C202  1  0.64870000  0.28360000  0.64070000  1.0 -0.3443441087
C  C203  1  0.64290000  0.00800000  0.35930000  1.0 -0.3443441087
C  C204  1  0.25800000  0.39870000  0.86510000  1.0 -0.3443441087
C  C205  1  0.71640000  0.35710000  0.36510000  1.0 -0.3443441087
C  C206  1  0.60130000  0.46640000  0.85930000  1.0 -0.3443441087
C  C207  1  0.60710000  0.74200000  0.14070000  1.0 -0.3443441087
C  C208  1  0.99200000  0.35130000  0.63490000  1.0 -0.3443441087
C  C209  1  0.70510000  0.49890000  0.05240000  1.0 0.0988193539
C  C210  1  0.90270000  0.45510000  0.70620000  1.0 0.0988193539
C  C211  1  0.74890000  0.19650000  0.29380000  1.0 0.0913827952
C  C212  1  0.44650000  0.65270000  0.94760000  1.0 0.0988193539
C  C213  1  0.54490000  0.25110000  0.44760000  1.0 0.0988193539
C  C214  1  0.34730000  0.29490000  0.79380000  1.0 0.0988193539
C  C215  1  0.50110000  0.55350000  0.20620000  1.0 0.0988193539
C  C216  1  0.80350000  0.09730000  0.55240000  1.0 0.0988193539
C  C217  1  0.74929000  0.53734000  0.98123000  1.0 -0.0916620627
C  C218  1  0.01806000  0.49929000  0.71195000  1.0 -0.0916620627
C  C219  1  0.78734000  0.30611000  0.28805000  1.0 -0.0916620627
C  C220  1  0.55611000  0.76806000  0.01877000  1.0 -0.0916620627
C  C221  1  0.50071000  0.21266000  0.51877000  1.0 -0.0916620627
C  C222  1  0.23194000  0.25071000  0.78805000  1.0 -0.0916620627
C  C223  1  0.46266000  0.44389000  0.21195000  1.0 -0.0916620627
C  C224  1  0.69389000  0.98194000  0.48123000  1.0 -0.0916620627
C  C225  1  0.63130000  0.48660000  0.99410000  1.0 -0.3316068158
C  C226  1  0.88720000  0.38130000  0.64470000  1.0 -0.3316068158
C  C227  1  0.73660000  0.24250000  0.35530000  1.0 -0.3316068158
C  C228  1  0.49250000  0.63720000  0.00590000  1.0 -0.3316068158
C  C229  1  0.61870000  0.26340000  0.50590000  1.0 -0.3316068158
C  C230  1  0.36280000  0.36870000  0.85530000  1.0 -0.3316068158
C  C231  1  0.51340000  0.50750000  0.14470000  1.0 -0.3316068158
C  C232  1  0.75750000  0.11280000  0.49410000  1.0 -0.3316068158
C  C233  1  0.46184000  0.03962000  0.28066000  1.0 0.3192620731
C  C234  1  0.43118000  0.21184000  0.92222000  1.0 0.3192620731
C  C235  1  0.28962000  0.50896000  0.07778000  1.0 0.3192620731
C  C236  1  0.75896000  0.18118000  0.71934000  1.0 0.3192620731
C  C237  1  0.78816000  0.71038000  0.21934000  1.0 0.3192620731
C  C238  1  0.81882000  0.53816000  0.57778000  1.0 0.3192620731
C  C239  1  0.96038000  0.24104000  0.42222000  1.0 0.3192620731
C  C240  1  0.49104000  0.56882000  0.78066000  1.0 0.3192620731
C  C241  1  0.45028000  0.99668000  0.30896000  1.0 -0.2277526507
C  C242  1  0.39132000  0.20028000  0.95360000  1.0 -0.2277526507
C  C243  1  0.24668000  0.43772000  0.04640000  1.0 -0.2277526507
C  C244  1  0.68772000  0.14132000  0.69104000  1.0 -0.2277526507
C  C245  1  0.79972000  0.75332000  0.19104000  1.0 -0.2277526507
C  C246  1  0.85868000  0.54972000  0.54640000  1.0 -0.2277526507
C  C247  1  0.00332000  0.31228000  0.45360000  1.0 -0.2277526507
C  C248  1  0.56228000  0.60868000  0.80896000  1.0 -0.2277526507
C  C249  1  0.48861000  0.98783000  0.31064000  1.0 -0.065383158
C  C250  1  0.42797000  0.23861000  0.00078000  1.0 -0.065383158
C  C251  1  0.23783000  0.42719000  0.99922000  1.0 -0.065383158
C  C252  1  0.67719000  0.17797000  0.68936000  1.0 -0.065383158
C  C253  1  0.76139000  0.76217000  0.18936000  1.0 -0.0649944239
C  C254  1  0.82203000  0.51139000  0.49922000  1.0 -0.065383158
C  C255  1  0.01217000  0.32281000  0.50078000  1.0 -0.065383158
C  C256  1  0.57281000  0.57203000  0.81064000  1.0 -0.065383158
C  C257  1  0.54383000  0.02502000  0.28425000  1.0 -0.16117774
C  C258  1  0.50958000  0.29383000  0.01881000  1.0 -0.16117774
C  C259  1  0.27502000  0.49077000  0.98119000  1.0 -0.16117774
C  C260  1  0.74077000  0.25958000  0.71575000  1.0 -0.16117774
C  C261  1  0.70617000  0.72498000  0.21575000  1.0 -0.16117774
C  C262  1  0.74042000  0.45617000  0.48119000  1.0 -0.16117774
C  C263  1  0.97498000  0.25923000  0.51881000  1.0 -0.16117774
C  C264  1  0.50923000  0.49042000  0.78425000  1.0 -0.16117774
C  C265  1  0.55847000  0.06979000  0.25626000  1.0 -0.0795386434
C  C266  1  0.55221000  0.30847000  0.98868000  1.0 -0.0795386434
C  C267  1  0.31979000  0.56353000  0.01132000  1.0 -0.0795386434
C  C268  1  0.81353000  0.30221000  0.74374000  1.0 -0.0795386434
C  C269  1  0.69153000  0.68021000  0.24374000  1.0 -0.0795386434
C  C270  1  0.69779000  0.44153000  0.51132000  1.0 -0.0795386434
C  C271  1  0.93021000  0.18647000  0.48868000  1.0 -0.0795386434
C  C272  1  0.43647000  0.44779000  0.75626000  1.0 -0.0795386434
C  C273  1  0.51943000  0.07785000  0.25368000  1.0 -0.16117774
C  C274  1  0.51575000  0.26943000  0.94158000  1.0 -0.16117774
C  C275  1  0.32785000  0.57417000  0.05842000  1.0 -0.16117774
C  C276  1  0.82417000  0.26575000  0.74632000  1.0 -0.16117774
C  C277  1  0.73057000  0.67215000  0.24632000  1.0 -0.16117774
C  C278  1  0.73425000  0.48057000  0.55842000  1.0 -0.16117774
C  C279  1  0.92215000  0.17583000  0.44158000  1.0 -0.16117774
C  C280  1  0.42583000  0.48425000  0.75368000  1.0 -0.16117774
C  C281  1  0.53504000  0.12199000  0.22223000  1.0 0.4215620912
C  C282  1  0.56281000  0.28504000  0.91305000  1.0 0.4215620912
C  C283  1  0.37199000  0.64976000  0.08695000  1.0 0.4215620912
C  C284  1  0.89976000  0.31281000  0.77777000  1.0 0.4215620912
C  C285  1  0.71496000  0.62801000  0.27777000  1.0 0.4215620912
C  C286  1  0.68719000  0.46496000  0.58695000  1.0 0.4215620912
C  C287  1  0.87801000  0.10024000  0.41305000  1.0 0.4215620912
C  C288  1  0.35024000  0.43719000  0.72223000  1.0 0.4215620912
C  C289  1  0.47221000  0.17020000  0.18001000  1.0 0.4297170162
C  C290  1  0.54220000  0.22221000  0.80201000  1.0 0.4297170162
C  C291  1  0.42020000  0.74019000  0.19799000  1.0 0.4297170162
C  C292  1  0.99019000  0.29220000  0.81999000  1.0 0.4297170162
C  C293  1  0.77779000  0.57980000  0.31999000  1.0 0.4297170162
C  C294  1  0.70780000  0.52779000  0.69799000  1.0 0.4297170162
C  C295  1  0.82980000  0.00981000  0.30201000  1.0 0.4297170162
C  C296  1  0.25981000  0.45780000  0.68001000  1.0 0.4297170162
C  C297  1  0.47390000  0.20267000  0.14397000  1.0 -0.2453822338
C  C298  1  0.57993000  0.22390000  0.77123000  1.0 -0.2453822338
C  C299  1  0.45267000  0.80870000  0.22877000  1.0 -0.2453822338
C  C300  1  0.05870000  0.32993000  0.85603000  1.0 -0.2453822338
C  C301  1  0.77610000  0.54733000  0.35603000  1.0 -0.243038955
C  C302  1  0.67007000  0.52610000  0.72877000  1.0 -0.2453822338
C  C303  1  0.79733000  0.94130000  0.27123000  1.0 -0.2453822338
C  C304  1  0.19130000  0.42007000  0.64397000  1.0 -0.2453822338
C  C305  1  0.39421000  0.15490000  0.11691000  1.0 -0.3195158795
C  C306  1  0.52730000  0.14421000  0.73931000  1.0 -0.3195158795
C  C307  1  0.40490000  0.78799000  0.26069000  1.0 -0.3195158795
C  C308  1  0.03799000  0.27730000  0.88309000  1.0 -0.3195158795
C  C309  1  0.85579000  0.59510000  0.38309000  1.0 -0.3195158795
C  C310  1  0.72270000  0.60579000  0.76069000  1.0 -0.3195158795
C  C311  1  0.84510000  0.96201000  0.23931000  1.0 -0.3195158795
C  C312  1  0.21201000  0.47270000  0.61691000  1.0 -0.3195158795
C  C313  1  0.17330000  0.50430000  0.12820000  1.0 0.0786913718
C  C314  1  0.29510000  0.92330000  0.16900000  1.0 0.0786913718
C  C315  1  0.75430000  0.12610000  0.83100000  1.0 0.0786913718
C  C316  1  0.37610000  0.04510000  0.87180000  1.0 0.0786913718
C  C317  1  0.07670000  0.24570000  0.37180000  1.0 0.0786913718
C  C318  1  0.95490000  0.82670000  0.33100000  1.0 0.0786913718
C  C319  1  0.49570000  0.62390000  0.66900000  1.0 0.0786913718
C  C320  1  0.87390000  0.70490000  0.62820000  1.0 0.0786913718
C  C321  1  0.10390000  0.47200000  0.12130000  1.0 -0.2190207621
C  C322  1  0.23260000  0.85390000  0.13190000  1.0 -0.2190207621
C  C323  1  0.72200000  0.10070000  0.86810000  1.0 -0.213576951
C  C324  1  0.35070000  0.98260000  0.87870000  1.0 -0.2190207621
C  C325  1  0.14610000  0.27800000  0.37870000  1.0 -0.2190207621
C  C326  1  0.01740000  0.89610000  0.36810000  1.0 -0.2190207621
C  C327  1  0.52800000  0.64930000  0.63190000  1.0 -0.2190207621
C  C328  1  0.89930000  0.76740000  0.62130000  1.0 -0.213576951
C  C329  1  0.08020000  0.46720000  0.15740000  1.0 0.1581242936
C  C330  1  0.17280000  0.83020000  0.11300000  1.0 0.1581242936
C  C331  1  0.71720000  0.05980000  0.88700000  1.0 0.1581242936
C  C332  1  0.30980000  0.92280000  0.84260000  1.0 0.1581242936
C  C333  1  0.16980000  0.28280000  0.34260000  1.0 0.1581242936
C  C334  1  0.07720000  0.91980000  0.38700000  1.0 0.1581242936
C  C335  1  0.53280000  0.69020000  0.61300000  1.0 0.1581242936
C  C336  1  0.94020000  0.82720000  0.65740000  1.0 0.1581242936
C  C337  1  0.13640000  0.50720000  0.20320000  1.0 -0.2190207621
C  C338  1  0.18320000  0.88640000  0.12920000  1.0 -0.2190207621
C  C339  1  0.75720000  0.05400000  0.87080000  1.0 -0.2190207621
C  C340  1  0.30400000  0.93320000  0.79680000  1.0 -0.2190207621
C  C341  1  0.11360000  0.24280000  0.29680000  1.0 -0.2190207621
C  C342  1  0.06680000  0.86360000  0.37080000  1.0 -0.2190207621
C  C343  1  0.49280000  0.69600000  0.62920000  1.0 -0.2190207621
C  C344  1  0.94600000  0.81680000  0.70320000  1.0 -0.2190207621
C  C345  1  0.20260000  0.53380000  0.20380000  1.0 0.0786913718
C  C346  1  0.24880000  0.95260000  0.16880000  1.0 0.0786913718
C  C347  1  0.78380000  0.08000000  0.83120000  1.0 0.0786913718
C  C348  1  0.33000000  0.99880000  0.79620000  1.0 0.0786913718
C  C349  1  0.04740000  0.21620000  0.29620000  1.0 0.0786913718
C  C350  1  0.00120000  0.79740000  0.33120000  1.0 0.0786913718
C  C351  1  0.46620000  0.67000000  0.66880000  1.0 0.0786913718
C  C352  1  0.92000000  0.75120000  0.70380000  1.0 0.0786913718
C  C353  1  0.00230000  0.43070000  0.15080000  1.0 -0.2277526507
C  C354  1  0.10150000  0.75230000  0.07160000  1.0 -0.2277526507
C  C355  1  0.68070000  0.02990000  0.92840000  1.0 -0.2277526507
C  C356  1  0.27990000  0.85150000  0.84920000  1.0 -0.2277526507
C  C357  1  0.24770000  0.31930000  0.34920000  1.0 -0.2277526507
C  C358  1  0.14850000  0.99770000  0.42840000  1.0 -0.2277526507
C  C359  1  0.56930000  0.72010000  0.57160000  1.0 -0.2277526507
C  C360  1  0.97010000  0.89850000  0.65080000  1.0 -0.2277526507
C  C361  1  0.80770000  0.57890000  0.06500000  1.0 0.1771765693
C  C362  1  0.99270000  0.55770000  0.72880000  1.0 0.1771765693
C  C363  1  0.82890000  0.26390000  0.27120000  1.0 0.1771765693
C  C364  1  0.51390000  0.74270000  0.93500000  1.0 0.1771765693
C  C365  1  0.44230000  0.17110000  0.43500000  1.0 0.1771765693
C  C366  1  0.25730000  0.19230000  0.77120000  1.0 0.1771765693
C  C367  1  0.42110000  0.48610000  0.22880000  1.0 0.1771765693
C  C368  1  0.73610000  0.00730000  0.56500000  1.0 0.1771765693
N  N1  1  0.65919000  0.30869000  0.13548000  1.0 -0.3316068158
N  N2  1  0.77371000  0.40919000  0.85050000  1.0 -0.3316068158
N  N3  1  0.55869000  0.92321000  0.14950000  1.0 -0.3316068158
N  N4  1  0.17321000  0.52371000  0.86452000  1.0 -0.3316068158
N  N5  1  0.59081000  0.44131000  0.36452000  1.0 -0.3316068158
N  N6  1  0.47629000  0.34081000  0.64950000  1.0 -0.3316068158
N  N7  1  0.69131000  0.82679000  0.35050000  1.0 -0.3316068158
N  N8  1  0.07679000  0.22629000  0.63548000  1.0 -0.3316068158
N  N9  1  0.70178000  0.37930000  0.16768000  1.0 -0.3195158795
N  N10  1  0.78410000  0.45178000  0.82248000  1.0 -0.3195158795
N  N11  1  0.62930000  0.96162000  0.17752000  1.0 -0.3195158795
N  N12  1  0.21162000  0.53410000  0.83232000  1.0 -0.3195158795
N  N13  1  0.54822000  0.37070000  0.33232000  1.0 -0.3195158795
N  N14  1  0.46590000  0.29822000  0.67752000  1.0 -0.3195158795
N  N15  1  0.62070000  0.78838000  0.32248000  1.0 -0.3195158795
N  N16  1  0.03838000  0.21590000  0.66768000  1.0 -0.3195158795
N  N17  1  0.74160000  0.28917000  0.16677000  1.0 -0.2190207621
N  N18  1  0.82483000  0.49160000  0.95243000  1.0 -0.2190207621
N  N19  1  0.53917000  0.87240000  0.04757000  1.0 -0.2190207621
N  N20  1  0.12240000  0.57483000  0.83323000  1.0 -0.2190207621
N  N21  1  0.50840000  0.46083000  0.33323000  1.0 -0.2190207621
N  N22  1  0.42517000  0.25840000  0.54757000  1.0 -0.2190207621
N  N23  1  0.71083000  0.87760000  0.45243000  1.0 -0.2190207621
N  N24  1  0.12760000  0.17517000  0.66677000  1.0 -0.2190207621
N  N25  1  0.80508000  0.55982000  0.17750000  1.0 -0.3616367386
N  N26  1  0.87758000  0.55508000  0.74526000  1.0 -0.3616367386
N  N27  1  0.80982000  0.13232000  0.25474000  1.0 -0.3616367386
N  N28  1  0.38232000  0.62758000  0.82250000  1.0 -0.3616367386
N  N29  1  0.44492000  0.19018000  0.32250000  1.0 -0.3616367386
N  N30  1  0.37242000  0.19492000  0.75474000  1.0 -0.3616367386
N  N31  1  0.44018000  0.61768000  0.24526000  1.0 -0.3616367386
N  N32  1  0.86768000  0.12242000  0.67750000  1.0 -0.3616367386
N  N33  1  0.75488000  0.55305000  0.18933000  1.0 -0.3316068158
N  N34  1  0.81555000  0.50488000  0.70183000  1.0 -0.3316068158
N  N35  1  0.80305000  0.11372000  0.29817000  1.0 -0.3316068158
N  N36  1  0.36372000  0.56555000  0.81067000  1.0 -0.3316068158
N  N37  1  0.49512000  0.19695000  0.31067000  1.0 -0.3316068158
N  N38  1  0.43445000  0.24512000  0.79817000  1.0 -0.3316068158
N  N39  1  0.44695000  0.63628000  0.20183000  1.0 -0.3316068158
N  N40  1  0.88628000  0.18445000  0.68933000  1.0 -0.3316068158
N  N41  1  0.69678000  0.50990000  0.00948000  1.0 0.0786913718
N  N42  1  0.93730000  0.44678000  0.68688000  1.0 0.0786913718
N  N43  1  0.75990000  0.25042000  0.31312000  1.0 0.0786913718
N  N44  1  0.50042000  0.68730000  0.99052000  1.0 0.0786913718
N  N45  1  0.55322000  0.24010000  0.49052000  1.0 0.0786913718
N  N46  1  0.31270000  0.30322000  0.81312000  1.0 0.0786913718
N  N47  1  0.49010000  0.49958000  0.18688000  1.0 0.0786913718
N  N48  1  0.74958000  0.06270000  0.50948000  1.0 0.0786913718
N  N49  1  0.49555000  0.12690000  0.21605000  1.0 -0.3316068158
N  N50  1  0.52950000  0.24555000  0.86865000  1.0 -0.3316068158
N  N51  1  0.37690000  0.66085000  0.13135000  1.0 -0.3316068158
N  N52  1  0.91085000  0.27950000  0.78395000  1.0 -0.3316068158
N  N53  1  0.75445000  0.62310000  0.28395000  1.0 -0.3316068158
N  N54  1  0.72050000  0.50445000  0.63135000  1.0 -0.3316068158
N  N55  1  0.87310000  0.08915000  0.36865000  1.0 -0.3316068158
N  N56  1  0.33915000  0.47050000  0.71605000  1.0 -0.3316068158
N  N57  1  0.51013000  0.16457000  0.18170000  1.0 -0.3018200875
N  N58  1  0.57843000  0.26013000  0.84556000  1.0 -0.3018200875
N  N59  1  0.41457000  0.73287000  0.15444000  1.0 -0.3018200875
N  N60  1  0.98287000  0.32843000  0.81830000  1.0 -0.3018200875
N  N61  1  0.73987000  0.58543000  0.31830000  1.0 -0.3018200875
N  N62  1  0.67157000  0.48987000  0.65444000  1.0 -0.3018200875
N  N63  1  0.83543000  0.01713000  0.34556000  1.0 -0.3018200875
N  N64  1  0.26713000  0.42157000  0.68170000  1.0 -0.3018200875
N  N65  1  0.21938000  0.52981000  0.16539000  1.0 -0.2190207621
N  N66  1  0.30399000  0.96938000  0.18957000  1.0 -0.2190207621
N  N67  1  0.77981000  0.11442000  0.81043000  1.0 -0.2190207621
N  N68  1  0.36442000  0.05399000  0.83461000  1.0 -0.2190207621
N  N69  1  0.03062000  0.22019000  0.33461000  1.0 -0.2190207621
N  N70  1  0.94601000  0.78062000  0.31043000  1.0 -0.2190207621
N  N71  1  0.47019000  0.63558000  0.68957000  1.0 -0.2190207621
N  N72  1  0.88558000  0.69601000  0.66539000  1.0 -0.2190207621
N  N73  1  0.80900000  0.59320000  0.02180000  1.0 -0.0980398176
N  N74  1  0.03720000  0.55900000  0.71580000  1.0 -0.0980398176
N  N75  1  0.84320000  0.32140000  0.28420000  1.0 -0.0916620627
N  N76  1  0.57140000  0.78720000  0.97820000  1.0 -0.0980398176
N  N77  1  0.44100000  0.15680000  0.47820000  1.0 -0.0980398176
N  N78  1  0.21280000  0.19100000  0.78420000  1.0 -0.0980398176
N  N79  1  0.40680000  0.42860000  0.21580000  1.0 -0.0980398176
N  N80  1  0.67860000  0.96280000  0.52180000  1.0 -0.0980398176
O  O1  1  0.56778000  0.15645000  0.10583000  1.0 -0.4706896053
O  O2  1  0.71195000  0.31778000  0.91133000  1.0 -0.4706896053
O  O3  1  0.40645000  0.80062000  0.08867000  1.0 -0.4706896053
O  O4  1  0.05062000  0.46195000  0.89417000  1.0 -0.4706896053
O  O5  1  0.68222000  0.59355000  0.39417000  1.0 -0.4706896053
O  O6  1  0.53805000  0.43222000  0.58867000  1.0 -0.4706896053
O  O7  1  0.84355000  0.94938000  0.41133000  1.0 -0.4706896053
O  O8  1  0.19938000  0.28805000  0.60583000  1.0 -0.4706896053
O  O9  1  0.68088000  0.36813000  0.07961000  1.0 -0.4872931656
O  O10  1  0.85127000  0.43088000  0.81275000  1.0 -0.4872931656
O  O11  1  0.61813000  0.03852000  0.18725000  1.0 -0.4872931656
O  O12  1  0.28852000  0.60127000  0.92039000  1.0 -0.4872931656
O  O13  1  0.56912000  0.38187000  0.42039000  1.0 -0.4872931656
O  O14  1  0.39873000  0.31912000  0.68725000  1.0 -0.4872931656
O  O15  1  0.63187000  0.71148000  0.31275000  1.0 -0.4872931656
O  O16  1  0.96148000  0.14873000  0.57961000  1.0 -0.4872931656
O  O17  1  0.68478000  0.31685000  0.21963000  1.0 -0.4872931656
O  O18  1  0.71515000  0.43478000  0.86793000  1.0 -0.4872931656
O  O19  1  0.56685000  0.84722000  0.13207000  1.0 -0.4872931656
O  O20  1  0.09722000  0.46515000  0.78037000  1.0 -0.4872931656
O  O21  1  0.56522000  0.43315000  0.28037000  1.0 -0.4872931656
O  O22  1  0.53485000  0.31522000  0.63207000  1.0 -0.4872931656
O  O23  1  0.68315000  0.90278000  0.36793000  1.0 -0.4872931656
O  O24  1  0.15278000  0.28485000  0.71963000  1.0 -0.4872931656
O  O25  1  0.84320000  0.51617000  0.13177000  1.0 -0.5204987966
O  O26  1  0.96143000  0.59320000  0.82703000  1.0 -0.5204987966
O  O27  1  0.76617000  0.13440000  0.17297000  1.0 -0.5204987966
O  O28  1  0.38440000  0.71143000  0.86823000  1.0 -0.5204987966
O  O29  1  0.40680000  0.23383000  0.36823000  1.0 -0.5204987966
O  O30  1  0.28857000  0.15680000  0.67297000  1.0 -0.5204987966
O  O31  1  0.48383000  0.61560000  0.32703000  1.0 -0.5204987966
O  O32  1  0.86560000  0.03857000  0.63177000  1.0 -0.5204987966
O  O33  1  0.91216000  0.68979000  0.22801000  1.0 -0.4770493176
O  O34  1  0.93415000  0.66216000  0.72237000  1.0 -0.4770493176
O  O35  1  0.93979000  0.21178000  0.27763000  1.0 -0.4770493176
O  O36  1  0.46178000  0.68415000  0.77199000  1.0 -0.4770493176
O  O37  1  0.33784000  0.06021000  0.27199000  1.0 -0.4770493176
O  O38  1  0.31585000  0.08784000  0.77763000  1.0 -0.4770493176
O  O39  1  0.31021000  0.53822000  0.22237000  1.0 -0.4770493176
O  O40  1  0.78822000  0.06585000  0.72801000  1.0 -0.4770493176
O  O41  1  0.65492000  0.42980000  0.13296000  1.0 -0.5069346719
O  O42  1  0.77196000  0.40492000  0.72512000  1.0 -0.5069346719
O  O43  1  0.67980000  0.04684000  0.27488000  1.0 -0.5069346719
O  O44  1  0.29684000  0.52196000  0.86704000  1.0 -0.5069346719
O  O45  1  0.59508000  0.32020000  0.36704000  1.0 -0.5069346719
O  O46  1  0.47804000  0.34508000  0.77488000  1.0 -0.5069346719
O  O47  1  0.57020000  0.70316000  0.22512000  1.0 -0.5069346719
O  O48  1  0.95316000  0.22804000  0.63296000  1.0 -0.5069346719
O  O49  1  0.75448000  0.51145000  0.06833000  1.0 -0.1113843241
O  O50  1  0.93615000  0.50448000  0.74303000  1.0 -0.1113843241
O  O51  1  0.76145000  0.19312000  0.25697000  1.0 -0.1113843241
O  O52  1  0.44312000  0.68615000  0.93167000  1.0 -0.1113843241
O  O53  1  0.49552000  0.23855000  0.43167000  1.0 -0.1113843241
O  O54  1  0.31385000  0.24552000  0.75697000  1.0 -0.1113843241
O  O55  1  0.48855000  0.55688000  0.24303000  1.0 -0.1113843241
O  O56  1  0.80688000  0.06385000  0.56833000  1.0 -0.1113843241
O  O57  1  0.42039000  0.04246000  0.28025000  1.0 -0.4706896053
O  O58  1  0.39014000  0.17039000  0.87793000  1.0 -0.4706896053
O  O59  1  0.29246000  0.51221000  0.12207000  1.0 -0.4706896053
O  O60  1  0.76221000  0.14014000  0.71975000  1.0 -0.4706896053
O  O61  1  0.82961000  0.70754000  0.21975000  1.0 -0.4706896053
O  O62  1  0.85986000  0.57961000  0.62207000  1.0 -0.4706896053
O  O63  1  0.95754000  0.23779000  0.37793000  1.0 -0.4706896053
O  O64  1  0.48779000  0.60986000  0.78025000  1.0 -0.4706896053
O  O65  1  0.58954000  0.15662000  0.20004000  1.0 -0.4770493176
O  O66  1  0.63950000  0.33954000  0.93292000  1.0 -0.4770493176
O  O67  1  0.40662000  0.70658000  0.06708000  1.0 -0.4770493176
O  O68  1  0.95658000  0.38950000  0.79996000  1.0 -0.4770493176
O  O69  1  0.66046000  0.59338000  0.29996000  1.0 -0.4770493176
O  O70  1  0.61050000  0.41046000  0.56708000  1.0 -0.4770493176
O  O71  1  0.84338000  0.04342000  0.43292000  1.0 -0.4770493176
O  O72  1  0.29342000  0.36050000  0.70004000  1.0 -0.4770493176
O  O73  1  0.42545000  0.14298000  0.20763000  1.0 -0.4872931656
O  O74  1  0.46782000  0.17545000  0.78247000  1.0 -0.4872931656
O  O75  1  0.39298000  0.68535000  0.21753000  1.0 -0.4872931656
O  O76  1  0.93535000  0.21782000  0.79237000  1.0 -0.4770493176
O  O77  1  0.82455000  0.60702000  0.29237000  1.0 -0.4872931656
O  O78  1  0.78218000  0.57455000  0.71753000  1.0 -0.4872931656
O  O79  1  0.85702000  0.06465000  0.28247000  1.0 -0.4872931656
O  O80  1  0.31465000  0.53218000  0.70763000  1.0 -0.4872931656
