# DDEC6 charges by PACMAN v1.1 (https://github.com/mtap-research/PACMAN-charge/)
data_XALBOC_FSR_pacman
_symmetry_space_group_name_H-M   'P 1'
_cell_length_a   29.98780000
_cell_length_b   29.98780000
_cell_length_c   29.98780000
_cell_angle_alpha   94.94320000
_cell_angle_beta   94.94320000
_cell_angle_gamma   145.85900000
_symmetry_Int_Tables_number   1
_chemical_formula_structural   Mn3H46C45N9O10
_chemical_formula_sum   'Mn24 H368 C360 N72 O80'
_cell_volume   14468.03330540
_cell_formula_units_Z   8
loop_
 _symmetry_equiv_pos_site_id
 _symmetry_equiv_pos_as_xyz
  1  'x, y, z'
loop_
 _atom_site_type_symbol
 _atom_site_label
 _atom_site_symmetry_multiplicity
 _atom_site_fract_x
 _atom_site_fract_y
 _atom_site_fract_z
 _atom_site_occupancy
 _atom_site_charge
Mn  Mn1  1  0.52777000  0.65856000  0.27957000  1.0 0.9293472511
Mn  Mn2  1  0.49820000  0.27777000  0.36921000  1.0 0.9293472511
Mn  Mn3  1  0.90856000  0.12899000  0.63079000  1.0 0.9293472511
Mn  Mn4  1  0.37899000  0.24820000  0.72043000  1.0 0.9293472511
Mn  Mn5  1  0.72223000  0.09144000  0.22043000  1.0 0.9293472511
Mn  Mn6  1  0.75180000  0.47223000  0.13079000  1.0 0.9293472511
Mn  Mn7  1  0.34144000  0.62101000  0.86921000  1.0 0.9293472511
Mn  Mn8  1  0.87101000  0.50180000  0.77957000  1.0 0.9293472511
Mn  Mn9  1  0.33655000  0.59025000  0.17174000  1.0 0.9057451082
Mn  Mn10  1  0.41481000  0.08655000  0.24630000  1.0 0.9057451082
Mn  Mn11  1  0.84025000  0.16851000  0.75370000  1.0 0.9033551259
Mn  Mn12  1  0.41851000  0.16481000  0.82826000  1.0 0.9033551259
Mn  Mn13  1  0.91345000  0.15975000  0.32826000  1.0 0.9057451082
Mn  Mn14  1  0.83519000  0.66345000  0.25370000  1.0 0.9057451082
Mn  Mn15  1  0.40975000  0.58149000  0.74630000  1.0 0.9033551259
Mn  Mn16  1  0.83149000  0.58519000  0.67174000  1.0 0.9033551259
Mn  Mn17  1  0.76637000  0.93257000  0.39222000  1.0 0.8790712442
Mn  Mn18  1  0.62415000  0.51637000  0.33380000  1.0 0.8790712442
Mn  Mn19  1  0.18257000  0.29035000  0.66620000  1.0 0.8790712442
Mn  Mn20  1  0.54035000  0.37415000  0.60778000  1.0 0.8790712442
Mn  Mn21  1  0.48363000  0.81743000  0.10778000  1.0 0.8790712442
Mn  Mn22  1  0.62585000  0.23363000  0.16620000  1.0 0.8790712442
Mn  Mn23  1  0.06743000  0.45965000  0.83380000  1.0 0.8790712442
Mn  Mn24  1  0.70965000  0.37585000  0.89222000  1.0 0.8719134671
H  H1  1  0.42890000  0.57260000  0.39770000  1.0 0.1303122673
H  H2  1  0.28120000  0.17890000  0.35630000  1.0 0.1303122673
H  H3  1  0.82260000  0.92490000  0.64370000  1.0 0.1303122673
H  H4  1  0.17490000  0.03120000  0.60230000  1.0 0.1303122673
H  H5  1  0.82110000  0.17740000  0.10230000  1.0 0.1303122673
H  H6  1  0.96880000  0.57110000  0.14370000  1.0 0.1303122673
H  H7  1  0.42740000  0.82510000  0.85630000  1.0 0.1303122673
H  H8  1  0.07510000  0.71880000  0.89770000  1.0 0.1303122673
H  H9  1  0.30530000  0.49000000  0.40830000  1.0 0.1095793985
H  H10  1  0.14700000  0.05530000  0.31530000  1.0 0.1095793985
H  H11  1  0.74000000  0.83170000  0.68470000  1.0 0.1095793985
H  H12  1  0.08170000  0.89700000  0.59170000  1.0 0.1095793985
H  H13  1  0.94470000  0.26000000  0.09170000  1.0 0.1095793985
H  H14  1  0.10300000  0.69470000  0.18470000  1.0 0.1095793985
H  H15  1  0.51000000  0.91830000  0.81530000  1.0 0.1095793985
H  H16  1  0.16830000  0.85300000  0.90830000  1.0 0.1095793985
H  H17  1  0.19330000  0.41770000  0.34360000  1.0 0.1187482678
H  H18  1  0.09970000  0.94330000  0.27560000  1.0 0.1187482678
H  H19  1  0.66770000  0.82410000  0.72440000  1.0 0.1187482678
H  H20  1  0.07410000  0.84970000  0.65640000  1.0 0.1187482678
H  H21  1  0.05670000  0.33230000  0.15640000  1.0 0.1187482678
H  H22  1  0.15030000  0.80670000  0.22440000  1.0 0.1187482678
H  H23  1  0.58230000  0.92590000  0.77560000  1.0 0.1187482678
H  H24  1  0.17590000  0.90030000  0.84360000  1.0 0.1187482678
H  H25  1  0.23200000  0.46950000  0.27650000  1.0 0.1187482678
H  H26  1  0.20550000  0.98200000  0.26250000  1.0 0.1187482678
H  H27  1  0.71950000  0.94300000  0.73750000  1.0 0.1187482678
H  H28  1  0.19300000  0.95550000  0.72350000  1.0 0.1187482678
H  H29  1  0.01800000  0.28050000  0.22350000  1.0 0.1187482678
H  H30  1  0.04450000  0.76800000  0.23750000  1.0 0.1187482678
H  H31  1  0.53050000  0.80700000  0.76250000  1.0 0.1187482678
H  H32  1  0.05700000  0.79450000  0.77650000  1.0 0.1187482678
H  H33  1  0.48500000  0.65850000  0.12490000  1.0 0.1187482678
H  H34  1  0.61010000  0.23500000  0.32650000  1.0 0.1187482678
H  H35  1  0.90850000  0.28360000  0.67350000  1.0 0.1187482678
H  H36  1  0.53360000  0.36010000  0.87510000  1.0 0.1187482678
H  H37  1  0.76500000  0.09150000  0.37510000  1.0 0.1187482678
H  H38  1  0.63990000  0.51500000  0.17350000  1.0 0.1187482678
H  H39  1  0.34150000  0.46640000  0.82650000  1.0 0.1187482678
H  H40  1  0.71640000  0.38990000  0.62490000  1.0 0.1187482678
H  H41  1  0.54470000  0.74790000  0.15440000  1.0 0.1303122673
H  H42  1  0.64030000  0.29470000  0.29680000  1.0 0.1303122673
H  H43  1  0.99790000  0.34350000  0.70320000  1.0 0.1303122673
H  H44  1  0.59350000  0.39030000  0.84560000  1.0 0.1303122673
H  H45  1  0.70530000  0.00210000  0.34560000  1.0 0.1303122673
H  H46  1  0.60970000  0.45530000  0.20320000  1.0 0.1303122673
H  H47  1  0.25210000  0.40650000  0.79680000  1.0 0.1303122673
H  H48  1  0.65650000  0.35970000  0.65440000  1.0 0.1303122673
H  H49  1  0.59890000  0.70440000  0.14230000  1.0 0.1187482678
H  H50  1  0.70660000  0.34890000  0.39450000  1.0 0.1187482678
H  H51  1  0.95440000  0.31210000  0.60550000  1.0 0.1187482678
H  H52  1  0.56210000  0.45660000  0.85770000  1.0 0.1187482678
H  H53  1  0.65110000  0.04560000  0.35770000  1.0 0.1187482678
H  H54  1  0.54340000  0.40110000  0.10550000  1.0 0.1187482678
H  H55  1  0.29560000  0.43790000  0.89450000  1.0 0.1187482678
H  H56  1  0.68790000  0.29340000  0.64230000  1.0 0.1187482678
H  H57  1  0.61130000  0.75400000  0.11190000  1.0 0.1095793985
H  H58  1  0.74940000  0.36130000  0.35730000  1.0 0.1095793985
H  H59  1  0.00400000  0.39210000  0.64270000  1.0 0.1095793985
H  H60  1  0.64210000  0.49940000  0.88810000  1.0 0.1095793985
H  H61  1  0.63870000  0.99600000  0.38810000  1.0 0.1095793985
H  H62  1  0.50060000  0.38870000  0.14270000  1.0 0.1095793985
H  H63  1  0.24600000  0.35790000  0.85730000  1.0 0.1095793985
H  H64  1  0.60790000  0.25060000  0.61190000  1.0 0.1095793985
H  H65  1  0.65710000  0.79520000  0.16670000  1.0 0.1303122673
H  H66  1  0.74040000  0.40710000  0.36190000  1.0 0.1303122673
H  H67  1  0.04520000  0.37850000  0.63810000  1.0 0.1303122673
H  H68  1  0.62850000  0.49040000  0.83330000  1.0 0.1303122673
H  H69  1  0.59290000  0.95480000  0.33333333  1.0 0.1303122673
H  H70  1  0.50960000  0.34290000  0.13810000  1.0 0.1303122673
H  H71  1  0.20480000  0.37150000  0.86190000  1.0 0.1303122673
H  H72  1  0.62150000  0.25960000  0.66666667  1.0 0.1303122673
H  H73  1  0.45440000  0.53470000  0.19430000  1.0 0.1603588747
H  H74  1  0.51010000  0.20440000  0.41970000  1.0 0.1603588747
H  H75  1  0.78470000  0.09040000  0.58030000  1.0 0.1603588747
H  H76  1  0.34040000  0.26010000  0.80570000  1.0 0.1603588747
H  H77  1  0.79560000  0.21530000  0.30570000  1.0 0.1603588747
H  H78  1  0.73990000  0.54560000  0.08030000  1.0 0.1603588747
H  H79  1  0.46530000  0.65960000  0.91970000  1.0 0.1603588747
H  H80  1  0.90960000  0.48990000  0.69430000  1.0 0.1603588747
H  H81  1  0.42240000  0.41860000  0.23040000  1.0 0.1303122673
H  H82  1  0.44200000  0.17240000  0.50380000  1.0 0.1303122673
H  H83  1  0.66860000  0.93820000  0.49620000  1.0 0.1303122673
H  H84  1  0.18820000  0.19200000  0.76960000  1.0 0.1303122673
H  H85  1  0.82760000  0.33140000  0.26960000  1.0 0.1303122673
H  H86  1  0.80800000  0.57760000  0.99620000  1.0 0.1303122673
H  H87  1  0.58140000  0.81180000  0.00380000  1.0 0.1303122673
H  H88  1  0.06180000  0.55800000  0.73040000  1.0 0.1303122673
H  H89  1  0.43850000  0.40090000  0.18780000  1.0 0.1303122673
H  H90  1  0.50070000  0.18850000  0.53760000  1.0 0.1303122673
H  H91  1  0.65090000  0.96310000  0.46240000  1.0 0.1303122673
H  H92  1  0.21310000  0.25070000  0.81220000  1.0 0.1303122673
H  H93  1  0.81150000  0.34910000  0.31220000  1.0 0.1303122673
H  H94  1  0.74930000  0.56150000  0.96240000  1.0 0.1303122673
H  H95  1  0.59910000  0.78690000  0.03760000  1.0 0.1303122673
H  H96  1  0.03690000  0.49930000  0.68780000  1.0 0.1303122673
H  H97  1  0.51430000  0.47930000  0.23220000  1.0 0.139591991
H  H98  1  0.53210000  0.26430000  0.53500000  1.0 0.139591991
H  H99  1  0.72930000  0.99710000  0.46500000  1.0 0.139591991
H  H100  1  0.24710000  0.28210000  0.76780000  1.0 0.139591991
H  H101  1  0.73570000  0.27070000  0.26780000  1.0 0.139591991
H  H102  1  0.71790000  0.48570000  0.96500000  1.0 0.139591991
H  H103  1  0.52070000  0.75290000  0.03500000  1.0 0.139591991
H  H104  1  0.00290000  0.46790000  0.73220000  1.0 0.139591991
H  H105  1  0.53370000  0.54040000  0.14190000  1.0 0.1490931041
H  H106  1  0.64180000  0.28370000  0.49330000  1.0 0.1490931041
H  H107  1  0.79040000  0.14850000  0.50670000  1.0 0.1490931041
H  H108  1  0.39850000  0.39180000  0.85810000  1.0 0.1490931041
H  H109  1  0.71630000  0.20960000  0.35810000  1.0 0.1490931041
H  H110  1  0.60820000  0.46630000  0.00670000  1.0 0.1490931041
H  H111  1  0.45960000  0.60150000  0.99330000  1.0 0.1490931041
H  H112  1  0.85150000  0.35820000  0.64190000  1.0 0.1490931041
H  H113  1  0.52700000  0.48450000  0.15450000  1.0 0.139591991
H  H114  1  0.62250000  0.27700000  0.54250000  1.0 0.139591991
H  H115  1  0.73450000  0.08000000  0.45750000  1.0 0.139591991
H  H116  1  0.33000000  0.37250000  0.84550000  1.0 0.139591991
H  H117  1  0.72300000  0.26550000  0.34550000  1.0 0.139591991
H  H118  1  0.62750000  0.47300000  0.95750000  1.0 0.139591991
H  H119  1  0.51550000  0.67000000  0.04250000  1.0 0.139591991
H  H120  1  0.92000000  0.37750000  0.65450000  1.0 0.139591991
H  H121  1  0.44790000  0.44180000  0.12250000  1.0 0.1490931041
H  H122  1  0.57540000  0.19790000  0.50610000  1.0 0.1490931041
H  H123  1  0.69180000  0.06930000  0.49390000  1.0 0.1490931041
H  H124  1  0.31930000  0.32540000  0.87750000  1.0 0.1490931041
H  H125  1  0.80210000  0.30820000  0.37750000  1.0 0.1490931041
H  H126  1  0.67460000  0.55210000  0.99390000  1.0 0.1490931041
H  H127  1  0.55820000  0.68070000  0.00610000  1.0 0.1490931041
H  H128  1  0.93070000  0.42460000  0.62250000  1.0 0.1490931041
H  H129  1  0.21020000  0.38820000  0.05700000  1.0 0.1303122673
H  H130  1  0.40320000  0.96020000  0.32200000  1.0 0.1303122673
H  H131  1  0.63820000  0.08120000  0.67800000  1.0 0.1303122673
H  H132  1  0.33120000  0.15320000  0.94300000  1.0 0.1303122673
H  H133  1  0.03980000  0.36180000  0.44300000  1.0 0.1303122673
H  H134  1  0.84680000  0.78980000  0.17800000  1.0 0.1303122673
H  H135  1  0.61180000  0.66880000  0.82200000  1.0 0.1303122673
H  H136  1  0.91880000  0.59680000  0.55700000  1.0 0.1303122673
H  H137  1  0.20160000  0.37680000  0.97880000  1.0 0.1095793985
H  H138  1  0.47280000  0.95160000  0.32480000  1.0 0.1095793985
H  H139  1  0.62680000  0.14800000  0.67520000  1.0 0.1095793985
H  H140  1  0.39800000  0.22280000  0.02120000  1.0 0.1095793985
H  H141  1  0.04840000  0.37320000  0.52120000  1.0 0.1095793985
H  H142  1  0.77720000  0.79840000  0.17520000  1.0 0.1095793985
H  H143  1  0.62320000  0.60200000  0.82480000  1.0 0.1095793985
H  H144  1  0.85200000  0.52720000  0.47880000  1.0 0.1095793985
H  H145  1  0.26830000  0.48490000  0.94860000  1.0 0.1303122673
H  H146  1  0.56970000  0.01830000  0.28340000  1.0 0.1303122673
H  H147  1  0.73490000  0.28630000  0.71660000  1.0 0.1303122673
H  H148  1  0.53630000  0.31970000  0.05140000  1.0 0.1303122673
H  H149  1  0.98170000  0.26510000  0.55140000  1.0 0.1303122673
H  H150  1  0.68030000  0.73170000  0.21660000  1.0 0.1303122673
H  H151  1  0.51510000  0.46370000  0.78340000  1.0 0.1303122673
H  H152  1  0.71370000  0.43030000  0.44860000  1.0 0.1303122673
H  H153  1  0.34450000  0.60610000  0.99780000  1.0 0.1187482678
H  H154  1  0.59670000  0.09450000  0.23840000  1.0 0.1187482678
H  H155  1  0.85610000  0.35830000  0.76160000  1.0 0.1187482678
H  H156  1  0.60830000  0.34670000  0.00220000  1.0 0.1187482678
H  H157  1  0.90550000  0.14390000  0.50220000  1.0 0.1187482678
H  H158  1  0.65330000  0.65550000  0.26160000  1.0 0.1187482678
H  H159  1  0.39390000  0.39170000  0.73840000  1.0 0.1187482678
H  H160  1  0.64170000  0.40330000  0.49780000  1.0 0.1187482678
H  H161  1  0.47740000  0.84860000  0.20980000  1.0 0.1303122673
H  H162  1  0.51760000  0.22740000  0.12880000  1.0 0.1303122673
H  H163  1  0.09860000  0.38880000  0.87120000  1.0 0.1303122673
H  H164  1  0.63880000  0.26760000  0.79020000  1.0 0.1303122673
H  H165  1  0.77260000  0.90140000  0.29020000  1.0 0.1303122673
H  H166  1  0.73240000  0.52260000  0.37120000  1.0 0.1303122673
H  H167  1  0.15140000  0.36120000  0.62880000  1.0 0.1303122673
H  H168  1  0.61120000  0.48240000  0.70980000  1.0 0.1303122673
H  H169  1  0.50070000  0.84040000  0.25490000  1.0 0.1303122673
H  H170  1  0.49580000  0.25070000  0.16030000  1.0 0.1303122673
H  H171  1  0.09040000  0.33550000  0.83970000  1.0 0.1303122673
H  H172  1  0.58550000  0.24580000  0.74510000  1.0 0.1303122673
H  H173  1  0.74930000  0.90960000  0.24510000  1.0 0.1303122673
H  H174  1  0.75420000  0.49930000  0.33970000  1.0 0.1303122673
H  H175  1  0.15960000  0.41450000  0.66030000  1.0 0.1303122673
H  H176  1  0.66450000  0.50420000  0.75490000  1.0 0.1303122673
H  H177  1  0.40900000  0.79370000  0.27990000  1.0 0.1187482678
H  H178  1  0.37910000  0.15900000  0.11530000  1.0 0.1187482678
H  H179  1  0.04370000  0.26380000  0.88470000  1.0 0.1187482678
H  H180  1  0.51380000  0.12910000  0.72010000  1.0 0.1187482678
H  H181  1  0.84100000  0.95630000  0.22010000  1.0 0.1187482678
H  H182  1  0.87090000  0.59100000  0.38470000  1.0 0.1187482678
H  H183  1  0.20630000  0.48620000  0.61530000  1.0 0.1187482678
H  H184  1  0.73620000  0.62090000  0.77990000  1.0 0.1187482678
H  H185  1  0.40240000  0.82340000  0.24180000  1.0 0.1187482678
H  H186  1  0.41060000  0.15240000  0.07900000  1.0 0.1187482678
H  H187  1  0.07340000  0.33160000  0.92100000  1.0 0.1187482678
H  H188  1  0.58160000  0.16060000  0.75820000  1.0 0.1187482678
H  H189  1  0.84760000  0.92660000  0.25820000  1.0 0.1187482678
H  H190  1  0.83940000  0.59760000  0.42100000  1.0 0.1187482678
H  H191  1  0.17660000  0.41840000  0.57900000  1.0 0.1187482678
H  H192  1  0.66840000  0.58940000  0.74180000  1.0 0.1187482678
H  H193  1  0.34110000  0.72980000  0.23030000  1.0 0.1187482678
H  H194  1  0.36080000  0.09110000  0.11130000  1.0 0.1187482678
H  H195  1  0.97980000  0.24950000  0.88870000  1.0 0.1187482678
H  H196  1  0.49950000  0.11080000  0.76970000  1.0 0.1187482678
H  H197  1  0.90890000  0.02020000  0.26970000  1.0 0.1187482678
H  H198  1  0.88920000  0.65890000  0.38870000  1.0 0.1187482678
H  H199  1  0.27020000  0.50050000  0.61130000  1.0 0.1187482678
H  H200  1  0.75050000  0.63920000  0.73030000  1.0 0.1187482678
H  H201  1  0.23940000  0.55830000  0.23510000  1.0 0.1187482678
H  H202  1  0.25430000  0.98940000  0.18110000  1.0 0.1187482678
H  H203  1  0.80830000  0.07320000  0.81890000  1.0 0.1187482678
H  H204  1  0.32320000  0.00430000  0.76490000  1.0 0.1187482678
H  H205  1  0.01060000  0.19170000  0.26490000  1.0 0.1187482678
H  H206  1  0.99570000  0.76060000  0.31890000  1.0 0.1187482678
H  H207  1  0.44170000  0.67680000  0.68110000  1.0 0.1187482678
H  H208  1  0.92680000  0.74570000  0.73510000  1.0 0.1187482678
H  H209  1  0.12970000  0.51960000  0.23350000  1.0 0.139591991
H  H210  1  0.14620000  0.87970000  0.11010000  1.0 0.139591991
H  H211  1  0.76960000  0.03610000  0.88990000  1.0 0.139591991
H  H212  1  0.28610000  0.89620000  0.76650000  1.0 0.139591991
H  H213  1  0.12030000  0.23040000  0.26650000  1.0 0.139591991
H  H214  1  0.10380000  0.87030000  0.38990000  1.0 0.139591991
H  H215  1  0.48040000  0.71390000  0.61010000  1.0 0.139591991
H  H216  1  0.96390000  0.85380000  0.73350000  1.0 0.139591991
H  H217  1  0.09420000  0.49210000  0.10250000  1.0 0.1303122673
H  H218  1  0.24170000  0.84420000  0.10210000  1.0 0.1303122673
H  H219  1  0.74210000  0.13960000  0.89790000  1.0 0.1303122673
H  H220  1  0.38960000  0.99170000  0.89750000  1.0 0.1303122673
H  H221  1  0.15580000  0.25790000  0.39750000  1.0 0.1303122673
H  H222  1  0.00830000  0.90580000  0.39790000  1.0 0.1303122673
H  H223  1  0.50790000  0.61040000  0.60210000  1.0 0.1303122673
H  H224  1  0.86040000  0.75830000  0.60250000  1.0 0.1303122673
H  H225  1  0.20000000  0.53290000  0.10590000  1.0 0.1095793985
H  H226  1  0.34410000  0.95000000  0.16710000  1.0 0.1095793985
H  H227  1  0.78290000  0.17700000  0.83290000  1.0 0.1095793985
H  H228  1  0.42700000  0.09410000  0.89410000  1.0 0.1095793985
H  H229  1  0.05000000  0.21710000  0.39410000  1.0 0.1095793985
H  H230  1  0.90590000  0.80000000  0.33290000  1.0 0.1095793985
H  H231  1  0.46710000  0.57300000  0.66710000  1.0 0.1095793985
H  H232  1  0.82300000  0.65590000  0.60590000  1.0 0.1095793985
H  H233  1  0.96970000  0.40370000  0.12360000  1.0 0.1303122673
H  H234  1  0.09610000  0.71970000  0.06600000  1.0 0.1303122673
H  H235  1  0.65370000  0.03010000  0.93400000  1.0 0.1303122673
H  H236  1  0.28010000  0.84610000  0.87640000  1.0 0.1303122673
H  H237  1  0.28030000  0.34630000  0.37640000  1.0 0.1303122673
H  H238  1  0.15390000  0.03030000  0.43400000  1.0 0.1303122673
H  H239  1  0.59630000  0.71990000  0.56600000  1.0 0.1303122673
H  H240  1  0.96990000  0.90390000  0.62360000  1.0 0.1303122673
H  H241  1  0.02420000  0.48610000  0.16070000  1.0 0.1187482678
H  H242  1  0.11350000  0.77420000  0.03810000  1.0 0.1187482678
H  H243  1  0.73610000  0.07540000  0.96190000  1.0 0.1187482678
H  H244  1  0.32540000  0.86350000  0.83930000  1.0 0.1187482678
H  H245  1  0.22580000  0.26390000  0.33930000  1.0 0.1187482678
H  H246  1  0.13650000  0.97580000  0.46190000  1.0 0.1187482678
H  H247  1  0.51390000  0.67460000  0.53810000  1.0 0.1187482678
H  H248  1  0.92460000  0.88650000  0.66070000  1.0 0.1187482678
H  H249  1  0.93570000  0.96930000  0.44860000  1.0 0.1303122673
H  H250  1  0.73710000  0.68570000  0.46640000  1.0 0.1303122673
H  H251  1  0.21930000  0.27070000  0.53360000  1.0 0.1303122673
H  H252  1  0.52070000  0.48710000  0.55140000  1.0 0.1303122673
H  H253  1  0.31430000  0.78070000  0.05140000  1.0 0.1303122673
H  H254  1  0.51290000  0.06430000  0.03360000  1.0 0.1303122673
H  H255  1  0.03070000  0.47930000  0.96640000  1.0 0.1303122673
H  H256  1  0.72930000  0.26290000  0.94860000  1.0 0.1303122673
H  H257  1  0.92320000  0.88240000  0.43820000  1.0 0.1017994476
H  H258  1  0.73500000  0.67320000  0.54080000  1.0 0.1017994476
H  H259  1  0.13240000  0.19420000  0.45920000  1.0 0.1017994476
H  H260  1  0.44420000  0.48500000  0.56180000  1.0 0.1017994476
H  H261  1  0.32680000  0.86760000  0.06180000  1.0 0.1017994476
H  H262  1  0.51500000  0.07680000  0.95920000  1.0 0.1017994476
H  H263  1  0.11760000  0.55580000  0.04080000  1.0 0.1017994476
H  H264  1  0.80580000  0.26500000  0.93820000  1.0 0.1017994476
H  H265  1  0.80470000  0.74860000  0.38830000  1.0 0.1187482678
H  H266  1  0.66640000  0.55470000  0.55610000  1.0 0.1187482678
H  H267  1  0.99860000  0.11030000  0.44390000  1.0 0.1187482678
H  H268  1  0.36030000  0.41640000  0.61170000  1.0 0.1187482678
H  H269  1  0.44530000  0.00140000  0.11170000  1.0 0.1187482678
H  H270  1  0.58360000  0.19530000  0.94390000  1.0 0.1187482678
H  H271  1  0.25140000  0.63970000  0.05610000  1.0 0.1187482678
H  H272  1  0.88970000  0.33360000  0.88830000  1.0 0.1187482678
H  H273  1  0.70220000  0.70690000  0.34370000  1.0 0.1187482678
H  H274  1  0.60850000  0.45220000  0.49530000  1.0 0.1187482678
H  H275  1  0.95690000  0.11320000  0.50470000  1.0 0.1187482678
H  H276  1  0.36320000  0.35850000  0.65630000  1.0 0.1187482678
H  H277  1  0.54780000  0.04310000  0.15630000  1.0 0.1187482678
H  H278  1  0.64150000  0.29780000  0.00470000  1.0 0.1187482678
H  H279  1  0.29310000  0.63680000  0.99530000  1.0 0.1187482678
H  H280  1  0.88680000  0.39150000  0.84370000  1.0 0.1187482678
H  H281  1  0.51400000  0.75600000  0.28200000  1.0 0.1303122673
H  H282  1  0.48200000  0.26400000  0.25800000  1.0 0.1303122673
H  H283  1  0.00600000  0.22400000  0.74200000  1.0 0.1303122673
H  H284  1  0.47400000  0.23200000  0.71800000  1.0 0.1303122673
H  H285  1  0.73600000  0.99400000  0.21800000  1.0 0.1303122673
H  H286  1  0.76800000  0.48600000  0.24200000  1.0 0.1303122673
H  H287  1  0.24400000  0.52600000  0.75800000  1.0 0.1303122673
H  H288  1  0.77600000  0.51800000  0.78200000  1.0 0.1303122673
H  H289  1  0.57040000  0.84700000  0.30260000  1.0 0.139591991
H  H290  1  0.51780000  0.32040000  0.22340000  1.0 0.139591991
H  H291  1  0.09700000  0.29440000  0.77660000  1.0 0.139591991
H  H292  1  0.54440000  0.26780000  0.69740000  1.0 0.139591991
H  H293  1  0.67960000  0.90300000  0.19740000  1.0 0.139591991
H  H294  1  0.73220000  0.42960000  0.27660000  1.0 0.139591991
H  H295  1  0.15300000  0.45560000  0.72340000  1.0 0.139591991
H  H296  1  0.70560000  0.48220000  0.80260000  1.0 0.139591991
H  H297  1  0.43790000  0.70700000  0.33650000  1.0 0.1303122673
H  H298  1  0.35140000  0.18790000  0.23090000  1.0 0.1303122673
H  H299  1  0.95700000  0.12050000  0.76910000  1.0 0.1303122673
H  H300  1  0.37050000  0.10140000  0.66350000  1.0 0.1303122673
H  H301  1  0.81210000  0.04300000  0.16350000  1.0 0.1303122673
H  H302  1  0.89860000  0.56210000  0.26910000  1.0 0.1303122673
H  H303  1  0.29300000  0.62950000  0.73090000  1.0 0.1303122673
H  H304  1  0.87950000  0.64860000  0.83650000  1.0 0.1303122673
H  H305  1  0.48710000  0.79470000  0.35300000  1.0 0.1303122673
H  H306  1  0.38410000  0.23710000  0.19240000  1.0 0.1303122673
H  H307  1  0.04470000  0.19170000  0.80760000  1.0 0.1303122673
H  H308  1  0.44170000  0.13410000  0.64700000  1.0 0.1303122673
H  H309  1  0.76290000  0.95530000  0.14700000  1.0 0.1303122673
H  H310  1  0.86590000  0.51290000  0.30760000  1.0 0.1303122673
H  H311  1  0.20530000  0.55830000  0.69240000  1.0 0.1303122673
H  H312  1  0.80830000  0.61590000  0.85300000  1.0 0.1303122673
H  H313  1  0.52110000  0.77930000  0.37880000  1.0 0.1095793985
H  H314  1  0.39230000  0.27110000  0.24180000  1.0 0.1095793985
H  H315  1  0.02930000  0.15050000  0.75820000  1.0 0.1095793985
H  H316  1  0.40050000  0.14230000  0.62120000  1.0 0.1095793985
H  H317  1  0.72890000  0.97070000  0.12120000  1.0 0.1095793985
H  H318  1  0.85770000  0.47890000  0.25820000  1.0 0.1095793985
H  H319  1  0.22070000  0.59950000  0.74180000  1.0 0.1095793985
H  H320  1  0.84950000  0.60770000  0.87880000  1.0 0.1095793985
H  H321  1  0.68690000  0.18520000  0.15490000  1.0 0.1187482678
H  H322  1  0.78200000  0.43690000  0.00170000  1.0 0.1187482678
H  H323  1  0.43520000  0.78030000  0.99830000  1.0 0.1187482678
H  H324  1  0.03030000  0.53200000  0.84510000  1.0 0.1187482678
H  H325  1  0.56310000  0.56480000  0.34510000  1.0 0.1187482678
H  H326  1  0.46800000  0.31310000  0.49830000  1.0 0.1187482678
H  H327  1  0.81480000  0.96970000  0.50170000  1.0 0.1187482678
H  H328  1  0.21970000  0.21800000  0.65490000  1.0 0.1187482678
H  H329  1  0.80290000  0.23950000  0.16120000  1.0 0.139591991
H  H330  1  0.89170000  0.55290000  0.06340000  1.0 0.139591991
H  H331  1  0.48950000  0.82830000  0.93660000  1.0 0.139591991
H  H332  1  0.07830000  0.64170000  0.83880000  1.0 0.139591991
H  H333  1  0.44710000  0.51050000  0.33880000  1.0 0.139591991
H  H334  1  0.35830000  0.19710000  0.43660000  1.0 0.139591991
H  H335  1  0.76050000  0.92170000  0.56340000  1.0 0.139591991
H  H336  1  0.17170000  0.10830000  0.66120000  1.0 0.139591991
H  H337  1  0.93900000  0.46590000  0.19010000  1.0 0.139591991
H  H338  1  0.99890000  0.68900000  0.97310000  1.0 0.139591991
H  H339  1  0.71590000  0.02580000  0.02690000  1.0 0.139591991
H  H340  1  0.27580000  0.74890000  0.80990000  1.0 0.139591991
H  H341  1  0.31100000  0.28410000  0.30990000  1.0 0.139591991
H  H342  1  0.25110000  0.06100000  0.52690000  1.0 0.139591991
H  H343  1  0.53410000  0.72420000  0.47310000  1.0 0.139591991
H  H344  1  0.97420000  0.00110000  0.69010000  1.0 0.139591991
H  H345  1  0.81910000  0.40640000  0.18110000  1.0 0.1095793985
H  H346  1  0.88800000  0.56910000  0.91270000  1.0 0.1095793985
H  H347  1  0.65640000  0.97530000  0.08730000  1.0 0.1095793985
H  H348  1  0.22530000  0.63800000  0.81890000  1.0 0.1095793985
H  H349  1  0.43090000  0.34360000  0.31890000  1.0 0.1095793985
H  H350  1  0.36200000  0.18090000  0.58730000  1.0 0.1095793985
H  H351  1  0.59360000  0.77470000  0.41270000  1.0 0.1095793985
H  H352  1  0.02470000  0.11200000  0.68110000  1.0 0.1095793985
H  H353  1  0.94610000  0.35050000  0.18100000  1.0 0.139591991
H  H354  1  0.01510000  0.69610000  0.09560000  1.0 0.139591991
H  H355  1  0.60050000  0.91950000  0.90440000  1.0 0.139591991
H  H356  1  0.16950000  0.76510000  0.81900000  1.0 0.139591991
H  H357  1  0.30390000  0.39950000  0.31900000  1.0 0.139591991
H  H358  1  0.23490000  0.05390000  0.40440000  1.0 0.139591991
H  H359  1  0.64950000  0.83050000  0.59560000  1.0 0.139591991
H  H360  1  0.08050000  0.98490000  0.68100000  1.0 0.139591991
H  H361  1  0.99760000  0.43230000  0.21710000  1.0 0.1303122673
H  H362  1  0.03050000  0.74760000  0.06530000  1.0 0.1303122673
H  H363  1  0.68230000  0.96520000  0.93470000  1.0 0.1303122673
H  H364  1  0.21520000  0.78050000  0.78290000  1.0 0.1303122673
H  H365  1  0.25240000  0.31770000  0.28290000  1.0 0.1303122673
H  H366  1  0.21950000  0.00240000  0.43470000  1.0 0.1303122673
H  H367  1  0.56770000  0.78480000  0.56530000  1.0 0.1303122673
H  H368  1  0.03480000  0.96950000  0.71710000  1.0 0.1303122673
C  C1  1  0.40827000  0.57120000  0.33127000  1.0 0.3194860561
C  C2  1  0.32700000  0.15827000  0.33707000  1.0 0.3194860561
C  C3  1  0.82120000  0.98993000  0.66293000  1.0 0.3194860561
C  C4  1  0.23993000  0.07700000  0.66873000  1.0 0.3194860561
C  C5  1  0.84173000  0.17880000  0.16873000  1.0 0.3194860561
C  C6  1  0.92300000  0.59173000  0.16293000  1.0 0.3194860561
C  C7  1  0.42880000  0.76007000  0.83707000  1.0 0.3194860561
C  C8  1  0.01007000  0.67300000  0.83127000  1.0 0.3194860561
C  C9  1  0.38835000  0.55021000  0.37256000  1.0 -0.2429314176
C  C10  1  0.26579000  0.13835000  0.33814000  1.0 -0.2429314176
C  C11  1  0.80021000  0.92765000  0.66186000  1.0 -0.2429314176
C  C12  1  0.17765000  0.01579000  0.62744000  1.0 -0.2429314176
C  C13  1  0.86165000  0.19979000  0.12744000  1.0 -0.2429314176
C  C14  1  0.98421000  0.61165000  0.16186000  1.0 -0.2429314176
C  C15  1  0.44979000  0.82235000  0.83814000  1.0 -0.2429314176
C  C16  1  0.07235000  0.73421000  0.87256000  1.0 -0.2429314176
C  C17  1  0.31440000  0.49970000  0.37870000  1.0 -0.0608210514
C  C18  1  0.18570000  0.06440000  0.31470000  1.0 -0.0608210514
C  C19  1  0.74970000  0.87100000  0.68530000  1.0 -0.0608210514
C  C20  1  0.12100000  0.93570000  0.62130000  1.0 -0.0608210514
C  C21  1  0.93560000  0.25030000  0.12130000  1.0 -0.0547615731
C  C22  1  0.06430000  0.68560000  0.18530000  1.0 -0.0608210514
C  C23  1  0.50030000  0.87900000  0.81470000  1.0 -0.0608210514
C  C24  1  0.12900000  0.81430000  0.87870000  1.0 -0.0608210514
C  C25  1  0.24810000  0.45970000  0.34120000  1.0 -0.1589849437
C  C26  1  0.15690000  0.99810000  0.28840000  1.0 -0.1589849437
C  C27  1  0.70970000  0.86850000  0.71160000  1.0 -0.1589849437
C  C28  1  0.11850000  0.90690000  0.65880000  1.0 -0.1589849437
C  C29  1  0.00190000  0.29030000  0.15880000  1.0 -0.1589849437
C  C30  1  0.09310000  0.75190000  0.21160000  1.0 -0.1658635991
C  C31  1  0.54030000  0.88150000  0.78840000  1.0 -0.1589849437
C  C32  1  0.13150000  0.84310000  0.84120000  1.0 -0.1589849437
C  C33  1  0.27053000  0.48740000  0.30033000  1.0 -0.0810547272
C  C34  1  0.22020000  0.02053000  0.28313000  1.0 -0.0810547272
C  C35  1  0.73740000  0.93707000  0.71687000  1.0 -0.0810547272
C  C36  1  0.18707000  0.97020000  0.69967000  1.0 -0.0810547272
C  C37  1  0.97947000  0.26260000  0.19967000  1.0 -0.0810547272
C  C38  1  0.02980000  0.72947000  0.21687000  1.0 -0.0810547272
C  C39  1  0.51260000  0.81293000  0.78313000  1.0 -0.0810547272
C  C40  1  0.06293000  0.77980000  0.80033000  1.0 -0.0810547272
C  C41  1  0.34649000  0.53954000  0.29503000  1.0 -0.1489670921
C  C42  1  0.30146000  0.09649000  0.30695000  1.0 -0.1489670921
C  C43  1  0.78954000  0.99451000  0.69305000  1.0 -0.1489670921
C  C44  1  0.24451000  0.05146000  0.70497000  1.0 -0.1489670921
C  C45  1  0.90351000  0.21046000  0.20497000  1.0 -0.1489670921
C  C46  1  0.94854000  0.65351000  0.19305000  1.0 -0.1489670921
C  C47  1  0.46046000  0.75549000  0.80695000  1.0 -0.1489670921
C  C48  1  0.00549000  0.69854000  0.79503000  1.0 -0.1489670921
C  C49  1  0.36245000  0.56342000  0.25187000  1.0 0.4346796615
C  C50  1  0.36058000  0.11245000  0.29903000  1.0 0.4346796615
C  C51  1  0.81342000  0.06155000  0.70097000  1.0 0.4346796615
C  C52  1  0.31155000  0.11058000  0.74813000  1.0 0.4346796615
C  C53  1  0.88755000  0.18658000  0.24813000  1.0 0.4346796615
C  C54  1  0.88942000  0.63755000  0.20097000  1.0 0.4346796615
C  C55  1  0.43658000  0.68845000  0.79903000  1.0 0.4346796615
C  C56  1  0.93845000  0.63942000  0.75187000  1.0 0.4346796615
C  C57  1  0.51266000  0.67788000  0.19474000  1.0 0.4405307353
C  C58  1  0.56792000  0.26266000  0.33478000  1.0 0.4405307353
C  C59  1  0.92788000  0.23314000  0.66522000  1.0 0.4405307353
C  C60  1  0.48314000  0.31792000  0.80526000  1.0 0.4405307353
C  C61  1  0.73734000  0.07212000  0.30526000  1.0 0.4405307353
C  C62  1  0.68208000  0.48734000  0.16522000  1.0 0.4405307353
C  C63  1  0.32212000  0.51686000  0.83478000  1.0 0.4405307353
C  C64  1  0.76686000  0.43208000  0.69474000  1.0 0.4405307353
C  C65  1  0.53397000  0.70630000  0.15207000  1.0 -0.2584528806
C  C66  1  0.63190000  0.28397000  0.32767000  1.0 -0.2584528806
C  C67  1  0.95630000  0.30423000  0.67233000  1.0 -0.2584528806
C  C68  1  0.55423000  0.38190000  0.84793000  1.0 -0.2584528806
C  C69  1  0.71603000  0.04370000  0.34793000  1.0 -0.2584528806
C  C70  1  0.61810000  0.46603000  0.17233000  1.0 -0.2584528806
C  C71  1  0.29370000  0.44577000  0.82767000  1.0 -0.2584528806
C  C72  1  0.69577000  0.36810000  0.65207000  1.0 -0.2584528806
C  C73  1  0.60650000  0.74312000  0.14242000  1.0 -0.339848779
C  C74  1  0.71408000  0.35650000  0.36338000  1.0 -0.339848779
C  C75  1  0.99312000  0.35070000  0.63662000  1.0 -0.339848779
C  C76  1  0.60070000  0.46408000  0.85758000  1.0 -0.339848779
C  C77  1  0.64350000  0.00688000  0.35758000  1.0 -0.339848779
C  C78  1  0.53592000  0.39350000  0.13662000  1.0 -0.339848779
C  C79  1  0.25688000  0.39930000  0.86338000  1.0 -0.339848779
C  C80  1  0.64930000  0.28592000  0.64242000  1.0 -0.339848779
C  C81  1  0.47180000  0.52900000  0.21780000  1.0 -0.1489670921
C  C82  1  0.50400000  0.22180000  0.44280000  1.0 -0.1489670921
C  C83  1  0.77900000  0.06120000  0.55720000  1.0 -0.1489670921
C  C84  1  0.31120000  0.25400000  0.78220000  1.0 -0.1489670921
C  C85  1  0.77820000  0.22100000  0.28220000  1.0 -0.1489670921
C  C86  1  0.74600000  0.52820000  0.05720000  1.0 -0.1589849437
C  C87  1  0.47100000  0.68880000  0.94280000  1.0 -0.1489670921
C  C88  1  0.93880000  0.49600000  0.71780000  1.0 -0.1489670921
C  C89  1  0.46120000  0.44420000  0.21180000  1.0 -0.2017612727
C  C90  1  0.49940000  0.21120000  0.51700000  1.0 -0.2017612727
C  C91  1  0.69420000  0.98240000  0.48300000  1.0 -0.2017612727
C  C92  1  0.23240000  0.24940000  0.78820000  1.0 -0.2017612727
C  C93  1  0.78880000  0.30580000  0.28820000  1.0 -0.2017612727
C  C94  1  0.75060000  0.53880000  0.98300000  1.0 -0.2017612727
C  C95  1  0.55580000  0.76760000  0.01700000  1.0 -0.2017612727
C  C96  1  0.01760000  0.50060000  0.71180000  1.0 -0.2017612727
C  C97  1  0.49760000  0.48820000  0.14900000  1.0 -0.3996829721
C  C98  1  0.59860000  0.24760000  0.50940000  1.0 -0.3996829721
C  C99  1  0.73820000  0.08920000  0.49060000  1.0 -0.3996829721
C  C100  1  0.33920000  0.34860000  0.85100000  1.0 -0.3996829721
C  C101  1  0.75240000  0.26180000  0.35100000  1.0 -0.3996829721
C  C102  1  0.65140000  0.50240000  0.99060000  1.0 -0.3996829721
C  C103  1  0.51180000  0.66080000  0.00940000  1.0 -0.3996829721
C  C104  1  0.91080000  0.40140000  0.64900000  1.0 -0.3996829721
C  C105  1  0.28484000  0.50640000  0.07644000  1.0 0.301070646
C  C106  1  0.45840000  0.03484000  0.27844000  1.0 0.301070646
C  C107  1  0.75640000  0.17996000  0.72156000  1.0 0.301070646
C  C108  1  0.42996000  0.20840000  0.92356000  1.0 0.301070646
C  C109  1  0.96516000  0.24360000  0.42356000  1.0 0.301070646
C  C110  1  0.79160000  0.71516000  0.22156000  1.0 0.301070646
C  C111  1  0.49360000  0.57004000  0.77844000  1.0 0.301070646
C  C112  1  0.82004000  0.54160000  0.57644000  1.0 0.301070646
C  C113  1  0.23826000  0.43326000  0.04552000  1.0 -0.2170972055
C  C114  1  0.44274000  0.98826000  0.30500000  1.0 -0.2170972055
C  C115  1  0.68326000  0.13774000  0.69500000  1.0 -0.2170972055
C  C116  1  0.38774000  0.19274000  0.95448000  1.0 -0.2170972055
C  C117  1  0.01174000  0.31674000  0.45448000  1.0 -0.2170972055
C  C118  1  0.80726000  0.76174000  0.19500000  1.0 -0.2170972055
C  C119  1  0.56674000  0.61226000  0.80500000  1.0 -0.2170972055
C  C120  1  0.86226000  0.55726000  0.54552000  1.0 -0.2170972055
C  C121  1  0.23311000  0.42665000  0.99916000  1.0 -0.0608210514
C  C122  1  0.48395000  0.98311000  0.30646000  1.0 -0.0608210514
C  C123  1  0.67665000  0.17749000  0.69354000  1.0 -0.0608210514
C  C124  1  0.42749000  0.23395000  0.00084000  1.0 -0.0608210514
C  C125  1  0.01689000  0.32335000  0.50084000  1.0 -0.0608210514
C  C126  1  0.76605000  0.76689000  0.19354000  1.0 -0.0608210514
C  C127  1  0.57335000  0.57251000  0.80646000  1.0 -0.0608210514
C  C128  1  0.82251000  0.51605000  0.49916000  1.0 -0.0608210514
C  C129  1  0.27249000  0.49055000  0.98104000  1.0 -0.1348170894
C  C130  1  0.54145000  0.02249000  0.28194000  1.0 -0.1348170894
C  C131  1  0.74055000  0.25951000  0.71806000  1.0 -0.1348170894
C  C132  1  0.50951000  0.29145000  0.01896000  1.0 -0.1348170894
C  C133  1  0.97751000  0.25945000  0.51896000  1.0 -0.1348170894
C  C134  1  0.70855000  0.72751000  0.21806000  1.0 -0.1348170894
C  C135  1  0.50945000  0.49049000  0.78194000  1.0 -0.1348170894
C  C136  1  0.74049000  0.45855000  0.48104000  1.0 -0.1348170894
C  C137  1  0.31782000  0.56230000  0.01032000  1.0 -0.0810547272
C  C138  1  0.55750000  0.06782000  0.25552000  1.0 -0.0810547272
C  C139  1  0.81230000  0.30198000  0.74448000  1.0 -0.0810547272
C  C140  1  0.55198000  0.30750000  0.98968000  1.0 -0.0810547272
C  C141  1  0.93218000  0.18770000  0.48968000  1.0 -0.0810547272
C  C142  1  0.69250000  0.68218000  0.24448000  1.0 -0.0810547272
C  C143  1  0.43770000  0.44802000  0.75552000  1.0 -0.0810547272
C  C144  1  0.69802000  0.44250000  0.51032000  1.0 -0.0810547272
C  C145  1  0.32574000  0.57266000  0.05820000  1.0 -0.1589849437
C  C146  1  0.51754000  0.07574000  0.25308000  1.0 -0.1589849437
C  C147  1  0.82266000  0.26446000  0.74692000  1.0 -0.1589849437
C  C148  1  0.51446000  0.26754000  0.94180000  1.0 -0.1589849437
C  C149  1  0.92426000  0.17734000  0.44180000  1.0 -0.1589849437
C  C150  1  0.73246000  0.67426000  0.24692000  1.0 -0.1589849437
C  C151  1  0.42734000  0.48554000  0.75308000  1.0 -0.1589849437
C  C152  1  0.73554000  0.48246000  0.55820000  1.0 -0.1589849437
C  C153  1  0.37352000  0.65089000  0.08681000  1.0 0.4405307353
C  C154  1  0.53671000  0.12352000  0.22263000  1.0 0.4405307353
C  C155  1  0.90089000  0.31408000  0.77737000  1.0 0.4405307353
C  C156  1  0.56408000  0.28671000  0.91319000  1.0 0.4405307353
C  C157  1  0.87648000  0.09911000  0.41319000  1.0 0.4405307353
C  C158  1  0.71329000  0.62648000  0.27737000  1.0 0.4405307353
C  C159  1  0.34911000  0.43592000  0.72263000  1.0 0.4405307353
C  C160  1  0.68592000  0.46329000  0.58681000  1.0 0.4405307353
C  C161  1  0.41930000  0.73878000  0.19828000  1.0 0.4582974543
C  C162  1  0.47102000  0.16930000  0.18052000  1.0 0.4582974543
C  C163  1  0.98878000  0.29050000  0.81948000  1.0 0.4582974543
C  C164  1  0.54050000  0.22102000  0.80172000  1.0 0.4582974543
C  C165  1  0.83070000  0.01122000  0.30172000  1.0 0.4582974543
C  C166  1  0.77898000  0.58070000  0.31948000  1.0 0.4582974543
C  C167  1  0.26122000  0.45950000  0.68052000  1.0 0.4582974543
C  C168  1  0.70950000  0.52898000  0.69828000  1.0 0.4582974543
C  C169  1  0.45436000  0.81008000  0.22844000  1.0 -0.2302659502
C  C170  1  0.47592000  0.20436000  0.14428000  1.0 -0.2302659502
C  C171  1  0.06008000  0.33164000  0.85572000  1.0 -0.2302659502
C  C172  1  0.58164000  0.22592000  0.77156000  1.0 -0.2302659502
C  C173  1  0.79564000  0.93992000  0.27156000  1.0 -0.2302659502
C  C174  1  0.77408000  0.54564000  0.35572000  1.0 -0.2302659502
C  C175  1  0.18992000  0.41836000  0.64428000  1.0 -0.2302659502
C  C176  1  0.66836000  0.52408000  0.72844000  1.0 -0.2302659502
C  C177  1  0.39740000  0.78750000  0.24650000  1.0 -0.3209407213
C  C178  1  0.40090000  0.14740000  0.10990000  1.0 -0.3209407213
C  C179  1  0.03750000  0.29100000  0.89010000  1.0 -0.3209407213
C  C180  1  0.54100000  0.15090000  0.75350000  1.0 -0.3209407213
C  C181  1  0.85260000  0.96250000  0.25350000  1.0 -0.3209407213
C  C182  1  0.84910000  0.60260000  0.39010000  1.0 -0.3209407213
C  C183  1  0.21250000  0.45900000  0.60990000  1.0 -0.3209407213
C  C184  1  0.70900000  0.59910000  0.74650000  1.0 -0.3209407213
C  C185  1  0.20390000  0.53660000  0.20610000  1.0 0.0216491516
C  C186  1  0.24780000  0.95390000  0.16730000  1.0 0.0216491516
C  C187  1  0.78660000  0.08050000  0.83270000  1.0 0.0216491516
C  C188  1  0.33050000  0.99780000  0.79390000  1.0 0.0216491516
C  C189  1  0.04610000  0.21340000  0.29390000  1.0 0.0216491516
C  C190  1  0.00220000  0.79610000  0.33270000  1.0 0.0216491516
C  C191  1  0.46340000  0.66950000  0.66730000  1.0 0.0216491516
C  C192  1  0.91950000  0.75220000  0.70610000  1.0 0.0216491516
C  C193  1  0.13730000  0.51150000  0.20540000  1.0 -0.2507745823
C  C194  1  0.18190000  0.88730000  0.12580000  1.0 -0.2507745823
C  C195  1  0.76150000  0.05610000  0.87420000  1.0 -0.2507745823
C  C196  1  0.30610000  0.93190000  0.79460000  1.0 -0.2507745823
C  C197  1  0.11270000  0.23850000  0.29460000  1.0 -0.2507745823
C  C198  1  0.06810000  0.86270000  0.37420000  1.0 -0.2507745823
C  C199  1  0.48850000  0.69390000  0.62580000  1.0 -0.2507745823
C  C200  1  0.94390000  0.81810000  0.70540000  1.0 -0.2507745823
C  C201  1  0.08291000  0.47380000  0.16051000  1.0 0.139591991
C  C202  1  0.17240000  0.83291000  0.10911000  1.0 0.139591991
C  C203  1  0.72380000  0.06329000  0.89089000  1.0 0.139591991
C  C204  1  0.31329000  0.92240000  0.83949000  1.0 0.139591991
C  C205  1  0.16709000  0.27620000  0.33949000  1.0 0.139591991
C  C206  1  0.07760000  0.91709000  0.39089000  1.0 0.139591991
C  C207  1  0.52620000  0.68671000  0.60911000  1.0 0.139591991
C  C208  1  0.93671000  0.82760000  0.66051000  1.0 0.139591991
C  C209  1  0.11459000  0.49390000  0.12989000  1.0 -0.2017612727
C  C210  1  0.23470000  0.86459000  0.12069000  1.0 -0.2017612727
C  C211  1  0.74390000  0.11401000  0.87931000  1.0 -0.2017612727
C  C212  1  0.36401000  0.98470000  0.87011000  1.0 -0.2017612727
C  C213  1  0.13541000  0.25610000  0.37011000  1.0 -0.2017612727
C  C214  1  0.01530000  0.88541000  0.37931000  1.0 -0.2017612727
C  C215  1  0.50610000  0.63599000  0.62069000  1.0 -0.2017612727
C  C216  1  0.88599000  0.76530000  0.62989000  1.0 -0.2017612727
C  C217  1  0.18066000  0.52020000  0.13286000  1.0 0.0883741356
C  C218  1  0.29780000  0.93066000  0.16046000  1.0 0.0883741356
C  C219  1  0.77020000  0.13734000  0.83954000  1.0 0.0883741356
C  C220  1  0.38734000  0.04780000  0.86714000  1.0 0.0883741356
C  C221  1  0.06934000  0.22980000  0.36714000  1.0 0.0883741356
C  C222  1  0.95220000  0.81934000  0.33954000  1.0 0.0883741356
C  C223  1  0.47980000  0.61266000  0.66046000  1.0 0.0883741356
C  C224  1  0.86266000  0.70220000  0.63286000  1.0 0.0883741356
C  C225  1  0.00610000  0.43920000  0.15590000  1.0 -0.2017612727
C  C226  1  0.10020000  0.75610000  0.06690000  1.0 -0.2017612727
C  C227  1  0.68920000  0.03330000  0.93310000  1.0 -0.2017612727
C  C228  1  0.28330000  0.85020000  0.84410000  1.0 -0.2017612727
C  C229  1  0.24390000  0.31080000  0.34410000  1.0 -0.2017612727
C  C230  1  0.14980000  0.99390000  0.43310000  1.0 -0.2017612727
C  C231  1  0.56080000  0.71670000  0.56690000  1.0 -0.2017612727
C  C232  1  0.96670000  0.89980000  0.65590000  1.0 -0.2017612727
C  C233  1  0.82715000  0.89308000  0.40183000  1.0 0.301070646
C  C234  1  0.67532000  0.57715000  0.43407000  1.0 0.301070646
C  C235  1  0.14308000  0.24125000  0.56593000  1.0 0.301070646
C  C236  1  0.49125000  0.42532000  0.59817000  1.0 0.301070646
C  C237  1  0.42285000  0.85692000  0.09817000  1.0 0.301070646
C  C238  1  0.57468000  0.17285000  0.06593000  1.0 0.301070646
C  C239  1  0.10692000  0.50875000  0.93407000  1.0 0.301070646
C  C240  1  0.75875000  0.32468000  0.90183000  1.0 0.301070646
C  C241  1  0.88758000  0.91590000  0.42688000  1.0 -0.2102133263
C  C242  1  0.71070000  0.63758000  0.47168000  1.0 -0.2102133263
C  C243  1  0.16590000  0.23902000  0.52832000  1.0 -0.2102133263
C  C244  1  0.48902000  0.46070000  0.57312000  1.0 -0.2102133263
C  C245  1  0.36242000  0.83410000  0.07312000  1.0 -0.2102133263
C  C246  1  0.53930000  0.11242000  0.02832000  1.0 -0.2102133263
C  C247  1  0.08410000  0.51098000  0.97168000  1.0 -0.2102133263
C  C248  1  0.76098000  0.28930000  0.92688000  1.0 -0.2102133263
C  C249  1  0.87989000  0.86389000  0.42118000  1.0 -0.0810547272
C  C250  1  0.70871000  0.62989000  0.51600000  1.0 -0.0810547272
C  C251  1  0.11389000  0.19271000  0.48400000  1.0 -0.0810547272
C  C252  1  0.44271000  0.45871000  0.57882000  1.0 -0.0810547272
C  C253  1  0.37011000  0.88611000  0.07882000  1.0 -0.0810547272
C  C254  1  0.54129000  0.12011000  0.98400000  1.0 -0.0810547272
C  C255  1  0.13611000  0.55729000  0.01600000  1.0 -0.0810547272
C  C256  1  0.80729000  0.29129000  0.92118000  1.0 -0.0810547272
C  C257  1  0.81048000  0.78515000  0.39123000  1.0 -0.1407435345
C  C258  1  0.66925000  0.56048000  0.52533000  1.0 -0.1407435345
C  C259  1  0.03515000  0.14392000  0.47467000  1.0 -0.1407435345
C  C260  1  0.39392000  0.41925000  0.60877000  1.0 -0.1407435345
C  C261  1  0.43952000  0.96485000  0.10877000  1.0 -0.1407435345
C  C262  1  0.58075000  0.18952000  0.97467000  1.0 -0.1407435345
C  C263  1  0.21485000  0.60608000  0.02533000  1.0 -0.1407435345
C  C264  1  0.85608000  0.33075000  0.89123000  1.0 -0.1407435345
C  C265  1  0.74938000  0.76043000  0.36541000  1.0 -0.0810547272
C  C266  1  0.63397000  0.49938000  0.48895000  1.0 -0.0810547272
C  C267  1  0.01043000  0.14502000  0.51105000  1.0 -0.0810547272
C  C268  1  0.39502000  0.38397000  0.63459000  1.0 -0.0810547272
C  C269  1  0.50062000  0.98957000  0.13459000  1.0 -0.0810547272
C  C270  1  0.61603000  0.25062000  0.01105000  1.0 -0.0810547272
C  C271  1  0.23957000  0.60498000  0.98895000  1.0 -0.0810547272
C  C272  1  0.85498000  0.36603000  0.86541000  1.0 -0.0810547272
C  C273  1  0.75510000  0.81183000  0.37033000  1.0 -0.1489670921
C  C274  1  0.63477000  0.50510000  0.44327000  1.0 -0.1489670921
C  C275  1  0.06183000  0.19150000  0.55673000  1.0 -0.1489670921
C  C276  1  0.44150000  0.38477000  0.62967000  1.0 -0.1489670921
C  C277  1  0.49490000  0.93817000  0.12967000  1.0 -0.1489670921
C  C278  1  0.61523000  0.24490000  0.05673000  1.0 -0.1489670921
C  C279  1  0.18817000  0.55850000  0.94327000  1.0 -0.1489670921
C  C280  1  0.80850000  0.36523000  0.87033000  1.0 -0.1489670921
C  C281  1  0.68616000  0.77997000  0.34233000  1.0 0.4405307353
C  C282  1  0.59383000  0.43616000  0.40619000  1.0 0.4405307353
C  C283  1  0.02997000  0.18764000  0.59381000  1.0 0.4405307353
C  C284  1  0.43764000  0.34383000  0.65767000  1.0 0.4405307353
C  C285  1  0.56384000  0.97003000  0.15767000  1.0 0.4405307353
C  C286  1  0.65617000  0.31384000  0.09381000  1.0 0.4405307353
C  C287  1  0.22003000  0.56236000  0.90619000  1.0 0.4405307353
C  C288  1  0.81236000  0.40617000  0.84233000  1.0 0.4405307353
C  C289  1  0.61847000  0.83082000  0.33449000  1.0 0.4519858626
C  C290  1  0.53398000  0.36847000  0.28765000  1.0 0.4519858626
C  C291  1  0.08082000  0.24633000  0.71235000  1.0 0.4519858626
C  C292  1  0.49633000  0.28398000  0.66551000  1.0 0.4519858626
C  C293  1  0.63153000  0.91918000  0.16551000  1.0 0.4519858626
C  C294  1  0.71602000  0.38153000  0.21235000  1.0 0.4519858626
C  C295  1  0.16918000  0.50367000  0.78765000  1.0 0.4519858626
C  C296  1  0.75367000  0.46602000  0.83449000  1.0 0.4519858626
C  C297  1  0.54883000  0.80128000  0.31091000  1.0 -0.2924320432
C  C298  1  0.48792000  0.29883000  0.24755000  1.0 -0.2924320432
C  C299  1  0.05128000  0.24037000  0.75245000  1.0 -0.2924320432
C  C300  1  0.49037000  0.23792000  0.68909000  1.0 -0.2924320432
C  C301  1  0.70117000  0.94872000  0.18909000  1.0 -0.2924320432
C  C302  1  0.76208000  0.45117000  0.25245000  1.0 -0.2924320432
C  C303  1  0.19872000  0.50963000  0.74755000  1.0 -0.2924320432
C  C304  1  0.75963000  0.51208000  0.81091000  1.0 -0.2924320432
C  C305  1  0.49290000  0.76690000  0.34880000  1.0 -0.3564112293
C  C306  1  0.39410000  0.24290000  0.22600000  1.0 -0.3564112293
C  C307  1  0.01690000  0.16810000  0.77400000  1.0 -0.3564112293
C  C308  1  0.41810000  0.14410000  0.65120000  1.0 -0.3564112293
C  C309  1  0.75710000  0.98310000  0.15120000  1.0 -0.3564112293
C  C310  1  0.85590000  0.50710000  0.27400000  1.0 -0.3564112293
C  C311  1  0.23310000  0.58190000  0.72600000  1.0 -0.3564112293
C  C312  1  0.83190000  0.60590000  0.84880000  1.0 -0.3564112293
C  C313  1  0.73928000  0.24366000  0.16234000  1.0 0.1017994476
C  C314  1  0.82694000  0.48928000  0.99562000  1.0 0.1017994476
C  C315  1  0.49366000  0.83132000  0.00438000  1.0 0.1017994476
C  C316  1  0.08132000  0.57694000  0.83766000  1.0 0.1017994476
C  C317  1  0.51072000  0.50634000  0.33766000  1.0 0.1017994476
C  C318  1  0.42306000  0.26072000  0.50438000  1.0 0.1017994476
C  C319  1  0.75634000  0.91868000  0.49562000  1.0 0.1017994476
C  C320  1  0.16868000  0.17306000  0.66234000  1.0 0.1017994476
C  C321  1  0.80794000  0.27536000  0.16630000  1.0 -0.1900919522
C  C322  1  0.89164000  0.55794000  0.03258000  1.0 -0.1900919522
C  C323  1  0.52536000  0.85906000  0.96742000  1.0 -0.1900919522
C  C324  1  0.10906000  0.64164000  0.83370000  1.0 -0.1900919522
C  C325  1  0.44206000  0.47464000  0.33370000  1.0 -0.1900919522
C  C326  1  0.35836000  0.19206000  0.46742000  1.0 -0.1900919522
C  C327  1  0.72464000  0.89094000  0.53258000  1.0 -0.1900919522
C  C328  1  0.14094000  0.10836000  0.66630000  1.0 -0.1900919522
C  C329  1  0.88419000  0.35919000  0.17758000  1.0 0.1603588747
C  C330  1  0.95661000  0.63419000  0.02500000  1.0 0.1603588747
C  C331  1  0.60919000  0.93161000  0.97500000  1.0 0.1603588747
C  C332  1  0.18161000  0.70661000  0.82242000  1.0 0.1603588747
C  C333  1  0.36581000  0.39081000  0.32242000  1.0 0.1603588747
C  C334  1  0.29339000  0.11581000  0.47500000  1.0 0.1603588747
C  C335  1  0.64081000  0.81839000  0.52500000  1.0 0.1603588747
C  C336  1  0.06839000  0.04339000  0.67758000  1.0 0.1603588747
C  C337  1  0.88722000  0.40743000  0.18285000  1.0 -0.2017612727
C  C338  1  0.95437000  0.63722000  0.97979000  1.0 -0.2017612727
C  C339  1  0.65743000  0.97458000  0.02021000  1.0 -0.2017612727
C  C340  1  0.22458000  0.70437000  0.81715000  1.0 -0.2017612727
C  C341  1  0.36278000  0.34257000  0.31715000  1.0 -0.2017612727
C  C342  1  0.29563000  0.11278000  0.52021000  1.0 -0.2017612727
C  C343  1  0.59257000  0.77542000  0.47979000  1.0 -0.2017612727
C  C344  1  0.02542000  0.04563000  0.68285000  1.0 -0.2017612727
C  C345  1  0.81574000  0.37184000  0.17778000  1.0 0.074391861
C  C346  1  0.88796000  0.56574000  0.94390000  1.0 0.074391861
C  C347  1  0.62184000  0.94406000  0.05610000  1.0 0.074391861
C  C348  1  0.19406000  0.63796000  0.82222000  1.0 0.074391861
C  C349  1  0.43426000  0.37816000  0.32222000  1.0 0.074391861
C  C350  1  0.36204000  0.18426000  0.55610000  1.0 0.074391861
C  C351  1  0.62816000  0.80594000  0.44390000  1.0 0.074391861
C  C352  1  0.05594000  0.11204000  0.67778000  1.0 0.074391861
C  C353  1  0.96230000  0.39600000  0.18470000  1.0 -0.2170972055
C  C354  1  0.02760000  0.71230000  0.06630000  1.0 -0.2170972055
C  C355  1  0.64600000  0.96130000  0.93370000  1.0 -0.2170972055
C  C356  1  0.21130000  0.77760000  0.81530000  1.0 -0.2170972055
C  C357  1  0.28770000  0.35400000  0.31530000  1.0 -0.2170972055
C  C358  1  0.22240000  0.03770000  0.43370000  1.0 -0.2170972055
C  C359  1  0.60400000  0.78870000  0.56630000  1.0 -0.2170972055
C  C360  1  0.03870000  0.97240000  0.68470000  1.0 -0.2170972055
N  N1  1  0.43414000  0.61298000  0.24420000  1.0 -0.3503058042
N  N2  1  0.43994000  0.18414000  0.32116000  1.0 -0.3503058042
N  N3  1  0.86298000  0.11878000  0.67884000  1.0 -0.3503058042
N  N4  1  0.36878000  0.18994000  0.75580000  1.0 -0.3503058042
N  N5  1  0.81586000  0.13702000  0.25580000  1.0 -0.3503058042
N  N6  1  0.81006000  0.56586000  0.17884000  1.0 -0.3503058042
N  N7  1  0.38702000  0.63122000  0.82116000  1.0 -0.3503058042
N  N8  1  0.88122000  0.56006000  0.74420000  1.0 -0.3503058042
N  N9  1  0.44259000  0.63281000  0.20092000  1.0 -0.313806917
N  N10  1  0.49167000  0.19259000  0.30978000  1.0 -0.313806917
N  N11  1  0.88281000  0.18189000  0.69022000  1.0 -0.313806917
N  N12  1  0.43189000  0.24167000  0.79908000  1.0 -0.313806917
N  N13  1  0.80741000  0.11719000  0.29908000  1.0 -0.313806917
N  N14  1  0.75833000  0.55741000  0.19022000  1.0 -0.313806917
N  N15  1  0.36719000  0.56811000  0.80978000  1.0 -0.313806917
N  N16  1  0.81811000  0.50833000  0.70092000  1.0 -0.313806917
N  N17  1  0.47130000  0.48430000  0.19420000  1.0 0.1187482678
N  N18  1  0.52710000  0.22130000  0.48700000  1.0 0.1187482678
N  N19  1  0.73430000  0.04010000  0.51300000  1.0 0.1187482678
N  N20  1  0.29010000  0.27710000  0.80580000  1.0 0.1187482678
N  N21  1  0.77870000  0.26570000  0.30580000  1.0 0.1187482678
N  N22  1  0.72290000  0.52870000  0.01300000  1.0 0.1095793985
N  N23  1  0.51570000  0.70990000  0.98700000  1.0 0.1187482678
N  N24  1  0.95990000  0.47290000  0.69420000  1.0 0.1187482678
N  N25  1  0.37621000  0.65948000  0.13143000  1.0 -0.339848779
N  N26  1  0.49478000  0.12621000  0.21673000  1.0 -0.339848779
N  N27  1  0.90948000  0.27805000  0.78327000  1.0 -0.339848779
N  N28  1  0.52805000  0.24478000  0.86857000  1.0 -0.339848779
N  N29  1  0.87379000  0.09052000  0.36857000  1.0 -0.339848779
N  N30  1  0.75522000  0.62379000  0.28327000  1.0 -0.339848779
N  N31  1  0.34052000  0.47195000  0.71673000  1.0 -0.339848779
N  N32  1  0.72195000  0.50522000  0.63143000  1.0 -0.339848779
N  N33  1  0.41651000  0.73318000  0.15449000  1.0 -0.3209407213
N  N34  1  0.51202000  0.16651000  0.18333000  1.0 -0.3209407213
N  N35  1  0.98318000  0.32869000  0.81667000  1.0 -0.3209407213
N  N36  1  0.57869000  0.26202000  0.84551000  1.0 -0.3209407213
N  N37  1  0.83349000  0.01682000  0.34551000  1.0 -0.3209407213
N  N38  1  0.73798000  0.58349000  0.31667000  1.0 -0.3209407213
N  N39  1  0.26682000  0.42131000  0.68333000  1.0 -0.3209407213
N  N40  1  0.67131000  0.48798000  0.65449000  1.0 -0.3209407213
N  N41  1  0.21650000  0.52909000  0.16399000  1.0 -0.2102133263
N  N42  1  0.30251000  0.96650000  0.18741000  1.0 -0.2102133263
N  N43  1  0.77909000  0.11510000  0.81259000  1.0 -0.2102133263
N  N44  1  0.36510000  0.05251000  0.83601000  1.0 -0.2102133263
N  N45  1  0.03350000  0.22091000  0.33601000  1.0 -0.2102133263
N  N46  1  0.94749000  0.78350000  0.31259000  1.0 -0.2102133263
N  N47  1  0.47091000  0.63490000  0.68741000  1.0 -0.2102133263
N  N48  1  0.88490000  0.69749000  0.66399000  1.0 -0.2102133263
N  N49  1  0.68725000  0.82484000  0.34963000  1.0 -0.3503058042
N  N50  1  0.58762000  0.43725000  0.36241000  1.0 -0.339848779
N  N51  1  0.07484000  0.22521000  0.63759000  1.0 -0.3503058042
N  N52  1  0.47521000  0.33762000  0.65037000  1.0 -0.3503058042
N  N53  1  0.56275000  0.92516000  0.15037000  1.0 -0.3503058042
N  N54  1  0.66238000  0.31275000  0.13759000  1.0 -0.3503058042
N  N55  1  0.17516000  0.52479000  0.86241000  1.0 -0.3503058042
N  N56  1  0.77479000  0.41238000  0.84963000  1.0 -0.339848779
N  N57  1  0.61594000  0.78608000  0.32202000  1.0 -0.3303137081
N  N58  1  0.54392000  0.36594000  0.32986000  1.0 -0.3303137081
N  N59  1  0.03608000  0.21406000  0.67014000  1.0 -0.3303137081
N  N60  1  0.46406000  0.29392000  0.67798000  1.0 -0.3303137081
N  N61  1  0.63406000  0.96392000  0.17798000  1.0 -0.3303137081
N  N62  1  0.70608000  0.38406000  0.17014000  1.0 -0.3303137081
N  N63  1  0.21392000  0.53594000  0.82986000  1.0 -0.3303137081
N  N64  1  0.78594000  0.45608000  0.82202000  1.0 -0.3303137081
N  N65  1  0.74134000  0.28958000  0.16832000  1.0 -0.2302659502
N  N66  1  0.82302000  0.49134000  0.95176000  1.0 -0.2302659502
N  N67  1  0.53958000  0.87126000  0.04824000  1.0 -0.2302659502
N  N68  1  0.12126000  0.57302000  0.83168000  1.0 -0.2302659502
N  N69  1  0.50866000  0.46042000  0.33168000  1.0 -0.2302659502
N  N70  1  0.42698000  0.25866000  0.54824000  1.0 -0.2302659502
N  N71  1  0.71042000  0.87874000  0.45176000  1.0 -0.2302659502
N  N72  1  0.12874000  0.17698000  0.66832000  1.0 -0.2302659502
O  O1  1  0.47684000  0.61295000  0.32739000  1.0 -0.453906964
O  O2  1  0.39945000  0.22684000  0.36389000  1.0 -0.453906964
O  O3  1  0.86295000  0.03556000  0.63611000  1.0 -0.453906964
O  O4  1  0.28556000  0.14945000  0.67261000  1.0 -0.453906964
O  O5  1  0.77316000  0.13705000  0.17261000  1.0 -0.453906964
O  O6  1  0.85055000  0.52316000  0.13611000  1.0 -0.453906964
O  O7  1  0.38705000  0.71444000  0.86389000  1.0 -0.453906964
O  O8  1  0.96444000  0.60055000  0.82739000  1.0 -0.453906964
O  O9  1  0.30483000  0.53380000  0.22097000  1.0 -0.4695756355
O  O10  1  0.33386000  0.05483000  0.27103000  1.0 -0.4695756355
O  O11  1  0.78380000  0.06283000  0.72897000  1.0 -0.4695756355
O  O12  1  0.31283000  0.08386000  0.77903000  1.0 -0.4695756355
O  O13  1  0.94517000  0.21620000  0.27903000  1.0 -0.4695756355
O  O14  1  0.91614000  0.69517000  0.22897000  1.0 -0.4695756355
O  O15  1  0.46620000  0.68717000  0.77103000  1.0 -0.4695756355
O  O16  1  0.93717000  0.66614000  0.72097000  1.0 -0.4695756355
O  O17  1  0.56517000  0.69924000  0.22531000  1.0 -0.5051494298
O  O18  1  0.58986000  0.31517000  0.36593000  1.0 -0.5051494298
O  O19  1  0.94924000  0.22393000  0.63407000  1.0 -0.5037180441
O  O20  1  0.47393000  0.33986000  0.77469000  1.0 -0.5051494298
O  O21  1  0.68483000  0.05076000  0.27469000  1.0 -0.5051494298
O  O22  1  0.66014000  0.43483000  0.13407000  1.0 -0.5037180441
O  O23  1  0.30076000  0.52607000  0.86593000  1.0 -0.5051494298
O  O24  1  0.77607000  0.41014000  0.72531000  1.0 -0.5051494298
O  O25  1  0.48130000  0.55253000  0.24423000  1.0 -0.2772460574
O  O26  1  0.48707000  0.23130000  0.42877000  1.0 -0.2772460574
O  O27  1  0.80253000  0.05830000  0.57123000  1.0 -0.2772460574
O  O28  1  0.30830000  0.23707000  0.75577000  1.0 -0.2772460574
O  O29  1  0.76870000  0.19747000  0.25577000  1.0 -0.2772460574
O  O30  1  0.76293000  0.51870000  0.07123000  1.0 -0.2772460574
O  O31  1  0.44747000  0.69170000  0.92877000  1.0 -0.2772460574
O  O32  1  0.94170000  0.51293000  0.74423000  1.0 -0.2772460574
O  O33  1  0.28759000  0.50870000  0.12107000  1.0 -0.4636253784
O  O34  1  0.41652000  0.03759000  0.27889000  1.0 -0.4636253784
O  O35  1  0.75870000  0.13763000  0.72111000  1.0 -0.4636253784
O  O36  1  0.38763000  0.16652000  0.87893000  1.0 -0.4636253784
O  O37  1  0.96241000  0.24130000  0.37893000  1.0 -0.4636253784
O  O38  1  0.83348000  0.71241000  0.22111000  1.0 -0.4636253784
O  O39  1  0.49130000  0.61237000  0.77889000  1.0 -0.4636253784
O  O40  1  0.86237000  0.58348000  0.62107000  1.0 -0.4636253784
O  O41  1  0.40949000  0.70759000  0.06776000  1.0 -0.4695756355
O  O42  1  0.59173000  0.15949000  0.20190000  1.0 -0.4695756355
O  O43  1  0.95759000  0.38983000  0.79810000  1.0 -0.4695756355
O  O44  1  0.63983000  0.34173000  0.93224000  1.0 -0.4695756355
O  O45  1  0.84051000  0.04241000  0.43224000  1.0 -0.4695756355
O  O46  1  0.65827000  0.59051000  0.29810000  1.0 -0.4695756355
O  O47  1  0.29241000  0.36017000  0.70190000  1.0 -0.4695756355
O  O48  1  0.61017000  0.40827000  0.56776000  1.0 -0.4695756355
O  O49  1  0.39020000  0.68337000  0.21683000  1.0 -0.4807375944
O  O50  1  0.42337000  0.14020000  0.20683000  1.0 -0.4807375944
O  O51  1  0.93337000  0.21654000  0.79317000  1.0 -0.4807375944
O  O52  1  0.46654000  0.17337000  0.78317000  1.0 -0.4807375944
O  O53  1  0.85980000  0.06663000  0.28317000  1.0 -0.4807375944
O  O54  1  0.82663000  0.60980000  0.29317000  1.0 -0.4807375944
O  O55  1  0.31663000  0.53346000  0.70683000  1.0 -0.4807375944
O  O56  1  0.78346000  0.57663000  0.71683000  1.0 -0.4807375944
O  O57  1  0.84045000  0.94825000  0.40956000  1.0 -0.4807375944
O  O58  1  0.68089000  0.59045000  0.39220000  1.0 -0.4807375944
O  O59  1  0.19825000  0.28869000  0.60780000  1.0 -0.4807375944
O  O60  1  0.53869000  0.43089000  0.59044000  1.0 -0.4807375944
O  O61  1  0.40955000  0.80175000  0.09044000  1.0 -0.4807375944
O  O62  1  0.56911000  0.15955000  0.10780000  1.0 -0.4807375944
O  O63  1  0.05175000  0.46131000  0.89220000  1.0 -0.4807375944
O  O64  1  0.71131000  0.31911000  0.90956000  1.0 -0.4807375944
O  O65  1  0.62629000  0.70856000  0.31279000  1.0 -0.4695756355
O  O66  1  0.56350000  0.37629000  0.41773000  1.0 -0.4695756355
O  O67  1  0.95856000  0.14577000  0.58227000  1.0 -0.4695756355
O  O68  1  0.39577000  0.31350000  0.68721000  1.0 -0.4695756355
O  O69  1  0.62371000  0.04144000  0.18721000  1.0 -0.4695756355
O  O70  1  0.68650000  0.37371000  0.08227000  1.0 -0.4695756355
O  O71  1  0.29144000  0.60423000  0.91773000  1.0 -0.4695756355
O  O72  1  0.85423000  0.43650000  0.81279000  1.0 -0.4695756355
O  O73  1  0.67874000  0.90054000  0.36700000  1.0 -0.4936210433
O  O74  1  0.56174000  0.42874000  0.27820000  1.0 -0.4936210433
O  O75  1  0.15054000  0.28354000  0.72180000  1.0 -0.4936210433
O  O76  1  0.53354000  0.31174000  0.63300000  1.0 -0.4936210433
O  O77  1  0.57126000  0.84946000  0.13300000  1.0 -0.4936210433
O  O78  1  0.68826000  0.32126000  0.22180000  1.0 -0.4936210433
O  O79  1  0.09946000  0.46646000  0.77820000  1.0 -0.4936210433
O  O80  1  0.71646000  0.43826000  0.86700000  1.0 -0.4936210433
