# DDEC6 charges by PACMAN v1.1 (https://github.com/mtap-research/PACMAN-charge/)
data_XALCUJ_FSR_pacman
_symmetry_space_group_name_H-M   'P 1'
_cell_length_a   30.17410000
_cell_length_b   30.17410000
_cell_length_c   30.17410000
_cell_angle_alpha   94.79030000
_cell_angle_beta   94.79030000
_cell_angle_gamma   146.40600000
_symmetry_Int_Tables_number   1
_chemical_formula_structural   Mn3H64C54N9O10
_chemical_formula_sum   'Mn24 H512 C432 N72 O80'
_cell_volume   14552.29228007
_cell_formula_units_Z   8
loop_
 _symmetry_equiv_pos_site_id
 _symmetry_equiv_pos_as_xyz
  1  'x, y, z'
loop_
 _atom_site_type_symbol
 _atom_site_label
 _atom_site_symmetry_multiplicity
 _atom_site_fract_x
 _atom_site_fract_y
 _atom_site_fract_z
 _atom_site_occupancy
 _atom_site_charge
Mn  Mn1  1  0.11973000  0.01306000  0.33353000  1.0 0.7676129079
Mn  Mn2  1  0.03620000  0.86973000  0.60667000  1.0 0.7624354548
Mn  Mn3  1  0.26306000  0.42953000  0.39333000  1.0 0.7676129079
Mn  Mn4  1  0.67953000  0.78620000  0.66647000  1.0 0.7624354548
Mn  Mn5  1  0.13027000  0.73694000  0.16647000  1.0 0.7676129079
Mn  Mn6  1  0.21380000  0.88027000  0.89333000  1.0 0.7624354548
Mn  Mn7  1  0.98694000  0.32047000  0.10667000  1.0 0.7676129079
Mn  Mn8  1  0.57047000  0.96380000  0.83353000  1.0 0.7624354548
Mn  Mn9  1  0.98201000  0.76795000  0.36774000  1.0 0.8751707412
Mn  Mn10  1  0.86427000  0.73201000  0.71406000  1.0 0.8716990771
Mn  Mn11  1  0.01795000  0.15021000  0.28594000  1.0 0.8716990771
Mn  Mn12  1  0.40021000  0.61427000  0.63226000  1.0 0.8716990771
Mn  Mn13  1  0.26799000  0.98205000  0.13226000  1.0 0.8716990771
Mn  Mn14  1  0.38573000  0.01799000  0.78594000  1.0 0.8716990771
Mn  Mn15  1  0.23205000  0.59979000  0.21406000  1.0 0.8716990771
Mn  Mn16  1  0.84979000  0.13573000  0.86774000  1.0 0.8716990771
Mn  Mn17  1  0.33043000  0.15842000  0.25189000  1.0 0.732970903
Mn  Mn18  1  0.32854000  0.08043000  0.67201000  1.0 0.732970903
Mn  Mn19  1  0.40842000  0.65653000  0.32799000  1.0 0.7375654118
Mn  Mn20  1  0.90653000  0.07854000  0.74811000  1.0 0.732970903
Mn  Mn21  1  0.91957000  0.59158000  0.24811000  1.0 0.7375654118
Mn  Mn22  1  0.92146000  0.66957000  0.82799000  1.0 0.732970903
Mn  Mn23  1  0.84158000  0.09347000  0.17201000  1.0 0.7375654118
Mn  Mn24  1  0.34347000  0.67146000  0.75189000  1.0 0.732970903
H  H1  1  0.25090000  0.19100000  0.46510000  1.0 0.1393204866
H  H2  1  0.03580000  0.00090000  0.55990000  1.0 0.1393204866
H  H3  1  0.44100000  0.47590000  0.44010000  1.0 0.1393204866
H  H4  1  0.72590000  0.78580000  0.53490000  1.0 0.1393204866
H  H5  1  0.99910000  0.55900000  0.03490000  1.0 0.1393204866
H  H6  1  0.21420000  0.74910000  0.94010000  1.0 0.1393204866
H  H7  1  0.80900000  0.27410000  0.05990000  1.0 0.1393204866
H  H8  1  0.52410000  0.96420000  0.96510000  1.0 0.1393204866
H  H9  1  0.24590000  0.17840000  0.53890000  1.0 0.1104225508
H  H10  1  0.95700000  0.99590000  0.56750000  1.0 0.1104225508
H  H11  1  0.42840000  0.38950000  0.43250000  1.0 0.1104225508
H  H12  1  0.63950000  0.70700000  0.46110000  1.0 0.1104225508
H  H13  1  0.00410000  0.57160000  0.96110000  1.0 0.1104225508
H  H14  1  0.29300000  0.75410000  0.93250000  1.0 0.1104225508
H  H15  1  0.82160000  0.36050000  0.06750000  1.0 0.1104225508
H  H16  1  0.61050000  0.04300000  0.03890000  1.0 0.1104225508
H  H17  1  0.16892000  0.05570000  0.55342000  1.0 0.1202590577
H  H18  1  0.86550000  0.91892000  0.61322000  1.0 0.1202590577
H  H19  1  0.30570000  0.25228000  0.38678000  1.0 0.1202590577
H  H20  1  0.50228000  0.61550000  0.44658000  1.0 0.1202590577
H  H21  1  0.08108000  0.69430000  0.94658000  1.0 0.1202590577
H  H22  1  0.38450000  0.83108000  0.88678000  1.0 0.1202590577
H  H23  1  0.94430000  0.49772000  0.11322000  1.0 0.1202590577
H  H24  1  0.74772000  0.13450000  0.05342000  1.0 0.1202590577
H  H25  1  0.10010000  0.94900000  0.49310000  1.0 0.1202590577
H  H26  1  0.85700000  0.85010000  0.65110000  1.0 0.1202590577
H  H27  1  0.19900000  0.20590000  0.34890000  1.0 0.1202590577
H  H28  1  0.45590000  0.60700000  0.50690000  1.0 0.1202590577
H  H29  1  0.14990000  0.80100000  0.00690000  1.0 0.1202590577
H  H30  1  0.39300000  0.89990000  0.84890000  1.0 0.1202590577
H  H31  1  0.05100000  0.54410000  0.15110000  1.0 0.1202590577
H  H32  1  0.79410000  0.14300000  0.99310000  1.0 0.1202590577
H  H33  1  0.98360000  0.80010000  0.22210000  1.0 0.1289105835
H  H34  1  0.01150000  0.73360000  0.68350000  1.0 0.1289105835
H  H35  1  0.05010000  0.32800000  0.31650000  1.0 0.1289105835
H  H36  1  0.57800000  0.76150000  0.77790000  1.0 0.1289105835
H  H37  1  0.26640000  0.94990000  0.27790000  1.0 0.1289105835
H  H38  1  0.23850000  0.01640000  0.81650000  1.0 0.1289105835
H  H39  1  0.19990000  0.42200000  0.18350000  1.0 0.1289105835
H  H40  1  0.67200000  0.98850000  0.72210000  1.0 0.1289105835
H  H41  1  0.94920000  0.74650000  0.25690000  1.0 0.1393204866
H  H42  1  0.94230000  0.69920000  0.70270000  1.0 0.1393204866
H  H43  1  0.99650000  0.23960000  0.29730000  1.0 0.1393204866
H  H44  1  0.48960000  0.69230000  0.74310000  1.0 0.1393204866
H  H45  1  0.30080000  0.00350000  0.24310000  1.0 0.1393204866
H  H46  1  0.30770000  0.05080000  0.79730000  1.0 0.1393204866
H  H47  1  0.25350000  0.51040000  0.20270000  1.0 0.1393204866
H  H48  1  0.76040000  0.05770000  0.75690000  1.0 0.1393204866
H  H49  1  0.88240000  0.77340000  0.22540000  1.0 0.0918807201
H  H50  1  0.90700000  0.63240000  0.60900000  1.0 0.0918807201
H  H51  1  0.02340000  0.29800000  0.39100000  1.0 0.0918807201
H  H52  1  0.54800000  0.65700000  0.77460000  1.0 0.0918807201
H  H53  1  0.36760000  0.97660000  0.27460000  1.0 0.0918807201
H  H54  1  0.34300000  0.11760000  0.89100000  1.0 0.0918807201
H  H55  1  0.22660000  0.45200000  0.10900000  1.0 0.0918807201
H  H56  1  0.70200000  0.09300000  0.72540000  1.0 0.0918807201
H  H57  1  0.84350000  0.71020000  0.25390000  1.0 0.0918807201
H  H58  1  0.83960000  0.59350000  0.63330000  1.0 0.0918807201
H  H59  1  0.96020000  0.20630000  0.36670000  1.0 0.0918807201
H  H60  1  0.45630000  0.58960000  0.74610000  1.0 0.0918807201
H  H61  1  0.40650000  0.03980000  0.24610000  1.0 0.0918807201
H  H62  1  0.41040000  0.15650000  0.86670000  1.0 0.0918807201
H  H63  1  0.28980000  0.54370000  0.13330000  1.0 0.0918807201
H  H64  1  0.79370000  0.16040000  0.75390000  1.0 0.0918807201
H  H65  1  0.84660000  0.66020000  0.18180000  1.0 0.1289105835
H  H66  1  0.91480000  0.59660000  0.68640000  1.0 0.1289105835
H  H67  1  0.91020000  0.22840000  0.31360000  1.0 0.1289105835
H  H68  1  0.47840000  0.66480000  0.81820000  1.0 0.1289105835
H  H69  1  0.40340000  0.08980000  0.31820000  1.0 0.1289105835
H  H70  1  0.33520000  0.15340000  0.81360000  1.0 0.1289105835
H  H71  1  0.33980000  0.52160000  0.18640000  1.0 0.1289105835
H  H72  1  0.77160000  0.08520000  0.68180000  1.0 0.1289105835
H  H73  1  0.82440000  0.68710000  0.16050000  1.0 0.1104225508
H  H74  1  0.91390000  0.57440000  0.63730000  1.0 0.1104225508
H  H75  1  0.93710000  0.27660000  0.36270000  1.0 0.1104225508
H  H76  1  0.52660000  0.66390000  0.83950000  1.0 0.1104225508
H  H77  1  0.42560000  0.06290000  0.33950000  1.0 0.1104225508
H  H78  1  0.33610000  0.17560000  0.86270000  1.0 0.1104225508
H  H79  1  0.31290000  0.47340000  0.13730000  1.0 0.1104225508
H  H80  1  0.72340000  0.08610000  0.66050000  1.0 0.1104225508
H  H81  1  0.75110000  0.58290000  0.20580000  1.0 0.1202590577
H  H82  1  0.79530000  0.50110000  0.66820000  1.0 0.1202590577
H  H83  1  0.83290000  0.12710000  0.33180000  1.0 0.1202590577
H  H84  1  0.37710000  0.54530000  0.79420000  1.0 0.1202590577
H  H85  1  0.49890000  0.16710000  0.29420000  1.0 0.1202590577
H  H86  1  0.45470000  0.24890000  0.83180000  1.0 0.1202590577
H  H87  1  0.41710000  0.62290000  0.16820000  1.0 0.1202590577
H  H88  1  0.87290000  0.20470000  0.70580000  1.0 0.1202590577
H  H89  1  0.73040000  0.61310000  0.19010000  1.0 0.1202590577
H  H90  1  0.79030000  0.48040000  0.61730000  1.0 0.1202590577
H  H91  1  0.86310000  0.17300000  0.38270000  1.0 0.1202590577
H  H92  1  0.42300000  0.54030000  0.80990000  1.0 0.1202590577
H  H93  1  0.51960000  0.13690000  0.30990000  1.0 0.1202590577
H  H94  1  0.45970000  0.26960000  0.88270000  1.0 0.1202590577
H  H95  1  0.38690000  0.57700000  0.11730000  1.0 0.1202590577
H  H96  1  0.82700000  0.20970000  0.69010000  1.0 0.1202590577
H  H97  1  0.71510000  0.55780000  0.10810000  1.0 0.1104225508
H  H98  1  0.85700000  0.46510000  0.65730000  1.0 0.1104225508
H  H99  1  0.80780000  0.19970000  0.34270000  1.0 0.1104225508
H  H100  1  0.44970000  0.60700000  0.89190000  1.0 0.1104225508
H  H101  1  0.53490000  0.19220000  0.39190000  1.0 0.1104225508
H  H102  1  0.39300000  0.28490000  0.84270000  1.0 0.1104225508
H  H103  1  0.44220000  0.55030000  0.15730000  1.0 0.1104225508
H  H104  1  0.80030000  0.14300000  0.60810000  1.0 0.1104225508
H  H105  1  0.68930000  0.49760000  0.13330000  1.0 0.0982424197
H  H106  1  0.80600000  0.43930000  0.69170000  1.0 0.0982424197
H  H107  1  0.74760000  0.11430000  0.30830000  1.0 0.0982424197
H  H108  1  0.36430000  0.55600000  0.86670000  1.0 0.0982424197
H  H109  1  0.56070000  0.25240000  0.36670000  1.0 0.0982424197
H  H110  1  0.44400000  0.31070000  0.80830000  1.0 0.0982424197
H  H111  1  0.50240000  0.63570000  0.19170000  1.0 0.0982424197
H  H112  1  0.88570000  0.19400000  0.63330000  1.0 0.0982424197
H  H113  1  0.63810000  0.49870000  0.12820000  1.0 0.1202590577
H  H114  1  0.75990000  0.38810000  0.63940000  1.0 0.1202590577
H  H115  1  0.74870000  0.12050000  0.36060000  1.0 0.1202590577
H  H116  1  0.37050000  0.50990000  0.87180000  1.0 0.1202590577
H  H117  1  0.61190000  0.25130000  0.37180000  1.0 0.1202590577
H  H118  1  0.49010000  0.36190000  0.86060000  1.0 0.1202590577
H  H119  1  0.50130000  0.62950000  0.13940000  1.0 0.1202590577
H  H120  1  0.87950000  0.24010000  0.62820000  1.0 0.1202590577
H  H121  1  0.93200000  0.84780000  0.33540000  1.0 0.1104225508
H  H122  1  0.84660000  0.68200000  0.58420000  1.0 0.1104225508
H  H123  1  0.09780000  0.26240000  0.41580000  1.0 0.1104225508
H  H124  1  0.51240000  0.59660000  0.66460000  1.0 0.1104225508
H  H125  1  0.31800000  0.90220000  0.16460000  1.0 0.1104225508
H  H126  1  0.40340000  0.06800000  0.91580000  1.0 0.1104225508
H  H127  1  0.15220000  0.48760000  0.08420000  1.0 0.1104225508
H  H128  1  0.73760000  0.15340000  0.83540000  1.0 0.1104225508
H  H129  1  0.81480000  0.78920000  0.33480000  1.0 0.1393204866
H  H130  1  0.73000000  0.56480000  0.52560000  1.0 0.1393204866
H  H131  1  0.03920000  0.20440000  0.47440000  1.0 0.1393204866
H  H132  1  0.45440000  0.48000000  0.66520000  1.0 0.1393204866
H  H133  1  0.43520000  0.96080000  0.16520000  1.0 0.1393204866
H  H134  1  0.52000000  0.18520000  0.97440000  1.0 0.1393204866
H  H135  1  0.21080000  0.54560000  0.02560000  1.0 0.1393204866
H  H136  1  0.79560000  0.27000000  0.83480000  1.0 0.1393204866
H  H137  1  0.94810000  0.01300000  0.34630000  1.0 0.150236708
H  H138  1  0.85180000  0.69810000  0.43510000  1.0 0.150236708
H  H139  1  0.26300000  0.41670000  0.56490000  1.0 0.150236708
H  H140  1  0.66666667  0.60180000  0.65370000  1.0 0.150236708
H  H141  1  0.30190000  0.73700000  0.15370000  1.0 0.150236708
H  H142  1  0.39820000  0.05190000  0.06490000  1.0 0.150236708
H  H143  1  0.98700000  0.33333333  0.93510000  1.0 0.150236708
H  H144  1  0.58330000  0.14820000  0.84630000  1.0 0.150236708
H  H145  1  0.06120000  0.06510000  0.34310000  1.0 0.1202590577
H  H146  1  0.96810000  0.81120000  0.49610000  1.0 0.1202590577
H  H147  1  0.31510000  0.47200000  0.50390000  1.0 0.1202590577
H  H148  1  0.72200000  0.71810000  0.65690000  1.0 0.1202590577
H  H149  1  0.18880000  0.68490000  0.15690000  1.0 0.1202590577
H  H150  1  0.28190000  0.93880000  0.00390000  1.0 0.1202590577
H  H151  1  0.93490000  0.27800000  0.99610000  1.0 0.1202590577
H  H152  1  0.52800000  0.03190000  0.84310000  1.0 0.1202590577
H  H153  1  0.77940000  0.86600000  0.31240000  1.0 0.1289105835
H  H154  1  0.71700000  0.52940000  0.41340000  1.0 0.1289105835
H  H155  1  0.11600000  0.30360000  0.58660000  1.0 0.1289105835
H  H156  1  0.55360000  0.46700000  0.68760000  1.0 0.1289105835
H  H157  1  0.47060000  0.88400000  0.18760000  1.0 0.1289105835
H  H158  1  0.53300000  0.22060000  0.08660000  1.0 0.1289105835
H  H159  1  0.13400000  0.44640000  0.91340000  1.0 0.1289105835
H  H160  1  0.69640000  0.28300000  0.81240000  1.0 0.1289105835
H  H161  1  0.80860000  0.89700000  0.36640000  1.0 0.1202590577
H  H162  1  0.69220000  0.55860000  0.41160000  1.0 0.1202590577
H  H163  1  0.14700000  0.28060000  0.58840000  1.0 0.1202590577
H  H164  1  0.53060000  0.44220000  0.63360000  1.0 0.1202590577
H  H165  1  0.44140000  0.85300000  0.13360000  1.0 0.1202590577
H  H166  1  0.55780000  0.19140000  0.08840000  1.0 0.1202590577
H  H167  1  0.10300000  0.46940000  0.91160000  1.0 0.1202590577
H  H168  1  0.71940000  0.30780000  0.86640000  1.0 0.1202590577
H  H169  1  0.74970000  0.64580000  0.34810000  1.0 0.1289105835
H  H170  1  0.65160000  0.49970000  0.60390000  1.0 0.1289105835
H  H171  1  0.89580000  0.04770000  0.39610000  1.0 0.1289105835
H  H172  1  0.29770000  0.40160000  0.65190000  1.0 0.1289105835
H  H173  1  0.50030000  0.10420000  0.15190000  1.0 0.1289105835
H  H174  1  0.59840000  0.25030000  0.89610000  1.0 0.1289105835
H  H175  1  0.35420000  0.70230000  0.10390000  1.0 0.1289105835
H  H176  1  0.95230000  0.34840000  0.84810000  1.0 0.1289105835
H  H177  1  0.61630000  0.51360000  0.30790000  1.0 0.1104225508
H  H178  1  0.55840000  0.36630000  0.60270000  1.0 0.1104225508
H  H179  1  0.76360000  0.95570000  0.39730000  1.0 0.1104225508
H  H180  1  0.20570000  0.30840000  0.69210000  1.0 0.1104225508
H  H181  1  0.63370000  0.23640000  0.19210000  1.0 0.1104225508
H  H182  1  0.69160000  0.38370000  0.89730000  1.0 0.1104225508
H  H183  1  0.48640000  0.79430000  0.10270000  1.0 0.1104225508
H  H184  1  0.04430000  0.44160000  0.80790000  1.0 0.1104225508
H  H185  1  0.58450000  0.41820000  0.26410000  1.0 0.1289105835
H  H186  1  0.57040000  0.33450000  0.66630000  1.0 0.1289105835
H  H187  1  0.66820000  0.90410000  0.33370000  1.0 0.1289105835
H  H188  1  0.15410000  0.32040000  0.73590000  1.0 0.1289105835
H  H189  1  0.66550000  0.33180000  0.23590000  1.0 0.1202590577
H  H190  1  0.67960000  0.41550000  0.83370000  1.0 0.1289105835
H  H191  1  0.58180000  0.84590000  0.16630000  1.0 0.1289105835
H  H192  1  0.09590000  0.42960000  0.76410000  1.0 0.1289105835
H  H193  1  0.69420000  0.46370000  0.26090000  1.0 0.1202590577
H  H194  1  0.68330000  0.44420000  0.73050000  1.0 0.1202590577
H  H195  1  0.71370000  0.95280000  0.26950000  1.0 0.1202590577
H  H196  1  0.20280000  0.43330000  0.73910000  1.0 0.1202590577
H  H197  1  0.55580000  0.28630000  0.23910000  1.0 0.1202590577
H  H198  1  0.56670000  0.30580000  0.76950000  1.0 0.1202590577
H  H199  1  0.53630000  0.79720000  0.23050000  1.0 0.1202590577
H  H200  1  0.04720000  0.31670000  0.76090000  1.0 0.1202590577
H  H201  1  0.17660000  0.85160000  0.32420000  1.0 0.1393204866
H  H202  1  0.10240000  0.92660000  0.82500000  1.0 0.1393204866
H  H203  1  0.10160000  0.27740000  0.17500000  1.0 0.1393204866
H  H204  1  0.52740000  0.85240000  0.67580000  1.0 0.1393204866
H  H205  1  0.07340000  0.89840000  0.17580000  1.0 0.1393204866
H  H206  1  0.14760000  0.82340000  0.67500000  1.0 0.1393204866
H  H207  1  0.14840000  0.47260000  0.32500000  1.0 0.1393204866
H  H208  1  0.72260000  0.89760000  0.82420000  1.0 0.1393204866
H  H209  1  0.11640000  0.75990000  0.30690000  1.0 0.1393204866
H  H210  1  0.05950000  0.86640000  0.85650000  1.0 0.1393204866
H  H211  1  0.00990000  0.20300000  0.14350000  1.0 0.1393204866
H  H212  1  0.45300000  0.80950000  0.69310000  1.0 0.1393204866
H  H213  1  0.13360000  0.99010000  0.19310000  1.0 0.1393204866
H  H214  1  0.19050000  0.88360000  0.64350000  1.0 0.1393204866
H  H215  1  0.24010000  0.54700000  0.35650000  1.0 0.1393204866
H  H216  1  0.79700000  0.94050000  0.80690000  1.0 0.1393204866
H  H217  1  0.22730000  0.83900000  0.37210000  1.0 0.0918807201
H  H218  1  0.10520000  0.97730000  0.88830000  1.0 0.0918807201
H  H219  1  0.08900000  0.21690000  0.11170000  1.0 0.0918807201
H  H220  1  0.46690000  0.85520000  0.62790000  1.0 0.0918807201
H  H221  1  0.02270000  0.91100000  0.12790000  1.0 0.0918807201
H  H222  1  0.14480000  0.77270000  0.61170000  1.0 0.0918807201
H  H223  1  0.16100000  0.53310000  0.38830000  1.0 0.0918807201
H  H224  1  0.78310000  0.89480000  0.87210000  1.0 0.0918807201
H  H225  1  0.19530000  0.85020000  0.40130000  1.0 0.0918807201
H  H226  1  0.04400000  0.94530000  0.84510000  1.0 0.0918807201
H  H227  1  0.10020000  0.19890000  0.15490000  1.0 0.0918807201
H  H228  1  0.44890000  0.79400000  0.59870000  1.0 0.0918807201
H  H229  1  0.05470000  0.89980000  0.09870000  1.0 0.0918807201
H  H230  1  0.20600000  0.80470000  0.65490000  1.0 0.0918807201
H  H231  1  0.14980000  0.55110000  0.34510000  1.0 0.0918807201
H  H232  1  0.80110000  0.95600000  0.90130000  1.0 0.0918807201
H  H233  1  0.07410000  0.70780000  0.39470000  1.0 0.1104225508
H  H234  1  0.92940000  0.82410000  0.86630000  1.0 0.1104225508
H  H235  1  0.95780000  0.06310000  0.13370000  1.0 0.1104225508
H  H236  1  0.31310000  0.67940000  0.60530000  1.0 0.1104225508
H  H237  1  0.17590000  0.04220000  0.10530000  1.0 0.1104225508
H  H238  1  0.32060000  0.92590000  0.63370000  1.0 0.1104225508
H  H239  1  0.29220000  0.68690000  0.36630000  1.0 0.1104225508
H  H240  1  0.93690000  0.07060000  0.89470000  1.0 0.1104225508
H  H241  1  0.10040000  0.69280000  0.36220000  1.0 0.1104225508
H  H242  1  0.98820000  0.85040000  0.90760000  1.0 0.1104225508
H  H243  1  0.94280000  0.08060000  0.09240000  1.0 0.1104225508
H  H244  1  0.33060000  0.73820000  0.63780000  1.0 0.1104225508
H  H245  1  0.14960000  0.05720000  0.13780000  1.0 0.1104225508
H  H246  1  0.26180000  0.89960000  0.59240000  1.0 0.1104225508
H  H247  1  0.30720000  0.66940000  0.40760000  1.0 0.1104225508
H  H248  1  0.91940000  0.01180000  0.86220000  1.0 0.1104225508
H  H249  1  0.18660000  0.78360000  0.45720000  1.0 0.0918807201
H  H250  1  0.97940000  0.93660000  0.90300000  1.0 0.0918807201
H  H251  1  0.03360000  0.07640000  0.09700000  1.0 0.0918807201
H  H252  1  0.32640000  0.72940000  0.54280000  1.0 0.0918807201
H  H253  1  0.06340000  0.96640000  0.04280000  1.0 0.0918807201
H  H254  1  0.27060000  0.81340000  0.59700000  1.0 0.0918807201
H  H255  1  0.21640000  0.67360000  0.40300000  1.0 0.0918807201
H  H256  1  0.92360000  0.02060000  0.95720000  1.0 0.0918807201
H  H257  1  0.21390000  0.76980000  0.42470000  1.0 0.0982424197
H  H258  1  0.03920000  0.96390000  0.94410000  1.0 0.0982424197
H  H259  1  0.01980000  0.09510000  0.05590000  1.0 0.0982424197
H  H260  1  0.34510000  0.78920000  0.57530000  1.0 0.0982424197
H  H261  1  0.03610000  0.98020000  0.07530000  1.0 0.0982424197
H  H262  1  0.21080000  0.78610000  0.55590000  1.0 0.0982424197
H  H263  1  0.23020000  0.65490000  0.44410000  1.0 0.0982424197
H  H264  1  0.90490000  0.96080000  0.92470000  1.0 0.0982424197
H  H265  1  0.06150000  0.63860000  0.44810000  1.0 0.1289105835
H  H266  1  0.86340000  0.81150000  0.92290000  1.0 0.1289105835
H  H267  1  0.88860000  0.94050000  0.07710000  1.0 0.1289105835
H  H268  1  0.19050000  0.61340000  0.55190000  1.0 0.1289105835
H  H269  1  0.18850000  0.11140000  0.05190000  1.0 0.1289105835
H  H270  1  0.38660000  0.93850000  0.57710000  1.0 0.1289105835
H  H271  1  0.36140000  0.80950000  0.42290000  1.0 0.1289105835
H  H272  1  0.05950000  0.13660000  0.94810000  1.0 0.1289105835
H  H273  1  0.09110000  0.62620000  0.41690000  1.0 0.1289105835
H  H274  1  0.92420000  0.84110000  0.96490000  1.0 0.1289105835
H  H275  1  0.87620000  0.95930000  0.03510000  1.0 0.1289105835
H  H276  1  0.20930000  0.67420000  0.58310000  1.0 0.1289105835
H  H277  1  0.15890000  0.12380000  0.08310000  1.0 0.1202590577
H  H278  1  0.32580000  0.90890000  0.53510000  1.0 0.1289105835
H  H279  1  0.37380000  0.79070000  0.46490000  1.0 0.1289105835
H  H280  1  0.04070000  0.07580000  0.91690000  1.0 0.1289105835
H  H281  1  0.13900000  0.67470000  0.46950000  1.0 0.1202590577
H  H282  1  0.91950000  0.88900000  0.96430000  1.0 0.1202590577
H  H283  1  0.92470000  0.95520000  0.03570000  1.0 0.1202590577
H  H284  1  0.20520000  0.66950000  0.53050000  1.0 0.1202590577
H  H285  1  0.11100000  0.07530000  0.03050000  1.0 0.1202590577
H  H286  1  0.33050000  0.86100000  0.53570000  1.0 0.1202590577
H  H287  1  0.32530000  0.79480000  0.46430000  1.0 0.1202590577
H  H288  1  0.04480000  0.08050000  0.96950000  1.0 0.1202590577
H  H289  1  0.06620000  0.78260000  0.44720000  1.0 0.1104225508
H  H290  1  0.86900000  0.81620000  0.78360000  1.0 0.1104225508
H  H291  1  0.03260000  0.08540000  0.21640000  1.0 0.1104225508
H  H292  1  0.33540000  0.61900000  0.55280000  1.0 0.1104225508
H  H293  1  0.18380000  0.96740000  0.05280000  1.0 0.1104225508
H  H294  1  0.38100000  0.93380000  0.71640000  1.0 0.1104225508
H  H295  1  0.21740000  0.66460000  0.28360000  1.0 0.1104225508
H  H296  1  0.91460000  0.13100000  0.94720000  1.0 0.1104225508
H  H297  1  0.91030000  0.60590000  0.50000000  1.0 0.1393204866
H  H298  1  0.66030000  0.66030000  0.80440000  1.0 0.1393204866
H  H299  1  0.85590000  0.85590000  0.19560000  1.0 0.1393204866
H  H300  1  0.10590000  0.41030000  0.50000000  1.0 0.1393204866
H  H301  1  0.33970000  0.14410000  0.00000000  1.0 0.1393204866
H  H302  1  0.58970000  0.08970000  0.69560000  1.0 0.1393204866
H  H303  1  0.39410000  0.89410000  0.30440000  1.0 0.1393204866
H  H304  1  0.14410000  0.33970000  0.00000000  1.0 0.1393204866
H  H305  1  0.93850000  0.67350000  0.53200000  1.0 0.1393204866
H  H306  1  0.65650000  0.68850000  0.76500000  1.0 0.1393204866
H  H307  1  0.92350000  0.89150000  0.23500000  1.0 0.1393204866
H  H308  1  0.14150000  0.40650000  0.46800000  1.0 0.1393204866
H  H309  1  0.31150000  0.07650000  0.96800000  1.0 0.1393204866
H  H310  1  0.59350000  0.06150000  0.73500000  1.0 0.1393204866
H  H311  1  0.32650000  0.85850000  0.26500000  1.0 0.1393204866
H  H312  1  0.10850000  0.34350000  0.03200000  1.0 0.1393204866
H  H313  1  0.89060000  0.63560000  0.47960000  1.0 0.1393204866
H  H314  1  0.66100000  0.64060000  0.75500000  1.0 0.1393204866
H  H315  1  0.88560000  0.90600000  0.24500000  1.0 0.1393204866
H  H316  1  0.15600000  0.41100000  0.52040000  1.0 0.1393204866
H  H317  1  0.35940000  0.11440000  0.02040000  1.0 0.1393204866
H  H318  1  0.58900000  0.10940000  0.74500000  1.0 0.1393204866
H  H319  1  0.36440000  0.84400000  0.25500000  1.0 0.1393204866
H  H320  1  0.09400000  0.33900000  0.97960000  1.0 0.1393204866
H  H321  1  0.08600000  0.78060000  0.55180000  1.0 0.150236708
H  H322  1  0.78420000  0.83600000  0.80540000  1.0 0.150236708
H  H323  1  0.03060000  0.97880000  0.19460000  1.0 0.150236708
H  H324  1  0.22880000  0.53420000  0.44820000  1.0 0.150236708
H  H325  1  0.16400000  0.96940000  0.94820000  1.0 0.150236708
H  H326  1  0.46580000  0.91400000  0.69460000  1.0 0.150236708
H  H327  1  0.21940000  0.77120000  0.30540000  1.0 0.150236708
H  H328  1  0.02120000  0.21580000  0.05180000  1.0 0.150236708
H  H329  1  0.06140000  0.71290000  0.52590000  1.0 0.150236708
H  H330  1  0.78550000  0.81140000  0.84850000  1.0 0.150236708
H  H331  1  0.96290000  0.93700000  0.15150000  1.0 0.150236708
H  H332  1  0.18700000  0.53550000  0.47410000  1.0 0.150236708
H  H333  1  0.18860000  0.03710000  0.97410000  1.0 0.150236708
H  H334  1  0.46450000  0.93860000  0.65150000  1.0 0.150236708
H  H335  1  0.28710000  0.81300000  0.34850000  1.0 0.150236708
H  H336  1  0.06300000  0.21450000  0.02590000  1.0 0.150236708
H  H337  1  0.12400000  0.79570000  0.51150000  1.0 0.1393204866
H  H338  1  0.86250000  0.87400000  0.82830000  1.0 0.1393204866
H  H339  1  0.04570000  0.03420000  0.17170000  1.0 0.1393204866
H  H340  1  0.28420000  0.61250000  0.48850000  1.0 0.1393204866
H  H341  1  0.12600000  0.95430000  0.98850000  1.0 0.1393204866
H  H342  1  0.38750000  0.87600000  0.67170000  1.0 0.1393204866
H  H343  1  0.20430000  0.71580000  0.32830000  1.0 0.1393204866
H  H344  1  0.96580000  0.13750000  0.01150000  1.0 0.1393204866
H  H345  1  0.34400000  0.28540000  0.17800000  1.0 0.1393204866
H  H346  1  0.41600000  0.09400000  0.55860000  1.0 0.1393204866
H  H347  1  0.53540000  0.85740000  0.44140000  1.0 0.1393204866
H  H348  1  0.10740000  0.16600000  0.82200000  1.0 0.1393204866
H  H349  1  0.90600000  0.46460000  0.32200000  1.0 0.1393204866
H  H350  1  0.83400000  0.65600000  0.94140000  1.0 0.1393204866
H  H351  1  0.71460000  0.89260000  0.05860000  1.0 0.1393204866
H  H352  1  0.14260000  0.58400000  0.67800000  1.0 0.1393204866
H  H353  1  0.28630000  0.30650000  0.18080000  1.0 0.1104225508
H  H354  1  0.35550000  0.03630000  0.47980000  1.0 0.1104225508
H  H355  1  0.55650000  0.87570000  0.52020000  1.0 0.1104225508
H  H356  1  0.12570000  0.10550000  0.81920000  1.0 0.1104225508
H  H357  1  0.96370000  0.44350000  0.31920000  1.0 0.1104225508
H  H358  1  0.89450000  0.71370000  0.02020000  1.0 0.1104225508
H  H359  1  0.69350000  0.87430000  0.97980000  1.0 0.1104225508
H  H360  1  0.12430000  0.64450000  0.68080000  1.0 0.1104225508
H  H361  1  0.19590000  0.24670000  0.22620000  1.0 0.1202590577
H  H362  1  0.21970000  0.94590000  0.44920000  1.0 0.1202590577
H  H363  1  0.49670000  0.77050000  0.55080000  1.0 0.1202590577
H  H364  1  0.02050000  0.96970000  0.77380000  1.0 0.1289105835
H  H365  1  0.05410000  0.50330000  0.27380000  1.0 0.1202590577
H  H366  1  0.03030000  0.80410000  0.05080000  1.0 0.1202590577
H  H367  1  0.75330000  0.97950000  0.94920000  1.0 0.1202590577
H  H368  1  0.22950000  0.78030000  0.72620000  1.0 0.1202590577
H  H369  1  0.16400000  0.16530000  0.26750000  1.0 0.1104225508
H  H370  1  0.14650000  0.91400000  0.49870000  1.0 0.1104225508
H  H371  1  0.41530000  0.64780000  0.50130000  1.0 0.1104225508
H  H372  1  0.89780000  0.89650000  0.73250000  1.0 0.1104225508
H  H373  1  0.08600000  0.58470000  0.23250000  1.0 0.1104225508
H  H374  1  0.10350000  0.83600000  0.00130000  1.0 0.1104225508
H  H375  1  0.83470000  0.10220000  0.99870000  1.0 0.1104225508
H  H376  1  0.35220000  0.85350000  0.76750000  1.0 0.1104225508
H  H377  1  0.25240000  0.99400000  0.33340000  1.0 0.1289105835
H  H378  1  0.16900000  0.00240000  0.75840000  1.0 0.1289105835
H  H379  1  0.24400000  0.41060000  0.24160000  1.0 0.1289105835
H  H380  1  0.66060000  0.91900000  0.66666667  1.0 0.1289105835
H  H381  1  0.99760000  0.75600000  0.16660000  1.0 0.1289105835
H  H382  1  0.08100000  0.74760000  0.74160000  1.0 0.1289105835
H  H383  1  0.00600000  0.33940000  0.25840000  1.0 0.1289105835
H  H384  1  0.58940000  0.83100000  0.83340000  1.0 0.1289105835
H  H385  1  0.21310000  0.99810000  0.36020000  1.0 0.1393204866
H  H386  1  0.10290000  0.96310000  0.71500000  1.0 0.1393204866
H  H387  1  0.24810000  0.38790000  0.28500000  1.0 0.1393204866
H  H388  1  0.63790000  0.85290000  0.63980000  1.0 0.1393204866
H  H389  1  0.03690000  0.75190000  0.13980000  1.0 0.1393204866
H  H390  1  0.14710000  0.78690000  0.78500000  1.0 0.1393204866
H  H391  1  0.00190000  0.36210000  0.21500000  1.0 0.1393204866
H  H392  1  0.61210000  0.89710000  0.86020000  1.0 0.1393204866
H  H393  1  0.33700000  0.07140000  0.40800000  1.0 0.0918807201
H  H394  1  0.17900000  0.08700000  0.76560000  1.0 0.0918807201
H  H395  1  0.32140000  0.41340000  0.23440000  1.0 0.0918807201
H  H396  1  0.66340000  0.92900000  0.59200000  1.0 0.0918807201
H  H397  1  0.91300000  0.67860000  0.09200000  1.0 0.0918807201
H  H398  1  0.07100000  0.66300000  0.73440000  1.0 0.0918807201
H  H399  1  0.92860000  0.33660000  0.26560000  1.0 0.0918807201
H  H400  1  0.58660000  0.82100000  0.90800000  1.0 0.0918807201
H  H401  1  0.38760000  0.13410000  0.37770000  1.0 0.0918807201
H  H402  1  0.25990000  0.13760000  0.75350000  1.0 0.0918807201
H  H403  1  0.38410000  0.50640000  0.24650000  1.0 0.0918807201
H  H404  1  0.75640000  0.00990000  0.62230000  1.0 0.0918807201
H  H405  1  0.86240000  0.61590000  0.12230000  1.0 0.0918807201
H  H406  1  0.99010000  0.61240000  0.74650000  1.0 0.0918807201
H  H407  1  0.86590000  0.24360000  0.25350000  1.0 0.0918807201
H  H408  1  0.49360000  0.74010000  0.87770000  1.0 0.0918807201
H  H409  1  0.30170000  0.11380000  0.43150000  1.0 0.1104225508
H  H410  1  0.12020000  0.05170000  0.68790000  1.0 0.1104225508
H  H411  1  0.36380000  0.43230000  0.31210000  1.0 0.1104225508
H  H412  1  0.68230000  0.87020000  0.56850000  1.0 0.1104225508
H  H413  1  0.94830000  0.63620000  0.06850000  1.0 0.1104225508
H  H414  1  0.12980000  0.69830000  0.81210000  1.0 0.1104225508
H  H415  1  0.88620000  0.31770000  0.18790000  1.0 0.1104225508
H  H416  1  0.56770000  0.87980000  0.93150000  1.0 0.1104225508
H  H417  1  0.35290000  0.17680000  0.40150000  1.0 0.1104225508
H  H418  1  0.20140000  0.10290000  0.67610000  1.0 0.1104225508
H  H419  1  0.42680000  0.52530000  0.32390000  1.0 0.1104225508
H  H420  1  0.77530000  0.95140000  0.59850000  1.0 0.1104225508
H  H421  1  0.89710000  0.57320000  0.09850000  1.0 0.1104225508
H  H422  1  0.04860000  0.64710000  0.82390000  1.0 0.1104225508
H  H423  1  0.82320000  0.22470000  0.17610000  1.0 0.1104225508
H  H424  1  0.47470000  0.79860000  0.90150000  1.0 0.1104225508
H  H425  1  0.42640000  0.19230000  0.48030000  1.0 0.0982424197
H  H426  1  0.19610000  0.17640000  0.73410000  1.0 0.0982424197
H  H427  1  0.44230000  0.46200000  0.26590000  1.0 0.0982424197
H  H428  1  0.71200000  0.94610000  0.51970000  1.0 0.0982424197
H  H429  1  0.82360000  0.55770000  0.01970000  1.0 0.0982424197
H  H430  1  0.05390000  0.57360000  0.76590000  1.0 0.0918807201
H  H431  1  0.80770000  0.28800000  0.23410000  1.0 0.0982424197
H  H432  1  0.53800000  0.80390000  0.98030000  1.0 0.0982424197
H  H433  1  0.47710000  0.25600000  0.45070000  1.0 0.0918807201
H  H434  1  0.27640000  0.22710000  0.72110000  1.0 0.0918807201
H  H435  1  0.50600000  0.55530000  0.27890000  1.0 0.0918807201
H  H436  1  0.80530000  0.02640000  0.54930000  1.0 0.0918807201
H  H437  1  0.77290000  0.49400000  0.04930000  1.0 0.0918807201
H  H438  1  0.97360000  0.52290000  0.77890000  1.0 0.0918807201
H  H439  1  0.74400000  0.19470000  0.22110000  1.0 0.0918807201
H  H440  1  0.44470000  0.72360000  0.95070000  1.0 0.0918807201
H  H441  1  0.42180000  0.28020000  0.47320000  1.0 0.1202590577
H  H442  1  0.19860000  0.17180000  0.64160000  1.0 0.1202590577
H  H443  1  0.53020000  0.55700000  0.35840000  1.0 0.1202590577
H  H444  1  0.80700000  0.94860000  0.52680000  1.0 0.1202590577
H  H445  1  0.82820000  0.46980000  0.02680000  1.0 0.1202590577
H  H446  1  0.05140000  0.57820000  0.85840000  1.0 0.1202590577
H  H447  1  0.71980000  0.19300000  0.14160000  1.0 0.1202590577
H  H448  1  0.44300000  0.80140000  0.97320000  1.0 0.1202590577
H  H449  1  0.49250000  0.31880000  0.51130000  1.0 0.1104225508
H  H450  1  0.23120000  0.24250000  0.67370000  1.0 0.1104225508
H  H451  1  0.56880000  0.55750000  0.32630000  1.0 0.1104225508
H  H452  1  0.80750000  0.98120000  0.48870000  1.0 0.1104225508
H  H453  1  0.75750000  0.43120000  0.98870000  1.0 0.1104225508
H  H454  1  0.01880000  0.50750000  0.82630000  1.0 0.1104225508
H  H455  1  0.68120000  0.19250000  0.17370000  1.0 0.1104225508
H  H456  1  0.44250000  0.76880000  0.01130000  1.0 0.1104225508
H  H457  1  0.39910000  0.23590000  0.51140000  1.0 0.1202590577
H  H458  1  0.13770000  0.14910000  0.66320000  1.0 0.1202590577
H  H459  1  0.48590000  0.47450000  0.33680000  1.0 0.1202590577
H  H460  1  0.72450000  0.88770000  0.48860000  1.0 0.1202590577
H  H461  1  0.85090000  0.51410000  0.98860000  1.0 0.1202590577
H  H462  1  0.11230000  0.60090000  0.83680000  1.0 0.1202590577
H  H463  1  0.76410000  0.27550000  0.16320000  1.0 0.1202590577
H  H464  1  0.52550000  0.86230000  0.01140000  1.0 0.1202590577
H  H465  1  0.50710000  0.68590000  0.26940000  1.0 0.1104225508
H  H466  1  0.48770000  0.25710000  0.32120000  1.0 0.1104225508
H  H467  1  0.93590000  0.16650000  0.67880000  1.0 0.1104225508
H  H468  1  0.41650000  0.23770000  0.73060000  1.0 0.1104225508
H  H469  1  0.74290000  0.06410000  0.23060000  1.0 0.1104225508
H  H470  1  0.76230000  0.49290000  0.17880000  1.0 0.1104225508
H  H471  1  0.31410000  0.58350000  0.82120000  1.0 0.1104225508
H  H472  1  0.83350000  0.51230000  0.76940000  1.0 0.1104225508
H  H473  1  0.61230000  0.72480000  0.27110000  1.0 0.150236708
H  H474  1  0.59120000  0.36230000  0.38750000  1.0 0.150236708
H  H475  1  0.97480000  0.20370000  0.61250000  1.0 0.150236708
H  H476  1  0.45370000  0.34120000  0.72890000  1.0 0.150236708
H  H477  1  0.63770000  0.02520000  0.22890000  1.0 0.150236708
H  H478  1  0.65880000  0.38770000  0.11250000  1.0 0.150236708
H  H479  1  0.27520000  0.54630000  0.88750000  1.0 0.150236708
H  H480  1  0.79630000  0.40880000  0.77110000  1.0 0.150236708
H  H481  1  0.67060000  0.78700000  0.40800000  1.0 0.1393204866
H  H482  1  0.51260000  0.42060000  0.38360000  1.0 0.1393204866
H  H483  1  0.03700000  0.12900000  0.61640000  1.0 0.1393204866
H  H484  1  0.37900000  0.26260000  0.59200000  1.0 0.1393204866
H  H485  1  0.57940000  0.96300000  0.09200000  1.0 0.1393204866
H  H486  1  0.73740000  0.32940000  0.11640000  1.0 0.1393204866
H  H487  1  0.21300000  0.62100000  0.88360000  1.0 0.1393204866
H  H488  1  0.87100000  0.48740000  0.90800000  1.0 0.1393204866
H  H489  1  0.56460000  0.74740000  0.40360000  1.0 0.1104225508
H  H490  1  0.41100000  0.31460000  0.31720000  1.0 0.1104225508
H  H491  1  0.99740000  0.09380000  0.68280000  1.0 0.1104225508
H  H492  1  0.34380000  0.16100000  0.59640000  1.0 0.1104225508
H  H493  1  0.68540000  0.00260000  0.09640000  1.0 0.1104225508
H  H494  1  0.83900000  0.43540000  0.18280000  1.0 0.1104225508
H  H495  1  0.25260000  0.65620000  0.81720000  1.0 0.1104225508
H  H496  1  0.90620000  0.58900000  0.90360000  1.0 0.1104225508
H  H497  1  0.72990000  0.77340000  0.37050000  1.0 0.1289105835
H  H498  1  0.60940000  0.47990000  0.45650000  1.0 0.1289105835
H  H499  1  0.02340000  0.15290000  0.54350000  1.0 0.1289105835
H  H500  1  0.40290000  0.35940000  0.62950000  1.0 0.1289105835
H  H501  1  0.52010000  0.97660000  0.12950000  1.0 0.1289105835
H  H502  1  0.64060000  0.27010000  0.04350000  1.0 0.1289105835
H  H503  1  0.22660000  0.59710000  0.95650000  1.0 0.1289105835
H  H504  1  0.84710000  0.39060000  0.87050000  1.0 0.1289105835
H  H505  1  0.70140000  0.74200000  0.31620000  1.0 0.1289105835
H  H506  1  0.63520000  0.45140000  0.45940000  1.0 0.1289105835
H  H507  1  0.99200000  0.17580000  0.54060000  1.0 0.1289105835
H  H508  1  0.42580000  0.38520000  0.68380000  1.0 0.1289105835
H  H509  1  0.54860000  0.00800000  0.18380000  1.0 0.1289105835
H  H510  1  0.61480000  0.29860000  0.04060000  1.0 0.1289105835
H  H511  1  0.25800000  0.57420000  0.95940000  1.0 0.1289105835
H  H512  1  0.82420000  0.36480000  0.81620000  1.0 0.1289105835
C  C1  1  0.17712000  0.07671000  0.43323000  1.0 0.2804473675
C  C2  1  0.99389000  0.92712000  0.60041000  1.0 0.2804473675
C  C3  1  0.32671000  0.39348000  0.39959000  1.0 0.2804473675
C  C4  1  0.64348000  0.74389000  0.56677000  1.0 0.2804473675
C  C5  1  0.07288000  0.67329000  0.06677000  1.0 0.2804473675
C  C6  1  0.25611000  0.82288000  0.89959000  1.0 0.2804473675
C  C7  1  0.92329000  0.35652000  0.10041000  1.0 0.2804473675
C  C8  1  0.60652000  0.00611000  0.93323000  1.0 0.2804473675
C  C9  1  0.21975000  0.14150000  0.47045000  1.0 -0.2106915527
C  C10  1  0.99930000  0.96975000  0.57825000  1.0 -0.2106915527
C  C11  1  0.39150000  0.42105000  0.42175000  1.0 -0.2106915527
C  C12  1  0.67105000  0.74930000  0.52955000  1.0 -0.2106915527
C  C13  1  0.03025000  0.60850000  0.02955000  1.0 -0.2106915527
C  C14  1  0.25070000  0.78025000  0.92175000  1.0 -0.2106915527
C  C15  1  0.85850000  0.32895000  0.07825000  1.0 -0.2106915527
C  C16  1  0.57895000  0.00070000  0.97045000  1.0 -0.2106915527
C  C17  1  0.21703000  0.13425000  0.51468000  1.0 -0.08551441
C  C18  1  0.95235000  0.96703000  0.58278000  1.0 -0.08551441
C  C19  1  0.38425000  0.36957000  0.41722000  1.0 -0.08551441
C  C20  1  0.61957000  0.70235000  0.48532000  1.0 -0.08551441
C  C21  1  0.03297000  0.61575000  0.98532000  1.0 -0.08551441
C  C22  1  0.29765000  0.78297000  0.91722000  1.0 -0.08551441
C  C23  1  0.86575000  0.38043000  0.08278000  1.0 -0.08551441
C  C24  1  0.63043000  0.04765000  0.01468000  1.0 -0.08551441
C  C25  1  0.17139000  0.06128000  0.52347000  1.0 -0.1320602857
C  C26  1  0.89792000  0.92139000  0.61011000  1.0 -0.1320602857
C  C27  1  0.31128000  0.28781000  0.38989000  1.0 -0.1320602857
C  C28  1  0.53781000  0.64792000  0.47653000  1.0 -0.1320602857
C  C29  1  0.07861000  0.68872000  0.97653000  1.0 -0.1320602857
C  C30  1  0.35208000  0.82861000  0.88989000  1.0 -0.1320602857
C  C31  1  0.93872000  0.46219000  0.11011000  1.0 -0.1320602857
C  C32  1  0.71219000  0.10208000  0.02347000  1.0 -0.1320602857
C  C33  1  0.12998000  0.99764000  0.48722000  1.0 -0.08551441
C  C34  1  0.89276000  0.87998000  0.63234000  1.0 -0.08551441
C  C35  1  0.24764000  0.26042000  0.36766000  1.0 -0.08551441
C  C36  1  0.51042000  0.64276000  0.51278000  1.0 -0.08551441
C  C37  1  0.12002000  0.75236000  0.01278000  1.0 -0.08551441
C  C38  1  0.35724000  0.87002000  0.86766000  1.0 -0.08551441
C  C39  1  0.00236000  0.48958000  0.13234000  1.0 -0.08551441
C  C40  1  0.73958000  0.10724000  0.98722000  1.0 -0.08551441
C  C41  1  0.13054000  0.00253000  0.44207000  1.0 -0.140040805
C  C42  1  0.93847000  0.88054000  0.62801000  1.0 -0.140040805
C  C43  1  0.25253000  0.31046000  0.37199000  1.0 -0.140040805
C  C44  1  0.56046000  0.68847000  0.55793000  1.0 -0.140040805
C  C45  1  0.11946000  0.74747000  0.05793000  1.0 -0.140040805
C  C46  1  0.31153000  0.86946000  0.87199000  1.0 -0.140040805
C  C47  1  0.99747000  0.43954000  0.12801000  1.0 -0.140040805
C  C48  1  0.68954000  0.06153000  0.94207000  1.0 -0.140040805
C  C49  1  0.08272000  0.92927000  0.40539000  1.0 0.4418408236
C  C50  1  0.92733000  0.83272000  0.65345000  1.0 0.4418408236
C  C51  1  0.17927000  0.27388000  0.34655000  1.0 0.4418408236
C  C52  1  0.52388000  0.67733000  0.59461000  1.0 0.4418408236
C  C53  1  0.16728000  0.82073000  0.09461000  1.0 0.4418408236
C  C54  1  0.32267000  0.91728000  0.84655000  1.0 0.4418408236
C  C55  1  0.07073000  0.47612000  0.15345000  1.0 0.4418408236
C  C56  1  0.72612000  0.07267000  0.90539000  1.0 0.4418408236
C  C57  1  0.01605000  0.85850000  0.28715000  1.0 0.4515164667
C  C58  1  0.97890000  0.76605000  0.65755000  1.0 0.4515164667
C  C59  1  0.10850000  0.32135000  0.34245000  1.0 0.4515164667
C  C60  1  0.57135000  0.72890000  0.71285000  1.0 0.4515164667
C  C61  1  0.23395000  0.89150000  0.21285000  1.0 0.4515164667
C  C62  1  0.27110000  0.98395000  0.84245000  1.0 0.4515164667
C  C63  1  0.14150000  0.42865000  0.15755000  1.0 0.4515164667
C  C64  1  0.67865000  0.02110000  0.78715000  1.0 0.4515164667
C  C65  1  0.95823000  0.78314000  0.24737000  1.0 -0.3202275984
C  C66  1  0.96086000  0.70823000  0.67509000  1.0 -0.3202275984
C  C67  1  0.03314000  0.28577000  0.32491000  1.0 -0.3202275984
C  C68  1  0.53577000  0.71086000  0.75263000  1.0 -0.3202275984
C  C69  1  0.29177000  0.96686000  0.25263000  1.0 -0.3202275984
C  C70  1  0.28914000  0.04177000  0.82491000  1.0 -0.3202275984
C  C71  1  0.21686000  0.46423000  0.17509000  1.0 -0.3202275984
C  C72  1  0.71423000  0.03914000  0.74737000  1.0 -0.3202275984
C  C73  1  0.87309000  0.73496000  0.23045000  1.0 -0.1493478604
C  C74  1  0.89264000  0.62309000  0.63813000  1.0 -0.1605120513
C  C75  1  0.98496000  0.25451000  0.36187000  1.0 -0.1605120513
C  C76  1  0.50451000  0.64264000  0.76955000  1.0 -0.1605120513
C  C77  1  0.37691000  0.01504000  0.26955000  1.0 -0.1493478604
C  C78  1  0.35736000  0.12691000  0.86187000  1.0 -0.1493478604
C  C79  1  0.26504000  0.49549000  0.13813000  1.0 -0.1605120513
C  C80  1  0.74549000  0.10736000  0.73045000  1.0 -0.1493478604
C  C81  1  0.82100000  0.66730000  0.18590000  1.0 -0.1493478604
C  C82  1  0.88510000  0.57100000  0.65370000  1.0 -0.1493478604
C  C83  1  0.91730000  0.23140000  0.34630000  1.0 -0.1493478604
C  C84  1  0.48140000  0.63510000  0.81410000  1.0 -0.1493478604
C  C85  1  0.42900000  0.08270000  0.31410000  1.0 -0.1493478604
C  C86  1  0.36490000  0.17900000  0.84630000  1.0 -0.1493478604
C  C87  1  0.33270000  0.51860000  0.15370000  1.0 -0.1493478604
C  C88  1  0.76860000  0.11490000  0.68590000  1.0 -0.1493478604
C  C89  1  0.75400000  0.60480000  0.18240000  1.0 -0.119918495
C  C90  1  0.82160000  0.50400000  0.64920000  1.0 -0.119918495
C  C91  1  0.85480000  0.17240000  0.35080000  1.0 -0.119918495
C  C92  1  0.42240000  0.57160000  0.81760000  1.0 -0.119918495
C  C93  1  0.49600000  0.14520000  0.31760000  1.0 -0.119918495
C  C94  1  0.42840000  0.24600000  0.85080000  1.0 -0.119918495
C  C95  1  0.39520000  0.57760000  0.14920000  1.0 -0.119918495
C  C96  1  0.82760000  0.17840000  0.68240000  1.0 -0.119918495
C  C97  1  0.69280000  0.53220000  0.13280000  1.0 -0.3650091254
C  C98  1  0.81000000  0.44280000  0.66060000  1.0 -0.3646461927
C  C99  1  0.78220000  0.14940000  0.33940000  1.0 -0.3646461927
C  C100  1  0.39940000  0.56000000  0.86720000  1.0 -0.3646461927
C  C101  1  0.55720000  0.21780000  0.36720000  1.0 -0.3646461927
C  C102  1  0.44000000  0.30720000  0.83940000  1.0 -0.3646461927
C  C103  1  0.46780000  0.60060000  0.16060000  1.0 -0.3646461927
C  C104  1  0.85060000  0.19000000  0.63280000  1.0 -0.3646461927
C  C105  1  0.93483000  0.88106000  0.33669000  1.0 0.0820300029
C  C106  1  0.84814000  0.68483000  0.55377000  1.0 0.0820300029
C  C107  1  0.13106000  0.29437000  0.44623000  1.0 0.0820300029
C  C108  1  0.54437000  0.59814000  0.66331000  1.0 0.0820300029
C  C109  1  0.31517000  0.86894000  0.16331000  1.0 0.0820300029
C  C110  1  0.40186000  0.06517000  0.94623000  1.0 0.0820300029
C  C111  1  0.11894000  0.45563000  0.05377000  1.0 0.0820300029
C  C112  1  0.70563000  0.15186000  0.83669000  1.0 0.0820300029
C  C113  1  0.86460000  0.84570000  0.33690000  1.0 -0.2106915527
C  C114  1  0.77770000  0.61460000  0.51890000  1.0 -0.2106915527
C  C115  1  0.09570000  0.25880000  0.48110000  1.0 -0.2106915527
C  C116  1  0.50880000  0.52770000  0.66310000  1.0 -0.2106915527
C  C117  1  0.38540000  0.90430000  0.16310000  1.0 -0.2106915527
C  C118  1  0.47230000  0.13540000  0.98110000  1.0 -0.2106915527
C  C119  1  0.15430000  0.49120000  0.01890000  1.0 -0.2106915527
C  C120  1  0.74120000  0.22230000  0.83690000  1.0 -0.2106915527
C  C121  1  0.86826000  0.89554000  0.34040000  1.0 0.1597843663
C  C122  1  0.77786000  0.61826000  0.47272000  1.0 0.1597843663
C  C123  1  0.14554000  0.30514000  0.52728000  1.0 0.1597843663
C  C124  1  0.55514000  0.52786000  0.65960000  1.0 0.1597843663
C  C125  1  0.38174000  0.85446000  0.15960000  1.0 0.1597843663
C  C126  1  0.47214000  0.13174000  0.02728000  1.0 0.1597843663
C  C127  1  0.10446000  0.44486000  0.97272000  1.0 0.1597843663
C  C128  1  0.69486000  0.22214000  0.84040000  1.0 0.1597843663
C  C129  1  0.94303000  0.97785000  0.34328000  1.0 -0.1906248928
C  C130  1  0.84975000  0.69303000  0.46518000  1.0 -0.1906248928
C  C131  1  0.22785000  0.38457000  0.53482000  1.0 -0.1906248928
C  C132  1  0.63457000  0.59975000  0.65672000  1.0 -0.1906248928
C  C133  1  0.30697000  0.77215000  0.15672000  1.0 -0.1906248928
C  C134  1  0.40025000  0.05697000  0.03482000  1.0 -0.1906248928
C  C135  1  0.02215000  0.36543000  0.96518000  1.0 -0.1906248928
C  C136  1  0.61543000  0.15025000  0.84328000  1.0 -0.1906248928
C  C137  1  0.01105000  0.00905000  0.34170000  1.0 0.0918807201
C  C138  1  0.91935000  0.76105000  0.50200000  1.0 0.0918807201
C  C139  1  0.25905000  0.41735000  0.49800000  1.0 0.0918807201
C  C140  1  0.66735000  0.66935000  0.65830000  1.0 0.0918807201
C  C141  1  0.23895000  0.74095000  0.15830000  1.0 0.0918807201
C  C142  1  0.33065000  0.98895000  0.99800000  1.0 0.0918807201
C  C143  1  0.99095000  0.33265000  0.00200000  1.0 0.0918807201
C  C144  1  0.58265000  0.08065000  0.84170000  1.0 0.0918807201
C  C145  1  0.79240000  0.86120000  0.34020000  1.0 -0.2201852253
C  C146  1  0.70220000  0.54240000  0.43120000  1.0 -0.2201852253
C  C147  1  0.11120000  0.27100000  0.56880000  1.0 -0.2201852253
C  C148  1  0.52100000  0.45220000  0.65980000  1.0 -0.2201852253
C  C149  1  0.45760000  0.88880000  0.15980000  1.0 -0.2201852253
C  C150  1  0.54780000  0.20760000  0.06880000  1.0 -0.2201852253
C  C151  1  0.13880000  0.47900000  0.93120000  1.0 -0.2201852253
C  C152  1  0.72900000  0.29780000  0.84020000  1.0 -0.2201852253
C  C153  1  0.80507000  0.63547000  0.33174000  1.0 0.2955144978
C  C154  1  0.72333000  0.55507000  0.66960000  1.0 0.2955144978
C  C155  1  0.88547000  0.05373000  0.33040000  1.0 0.2955144978
C  C156  1  0.30373000  0.47333000  0.66826000  1.0 0.2955144978
C  C157  1  0.44493000  0.11453000  0.16826000  1.0 0.2955144978
C  C158  1  0.52667000  0.19493000  0.83040000  1.0 0.2955144978
C  C159  1  0.36453000  0.69627000  0.16960000  1.0 0.2955144978
C  C160  1  0.94627000  0.27667000  0.83174000  1.0 0.2955144978
C  C161  1  0.73925000  0.60927000  0.33152000  1.0 -0.2521040925
C  C162  1  0.65773000  0.48925000  0.62998000  1.0 -0.2521040925
C  C163  1  0.85927000  0.02775000  0.37002000  1.0 -0.2521040925
C  C164  1  0.27775000  0.40773000  0.66848000  1.0 -0.2521040925
C  C165  1  0.51075000  0.14073000  0.16848000  1.0 -0.2521040925
C  C166  1  0.59227000  0.26075000  0.87002000  1.0 -0.2521040925
C  C167  1  0.39073000  0.72225000  0.12998000  1.0 -0.2521040925
C  C168  1  0.97225000  0.34227000  0.83152000  1.0 -0.2521040925
C  C169  1  0.65905000  0.52984000  0.30689000  1.0 -0.0769116023
C  C170  1  0.60216000  0.40905000  0.62921000  1.0 -0.0769116023
C  C171  1  0.77984000  0.97295000  0.37079000  1.0 -0.0769116023
C  C172  1  0.22295000  0.35216000  0.69311000  1.0 -0.0769116023
C  C173  1  0.59095000  0.22016000  0.19311000  1.0 -0.0769116023
C  C174  1  0.64784000  0.34095000  0.87079000  1.0 -0.0769116023
C  C175  1  0.47016000  0.77705000  0.12921000  1.0 -0.0769116023
C  C176  1  0.02705000  0.39784000  0.80689000  1.0 -0.0769116023
C  C177  1  0.63918000  0.47216000  0.28014000  1.0 -0.1605120513
C  C178  1  0.60904000  0.38918000  0.66702000  1.0 -0.1605120513
C  C179  1  0.72216000  0.94202000  0.33298000  1.0 -0.1605120513
C  C180  1  0.19202000  0.35904000  0.71986000  1.0 -0.1605120513
C  C181  1  0.61082000  0.27784000  0.21986000  1.0 -0.1605120513
C  C182  1  0.64096000  0.36082000  0.83298000  1.0 -0.1605120513
C  C183  1  0.52784000  0.80798000  0.16702000  1.0 -0.1605120513
C  C184  1  0.05798000  0.39096000  0.78014000  1.0 -0.1605120513
C  C185  1  0.70514000  0.49984000  0.27898000  1.0 -0.1071981667
C  C186  1  0.67616000  0.45514000  0.70530000  1.0 -0.1071981667
C  C187  1  0.74984000  0.97086000  0.29470000  1.0 -0.1071981667
C  C188  1  0.22086000  0.42616000  0.72102000  1.0 -0.1071981667
C  C189  1  0.54486000  0.25016000  0.22102000  1.0 -0.1071981667
C  C190  1  0.57384000  0.29486000  0.79470000  1.0 -0.1071981667
C  C191  1  0.50016000  0.77914000  0.20530000  1.0 -0.1071981667
C  C192  1  0.02914000  0.32384000  0.77898000  1.0 -0.1071981667
C  C193  1  0.78793000  0.58002000  0.30375000  1.0 -0.1605120513
C  C194  1  0.73418000  0.53793000  0.70791000  1.0 -0.1605120513
C  C195  1  0.83002000  0.02627000  0.29209000  1.0 -0.1605120513
C  C196  1  0.27627000  0.48418000  0.69625000  1.0 -0.1605120513
C  C197  1  0.46207000  0.16998000  0.19625000  1.0 -0.1605120513
C  C198  1  0.51582000  0.21207000  0.79209000  1.0 -0.1605120513
C  C199  1  0.41998000  0.72373000  0.20791000  1.0 -0.1605120513
C  C200  1  0.97373000  0.26582000  0.80375000  1.0 -0.1605120513
C  C201  1  0.85295000  0.60392000  0.29787000  1.0 0.4251246489
C  C202  1  0.80508000  0.60295000  0.74903000  1.0 0.4210026598
C  C203  1  0.85392000  0.05605000  0.25097000  1.0 0.4210026598
C  C204  1  0.30605000  0.55508000  0.70213000  1.0 0.4210026598
C  C205  1  0.39705000  0.14608000  0.20213000  1.0 0.4210026598
C  C206  1  0.44492000  0.14705000  0.75097000  1.0 0.4210026598
C  C207  1  0.39608000  0.69395000  0.24903000  1.0 0.4210026598
C  C208  1  0.94395000  0.19492000  0.79787000  1.0 0.4210026598
C  C209  1  0.06328000  0.76665000  0.33713000  1.0 0.4515164667
C  C210  1  0.97615000  0.81328000  0.79663000  1.0 0.4515164667
C  C211  1  0.01665000  0.17952000  0.20337000  1.0 0.4515164667
C  C212  1  0.42952000  0.72615000  0.66287000  1.0 0.4515164667
C  C213  1  0.18672000  0.98335000  0.16287000  1.0 0.4515164667
C  C214  1  0.27385000  0.93672000  0.70337000  1.0 0.4515164667
C  C215  1  0.23335000  0.57048000  0.29663000  1.0 0.4515164667
C  C216  1  0.82048000  0.02385000  0.83713000  1.0 0.4515164667
C  C217  1  0.13602000  0.79924000  0.33206000  1.0 -0.3202275984
C  C218  1  0.05396000  0.88602000  0.83678000  1.0 -0.3202275984
C  C219  1  0.04924000  0.21718000  0.16322000  1.0 -0.3202275984
C  C220  1  0.46718000  0.80396000  0.66794000  1.0 -0.3202275984
C  C221  1  0.11398000  0.95076000  0.16794000  1.0 -0.3202275984
C  C222  1  0.19604000  0.86398000  0.66322000  1.0 -0.3148319685
C  C223  1  0.20076000  0.53282000  0.33678000  1.0 -0.3202275984
C  C224  1  0.78282000  0.94604000  0.83206000  1.0 -0.3202275984
C  C225  1  0.17779000  0.81256000  0.37595000  1.0 -0.140040805
C  C226  1  0.05184000  0.92779000  0.86523000  1.0 -0.140040805
C  C227  1  0.06256000  0.18661000  0.13477000  1.0 -0.140040805
C  C228  1  0.43661000  0.80184000  0.62405000  1.0 -0.140040805
C  C229  1  0.07221000  0.93744000  0.12405000  1.0 -0.140040805
C  C230  1  0.19816000  0.82221000  0.63477000  1.0 -0.140040805
C  C231  1  0.18744000  0.56339000  0.36523000  1.0 -0.140040805
C  C232  1  0.81339000  0.94816000  0.87595000  1.0 -0.140040805
C  C233  1  0.12144000  0.73201000  0.38845000  1.0 -0.1906248928
C  C234  1  0.98299000  0.87144000  0.88943000  1.0 -0.1906248928
C  C235  1  0.98201000  0.09356000  0.11057000  1.0 -0.1906248928
C  C236  1  0.34356000  0.73299000  0.61155000  1.0 -0.1906248928
C  C237  1  0.12856000  0.01799000  0.11155000  1.0 -0.1906248928
C  C238  1  0.26701000  0.87856000  0.61057000  1.0 -0.1906248928
C  C239  1  0.26799000  0.65644000  0.38943000  1.0 -0.1906248928
C  C240  1  0.90644000  0.01701000  0.88845000  1.0 -0.1906248928
C  C241  1  0.16626000  0.74508000  0.43074000  1.0 -0.119918495
C  C242  1  0.98552000  0.91626000  0.92118000  1.0 -0.119918495
C  C243  1  0.99508000  0.06434000  0.07882000  1.0 -0.119918495
C  C244  1  0.31434000  0.73552000  0.56926000  1.0 -0.119918495
C  C245  1  0.08374000  0.00492000  0.06926000  1.0 -0.119918495
C  C246  1  0.26448000  0.83374000  0.57882000  1.0 -0.119918495
C  C247  1  0.25492000  0.68566000  0.42118000  1.0 -0.119918495
C  C248  1  0.93566000  0.01448000  0.93074000  1.0 -0.119918495
C  C249  1  0.10918000  0.66360000  0.44238000  1.0 -0.3893093431
C  C250  1  0.91680000  0.85918000  0.94558000  1.0 -0.3893093431
C  C251  1  0.91360000  0.97122000  0.05442000  1.0 -0.3893093431
C  C252  1  0.22122000  0.66680000  0.55762000  1.0 -0.3893093431
C  C253  1  0.14082000  0.08640000  0.05762000  1.0 -0.3893093431
C  C254  1  0.33320000  0.89082000  0.55442000  1.0 -0.3893093431
C  C255  1  0.33640000  0.77878000  0.44558000  1.0 -0.3893093431
C  C256  1  0.02878000  0.08320000  0.94238000  1.0 -0.3893093431
C  C257  1  0.01401000  0.74000000  0.45261000  1.0 0.249863645
C  C258  1  0.81140000  0.76401000  0.77401000  1.0 0.249863645
C  C259  1  0.99000000  0.03739000  0.22599000  1.0 0.249863645
C  C260  1  0.28739000  0.56140000  0.54739000  1.0 0.249863645
C  C261  1  0.23599000  0.01000000  0.04739000  1.0 0.249863645
C  C262  1  0.43860000  0.98599000  0.72599000  1.0 0.249863645
C  C263  1  0.26000000  0.71261000  0.27401000  1.0 0.249863645
C  C264  1  0.96261000  0.18860000  0.95261000  1.0 0.249863645
C  C265  1  0.93052000  0.65274000  0.50126000  1.0 -0.3202275984
C  C266  1  0.67926000  0.68052000  0.77778000  1.0 -0.3202275984
C  C267  1  0.90274000  0.90148000  0.22222000  1.0 -0.3202275984
C  C268  1  0.15148000  0.42926000  0.49874000  1.0 -0.3202275984
C  C269  1  0.31948000  0.09726000  0.99874000  1.0 -0.3202275984
C  C270  1  0.57074000  0.06948000  0.72222000  1.0 -0.3202275984
C  C271  1  0.34726000  0.84852000  0.27778000  1.0 -0.3252156042
C  C272  1  0.09852000  0.32074000  0.00126000  1.0 -0.3202275984
C  C273  1  0.07528000  0.75456000  0.52244000  1.0 -0.3421848529
C  C274  1  0.80284000  0.82528000  0.82072000  1.0 -0.3421848529
C  C275  1  0.00456000  0.98212000  0.17928000  1.0 -0.3421848529
C  C276  1  0.23212000  0.55284000  0.47756000  1.0 -0.3421848529
C  C277  1  0.17472000  0.99544000  0.97756000  1.0 -0.3421848529
C  C278  1  0.44716000  0.92472000  0.67928000  1.0 -0.3421848529
C  C279  1  0.24544000  0.76788000  0.32072000  1.0 -0.3421848529
C  C280  1  0.01788000  0.19716000  0.02244000  1.0 -0.3421848529
C  C281  1  0.28998000  0.21274000  0.22212000  1.0 0.2804473675
C  C282  1  0.31786000  0.03998000  0.57724000  1.0 0.2804473675
C  C283  1  0.46274000  0.74062000  0.42276000  1.0 0.2804473675
C  C284  1  0.99062000  0.06786000  0.77788000  1.0 0.2804473675
C  C285  1  0.96002000  0.53726000  0.27788000  1.0 0.2804473675
C  C286  1  0.93214000  0.71002000  0.92276000  1.0 0.2804473675
C  C287  1  0.78726000  0.00938000  0.07724000  1.0 0.2804473675
C  C288  1  0.25938000  0.68214000  0.72212000  1.0 0.2804473675
C  C289  1  0.30816000  0.26137000  0.19633000  1.0 -0.225684682
C  C290  1  0.36183000  0.05816000  0.54679000  1.0 -0.225684682
C  C291  1  0.51137000  0.81504000  0.45321000  1.0 -0.225684682
C  C292  1  0.06504000  0.11183000  0.80367000  1.0 -0.225684682
C  C293  1  0.94184000  0.48863000  0.30367000  1.0 -0.225684682
C  C294  1  0.88817000  0.69184000  0.95321000  1.0 -0.225684682
C  C295  1  0.73863000  0.93496000  0.04679000  1.0 -0.225684682
C  C296  1  0.18496000  0.63817000  0.69633000  1.0 -0.225684682
C  C297  1  0.27324000  0.27384000  0.19788000  1.0 -0.0703479723
C  C298  1  0.32536000  0.02324000  0.49940000  1.0 -0.0703479723
C  C299  1  0.52384000  0.82596000  0.50060000  1.0 -0.0703479723
C  C300  1  0.07596000  0.07536000  0.80212000  1.0 -0.0703479723
C  C301  1  0.97676000  0.47616000  0.30212000  1.0 -0.0703479723
C  C302  1  0.92464000  0.72676000  0.00060000  1.0 -0.0703479723
C  C303  1  0.72616000  0.92404000  0.99940000  1.0 -0.0703479723
C  C304  1  0.17404000  0.67464000  0.69788000  1.0 -0.0703479723
C  C305  1  0.21900000  0.23801000  0.22481000  1.0 -0.1605120513
C  C306  1  0.24419000  0.96900000  0.48099000  1.0 -0.1605120513
C  C307  1  0.48801000  0.76320000  0.51901000  1.0 -0.1605120513
C  C308  1  0.01320000  0.99419000  0.77519000  1.0 -0.1605120513
C  C309  1  0.03100000  0.51199000  0.27519000  1.0 -0.1605120513
C  C310  1  0.00581000  0.78100000  0.01901000  1.0 -0.1605120513
C  C311  1  0.76199000  0.98680000  0.98099000  1.0 -0.1605120513
C  C312  1  0.23680000  0.75581000  0.72481000  1.0 -0.1605120513
C  C313  1  0.20037000  0.18949000  0.24946000  1.0 -0.0987211122
C  C314  1  0.20091000  0.95037000  0.51088000  1.0 -0.0987211122
C  C315  1  0.43949000  0.69003000  0.48912000  1.0 -0.0987211122
C  C316  1  0.94003000  0.95091000  0.75054000  1.0 -0.0987211122
C  C317  1  0.04963000  0.56051000  0.25054000  1.0 -0.0987211122
C  C318  1  0.04909000  0.79963000  0.98912000  1.0 -0.0987211122
C  C319  1  0.81051000  0.05997000  0.01088000  1.0 -0.0987211122
C  C320  1  0.30997000  0.79909000  0.74946000  1.0 -0.0987211122
C  C321  1  0.23422000  0.17504000  0.24846000  1.0 -0.1605120513
C  C322  1  0.23576000  0.98422000  0.55918000  1.0 -0.1605120513
C  C323  1  0.42504000  0.67658000  0.44082000  1.0 -0.1605120513
C  C324  1  0.92658000  0.98576000  0.75154000  1.0 -0.1605120513
C  C325  1  0.01578000  0.57496000  0.25154000  1.0 -0.1605120513
C  C326  1  0.01424000  0.76578000  0.94082000  1.0 -0.1605120513
C  C327  1  0.82496000  0.07342000  0.05918000  1.0 -0.1605120513
C  C328  1  0.32342000  0.76424000  0.74846000  1.0 -0.1605120513
C  C329  1  0.21089000  0.12321000  0.27690000  1.0 0.4210026598
C  C330  1  0.18399000  0.96089000  0.58768000  1.0 0.4210026598
C  C331  1  0.37321000  0.59631000  0.41232000  1.0 0.4210026598
C  C332  1  0.84631000  0.93399000  0.72310000  1.0 0.4210026598
C  C333  1  0.03911000  0.62679000  0.22310000  1.0 0.4210026598
C  C334  1  0.06601000  0.78911000  0.91232000  1.0 0.4210026598
C  C335  1  0.87679000  0.15369000  0.08768000  1.0 0.4210026598
C  C336  1  0.40369000  0.81601000  0.77690000  1.0 0.4210026598
C  C337  1  0.26791000  0.06928000  0.31479000  1.0 0.4515164667
C  C338  1  0.20312000  0.01791000  0.69863000  1.0 0.4515164667
C  C339  1  0.31928000  0.50449000  0.30137000  1.0 0.4515164667
C  C340  1  0.75449000  0.95312000  0.68521000  1.0 0.4515164667
C  C341  1  0.98209000  0.68072000  0.18521000  1.0 0.4515164667
C  C342  1  0.04688000  0.73209000  0.80137000  1.0 0.4515164667
C  C343  1  0.93072000  0.24551000  0.19863000  1.0 0.4515164667
C  C344  1  0.49551000  0.79688000  0.81479000  1.0 0.4515164667
C  C345  1  0.26090000  0.03091000  0.34881000  1.0 -0.3202275984
C  C346  1  0.16209000  0.01090000  0.72999000  1.0 -0.3202275984
C  C347  1  0.28091000  0.43210000  0.27001000  1.0 -0.3202275984
C  C348  1  0.68210000  0.91209000  0.65119000  1.0 -0.3202275984
C  C349  1  0.98910000  0.71909000  0.15119000  1.0 -0.3202275984
C  C350  1  0.08791000  0.73910000  0.77001000  1.0 -0.3202275984
C  C351  1  0.96909000  0.31790000  0.22999000  1.0 -0.3202275984
C  C352  1  0.56790000  0.83791000  0.84881000  1.0 -0.3202275984
C  C353  1  0.33939000  0.09788000  0.38947000  1.0 -0.140040805
C  C354  1  0.19992000  0.08939000  0.74151000  1.0 -0.140040805
C  C355  1  0.34788000  0.45841000  0.25849000  1.0 -0.140040805
C  C356  1  0.70841000  0.94992000  0.61053000  1.0 -0.140040805
C  C357  1  0.91061000  0.65212000  0.11053000  1.0 -0.140040805
C  C358  1  0.05008000  0.66061000  0.75849000  1.0 -0.140040805
C  C359  1  0.90212000  0.29159000  0.24151000  1.0 -0.140040805
C  C360  1  0.54159000  0.80008000  0.88947000  1.0 -0.140040805
C  C361  1  0.35053000  0.15051000  0.42024000  1.0 -0.1906248928
C  C362  1  0.18029000  0.10053000  0.70002000  1.0 -0.1906248928
C  C363  1  0.40051000  0.48027000  0.29998000  1.0 -0.1906248928
C  C364  1  0.73027000  0.93029000  0.57976000  1.0 -0.1906248928
C  C365  1  0.89947000  0.59949000  0.07976000  1.0 -0.1906248928
C  C366  1  0.06971000  0.64947000  0.79998000  1.0 -0.1906248928
C  C367  1  0.84949000  0.26973000  0.20002000  1.0 -0.1906248928
C  C368  1  0.51973000  0.81971000  0.92024000  1.0 -0.1906248928
C  C369  1  0.42802000  0.21820000  0.46182000  1.0 -0.1071981667
C  C370  1  0.21620000  0.17802000  0.70982000  1.0 -0.1071981667
C  C371  1  0.46820000  0.50638000  0.29018000  1.0 -0.1071981667
C  C372  1  0.75638000  0.96620000  0.53818000  1.0 -0.1071981667
C  C373  1  0.82198000  0.53180000  0.03818000  1.0 -0.1071981667
C  C374  1  0.03380000  0.57198000  0.79018000  1.0 -0.1071981667
C  C375  1  0.78180000  0.24362000  0.20982000  1.0 -0.1071981667
C  C376  1  0.49362000  0.78380000  0.96182000  1.0 -0.1071981667
C  C377  1  0.43600000  0.26770000  0.49210000  1.0 -0.3893093431
C  C378  1  0.19390000  0.18600000  0.66830000  1.0 -0.3893093431
C  C379  1  0.51770000  0.52560000  0.33170000  1.0 -0.3893093431
C  C380  1  0.77560000  0.94390000  0.50790000  1.0 -0.3893093431
C  C381  1  0.81400000  0.48230000  0.00790000  1.0 -0.3893093431
C  C382  1  0.05610000  0.56400000  0.83170000  1.0 -0.3893093431
C  C383  1  0.73230000  0.22440000  0.16830000  1.0 -0.3893093431
C  C384  1  0.47440000  0.80610000  0.99210000  1.0 -0.3893093431
C  C385  1  0.54067000  0.70679000  0.29786000  1.0 0.0820300029
C  C386  1  0.49281000  0.29067000  0.33388000  1.0 0.0820300029
C  C387  1  0.95679000  0.15893000  0.66612000  1.0 0.0820300029
C  C388  1  0.40893000  0.24281000  0.70214000  1.0 0.0820300029
C  C389  1  0.70933000  0.04321000  0.20214000  1.0 0.0820300029
C  C390  1  0.75719000  0.45933000  0.16612000  1.0 0.0820300029
C  C391  1  0.29321000  0.59107000  0.83388000  1.0 0.0820300029
C  C392  1  0.84107000  0.50719000  0.79786000  1.0 0.0820300029
C  C393  1  0.60301000  0.72885000  0.29866000  1.0 -0.2201852253
C  C394  1  0.55435000  0.35301000  0.37416000  1.0 -0.2201852253
C  C395  1  0.97885000  0.18019000  0.62584000  1.0 -0.2201852253
C  C396  1  0.43019000  0.30435000  0.70134000  1.0 -0.2201852253
C  C397  1  0.64699000  0.02115000  0.20134000  1.0 -0.2201852253
C  C398  1  0.69565000  0.39699000  0.12584000  1.0 -0.2201852253
C  C399  1  0.27115000  0.56981000  0.87416000  1.0 -0.2201852253
C  C400  1  0.81981000  0.44565000  0.79866000  1.0 -0.2201852253
C  C401  1  0.65214000  0.75717000  0.34051000  1.0 0.1597843663
C  C402  1  0.56163000  0.40214000  0.39497000  1.0 0.1597843663
C  C403  1  0.00717000  0.16666000  0.60503000  1.0 0.1597843663
C  C404  1  0.41666000  0.31163000  0.65949000  1.0 0.1597843663
C  C405  1  0.59786000  0.99283000  0.15949000  1.0 0.1597843663
C  C406  1  0.68837000  0.34786000  0.10503000  1.0 0.1597843663
C  C407  1  0.24283000  0.58334000  0.89497000  1.0 0.1597843663
C  C408  1  0.83334000  0.43837000  0.84051000  1.0 0.1597843663
C  C409  1  0.63731000  0.76543000  0.37914000  1.0 -0.2106915527
C  C410  1  0.50817000  0.38731000  0.37188000  1.0 -0.2106915527
C  C411  1  0.01543000  0.13629000  0.62812000  1.0 -0.2106915527
C  C412  1  0.38629000  0.25817000  0.62086000  1.0 -0.2106915527
C  C413  1  0.61269000  0.98457000  0.12086000  1.0 -0.2106915527
C  C414  1  0.74183000  0.36269000  0.12812000  1.0 -0.2106915527
C  C415  1  0.23457000  0.61371000  0.87188000  1.0 -0.2106915527
C  C416  1  0.86371000  0.49183000  0.87914000  1.0 -0.2106915527
C  C417  1  0.57414000  0.74262000  0.37636000  1.0 0.068818706
C  C418  1  0.44778000  0.32414000  0.33152000  1.0 0.068818706
C  C419  1  0.99262000  0.11626000  0.66848000  1.0 0.068818706
C  C420  1  0.36626000  0.19778000  0.62364000  1.0 0.068818706
C  C421  1  0.67586000  0.00738000  0.12364000  1.0 0.068818706
C  C422  1  0.80222000  0.42586000  0.16848000  1.0 0.068818706
C  C423  1  0.25738000  0.63374000  0.83152000  1.0 0.068818706
C  C424  1  0.88374000  0.55222000  0.87636000  1.0 0.068818706
C  C425  1  0.71960000  0.77950000  0.34210000  1.0 -0.2356169672
C  C426  1  0.62750000  0.46960000  0.44010000  1.0 -0.2356169672
C  C427  1  0.02950000  0.18740000  0.55990000  1.0 -0.2356169672
C  C428  1  0.43740000  0.37750000  0.65790000  1.0 -0.2356169672
C  C429  1  0.53040000  0.97050000  0.15790000  1.0 -0.2356169672
C  C430  1  0.62250000  0.28040000  0.05990000  1.0 -0.2356169672
C  C431  1  0.22050000  0.56260000  0.94010000  1.0 -0.2356169672
C  C432  1  0.81260000  0.37250000  0.84210000  1.0 -0.2356169672
N  N1  1  0.07984000  0.93190000  0.36152000  1.0 -0.3202275984
N  N2  1  0.96832000  0.82984000  0.64794000  1.0 -0.3202275984
N  N3  1  0.18190000  0.32038000  0.35206000  1.0 -0.3202275984
N  N4  1  0.57038000  0.71832000  0.63848000  1.0 -0.3202275984
N  N5  1  0.17016000  0.81810000  0.13848000  1.0 -0.3202275984
N  N6  1  0.28168000  0.92016000  0.85206000  1.0 -0.3202275984
N  N7  1  0.06810000  0.42962000  0.14794000  1.0 -0.3202275984
N  N8  1  0.67962000  0.03168000  0.86152000  1.0 -0.3202275984
N  N9  1  0.02832000  0.85634000  0.32906000  1.0 -0.3202275984
N  N10  1  0.94926000  0.77832000  0.67198000  1.0 -0.3202275984
N  N11  1  0.10634000  0.27728000  0.32802000  1.0 -0.3202275984
N  N12  1  0.52728000  0.69926000  0.67094000  1.0 -0.3202275984
N  N13  1  0.22168000  0.89366000  0.17094000  1.0 -0.3202275984
N  N14  1  0.30074000  0.97168000  0.82802000  1.0 -0.3202275984
N  N15  1  0.14366000  0.47272000  0.17198000  1.0 -0.3202275984
N  N16  1  0.72272000  0.05074000  0.82906000  1.0 -0.3202275984
N  N17  1  0.00731000  0.96092000  0.33823000  1.0 -0.2201852253
N  N18  1  0.91908000  0.75731000  0.54639000  1.0 -0.2201852253
N  N19  1  0.21092000  0.37269000  0.45361000  1.0 -0.2201852253
N  N20  1  0.62269000  0.66908000  0.66177000  1.0 -0.2201852253
N  N21  1  0.24269000  0.78908000  0.16177000  1.0 -0.2201852253
N  N22  1  0.33092000  0.99269000  0.95361000  1.0 -0.2201852253
N  N23  1  0.03908000  0.37731000  0.04639000  1.0 -0.2201852253
N  N24  1  0.62731000  0.08092000  0.83823000  1.0 -0.2201852253
N  N25  1  0.93163000  0.67897000  0.32040000  1.0 -0.3202275984
N  N26  1  0.86123000  0.68163000  0.75266000  1.0 -0.3202275984
N  N27  1  0.92897000  0.10857000  0.24734000  1.0 -0.3202275984
N  N28  1  0.35857000  0.61123000  0.67960000  1.0 -0.3202275984
N  N29  1  0.31837000  0.07103000  0.17960000  1.0 -0.3202275984
N  N30  1  0.38877000  0.06837000  0.74734000  1.0 -0.3202275984
N  N31  1  0.32103000  0.64143000  0.25266000  1.0 -0.3202275984
N  N32  1  0.89143000  0.13877000  0.82040000  1.0 -0.3202275984
N  N33  1  0.98882000  0.69498000  0.31060000  1.0 -0.2983625979
N  N34  1  0.92822000  0.73882000  0.79384000  1.0 -0.2939198279
N  N35  1  0.94498000  0.13438000  0.20616000  1.0 -0.2939198279
N  N36  1  0.38438000  0.67822000  0.68940000  1.0 -0.2939198279
N  N37  1  0.26118000  0.05502000  0.18940000  1.0 -0.2939198279
N  N38  1  0.32178000  0.01118000  0.70616000  1.0 -0.2939198279
N  N39  1  0.30502000  0.61562000  0.29384000  1.0 -0.2939198279
N  N40  1  0.86562000  0.07178000  0.81060000  1.0 -0.2939198279
N  N41  1  0.00722000  0.71629000  0.48991000  1.0 0.0372097007
N  N42  1  0.76731000  0.75722000  0.79093000  1.0 0.0372097007
N  N43  1  0.96629000  0.97638000  0.20907000  1.0 0.0372097007
N  N44  1  0.22638000  0.51731000  0.51009000  1.0 0.0372097007
N  N45  1  0.24278000  0.03371000  0.01009000  1.0 0.0372097007
N  N46  1  0.48269000  0.99278000  0.70907000  1.0 0.0372097007
N  N47  1  0.28371000  0.77362000  0.29093000  1.0 0.0372097007
N  N48  1  0.02362000  0.23269000  0.98991000  1.0 0.0372097007
N  N49  1  0.24793000  0.11563000  0.28018000  1.0 -0.2983625979
N  N50  1  0.21775000  0.99793000  0.63230000  1.0 -0.2983625979
N  N51  1  0.36563000  0.58545000  0.36770000  1.0 -0.2983625979
N  N52  1  0.83545000  0.96775000  0.71982000  1.0 -0.2983625979
N  N53  1  0.00207000  0.63437000  0.21982000  1.0 -0.2983625979
N  N54  1  0.03225000  0.75207000  0.86770000  1.0 -0.2983625979
N  N55  1  0.88437000  0.16455000  0.13230000  1.0 -0.2983625979
N  N56  1  0.41455000  0.78225000  0.78018000  1.0 -0.2983625979
N  N57  1  0.22630000  0.07080000  0.31170000  1.0 -0.2983625979
N  N58  1  0.16460000  0.97630000  0.65550000  1.0 -0.2983625979
N  N59  1  0.32080000  0.50910000  0.34450000  1.0 -0.2983625979
N  N60  1  0.75910000  0.91460000  0.68830000  1.0 -0.2983625979
N  N61  1  0.02370000  0.67920000  0.18830000  1.0 -0.2983625979
N  N62  1  0.08540000  0.77370000  0.84450000  1.0 -0.2939198279
N  N63  1  0.92920000  0.24090000  0.15550000  1.0 -0.2983625979
N  N64  1  0.49090000  0.83540000  0.81170000  1.0 -0.2983625979
N  N65  1  0.52627000  0.71386000  0.33593000  1.0 -0.1906248928
N  N66  1  0.44034000  0.27627000  0.31241000  1.0 -0.1906248928
N  N67  1  0.96386000  0.12793000  0.68759000  1.0 -0.1906248928
N  N68  1  0.37793000  0.19034000  0.66407000  1.0 -0.1906248928
N  N69  1  0.72373000  0.03614000  0.16407000  1.0 -0.1906248928
N  N70  1  0.80966000  0.47373000  0.18759000  1.0 -0.1906248928
N  N71  1  0.28614000  0.62207000  0.81241000  1.0 -0.1906248928
N  N72  1  0.87207000  0.55966000  0.83593000  1.0 -0.1906248928
O  O1  1  0.18235000  0.08924000  0.39093000  1.0 -0.4742663243
O  O2  1  0.04142000  0.93235000  0.59311000  1.0 -0.4742663243
O  O3  1  0.33924000  0.44831000  0.40689000  1.0 -0.4742663243
O  O4  1  0.69831000  0.79142000  0.60907000  1.0 -0.4742663243
O  O5  1  0.06765000  0.66076000  0.10907000  1.0 -0.4742663243
O  O6  1  0.20858000  0.81765000  0.90689000  1.0 -0.4742663243
O  O7  1  0.91076000  0.30169000  0.09311000  1.0 -0.4742663243
O  O8  1  0.55169000  0.95858000  0.89093000  1.0 -0.4742663243
O  O9  1  0.04475000  0.86486000  0.41641000  1.0 -0.4782519379
O  O10  1  0.87834000  0.79475000  0.67989000  1.0 -0.4782519379
O  O11  1  0.11486000  0.19845000  0.32011000  1.0 -0.4782519379
O  O12  1  0.44845000  0.62834000  0.58359000  1.0 -0.4782519379
O  O13  1  0.20525000  0.88514000  0.08359000  1.0 -0.4782519379
O  O14  1  0.37166000  0.95525000  0.82011000  1.0 -0.4782519379
O  O15  1  0.13514000  0.55155000  0.17989000  1.0 -0.4782519379
O  O16  1  0.80155000  0.12166000  0.91641000  1.0 -0.4782519379
O  O17  1  0.04799000  0.92194000  0.27867000  1.0 -0.490414961
O  O18  1  0.01932000  0.79799000  0.62605000  1.0 -0.490414961
O  O19  1  0.17194000  0.39327000  0.37395000  1.0 -0.490414961
O  O20  1  0.64327000  0.76932000  0.72133000  1.0 -0.490414961
O  O21  1  0.20201000  0.82806000  0.22133000  1.0 -0.490414961
O  O22  1  0.23068000  0.95201000  0.87395000  1.0 -0.490414961
O  O23  1  0.07806000  0.35673000  0.12605000  1.0 -0.490414961
O  O24  1  0.60673000  0.98068000  0.77867000  1.0 -0.490414961
O  O25  1  0.87994000  0.71097000  0.35827000  1.0 -0.490414961
O  O26  1  0.77167000  0.62994000  0.66897000  1.0 -0.490414961
O  O27  1  0.96097000  0.10270000  0.33103000  1.0 -0.490414961
O  O28  1  0.35270000  0.52167000  0.64173000  1.0 -0.490414961
O  O29  1  0.37006000  0.03903000  0.14173000  1.0 -0.490414961
O  O30  1  0.47833000  0.12006000  0.83103000  1.0 -0.490414961
O  O31  1  0.28903000  0.64730000  0.16897000  1.0 -0.490414961
O  O32  1  0.89730000  0.22833000  0.85827000  1.0 -0.490414961
O  O33  1  0.83200000  0.55102000  0.26990000  1.0 -0.4599840027
O  O34  1  0.81210000  0.58200000  0.78098000  1.0 -0.4599840027
O  O35  1  0.80102000  0.03112000  0.21902000  1.0 -0.4599840027
O  O36  1  0.28112000  0.56210000  0.73010000  1.0 -0.4599840027
O  O37  1  0.41800000  0.19898000  0.23010000  1.0 -0.4599840027
O  O38  1  0.43790000  0.16800000  0.71902000  1.0 -0.4599840027
O  O39  1  0.44898000  0.71888000  0.28098000  1.0 -0.4599840027
O  O40  1  0.96888000  0.18790000  0.76990000  1.0 -0.4599840027
O  O41  1  0.07909000  0.81342000  0.36909000  1.0 -0.5176568293
O  O42  1  0.96000000  0.82909000  0.76567000  1.0 -0.5176568293
O  O43  1  0.06342000  0.19433000  0.23433000  1.0 -0.5176568293
O  O44  1  0.44433000  0.71000000  0.63091000  1.0 -0.5176568293
O  O45  1  0.17091000  0.93658000  0.13091000  1.0 -0.5176568293
O  O46  1  0.29000000  0.92091000  0.73433000  1.0 -0.5176568293
O  O47  1  0.18658000  0.55567000  0.26567000  1.0 -0.5176568293
O  O48  1  0.80567000  0.04000000  0.86909000  1.0 -0.5176568293
O  O49  1  0.95905000  0.71185000  0.42474000  1.0 -0.4191735909
O  O50  1  0.78431000  0.70905000  0.74720000  1.0 -0.4191735909
O  O51  1  0.96185000  0.03711000  0.25280000  1.0 -0.4191735909
O  O52  1  0.28711000  0.53431000  0.57526000  1.0 -0.4191735909
O  O53  1  0.29095000  0.03815000  0.07526000  1.0 -0.4191735909
O  O54  1  0.46569000  0.04095000  0.75280000  1.0 -0.4191735909
O  O55  1  0.28815000  0.71289000  0.24720000  1.0 -0.4191735909
O  O56  1  0.96289000  0.21569000  0.92474000  1.0 -0.4191735909
O  O57  1  0.32796000  0.20599000  0.21877000  1.0 -0.4512832948
O  O58  1  0.35919000  0.07796000  0.62197000  1.0 -0.4512832948
O  O59  1  0.45599000  0.73722000  0.37803000  1.0 -0.4512832948
O  O60  1  0.98722000  0.10919000  0.78123000  1.0 -0.4512832948
O  O61  1  0.92204000  0.54401000  0.28123000  1.0 -0.4512832948
O  O62  1  0.89081000  0.67204000  0.87803000  1.0 -0.4512832948
O  O63  1  0.79401000  0.01278000  0.12197000  1.0 -0.4512832948
O  O64  1  0.26278000  0.64081000  0.71877000  1.0 -0.4512832948
O  O65  1  0.15614000  0.08820000  0.29828000  1.0 -0.4599840027
O  O66  1  0.10786000  0.90614000  0.56794000  1.0 -0.4599840027
O  O67  1  0.33820000  0.53992000  0.43206000  1.0 -0.4599840027
O  O68  1  0.78992000  0.85786000  0.70172000  1.0 -0.4599840027
O  O69  1  0.09386000  0.66180000  0.20172000  1.0 -0.4599840027
O  O70  1  0.14214000  0.84386000  0.93206000  1.0 -0.4599840027
O  O71  1  0.91180000  0.21008000  0.06794000  1.0 -0.4599840027
O  O72  1  0.46008000  0.89214000  0.79828000  1.0 -0.4599840027
O  O73  1  0.31958000  0.10274000  0.29036000  1.0 -0.490414961
O  O74  1  0.27922000  0.06958000  0.71684000  1.0 -0.490414961
O  O75  1  0.35274000  0.56238000  0.28316000  1.0 -0.490414961
O  O76  1  0.81238000  0.02922000  0.70964000  1.0 -0.490414961
O  O77  1  0.93042000  0.64726000  0.20964000  1.0 -0.490414961
O  O78  1  0.97078000  0.68042000  0.78316000  1.0 -0.490414961
O  O79  1  0.89726000  0.18762000  0.21684000  1.0 -0.490414961
O  O80  1  0.43762000  0.72078000  0.79036000  1.0 -0.490414961
