# DDEC6 charges by PACMAN v1.1 (https://github.com/mtap-research/PACMAN-charge/)
data_XAMHOM02_FSR_pacman
_symmetry_space_group_name_H-M   'P 1'
_cell_length_a   15.53980000
_cell_length_b   13.19230000
_cell_length_c   16.04140000
_cell_angle_alpha   90.00000000
_cell_angle_beta   98.01300000
_cell_angle_gamma   90.00000000
_symmetry_Int_Tables_number   1
_chemical_formula_structural   FeAg2H14(C4N)6
_chemical_formula_sum   'Fe4 Ag8 H56 C96 N24'
_cell_volume   3256.47034444
_cell_formula_units_Z   4
loop_
 _symmetry_equiv_pos_site_id
 _symmetry_equiv_pos_as_xyz
  1  'x, y, z'
loop_
 _atom_site_type_symbol
 _atom_site_label
 _atom_site_symmetry_multiplicity
 _atom_site_fract_x
 _atom_site_fract_y
 _atom_site_fract_z
 _atom_site_occupancy
 _atom_site_charge
Fe  Fe1  1  0.60145000  0.50017000  0.77705000  1.0 0.6329722722
Fe  Fe2  1  0.39855000  0.00017000  0.72295000  1.0 0.6243975679
Fe  Fe3  1  0.39855000  0.49983000  0.22295000  1.0 0.6329722722
Fe  Fe4  1  0.60145000  0.99983000  0.27705000  1.0 0.6329722722
Ag  Ag1  1  0.59594000  0.74218000  0.52064000  1.0 0.138390024
Ag  Ag2  1  0.59588000  0.26923000  0.03935000  1.0 0.138390024
Ag  Ag3  1  0.40406000  0.24218000  0.97936000  1.0 0.138390024
Ag  Ag4  1  0.40412000  0.76923000  0.46065000  1.0 0.138390024
Ag  Ag5  1  0.40406000  0.25782000  0.47936000  1.0 0.138390024
Ag  Ag6  1  0.40412000  0.73077000  0.96065000  1.0 0.138390024
Ag  Ag7  1  0.59594000  0.75782000  0.02064000  1.0 0.138390024
Ag  Ag8  1  0.59588000  0.23077000  0.53935000  1.0 0.138390024
H  H1  1  0.45900000  0.35030000  0.79480000  1.0 0.1207415788
H  H2  1  0.31200000  0.34580000  0.80150000  1.0 0.1207415788
H  H3  1  0.30230000  0.64730000  0.75730000  1.0 0.1324939127
H  H4  1  0.44980000  0.64530000  0.75490000  1.0 0.1207415788
H  H5  1  0.16180000  0.55770000  0.66830000  1.0 0.1207415788
H  H6  1  0.01170000  0.55850000  0.66820000  1.0 0.1207415788
H  H7  1  0.97390000  0.42190000  0.92840000  1.0 0.1083940132
H  H8  1  0.06630000  0.37030000  0.04610000  1.0 0.1083940132
H  H9  1  0.21740000  0.37600000  0.04790000  1.0 0.1083940132
H  H10  1  0.27500000  0.43290000  0.93130000  1.0 0.1083940132
H  H11  1  0.89730000  0.64910000  0.75900000  1.0 0.138390024
H  H12  1  0.74920000  0.64800000  0.75990000  1.0 0.1207415788
H  H13  1  0.74900000  0.35270000  0.79400000  1.0 0.1207415788
H  H14  1  0.89760000  0.34660000  0.79750000  1.0 0.1324939127
H  H15  1  0.54100000  0.85030000  0.70520000  1.0 0.1207415788
H  H16  1  0.68800000  0.84580000  0.69850000  1.0 0.1207415788
H  H17  1  0.69770000  0.14730000  0.74270000  1.0 0.1324939127
H  H18  1  0.55020000  0.14530000  0.74510000  1.0 0.1207415788
H  H19  1  0.83820000  0.05770000  0.83170000  1.0 0.1207415788
H  H20  1  0.98830000  0.05850000  0.83180000  1.0 0.1207415788
H  H21  1  0.02610000  0.92190000  0.57160000  1.0 0.1083940132
H  H22  1  0.93370000  0.87030000  0.45390000  1.0 0.1083940132
H  H23  1  0.78260000  0.87600000  0.45210000  1.0 0.1083940132
H  H24  1  0.72500000  0.93290000  0.56870000  1.0 0.1083940132
H  H25  1  0.10270000  0.14910000  0.74100000  1.0 0.138390024
H  H26  1  0.25080000  0.14800000  0.74010000  1.0 0.1207415788
H  H27  1  0.25100000  0.85270000  0.70600000  1.0 0.1207415788
H  H28  1  0.10240000  0.84660000  0.70250000  1.0 0.1324939127
H  H29  1  0.54100000  0.64970000  0.20520000  1.0 0.1207415788
H  H30  1  0.68800000  0.65420000  0.19850000  1.0 0.1207415788
H  H31  1  0.69770000  0.35270000  0.24270000  1.0 0.1324939127
H  H32  1  0.55020000  0.35470000  0.24510000  1.0 0.1207415788
H  H33  1  0.83820000  0.44230000  0.33170000  1.0 0.1207415788
H  H34  1  0.98830000  0.44150000  0.33180000  1.0 0.1207415788
H  H35  1  0.02610000  0.57810000  0.07160000  1.0 0.1083940132
H  H36  1  0.93370000  0.62970000  0.95390000  1.0 0.1083940132
H  H37  1  0.78260000  0.62400000  0.95210000  1.0 0.1083940132
H  H38  1  0.72500000  0.56710000  0.06870000  1.0 0.1083940132
H  H39  1  0.10270000  0.35090000  0.24100000  1.0 0.138390024
H  H40  1  0.25080000  0.35200000  0.24010000  1.0 0.1207415788
H  H41  1  0.25100000  0.64730000  0.20600000  1.0 0.1207415788
H  H42  1  0.10240000  0.65340000  0.20250000  1.0 0.1324939127
H  H43  1  0.45900000  0.14970000  0.29480000  1.0 0.1207415788
H  H44  1  0.31200000  0.15420000  0.30150000  1.0 0.1207415788
H  H45  1  0.30230000  0.85270000  0.25730000  1.0 0.1324939127
H  H46  1  0.44980000  0.85470000  0.25490000  1.0 0.1207415788
H  H47  1  0.16180000  0.94230000  0.16830000  1.0 0.1207415788
H  H48  1  0.01170000  0.94150000  0.16820000  1.0 0.1207415788
H  H49  1  0.97390000  0.07810000  0.42840000  1.0 0.1083940132
H  H50  1  0.06630000  0.12970000  0.54610000  1.0 0.1083940132
H  H51  1  0.21740000  0.12400000  0.54790000  1.0 0.1083940132
H  H52  1  0.27500000  0.06710000  0.43130000  1.0 0.1083940132
H  H53  1  0.89730000  0.85090000  0.25900000  1.0 0.138390024
H  H54  1  0.74920000  0.85200000  0.25990000  1.0 0.1207415788
H  H55  1  0.74900000  0.14730000  0.29400000  1.0 0.1207415788
H  H56  1  0.89760000  0.15340000  0.29750000  1.0 0.1324939127
C  C1  1  0.58860000  0.65420000  0.62550000  1.0 -0.0281460817
C  C2  1  0.59180000  0.32590000  0.64070000  1.0 -0.0223162775
C  C3  1  0.60960000  0.35470000  0.93450000  1.0 -0.035409451
C  C4  1  0.60390000  0.66570000  0.91810000  1.0 -0.0281460817
C  C5  1  0.42670000  0.41160000  0.78760000  1.0 0.0828972873
C  C6  1  0.33900000  0.40840000  0.79150000  1.0 -0.2017678307
C  C7  1  0.28950000  0.49660000  0.78090000  1.0 0.1207415788
C  C8  1  0.33333333  0.58520000  0.76600000  1.0 -0.2017678307
C  C9  1  0.42130000  0.58340000  0.76390000  1.0 0.0868217139
C  C10  1  0.19450000  0.49620000  0.78340000  1.0 0.0151871512
C  C11  1  0.13870000  0.53230000  0.71600000  1.0 -0.1487268717
C  C12  1  0.04860000  0.53250000  0.71560000  1.0 -0.1429190938
C  C13  1  0.01290000  0.49560000  0.78290000  1.0 0.00262185
C  C14  1  0.06770000  0.45810000  0.85470000  1.0 0.0397138544
C  C15  1  0.03500000  0.42390000  0.92790000  1.0 -0.15660541
C  C16  1  0.08980000  0.39360000  0.99790000  1.0 -0.0978126103
C  C17  1  0.17980000  0.39670000  0.99910000  1.0 -0.0918748756
C  C18  1  0.21370000  0.42990000  0.92960000  1.0 -0.1487268717
C  C19  1  0.15960000  0.45960000  0.85510000  1.0 0.0397138544
C  C20  1  0.91670000  0.49740000  0.78000000  1.0 0.1207415788
C  C21  1  0.86870000  0.58710000  0.76750000  1.0 -0.2068379974
C  C22  1  0.77980000  0.58560000  0.76760000  1.0 0.0828972873
C  C23  1  0.77960000  0.41400000  0.78790000  1.0 0.0868217139
C  C24  1  0.86860000  0.41000000  0.78960000  1.0 -0.2068379974
C  C25  1  0.41140000  0.15420000  0.87450000  1.0 -0.0281460817
C  C26  1  0.40820000  0.82590000  0.85930000  1.0 -0.0223162775
C  C27  1  0.39040000  0.85470000  0.56550000  1.0 -0.035409451
C  C28  1  0.39610000  0.16570000  0.58190000  1.0 -0.0223162775
C  C29  1  0.57330000  0.91160000  0.71240000  1.0 0.0828972873
C  C30  1  0.66100000  0.90840000  0.70850000  1.0 -0.2017678307
C  C31  1  0.71050000  0.99660000  0.71910000  1.0 0.1207415788
C  C32  1  0.66666667  0.08520000  0.73400000  1.0 -0.2017678307
C  C33  1  0.57870000  0.08340000  0.73610000  1.0 0.0868217139
C  C34  1  0.80550000  0.99620000  0.71660000  1.0 0.0151871512
C  C35  1  0.86130000  0.03230000  0.78400000  1.0 -0.1487268717
C  C36  1  0.95140000  0.03250000  0.78440000  1.0 -0.1429190938
C  C37  1  0.98710000  0.99560000  0.71710000  1.0 0.00262185
C  C38  1  0.93230000  0.95810000  0.64530000  1.0 0.0397138544
C  C39  1  0.96500000  0.92390000  0.57210000  1.0 -0.15660541
C  C40  1  0.91020000  0.89360000  0.50210000  1.0 -0.0978126103
C  C41  1  0.82020000  0.89670000  0.50090000  1.0 -0.0918748756
C  C42  1  0.78630000  0.92990000  0.57040000  1.0 -0.1487268717
C  C43  1  0.84040000  0.95960000  0.64490000  1.0 0.0397138544
C  C44  1  0.08330000  0.99740000  0.72000000  1.0 0.1207415788
C  C45  1  0.13130000  0.08710000  0.73250000  1.0 -0.2068379974
C  C46  1  0.22020000  0.08560000  0.73240000  1.0 0.0828972873
C  C47  1  0.22040000  0.91400000  0.71210000  1.0 0.0868217139
C  C48  1  0.13140000  0.91000000  0.71040000  1.0 -0.2068379974
C  C49  1  0.41140000  0.34580000  0.37450000  1.0 -0.0281460817
C  C50  1  0.40820000  0.67410000  0.35930000  1.0 -0.0223162775
C  C51  1  0.39040000  0.64530000  0.06550000  1.0 -0.035409451
C  C52  1  0.39610000  0.33430000  0.08190000  1.0 -0.0281460817
C  C53  1  0.57330000  0.58840000  0.21240000  1.0 0.0828972873
C  C54  1  0.66100000  0.59160000  0.20850000  1.0 -0.2017678307
C  C55  1  0.71050000  0.50340000  0.21910000  1.0 0.1207415788
C  C56  1  0.66666667  0.41480000  0.23400000  1.0 -0.2017678307
C  C57  1  0.57870000  0.41660000  0.23610000  1.0 0.0868217139
C  C58  1  0.80550000  0.50380000  0.21660000  1.0 0.0151871512
C  C59  1  0.86130000  0.46770000  0.28400000  1.0 -0.1487268717
C  C60  1  0.95140000  0.46750000  0.28440000  1.0 -0.1429190938
C  C61  1  0.98710000  0.50440000  0.21710000  1.0 0.00262185
C  C62  1  0.93230000  0.54190000  0.14530000  1.0 0.0397138544
C  C63  1  0.96500000  0.57610000  0.07210000  1.0 -0.15660541
C  C64  1  0.91020000  0.60640000  0.00210000  1.0 -0.0978126103
C  C65  1  0.82020000  0.60330000  0.00090000  1.0 -0.0918748756
C  C66  1  0.78630000  0.57010000  0.07040000  1.0 -0.1487268717
C  C67  1  0.84040000  0.54040000  0.14490000  1.0 0.0397138544
C  C68  1  0.08330000  0.50260000  0.22000000  1.0 0.1207415788
C  C69  1  0.13130000  0.41290000  0.23250000  1.0 -0.2068379974
C  C70  1  0.22020000  0.41440000  0.23240000  1.0 0.0828972873
C  C71  1  0.22040000  0.58600000  0.21210000  1.0 0.0868217139
C  C72  1  0.13140000  0.59000000  0.21040000  1.0 -0.2068379974
C  C73  1  0.58860000  0.84580000  0.12550000  1.0 -0.0281460817
C  C74  1  0.59180000  0.17410000  0.14070000  1.0 -0.0223162775
C  C75  1  0.60960000  0.14530000  0.43450000  1.0 -0.035409451
C  C76  1  0.60390000  0.83430000  0.41810000  1.0 -0.0281460817
C  C77  1  0.42670000  0.08840000  0.28760000  1.0 0.0828972873
C  C78  1  0.33900000  0.09160000  0.29150000  1.0 -0.2017678307
C  C79  1  0.28950000  0.00340000  0.28090000  1.0 0.1207415788
C  C80  1  0.33333333  0.91480000  0.26600000  1.0 -0.2017678307
C  C81  1  0.42130000  0.91660000  0.26390000  1.0 0.0868217139
C  C82  1  0.19450000  0.00380000  0.28340000  1.0 0.0151871512
C  C83  1  0.13870000  0.96770000  0.21600000  1.0 -0.1487268717
C  C84  1  0.04860000  0.96750000  0.21560000  1.0 -0.1429190938
C  C85  1  0.01290000  0.00440000  0.28290000  1.0 0.00262185
C  C86  1  0.06770000  0.04190000  0.35470000  1.0 0.0397138544
C  C87  1  0.03500000  0.07610000  0.42790000  1.0 -0.15660541
C  C88  1  0.08980000  0.10640000  0.49790000  1.0 -0.0978126103
C  C89  1  0.17980000  0.10330000  0.49910000  1.0 -0.0918748756
C  C90  1  0.21370000  0.07010000  0.42960000  1.0 -0.1487268717
C  C91  1  0.15960000  0.04040000  0.35510000  1.0 0.0397138544
C  C92  1  0.91670000  0.00260000  0.28000000  1.0 0.1207415788
C  C93  1  0.86870000  0.91290000  0.26750000  1.0 -0.2068379974
C  C94  1  0.77980000  0.91440000  0.26760000  1.0 0.0828972873
C  C95  1  0.77960000  0.08600000  0.28790000  1.0 0.0868217139
C  C96  1  0.86860000  0.09000000  0.28960000  1.0 -0.2068379974
N  N1  1  0.46910000  0.49828000  0.77397000  1.0 -0.15660541
N  N2  1  0.73430000  0.50106000  0.77798000  1.0 -0.1715310817
N  N3  1  0.59299000  0.38500000  0.69410000  1.0 -0.3083393579
N  N4  1  0.58985000  0.60040000  0.68190000  1.0 -0.303329215
N  N5  1  0.60763000  0.61200000  0.86230000  1.0 -0.3083393579
N  N6  1  0.61268000  0.40280000  0.87520000  1.0 -0.303329215
N  N7  1  0.53090000  0.99828000  0.72603000  1.0 -0.15660541
N  N8  1  0.26570000  0.00106000  0.72202000  1.0 -0.1715310817
N  N9  1  0.40701000  0.88500000  0.80590000  1.0 -0.3083393579
N  N10  1  0.41015000  0.10040000  0.81810000  1.0 -0.303329215
N  N11  1  0.39237000  0.11200000  0.63770000  1.0 -0.3083393579
N  N12  1  0.38732000  0.90280000  0.62480000  1.0 -0.303329215
N  N13  1  0.53090000  0.50172000  0.22603000  1.0 -0.15660541
N  N14  1  0.26570000  0.49894000  0.22202000  1.0 -0.1715310817
N  N15  1  0.40701000  0.61500000  0.30590000  1.0 -0.3083393579
N  N16  1  0.41015000  0.39960000  0.31810000  1.0 -0.303329215
N  N17  1  0.39237000  0.38800000  0.13770000  1.0 -0.3083393579
N  N18  1  0.38732000  0.59720000  0.12480000  1.0 -0.303329215
N  N19  1  0.46910000  0.00172000  0.27397000  1.0 -0.15660541
N  N20  1  0.73430000  0.99894000  0.27798000  1.0 -0.1715310817
N  N21  1  0.59299000  0.11500000  0.19410000  1.0 -0.3083393579
N  N22  1  0.58985000  0.89960000  0.18190000  1.0 -0.303329215
N  N23  1  0.60763000  0.88800000  0.36230000  1.0 -0.3083393579
N  N24  1  0.61268000  0.09720000  0.37520000  1.0 -0.303329215
