# DDEC6 charges by PACMAN v1.1 (https://github.com/mtap-research/PACMAN-charge/)
data_XANLAA_FSR_pacman
_symmetry_space_group_name_H-M   'P 1'
_cell_length_a   15.75400000
_cell_length_b   26.87700000
_cell_length_c   19.24400000
_cell_angle_alpha   90.00000000
_cell_angle_beta   90.06500000
_cell_angle_gamma   90.00000000
_symmetry_Int_Tables_number   1
_chemical_formula_structural   CoH21C28S2N8O
_chemical_formula_sum   'Co8 H168 C224 S16 N64 O8'
_cell_volume   8148.29420149
_cell_formula_units_Z   8
loop_
 _symmetry_equiv_pos_site_id
 _symmetry_equiv_pos_as_xyz
  1  'x, y, z'
loop_
 _atom_site_type_symbol
 _atom_site_label
 _atom_site_symmetry_multiplicity
 _atom_site_fract_x
 _atom_site_fract_y
 _atom_site_fract_z
 _atom_site_occupancy
 _atom_site_charge
Co  Co1  1  0.04530000  0.61869000  0.78678000  1.0 0.7539449517
Co  Co2  1  0.95470000  0.11869000  0.71322000  1.0 0.7555920068
Co  Co3  1  0.53850000  0.86352000  0.20824000  1.0 0.7298693094
Co  Co4  1  0.46150000  0.36352000  0.29176000  1.0 0.7298693094
Co  Co5  1  0.95470000  0.38131000  0.21322000  1.0 0.7539449517
Co  Co6  1  0.04530000  0.88131000  0.28678000  1.0 0.7555920068
Co  Co7  1  0.46150000  0.13648000  0.79176000  1.0 0.7298693094
Co  Co8  1  0.53850000  0.63648000  0.70824000  1.0 0.7298693094
H  H1  1  0.66970000  0.79950000  0.13510000  1.0 0.1003669236
H  H2  1  0.33030000  0.29950000  0.36490000  1.0 0.1003669236
H  H3  1  0.76350000  0.79860000  0.04280000  1.0 0.1323131641
H  H4  1  0.23650000  0.29860000  0.45720000  1.0 0.1323131641
H  H5  1  0.70400000  0.94310000  0.00650000  1.0 0.1323131641
H  H6  1  0.29600000  0.44310000  0.49350000  1.0 0.1323131641
H  H7  1  0.60890000  0.93950000  0.09900000  1.0 0.1003669236
H  H8  1  0.39110000  0.43950000  0.40100000  1.0 0.1003669236
H  H9  1  0.97460000  0.67110000  0.91790000  1.0 0.1096694862
H  H10  1  0.02540000  0.17110000  0.58210000  1.0 0.1096694862
H  H11  1  0.91970000  0.74620000  0.95630000  1.0 0.1323131641
H  H12  1  0.08030000  0.24620000  0.54370000  1.0 0.1323131641
H  H13  1  0.97310000  0.80430000  0.76650000  1.0 0.1323131641
H  H14  1  0.02690000  0.30430000  0.73350000  1.0 0.1323131641
H  H15  1  0.02400000  0.72650000  0.73300000  1.0 0.1096694862
H  H16  1  0.97600000  0.22650000  0.76700000  1.0 0.1096694862
H  H17  1  0.01860000  0.01110000  0.72220000  1.0 0.1096694862
H  H18  1  0.98140000  0.51110000  0.77780000  1.0 0.1096694862
H  H19  1  0.99540000  0.93620000  0.78030000  1.0 0.1323131641
H  H20  1  0.00460000  0.43620000  0.71970000  1.0 0.1323131641
H  H21  1  0.78360000  0.99700000  0.86390000  1.0 0.1323131641
H  H22  1  0.21640000  0.49700000  0.63610000  1.0 0.1323131641
H  H23  1  0.81200000  0.06920000  0.80270000  1.0 0.1096694862
H  H24  1  0.18800000  0.56920000  0.69730000  1.0 0.1096694862
H  H25  1  0.16390000  0.68360000  0.87010000  1.0 0.1003669236
H  H26  1  0.83610000  0.18360000  0.62990000  1.0 0.1003669236
H  H27  1  0.25860000  0.68220000  0.96230000  1.0 0.1370855622
H  H28  1  0.74140000  0.18220000  0.53770000  1.0 0.1370855622
H  H29  1  0.20600000  0.53540000  0.98830000  1.0 0.1323131641
H  H30  1  0.79400000  0.03540000  0.51170000  1.0 0.1323131641
H  H31  1  0.10920000  0.54190000  0.89840000  1.0 0.1096694862
H  H32  1  0.89080000  0.04190000  0.60160000  1.0 0.1096694862
H  H33  1  0.47110000  0.80870000  0.07560000  1.0 0.1096694862
H  H34  1  0.52890000  0.30870000  0.42440000  1.0 0.1096694862
H  H35  1  0.41360000  0.73270000  0.04110000  1.0 0.1323131641
H  H36  1  0.58640000  0.23270000  0.45890000  1.0 0.1323131641
H  H37  1  0.46550000  0.67910000  0.23300000  1.0 0.1370855622
H  H38  1  0.53450000  0.17910000  0.26700000  1.0 0.1370855622
H  H39  1  0.52070000  0.75620000  0.26150000  1.0 0.1096694862
H  H40  1  0.47930000  0.25620000  0.23850000  1.0 0.1096694862
H  H41  1  0.49720000  0.47720000  0.29930000  1.0 0.1096694862
H  H42  1  0.50280000  0.97720000  0.20070000  1.0 0.1096694862
H  H43  1  0.46670000  0.55160000  0.24440000  1.0 0.1323131641
H  H44  1  0.53330000  0.05160000  0.25560000  1.0 0.1323131641
H  H45  1  0.31560000  0.47550000  0.11180000  1.0 0.1323131641
H  H46  1  0.68440000  0.97550000  0.38820000  1.0 0.1323131641
H  H47  1  0.35030000  0.40340000  0.17140000  1.0 0.1096694862
H  H48  1  0.64970000  0.90340000  0.32860000  1.0 0.1096694862
H  H49  1  0.99600000  0.63600000  0.65900000  1.0 0.3341638629
H  H50  1  0.00400000  0.13600000  0.84100000  1.0 0.3341638629
H  H51  1  0.86400000  0.64720000  0.65180000  1.0 0.0911580842
H  H52  1  0.13600000  0.14720000  0.84820000  1.0 0.0911580842
H  H53  1  0.85440000  0.62730000  0.72970000  1.0 0.1185419888
H  H54  1  0.14560000  0.12730000  0.77030000  1.0 0.1185419888
H  H55  1  0.77870000  0.55200000  0.73180000  1.0 0.1185419888
H  H56  1  0.22130000  0.05200000  0.76820000  1.0 0.1185419888
H  H57  1  0.74110000  0.47530000  0.68720000  1.0 0.1096694862
H  H58  1  0.25890000  0.97530000  0.81280000  1.0 0.1096694862
H  H59  1  0.80370000  0.44700000  0.58480000  1.0 0.1185419888
H  H60  1  0.19630000  0.94700000  0.91520000  1.0 0.1185419888
H  H61  1  0.90340000  0.49640000  0.52810000  1.0 0.1185419888
H  H62  1  0.09660000  0.99640000  0.97190000  1.0 0.1185419888
H  H63  1  0.94050000  0.57370000  0.57360000  1.0 0.1185419888
H  H64  1  0.05950000  0.07370000  0.92640000  1.0 0.1185419888
H  H65  1  0.39400000  0.83900000  0.25800000  1.0 0.2986292127
H  H66  1  0.60600000  0.33900000  0.24200000  1.0 0.2986292127
H  H67  1  0.33900000  0.87440000  0.34140000  1.0 0.1003669236
H  H68  1  0.66100000  0.37440000  0.15860000  1.0 0.1003669236
H  H69  1  0.39560000  0.91880000  0.31020000  1.0 0.1003669236
H  H70  1  0.60440000  0.41880000  0.18980000  1.0 0.1003669236
H  H71  1  0.49170000  0.81580000  0.38250000  1.0 0.1323131641
H  H72  1  0.50830000  0.31580000  0.11750000  1.0 0.1323131641
H  H73  1  0.58440000  0.81600000  0.47690000  1.0 0.1185419888
H  H74  1  0.41560000  0.31600000  0.02310000  1.0 0.1185419888
H  H75  1  0.60610000  0.87030000  0.54110000  1.0 0.0911580842
H  H76  1  0.39390000  0.37030000  0.95890000  1.0 0.0911580842
H  H77  1  0.53500000  0.94800000  0.52830000  1.0 0.1003669236
H  H78  1  0.46500000  0.44800000  0.97170000  1.0 0.1003669236
H  H79  1  0.41950000  0.95360000  0.41920000  1.0 0.1096694862
H  H80  1  0.58050000  0.45360000  0.08080000  1.0 0.1096694862
H  H81  1  0.59220000  0.90430000  0.53890000  1.0 0.1003669236
H  H82  1  0.40780000  0.40430000  0.96110000  1.0 0.1003669236
H  H83  1  0.49020000  0.96680000  0.51140000  1.0 0.0798284564
H  H84  1  0.50980000  0.46680000  0.98860000  1.0 0.0798284564
H  H85  1  0.33030000  0.20050000  0.86490000  1.0 0.1003669236
H  H86  1  0.66970000  0.70050000  0.63510000  1.0 0.1003669236
H  H87  1  0.23650000  0.20140000  0.95720000  1.0 0.1323131641
H  H88  1  0.76350000  0.70140000  0.54280000  1.0 0.1323131641
H  H89  1  0.29600000  0.05690000  0.99350000  1.0 0.1323131641
H  H90  1  0.70400000  0.55690000  0.50650000  1.0 0.1323131641
H  H91  1  0.39110000  0.06050000  0.90100000  1.0 0.1003669236
H  H92  1  0.60890000  0.56050000  0.59900000  1.0 0.1003669236
H  H93  1  0.02540000  0.32890000  0.08210000  1.0 0.1096694862
H  H94  1  0.97460000  0.82890000  0.41790000  1.0 0.1096694862
H  H95  1  0.08030000  0.25380000  0.04370000  1.0 0.1323131641
H  H96  1  0.91970000  0.75380000  0.45630000  1.0 0.1323131641
H  H97  1  0.02690000  0.19570000  0.23350000  1.0 0.1323131641
H  H98  1  0.97310000  0.69570000  0.26650000  1.0 0.1323131641
H  H99  1  0.97600000  0.27350000  0.26700000  1.0 0.1096694862
H  H100  1  0.02400000  0.77350000  0.23300000  1.0 0.1096694862
H  H101  1  0.98140000  0.98890000  0.27780000  1.0 0.1096694862
H  H102  1  0.01860000  0.48890000  0.22220000  1.0 0.1096694862
H  H103  1  0.00460000  0.06380000  0.21970000  1.0 0.1323131641
H  H104  1  0.99540000  0.56380000  0.28030000  1.0 0.1323131641
H  H105  1  0.21640000  0.00300000  0.13610000  1.0 0.1323131641
H  H106  1  0.78360000  0.50300000  0.36390000  1.0 0.1323131641
H  H107  1  0.18800000  0.93080000  0.19730000  1.0 0.1096694862
H  H108  1  0.81200000  0.43080000  0.30270000  1.0 0.1096694862
H  H109  1  0.83610000  0.31640000  0.12990000  1.0 0.1003669236
H  H110  1  0.16390000  0.81640000  0.37010000  1.0 0.1003669236
H  H111  1  0.74140000  0.31780000  0.03770000  1.0 0.1370855622
H  H112  1  0.25860000  0.81780000  0.46230000  1.0 0.1370855622
H  H113  1  0.79400000  0.46460000  0.01170000  1.0 0.1323131641
H  H114  1  0.20600000  0.96460000  0.48830000  1.0 0.1323131641
H  H115  1  0.89080000  0.45810000  0.10160000  1.0 0.1096694862
H  H116  1  0.10920000  0.95810000  0.39840000  1.0 0.1096694862
H  H117  1  0.52890000  0.19130000  0.92440000  1.0 0.1096694862
H  H118  1  0.47110000  0.69130000  0.57560000  1.0 0.1096694862
H  H119  1  0.58640000  0.26730000  0.95890000  1.0 0.1323131641
H  H120  1  0.41360000  0.76730000  0.54110000  1.0 0.1323131641
H  H121  1  0.53450000  0.32090000  0.76700000  1.0 0.1370855622
H  H122  1  0.46550000  0.82090000  0.73300000  1.0 0.1370855622
H  H123  1  0.47930000  0.24380000  0.73850000  1.0 0.1096694862
H  H124  1  0.52070000  0.74380000  0.76150000  1.0 0.1096694862
H  H125  1  0.50280000  0.52280000  0.70070000  1.0 0.1096694862
H  H126  1  0.49720000  0.02280000  0.79930000  1.0 0.1096694862
H  H127  1  0.53330000  0.44840000  0.75560000  1.0 0.1323131641
H  H128  1  0.46670000  0.94840000  0.74440000  1.0 0.1323131641
H  H129  1  0.68440000  0.52450000  0.88820000  1.0 0.1323131641
H  H130  1  0.31560000  0.02450000  0.61180000  1.0 0.1323131641
H  H131  1  0.64970000  0.59660000  0.82860000  1.0 0.1096694862
H  H132  1  0.35030000  0.09660000  0.67140000  1.0 0.1096694862
H  H133  1  0.00400000  0.36400000  0.34100000  1.0 0.3341638629
H  H134  1  0.99600000  0.86400000  0.15900000  1.0 0.3341638629
H  H135  1  0.13600000  0.35280000  0.34820000  1.0 0.0911580842
H  H136  1  0.86400000  0.85280000  0.15180000  1.0 0.0911580842
H  H137  1  0.14560000  0.37270000  0.27030000  1.0 0.1185419888
H  H138  1  0.85440000  0.87270000  0.22970000  1.0 0.1185419888
H  H139  1  0.22130000  0.44800000  0.26820000  1.0 0.1185419888
H  H140  1  0.77870000  0.94800000  0.23180000  1.0 0.1185419888
H  H141  1  0.25890000  0.52470000  0.31280000  1.0 0.1096694862
H  H142  1  0.74110000  0.02470000  0.18720000  1.0 0.1096694862
H  H143  1  0.19630000  0.55300000  0.41520000  1.0 0.1185419888
H  H144  1  0.80370000  0.05300000  0.08480000  1.0 0.1185419888
H  H145  1  0.09660000  0.50360000  0.47190000  1.0 0.1185419888
H  H146  1  0.90340000  0.00360000  0.02810000  1.0 0.1185419888
H  H147  1  0.05950000  0.42630000  0.42640000  1.0 0.1185419888
H  H148  1  0.94050000  0.92630000  0.07360000  1.0 0.1185419888
H  H149  1  0.60600000  0.16100000  0.74200000  1.0 0.2986292127
H  H150  1  0.39400000  0.66100000  0.75800000  1.0 0.2986292127
H  H151  1  0.66100000  0.12560000  0.65860000  1.0 0.1003669236
H  H152  1  0.33900000  0.62560000  0.84140000  1.0 0.1003669236
H  H153  1  0.60440000  0.08120000  0.68980000  1.0 0.1003669236
H  H154  1  0.39560000  0.58120000  0.81020000  1.0 0.1003669236
H  H155  1  0.50830000  0.18420000  0.61750000  1.0 0.1323131641
H  H156  1  0.49170000  0.68420000  0.88250000  1.0 0.1323131641
H  H157  1  0.41560000  0.18400000  0.52310000  1.0 0.1185419888
H  H158  1  0.58440000  0.68400000  0.97690000  1.0 0.1185419888
H  H159  1  0.39390000  0.12970000  0.45890000  1.0 0.0911580842
H  H160  1  0.60610000  0.62970000  0.04110000  1.0 0.0911580842
H  H161  1  0.46500000  0.05200000  0.47170000  1.0 0.1003669236
H  H162  1  0.53500000  0.55200000  0.02830000  1.0 0.1003669236
H  H163  1  0.58050000  0.04640000  0.58080000  1.0 0.1096694862
H  H164  1  0.41950000  0.54640000  0.91920000  1.0 0.1096694862
H  H165  1  0.40780000  0.09570000  0.46110000  1.0 0.1003669236
H  H166  1  0.59220000  0.59570000  0.03890000  1.0 0.1003669236
H  H167  1  0.50980000  0.03320000  0.48860000  1.0 0.0798284564
H  H168  1  0.49020000  0.53320000  0.01140000  1.0 0.0798284564
C  C1  1  0.20410000  0.67926000  0.72430000  1.0 0.2629337817
C  C2  1  0.79590000  0.17926000  0.77570000  1.0 0.2629337817
C  C3  1  0.90610000  0.57626000  0.89150000  1.0 0.2629337817
C  C4  1  0.09390000  0.07626000  0.60850000  1.0 0.2629337817
C  C5  1  0.39750000  0.91329000  0.10900000  1.0 0.2629337817
C  C6  1  0.60250000  0.41329000  0.39100000  1.0 0.2629337817
C  C7  1  0.68290000  0.80605000  0.29030000  1.0 0.2527624923
C  C8  1  0.31710000  0.30605000  0.20970000  1.0 0.2527624923
C  C9  1  0.67640000  0.82893000  0.10830000  1.0 0.0798284564
C  C10  1  0.32360000  0.32893000  0.39170000  1.0 0.0798284564
C  C11  1  0.73280000  0.82804000  0.05360000  1.0 -0.1696994922
C  C12  1  0.26720000  0.32804000  0.44640000  1.0 -0.1696994922
C  C13  1  0.74410000  0.87118000  0.01443000  1.0 0.0583476661
C  C14  1  0.25590000  0.37118000  0.48557000  1.0 0.0583476661
C  C15  1  0.69750000  0.91313000  0.03207000  1.0 -0.1517908367
C  C16  1  0.30250000  0.41313000  0.46793000  1.0 -0.1517908367
C  C17  1  0.64100000  0.91075000  0.08760000  1.0 0.0911580842
C  C18  1  0.35900000  0.41075000  0.41240000  1.0 0.0911580842
C  C19  1  0.97310000  0.69835000  0.88656000  1.0 0.0911580842
C  C20  1  0.02690000  0.19835000  0.61344000  1.0 0.0911580842
C  C21  1  0.94030000  0.74306000  0.91014000  1.0 -0.1517908367
C  C22  1  0.05970000  0.24306000  0.58986000  1.0 -0.1517908367
C  C23  1  0.93820000  0.78340000  0.86431000  1.0 0.0583476661
C  C24  1  0.06180000  0.28340000  0.63569000  1.0 0.0583476661
C  C25  1  0.97150000  0.77718000  0.79813000  1.0 -0.1517908367
C  C26  1  0.02850000  0.27718000  0.70187000  1.0 -0.1517908367
C  C27  1  0.00240000  0.73071000  0.77868000  1.0 0.0798284564
C  C28  1  0.99760000  0.23071000  0.72132000  1.0 0.0798284564
C  C29  1  0.97020000  0.00815000  0.75120000  1.0 0.0911580842
C  C30  1  0.02980000  0.50815000  0.74880000  1.0 0.0911580842
C  C31  1  0.95700000  0.96319000  0.78600000  1.0 -0.1578714529
C  C32  1  0.04300000  0.46319000  0.71400000  1.0 -0.1578714529
C  C33  1  0.88720000  0.95871000  0.82870000  1.0 0.0583476661
C  C34  1  0.11280000  0.45871000  0.67130000  1.0 0.0583476661
C  C35  1  0.83230000  0.99901000  0.83500000  1.0 -0.1578714529
C  C36  1  0.16770000  0.49901000  0.66500000  1.0 -0.1578714529
C  C37  1  0.84990000  0.04188000  0.79840000  1.0 0.0798284564
C  C38  1  0.15010000  0.54188000  0.70160000  1.0 0.0798284564
C  C39  1  0.80510000  0.87171000  0.95495000  1.0 0.3623036851
C  C40  1  0.19490000  0.37171000  0.54505000  1.0 0.3623036851
C  C41  1  0.89670000  0.83071000  0.88583000  1.0 0.3623036851
C  C42  1  0.10330000  0.33071000  0.61417000  1.0 0.3623036851
C  C43  1  0.87090000  0.91197000  0.86790000  1.0 0.3623036851
C  C44  1  0.12910000  0.41197000  0.63210000  1.0 0.3623036851
C  C45  1  0.17210000  0.65344000  0.89501000  1.0 0.0798284564
C  C46  1  0.82790000  0.15344000  0.60499000  1.0 0.0798284564
C  C47  1  0.22900000  0.65283000  0.94952000  1.0 -0.1696994922
C  C48  1  0.77100000  0.15283000  0.55048000  1.0 -0.1696994922
C  C49  1  0.24270000  0.60847000  0.98569000  1.0 0.0583476661
C  C50  1  0.75730000  0.10847000  0.51431000  1.0 0.0583476661
C  C51  1  0.19770000  0.56636000  0.96538000  1.0 -0.1578714529
C  C52  1  0.80230000  0.06636000  0.53462000  1.0 -0.1578714529
C  C53  1  0.14080000  0.57053000  0.91135000  1.0 0.0911580842
C  C54  1  0.85920000  0.07053000  0.58865000  1.0 0.0911580842
C  C55  1  0.46930000  0.78204000  0.10802000  1.0 0.0911580842
C  C56  1  0.53070000  0.28204000  0.39198000  1.0 0.0911580842
C  C57  1  0.43490000  0.73682000  0.08695000  1.0 -0.1696994922
C  C58  1  0.56510000  0.23682000  0.41305000  1.0 -0.1696994922
C  C59  1  0.43240000  0.69791000  0.13430000  1.0 0.0583476661
C  C60  1  0.56760000  0.19791000  0.36570000  1.0 0.0583476661
C  C61  1  0.46540000  0.70526000  0.19980000  1.0 -0.1517908367
C  C62  1  0.53460000  0.20526000  0.30020000  1.0 -0.1517908367
C  C63  1  0.49810000  0.75132000  0.21620000  1.0 0.0798284564
C  C64  1  0.50190000  0.25132000  0.28380000  1.0 0.0798284564
C  C65  1  0.46000000  0.47693000  0.26050000  1.0 0.0735236403
C  C66  1  0.54000000  0.97693000  0.23950000  1.0 0.0735236403
C  C67  1  0.44240000  0.52145000  0.22790000  1.0 -0.1696994922
C  C68  1  0.55760000  0.02145000  0.27210000  1.0 -0.1696994922
C  C69  1  0.38830000  0.52148000  0.17051000  1.0 0.0504863063
C  C70  1  0.61170000  0.02148000  0.32949000  1.0 0.0504863063
C  C71  1  0.35360000  0.47684000  0.15012000  1.0 -0.1696994922
C  C72  1  0.64640000  0.97684000  0.34988000  1.0 -0.1696994922
C  C73  1  0.37470000  0.43394000  0.18609000  1.0 0.0798284564
C  C74  1  0.62530000  0.93394000  0.31391000  1.0 0.0798284564
C  C75  1  0.30280000  0.60760000  0.04431000  1.0 0.3653103967
C  C76  1  0.69720000  0.10760000  0.45569000  1.0 0.3653103967
C  C77  1  0.39160000  0.64991000  0.11469000  1.0 0.3653103967
C  C78  1  0.60840000  0.14991000  0.38531000  1.0 0.3653103967
C  C79  1  0.36970000  0.56842000  0.13216000  1.0 0.3623036851
C  C80  1  0.63030000  0.06842000  0.36784000  1.0 0.3623036851
C  C81  1  0.88450000  0.62187000  0.68520000  1.0 -0.0434976597
C  C82  1  0.11550000  0.12187000  0.81480000  1.0 -0.0434976597
C  C83  1  0.86220000  0.57082000  0.65790000  1.0 0.0798284564
C  C84  1  0.13780000  0.07082000  0.84210000  1.0 0.0798284564
C  C85  1  0.80430000  0.54090000  0.68990000  1.0 -0.1449817087
C  C86  1  0.19570000  0.04090000  0.81010000  1.0 -0.1449817087
C  C87  1  0.78180000  0.49520000  0.66380000  1.0 -0.0809217211
C  C88  1  0.21820000  0.99520000  0.83620000  1.0 -0.0809217211
C  C89  1  0.81880000  0.47860000  0.60340000  1.0 -0.0955348317
C  C90  1  0.18120000  0.97860000  0.89660000  1.0 -0.0955348317
C  C91  1  0.87780000  0.50780000  0.56990000  1.0 -0.0809217211
C  C92  1  0.12220000  0.00780000  0.93010000  1.0 -0.0809217211
C  C93  1  0.89970000  0.55370000  0.59680000  1.0 -0.1517908367
C  C94  1  0.10030000  0.05370000  0.90320000  1.0 -0.1517908367
C  C95  1  0.39750000  0.88470000  0.32940000  1.0 -0.0469212191
C  C96  1  0.60250000  0.38470000  0.17060000  1.0 -0.0469212191
C  C97  1  0.45320000  0.88350000  0.39370000  1.0 -0.0123337473
C  C98  1  0.54680000  0.38350000  0.10630000  1.0 -0.0123337473
C  C99  1  0.49760000  0.84500000  0.41000000  1.0 -0.1517908367
C  C100  1  0.50240000  0.34500000  0.09000000  1.0 -0.1517908367
C  C101  1  0.55140000  0.84390000  0.46340000  1.0 -0.074977551
C  C102  1  0.44860000  0.34390000  0.03660000  1.0 -0.074977551
C  C103  1  0.56650000  0.87560000  0.50450000  1.0 -0.0809217211
C  C104  1  0.43350000  0.37560000  0.99550000  1.0 -0.0809217211
C  C105  1  0.52400000  0.92130000  0.49730000  1.0 -0.0123337473
C  C106  1  0.47600000  0.42130000  0.00270000  1.0 -0.0123337473
C  C107  1  0.45560000  0.92750000  0.43480000  1.0 -0.1101736002
C  C108  1  0.54440000  0.42750000  0.06520000  1.0 -0.1101736002
C  C109  1  0.55200000  0.89860000  0.50300000  1.0 -0.0123337473
C  C110  1  0.44800000  0.39860000  0.99700000  1.0 -0.0158296678
C  C111  1  0.49580000  0.93680000  0.48560000  1.0 -0.0924040902
C  C112  1  0.50420000  0.43680000  0.01440000  1.0 -0.0924040902
C  C113  1  0.79590000  0.32074000  0.27570000  1.0 0.2629337817
C  C114  1  0.20410000  0.82074000  0.22430000  1.0 0.2629337817
C  C115  1  0.09390000  0.42374000  0.10850000  1.0 0.2629337817
C  C116  1  0.90610000  0.92374000  0.39150000  1.0 0.2629337817
C  C117  1  0.60250000  0.08671000  0.89100000  1.0 0.2629337817
C  C118  1  0.39750000  0.58671000  0.60900000  1.0 0.2629337817
C  C119  1  0.31710000  0.19395000  0.70970000  1.0 0.2527624923
C  C120  1  0.68290000  0.69395000  0.79030000  1.0 0.2527624923
C  C121  1  0.32360000  0.17107000  0.89170000  1.0 0.0798284564
C  C122  1  0.67640000  0.67107000  0.60830000  1.0 0.0798284564
C  C123  1  0.26720000  0.17196000  0.94640000  1.0 -0.1696994922
C  C124  1  0.73280000  0.67196000  0.55360000  1.0 -0.1696994922
C  C125  1  0.25590000  0.12882000  0.98557000  1.0 0.0583476661
C  C126  1  0.74410000  0.62882000  0.51443000  1.0 0.0583476661
C  C127  1  0.30250000  0.08687000  0.96793000  1.0 -0.1517908367
C  C128  1  0.69750000  0.58687000  0.53207000  1.0 -0.1517908367
C  C129  1  0.35900000  0.08925000  0.91240000  1.0 0.0911580842
C  C130  1  0.64100000  0.58925000  0.58760000  1.0 0.0911580842
C  C131  1  0.02690000  0.30165000  0.11344000  1.0 0.0911580842
C  C132  1  0.97310000  0.80165000  0.38656000  1.0 0.0911580842
C  C133  1  0.05970000  0.25694000  0.08986000  1.0 -0.1517908367
C  C134  1  0.94030000  0.75694000  0.41014000  1.0 -0.1517908367
C  C135  1  0.06180000  0.21660000  0.13569000  1.0 0.0583476661
C  C136  1  0.93820000  0.71660000  0.36431000  1.0 0.0583476661
C  C137  1  0.02850000  0.22282000  0.20187000  1.0 -0.1517908367
C  C138  1  0.97150000  0.72282000  0.29813000  1.0 -0.1517908367
C  C139  1  0.99760000  0.26929000  0.22132000  1.0 0.0798284564
C  C140  1  0.00240000  0.76929000  0.27868000  1.0 0.0798284564
C  C141  1  0.02980000  0.99185000  0.24880000  1.0 0.0911580842
C  C142  1  0.97020000  0.49185000  0.25120000  1.0 0.0911580842
C  C143  1  0.04300000  0.03681000  0.21400000  1.0 -0.1578714529
C  C144  1  0.95700000  0.53681000  0.28600000  1.0 -0.1578714529
C  C145  1  0.11280000  0.04129000  0.17130000  1.0 0.0583476661
C  C146  1  0.88720000  0.54129000  0.32870000  1.0 0.0583476661
C  C147  1  0.16770000  0.00099000  0.16500000  1.0 -0.1578714529
C  C148  1  0.83230000  0.50099000  0.33500000  1.0 -0.1517908367
C  C149  1  0.15010000  0.95812000  0.20160000  1.0 0.0798284564
C  C150  1  0.84990000  0.45812000  0.29840000  1.0 0.0798284564
C  C151  1  0.19490000  0.12829000  0.04505000  1.0 0.3623036851
C  C152  1  0.80510000  0.62829000  0.45495000  1.0 0.3623036851
C  C153  1  0.10330000  0.16929000  0.11417000  1.0 0.3653103967
C  C154  1  0.89670000  0.66929000  0.38583000  1.0 0.3623036851
C  C155  1  0.12910000  0.08803000  0.13210000  1.0 0.3623036851
C  C156  1  0.87090000  0.58803000  0.36790000  1.0 0.3623036851
C  C157  1  0.82790000  0.34656000  0.10499000  1.0 0.0798284564
C  C158  1  0.17210000  0.84656000  0.39501000  1.0 0.0798284564
C  C159  1  0.77100000  0.34717000  0.05048000  1.0 -0.1696994922
C  C160  1  0.22900000  0.84717000  0.44952000  1.0 -0.1696994922
C  C161  1  0.75730000  0.39153000  0.01431000  1.0 0.0583476661
C  C162  1  0.24270000  0.89153000  0.48569000  1.0 0.0583476661
C  C163  1  0.80230000  0.43364000  0.03462000  1.0 -0.1578714529
C  C164  1  0.19770000  0.93364000  0.46538000  1.0 -0.1578714529
C  C165  1  0.85920000  0.42947000  0.08865000  1.0 0.0911580842
C  C166  1  0.14080000  0.92947000  0.41135000  1.0 0.0911580842
C  C167  1  0.53070000  0.21796000  0.89198000  1.0 0.0911580842
C  C168  1  0.46930000  0.71796000  0.60802000  1.0 0.0911580842
C  C169  1  0.56510000  0.26318000  0.91305000  1.0 -0.1696994922
C  C170  1  0.43490000  0.76318000  0.58695000  1.0 -0.1696994922
C  C171  1  0.56760000  0.30209000  0.86570000  1.0 0.0583476661
C  C172  1  0.43240000  0.80209000  0.63430000  1.0 0.0583476661
C  C173  1  0.53460000  0.29474000  0.80020000  1.0 -0.1517908367
C  C174  1  0.46540000  0.79474000  0.69980000  1.0 -0.1517908367
C  C175  1  0.50190000  0.24868000  0.78380000  1.0 0.0798284564
C  C176  1  0.49810000  0.74868000  0.71620000  1.0 0.0798284564
C  C177  1  0.54000000  0.52307000  0.73950000  1.0 0.0735236403
C  C178  1  0.46000000  0.02307000  0.76050000  1.0 0.0735236403
C  C179  1  0.55760000  0.47855000  0.77210000  1.0 -0.1696994922
C  C180  1  0.44240000  0.97855000  0.72790000  1.0 -0.1696994922
C  C181  1  0.61170000  0.47852000  0.82949000  1.0 0.0504863063
C  C182  1  0.38830000  0.97852000  0.67051000  1.0 0.0504863063
C  C183  1  0.64640000  0.52316000  0.84988000  1.0 -0.1696994922
C  C184  1  0.35360000  0.02316000  0.65012000  1.0 -0.1761066582
C  C185  1  0.62530000  0.56606000  0.81391000  1.0 0.0798284564
C  C186  1  0.37470000  0.06606000  0.68609000  1.0 0.0798284564
C  C187  1  0.69720000  0.39240000  0.95569000  1.0 0.3653103967
C  C188  1  0.30280000  0.89240000  0.54431000  1.0 0.3623036851
C  C189  1  0.60840000  0.35009000  0.88531000  1.0 0.3653103967
C  C190  1  0.39160000  0.85009000  0.61469000  1.0 0.3653103967
C  C191  1  0.63030000  0.43158000  0.86784000  1.0 0.3623036851
C  C192  1  0.36970000  0.93158000  0.63216000  1.0 0.3623036851
C  C193  1  0.11550000  0.37813000  0.31480000  1.0 -0.0434976597
C  C194  1  0.88450000  0.87813000  0.18520000  1.0 -0.0434976597
C  C195  1  0.13780000  0.42918000  0.34210000  1.0 0.0798284564
C  C196  1  0.86220000  0.92918000  0.15790000  1.0 0.0798284564
C  C197  1  0.19570000  0.45910000  0.31010000  1.0 -0.1449817087
C  C198  1  0.80430000  0.95910000  0.18990000  1.0 -0.1449817087
C  C199  1  0.21820000  0.50480000  0.33620000  1.0 -0.0809217211
C  C200  1  0.78180000  0.00480000  0.16380000  1.0 -0.0809217211
C  C201  1  0.18120000  0.52140000  0.39660000  1.0 -0.0955348317
C  C202  1  0.81880000  0.02140000  0.10340000  1.0 -0.0955348317
C  C203  1  0.12220000  0.49220000  0.43010000  1.0 -0.0809217211
C  C204  1  0.87780000  0.99220000  0.06990000  1.0 -0.0809217211
C  C205  1  0.10030000  0.44630000  0.40320000  1.0 -0.1517908367
C  C206  1  0.89970000  0.94630000  0.09680000  1.0 -0.1517908367
C  C207  1  0.60250000  0.11530000  0.67060000  1.0 -0.0469212191
C  C208  1  0.39750000  0.61530000  0.82940000  1.0 -0.0469212191
C  C209  1  0.54680000  0.11650000  0.60630000  1.0 -0.0123337473
C  C210  1  0.45320000  0.61650000  0.89370000  1.0 -0.0123337473
C  C211  1  0.50240000  0.15500000  0.59000000  1.0 -0.1517908367
C  C212  1  0.49760000  0.65500000  0.91000000  1.0 -0.1517908367
C  C213  1  0.44860000  0.15610000  0.53660000  1.0 -0.074977551
C  C214  1  0.55140000  0.65610000  0.96340000  1.0 -0.074977551
C  C215  1  0.43350000  0.12440000  0.49550000  1.0 -0.0809217211
C  C216  1  0.56650000  0.62440000  0.00450000  1.0 -0.0809217211
C  C217  1  0.47600000  0.07870000  0.50270000  1.0 -0.0123337473
C  C218  1  0.52400000  0.57870000  0.99730000  1.0 -0.0123337473
C  C219  1  0.54440000  0.07250000  0.56520000  1.0 -0.1101736002
C  C220  1  0.45560000  0.57250000  0.93480000  1.0 -0.1101736002
C  C221  1  0.44800000  0.10140000  0.49700000  1.0 -0.0123337473
C  C222  1  0.55200000  0.60140000  0.00300000  1.0 -0.0123337473
C  C223  1  0.50420000  0.06320000  0.51440000  1.0 -0.0924040902
C  C224  1  0.49580000  0.56320000  0.98560000  1.0 -0.0924040902
S  S1  1  0.32235000  0.93535000  0.05822000  1.0 -0.4308196213
S  S2  1  0.67765000  0.43535000  0.44178000  1.0 -0.4308196213
S  S3  1  0.76762000  0.77809000  0.31864000  1.0 -0.3278400976
S  S4  1  0.23238000  0.27809000  0.18136000  1.0 -0.3278400976
S  S5  1  0.28336000  0.71589000  0.71046000  1.0 -0.3278400976
S  S6  1  0.71664000  0.21589000  0.78954000  1.0 -0.3278400976
S  S7  1  0.84811000  0.56371000  0.96009000  1.0 -0.4308196213
S  S8  1  0.15189000  0.06371000  0.53991000  1.0 -0.4308196213
S  S9  1  0.67765000  0.06465000  0.94178000  1.0 -0.4359809126
S  S10  1  0.32235000  0.56465000  0.55822000  1.0 -0.4359809126
S  S11  1  0.23238000  0.22191000  0.68136000  1.0 -0.3278400976
S  S12  1  0.76762000  0.72191000  0.81864000  1.0 -0.3278400976
S  S13  1  0.71664000  0.28411000  0.28954000  1.0 -0.3278400976
S  S14  1  0.28336000  0.78411000  0.21046000  1.0 -0.3278400976
S  S15  1  0.15189000  0.43629000  0.03991000  1.0 -0.4308196213
S  S16  1  0.84811000  0.93629000  0.46009000  1.0 -0.4308196213
N  N1  1  0.14420000  0.65441000  0.73447000  1.0 -0.5253175314
N  N2  1  0.85580000  0.15441000  0.76553000  1.0 -0.5253175314
N  N3  1  0.94710000  0.58582000  0.84346000  1.0 -0.4968452271
N  N4  1  0.05290000  0.08582000  0.65654000  1.0 -0.4968452271
N  N5  1  0.45060000  0.89823000  0.14466000  1.0 -0.5087670054
N  N6  1  0.54940000  0.39823000  0.35534000  1.0 -0.5087670054
N  N7  1  0.62530000  0.82666000  0.26924000  1.0 -0.4930113595
N  N8  1  0.37470000  0.32666000  0.23076000  1.0 -0.4930113595
N  N9  1  0.63040000  0.86925000  0.12566000  1.0 -0.2409951669
N  N10  1  0.36960000  0.36925000  0.37434000  1.0 -0.2409951669
N  N11  1  0.00281000  0.69128000  0.82236000  1.0 -0.2409951669
N  N12  1  0.99719000  0.19128000  0.67764000  1.0 -0.2409951669
N  N13  1  0.91830000  0.04704000  0.75669000  1.0 -0.2409951669
N  N14  1  0.08170000  0.54704000  0.74331000  1.0 -0.2409951669
N  N15  1  0.84525000  0.82895000  0.94075000  1.0 -0.4067805543
N  N16  1  0.15475000  0.32895000  0.55925000  1.0 -0.4067805543
N  N17  1  0.81550000  0.91404000  0.92050000  1.0 -0.3932622042
N  N18  1  0.18450000  0.41404000  0.57950000  1.0 -0.3932622042
N  N19  1  0.91270000  0.87128000  0.84735000  1.0 -0.4067805543
N  N20  1  0.08730000  0.37128000  0.65265000  1.0 -0.4067805543
N  N21  1  0.12760000  0.61296000  0.87579000  1.0 -0.2409951669
N  N22  1  0.87240000  0.11296000  0.62421000  1.0 -0.2409951669
N  N23  1  0.49990000  0.78970000  0.17174000  1.0 -0.2409951669
N  N24  1  0.50010000  0.28970000  0.32826000  1.0 -0.2409951669
N  N25  1  0.42732000  0.43326000  0.24013000  1.0 -0.2242097151
N  N26  1  0.57268000  0.93326000  0.25987000  1.0 -0.2242097151
N  N27  1  0.34040000  0.65135000  0.05977000  1.0 -0.3976612802
N  N28  1  0.65960000  0.15135000  0.44023000  1.0 -0.3976612802
N  N29  1  0.40750000  0.61001000  0.15375000  1.0 -0.4067805543
N  N30  1  0.59250000  0.11001000  0.34625000  1.0 -0.4067805543
N  N31  1  0.31630000  0.56472000  0.07799000  1.0 -0.4067805543
N  N32  1  0.68370000  0.06472000  0.42201000  1.0 -0.4067805543
N  N33  1  0.85580000  0.34559000  0.26553000  1.0 -0.5253175314
N  N34  1  0.14420000  0.84559000  0.23447000  1.0 -0.5253175314
N  N35  1  0.05290000  0.41418000  0.15654000  1.0 -0.4968452271
N  N36  1  0.94710000  0.91418000  0.34346000  1.0 -0.4968452271
N  N37  1  0.54940000  0.10177000  0.85534000  1.0 -0.5087670054
N  N38  1  0.45060000  0.60177000  0.64466000  1.0 -0.5087670054
N  N39  1  0.37470000  0.17334000  0.73076000  1.0 -0.4930113595
N  N40  1  0.62530000  0.67334000  0.76924000  1.0 -0.4930113595
N  N41  1  0.36960000  0.13075000  0.87434000  1.0 -0.2409951669
N  N42  1  0.63040000  0.63075000  0.62566000  1.0 -0.2409951669
N  N43  1  0.99719000  0.30872000  0.17764000  1.0 -0.2456788238
N  N44  1  0.00281000  0.80872000  0.32236000  1.0 -0.2409951669
N  N45  1  0.08170000  0.95296000  0.24331000  1.0 -0.2409951669
N  N46  1  0.91830000  0.45296000  0.25669000  1.0 -0.2409951669
N  N47  1  0.15475000  0.17105000  0.05925000  1.0 -0.4067805543
N  N48  1  0.84525000  0.67105000  0.44075000  1.0 -0.4067805543
N  N49  1  0.18450000  0.08596000  0.07950000  1.0 -0.3932622042
N  N50  1  0.81550000  0.58596000  0.42050000  1.0 -0.3932622042
N  N51  1  0.08730000  0.12872000  0.15265000  1.0 -0.4067805543
N  N52  1  0.91270000  0.62872000  0.34735000  1.0 -0.4067805543
N  N53  1  0.87240000  0.38704000  0.12421000  1.0 -0.2409951669
N  N54  1  0.12760000  0.88704000  0.37579000  1.0 -0.2409951669
N  N55  1  0.50010000  0.21030000  0.82826000  1.0 -0.2409951669
N  N56  1  0.49990000  0.71030000  0.67174000  1.0 -0.2409951669
N  N57  1  0.57268000  0.56674000  0.75987000  1.0 -0.2242097151
N  N58  1  0.42732000  0.06674000  0.74013000  1.0 -0.2242097151
N  N59  1  0.65960000  0.34865000  0.94023000  1.0 -0.3976612802
N  N60  1  0.34040000  0.84865000  0.55977000  1.0 -0.3976612802
N  N61  1  0.59250000  0.38999000  0.84625000  1.0 -0.4067805543
N  N62  1  0.40750000  0.88999000  0.65375000  1.0 -0.4067805543
N  N63  1  0.68370000  0.43528000  0.92201000  1.0 -0.4067805543
N  N64  1  0.31630000  0.93528000  0.57799000  1.0 -0.4067805543
O  O1  1  0.97265000  0.62888000  0.69599000  1.0 -0.4308196213
O  O2  1  0.02735000  0.12888000  0.80401000  1.0 -0.4308196213
O  O3  1  0.43204000  0.85164000  0.27967000  1.0 -0.4359809126
O  O4  1  0.56796000  0.35164000  0.22033000  1.0 -0.4359809126
O  O5  1  0.02735000  0.37112000  0.30401000  1.0 -0.4308196213
O  O6  1  0.97265000  0.87112000  0.19599000  1.0 -0.4308196213
O  O7  1  0.56796000  0.14836000  0.72033000  1.0 -0.4359809126
O  O8  1  0.43204000  0.64836000  0.77967000  1.0 -0.4359809126
