# DDEC6 charges by PACMAN v1.1 (https://github.com/mtap-research/PACMAN-charge/)
data_XANYUK_ASR_pacman
_symmetry_space_group_name_H-M   'P 1'
_cell_length_a   29.00010000
_cell_length_b   17.82910000
_cell_length_c   29.75260000
_cell_angle_alpha   90.00000000
_cell_angle_beta   117.76700000
_cell_angle_gamma   90.00000000
_symmetry_Int_Tables_number   1
_chemical_formula_structural   Co4H37C71N19O15
_chemical_formula_sum   'Co16 H148 C284 N76 O60'
_cell_volume   13612.04023484
_cell_formula_units_Z   4
loop_
 _symmetry_equiv_pos_site_id
 _symmetry_equiv_pos_as_xyz
  1  'x, y, z'
loop_
 _atom_site_type_symbol
 _atom_site_label
 _atom_site_symmetry_multiplicity
 _atom_site_fract_x
 _atom_site_fract_y
 _atom_site_fract_z
 _atom_site_occupancy
 _atom_site_charge
Co  Co1  1  0.70199000  0.08813000  0.82502000  1.0 0.821414459
Co  Co2  1  0.82813000  0.54501000  0.72552000  1.0 0.8271918031
Co  Co3  1  0.83810000  0.43708000  0.39667000  1.0 0.8773353132
Co  Co4  1  0.69495000  0.54937000  0.66152000  1.0 0.8634440782
Co  Co5  1  0.29801000  0.58813000  0.67498000  1.0 0.821414459
Co  Co6  1  0.17187000  0.04501000  0.77448000  1.0 0.8271918031
Co  Co7  1  0.16190000  0.93708000  0.10333000  1.0 0.8773353132
Co  Co8  1  0.30505000  0.04937000  0.83848000  1.0 0.8634440782
Co  Co9  1  0.29801000  0.91187000  0.17498000  1.0 0.821414459
Co  Co10  1  0.17187000  0.45499000  0.27448000  1.0 0.8271918031
Co  Co11  1  0.16190000  0.56292000  0.60333000  1.0 0.8773353132
Co  Co12  1  0.30505000  0.45063000  0.33848000  1.0 0.8634440782
Co  Co13  1  0.70199000  0.41187000  0.32502000  1.0 0.821414459
Co  Co14  1  0.82813000  0.95499000  0.22552000  1.0 0.8271918031
Co  Co15  1  0.83810000  0.06292000  0.89667000  1.0 0.8773353132
Co  Co16  1  0.69495000  0.95063000  0.16152000  1.0 0.8634440782
H  H1  1  0.80935000  0.44158000  0.64035000  1.0 0.2455260488
H  H2  1  0.38101000  0.80842000  0.25639000  1.0 0.1007976609
H  H3  1  0.33062000  0.74416000  0.35755000  1.0 0.1296498047
H  H4  1  0.26395000  0.83479000  0.32139000  1.0 0.1296498047
H  H5  1  0.25416000  0.90051000  0.24853000  1.0 0.1007976609
H  H6  1  0.61953000  0.48525000  0.35516000  1.0 0.1190001854
H  H7  1  0.52057000  0.60783000  0.23586000  1.0 0.1190001854
H  H8  1  0.55431000  0.55537000  0.18712000  1.0 0.1411837111
H  H9  1  0.62515000  0.48087000  0.22653000  1.0 0.1120797699
H  H10  1  0.62080000  0.56776000  0.55023000  1.0 0.1120797699
H  H11  1  0.47433000  0.59470000  0.53461000  1.0 0.1296498047
H  H12  1  0.50815000  0.56699000  0.62008000  1.0 0.1296498047
H  H13  1  0.59799000  0.55097000  0.67141000  1.0 0.1120797699
H  H14  1  0.90474000  0.53596000  0.48849000  1.0 0.1120797699
H  H15  1  0.01686000  0.63437000  0.46553000  1.0 0.1296498047
H  H16  1  0.99578000  0.55312000  0.39734000  1.0 0.1411837111
H  H17  1  0.92266000  0.47766000  0.37155000  1.0 0.1190001854
H  H18  1  0.09650000  0.93436000  0.70449000  1.0 0.1007976609
H  H19  1  0.10428000  0.91049000  0.57381000  1.0 0.1190001854
H  H20  1  0.16226000  0.01245000  0.59836000  1.0 0.1296498047
H  H21  1  0.18434000  0.06956000  0.67465000  1.0 0.1120797699
H  H22  1  0.89492000  0.59879000  0.67758000  1.0 0.0935261213
H  H23  1  0.01383000  0.72708000  0.77591000  1.0 0.1190001854
H  H24  1  0.98386000  0.70474000  0.83651000  1.0 0.1296498047
H  H25  1  0.91209000  0.62748000  0.81612000  1.0 0.1007976609
H  H26  1  0.83891000  0.75110000  0.78780000  1.0 0.1120797699
H  H27  1  0.84488000  0.87509000  0.81943000  1.0 0.1190001854
H  H28  1  0.68810000  0.88901000  0.74686000  1.0 0.1190001854
H  H29  1  0.68189000  0.76570000  0.72050000  1.0 0.1190001854
H  H30  1  0.67805000  0.55934000  0.51799000  1.0 0.1190001854
H  H31  1  0.68127000  0.52788000  0.44200000  1.0 0.1120797699
H  H32  1  0.83707000  0.54950000  0.51324000  1.0 0.1120797699
H  H33  1  0.83651000  0.57167000  0.58966000  1.0 0.1120797699
H  H34  1  0.81395000  0.35854000  0.74249000  1.0 0.1007976609
H  H35  1  0.84424000  0.25351000  0.79344000  1.0 0.1190001854
H  H36  1  0.73260000  0.27421000  0.83680000  1.0 0.1190001854
H  H37  1  0.69866000  0.38025000  0.78086000  1.0 0.1190001854
H  H38  1  0.19065000  0.94158000  0.85965000  1.0 0.2455260488
H  H39  1  0.61899000  0.30842000  0.24361000  1.0 0.1007976609
H  H40  1  0.66938000  0.24416000  0.14245000  1.0 0.1296498047
H  H41  1  0.73605000  0.33479000  0.17861000  1.0 0.1296498047
H  H42  1  0.74584000  0.40051000  0.25147000  1.0 0.1007976609
H  H43  1  0.38047000  0.98525000  0.14484000  1.0 0.1190001854
H  H44  1  0.47943000  0.10783000  0.26414000  1.0 0.1190001854
H  H45  1  0.44569000  0.05537000  0.31288000  1.0 0.1411837111
H  H46  1  0.37485000  0.98087000  0.27347000  1.0 0.1120797699
H  H47  1  0.37920000  0.06776000  0.94977000  1.0 0.1120797699
H  H48  1  0.52567000  0.09470000  0.96539000  1.0 0.1296498047
H  H49  1  0.49185000  0.06699000  0.87992000  1.0 0.1296498047
H  H50  1  0.40201000  0.05097000  0.82859000  1.0 0.1120797699
H  H51  1  0.09526000  0.03596000  0.01151000  1.0 0.1120797699
H  H52  1  0.98314000  0.13437000  0.03447000  1.0 0.1296498047
H  H53  1  0.00422000  0.05312000  0.10266000  1.0 0.1411837111
H  H54  1  0.07734000  0.97766000  0.12845000  1.0 0.1190001854
H  H55  1  0.90350000  0.43436000  0.79551000  1.0 0.1007976609
H  H56  1  0.89572000  0.41049000  0.92619000  1.0 0.1190001854
H  H57  1  0.83774000  0.51245000  0.90164000  1.0 0.1296498047
H  H58  1  0.81566000  0.56956000  0.82535000  1.0 0.1120797699
H  H59  1  0.10508000  0.09879000  0.82242000  1.0 0.0935261213
H  H60  1  0.98617000  0.22708000  0.72409000  1.0 0.1190001854
H  H61  1  0.01614000  0.20474000  0.66349000  1.0 0.1296498047
H  H62  1  0.08791000  0.12748000  0.68388000  1.0 0.1007976609
H  H63  1  0.16109000  0.25110000  0.71220000  1.0 0.1120797699
H  H64  1  0.15512000  0.37509000  0.68057000  1.0 0.1190001854
H  H65  1  0.31190000  0.38901000  0.75314000  1.0 0.1190001854
H  H66  1  0.31811000  0.26570000  0.77950000  1.0 0.1190001854
H  H67  1  0.32195000  0.05934000  0.98201000  1.0 0.1190001854
H  H68  1  0.31873000  0.02788000  0.05800000  1.0 0.1120797699
H  H69  1  0.16293000  0.04950000  0.98676000  1.0 0.1120797699
H  H70  1  0.16349000  0.07167000  0.91034000  1.0 0.1120797699
H  H71  1  0.18605000  0.85854000  0.75751000  1.0 0.1007976609
H  H72  1  0.15576000  0.75351000  0.70656000  1.0 0.1296498047
H  H73  1  0.26740000  0.77421000  0.66320000  1.0 0.1190001854
H  H74  1  0.30134000  0.88025000  0.71914000  1.0 0.1190001854
H  H75  1  0.19065000  0.55842000  0.35965000  1.0 0.2455260488
H  H76  1  0.61899000  0.19158000  0.74361000  1.0 0.1007976609
H  H77  1  0.66938000  0.25584000  0.64245000  1.0 0.1296498047
H  H78  1  0.73605000  0.16521000  0.67861000  1.0 0.1296498047
H  H79  1  0.74584000  0.09949000  0.75147000  1.0 0.1007976609
H  H80  1  0.38047000  0.51475000  0.64484000  1.0 0.1190001854
H  H81  1  0.47943000  0.39217000  0.76414000  1.0 0.1190001854
H  H82  1  0.44569000  0.44463000  0.81288000  1.0 0.1411837111
H  H83  1  0.37485000  0.51913000  0.77347000  1.0 0.1120797699
H  H84  1  0.37920000  0.43224000  0.44977000  1.0 0.1120797699
H  H85  1  0.52567000  0.40530000  0.46539000  1.0 0.1296498047
H  H86  1  0.49185000  0.43301000  0.37992000  1.0 0.1296498047
H  H87  1  0.40201000  0.44903000  0.32859000  1.0 0.1120797699
H  H88  1  0.09526000  0.46404000  0.51151000  1.0 0.1120797699
H  H89  1  0.98314000  0.36563000  0.53447000  1.0 0.1296498047
H  H90  1  0.00422000  0.44688000  0.60266000  1.0 0.1411837111
H  H91  1  0.07734000  0.52234000  0.62845000  1.0 0.1190001854
H  H92  1  0.90350000  0.06564000  0.29551000  1.0 0.1007976609
H  H93  1  0.89572000  0.08951000  0.42619000  1.0 0.1190001854
H  H94  1  0.83774000  0.98755000  0.40164000  1.0 0.1296498047
H  H95  1  0.81566000  0.93044000  0.32535000  1.0 0.1120797699
H  H96  1  0.10508000  0.40121000  0.32242000  1.0 0.0935261213
H  H97  1  0.98617000  0.27292000  0.22409000  1.0 0.1190001854
H  H98  1  0.01614000  0.29526000  0.16349000  1.0 0.1296498047
H  H99  1  0.08791000  0.37252000  0.18388000  1.0 0.1007976609
H  H100  1  0.16109000  0.24890000  0.21220000  1.0 0.1120797699
H  H101  1  0.15512000  0.12491000  0.18057000  1.0 0.1190001854
H  H102  1  0.31190000  0.11099000  0.25314000  1.0 0.1190001854
H  H103  1  0.31811000  0.23430000  0.27950000  1.0 0.1190001854
H  H104  1  0.32195000  0.44066000  0.48201000  1.0 0.1190001854
H  H105  1  0.31873000  0.47212000  0.55800000  1.0 0.1120797699
H  H106  1  0.16293000  0.45050000  0.48676000  1.0 0.1120797699
H  H107  1  0.16349000  0.42833000  0.41034000  1.0 0.1120797699
H  H108  1  0.18605000  0.64146000  0.25751000  1.0 0.1007976609
H  H109  1  0.15576000  0.74649000  0.20656000  1.0 0.1296498047
H  H110  1  0.26740000  0.72579000  0.16320000  1.0 0.1190001854
H  H111  1  0.30134000  0.61975000  0.21914000  1.0 0.1190001854
H  H112  1  0.80935000  0.05842000  0.14035000  1.0 0.2447426053
H  H113  1  0.38101000  0.69158000  0.75639000  1.0 0.1007976609
H  H114  1  0.33062000  0.75584000  0.85755000  1.0 0.1296498047
H  H115  1  0.26395000  0.66521000  0.82139000  1.0 0.1296498047
H  H116  1  0.25416000  0.59949000  0.74853000  1.0 0.1007976609
H  H117  1  0.61953000  0.01475000  0.85516000  1.0 0.1190001854
H  H118  1  0.52057000  0.89217000  0.73586000  1.0 0.1190001854
H  H119  1  0.55431000  0.94463000  0.68712000  1.0 0.1411837111
H  H120  1  0.62515000  0.01913000  0.72653000  1.0 0.1120797699
H  H121  1  0.62080000  0.93224000  0.05023000  1.0 0.1120797699
H  H122  1  0.47433000  0.90530000  0.03461000  1.0 0.1296498047
H  H123  1  0.50815000  0.93301000  0.12008000  1.0 0.1296498047
H  H124  1  0.59799000  0.94903000  0.17141000  1.0 0.1120797699
H  H125  1  0.90474000  0.96404000  0.98849000  1.0 0.1120797699
H  H126  1  0.01686000  0.86563000  0.96553000  1.0 0.1296498047
H  H127  1  0.99578000  0.94688000  0.89734000  1.0 0.1411837111
H  H128  1  0.92266000  0.02234000  0.87155000  1.0 0.1190001854
H  H129  1  0.09650000  0.56564000  0.20449000  1.0 0.1007976609
H  H130  1  0.10428000  0.58951000  0.07381000  1.0 0.1190001854
H  H131  1  0.16226000  0.48755000  0.09836000  1.0 0.1296498047
H  H132  1  0.18434000  0.43044000  0.17465000  1.0 0.1120797699
H  H133  1  0.89492000  0.90121000  0.17758000  1.0 0.0935261213
H  H134  1  0.01383000  0.77292000  0.27591000  1.0 0.1190001854
H  H135  1  0.98386000  0.79526000  0.33651000  1.0 0.1296498047
H  H136  1  0.91209000  0.87252000  0.31612000  1.0 0.1007976609
H  H137  1  0.83891000  0.74890000  0.28780000  1.0 0.1120797699
H  H138  1  0.84488000  0.62491000  0.31943000  1.0 0.1190001854
H  H139  1  0.68810000  0.61099000  0.24686000  1.0 0.1190001854
H  H140  1  0.68189000  0.73430000  0.22050000  1.0 0.1190001854
H  H141  1  0.67805000  0.94066000  0.01799000  1.0 0.1190001854
H  H142  1  0.68127000  0.97212000  0.94200000  1.0 0.1120797699
H  H143  1  0.83707000  0.95050000  0.01324000  1.0 0.1120797699
H  H144  1  0.83651000  0.92833000  0.08966000  1.0 0.1120797699
H  H145  1  0.81395000  0.14146000  0.24249000  1.0 0.1007976609
H  H146  1  0.84424000  0.24649000  0.29344000  1.0 0.1190001854
H  H147  1  0.73260000  0.22579000  0.33680000  1.0 0.1190001854
H  H148  1  0.69866000  0.11975000  0.28086000  1.0 0.1190001854
C  C1  1  0.83750000  0.41730000  0.66790000  1.0 0.3575023959
C  C2  1  0.89180000  0.30400000  0.69970000  1.0 -0.0129428623
C  C3  1  0.35650000  0.81170000  0.26910000  1.0 0.0699723805
C  C4  1  0.36500000  0.76700000  0.31100000  1.0 -0.0462814537
C  C5  1  0.32770000  0.77440000  0.33010000  1.0 -0.0462814537
C  C6  1  0.28750000  0.82650000  0.30790000  1.0 -0.1323309695
C  C7  1  0.28240000  0.86660000  0.26480000  1.0 0.0802840362
C  C8  1  0.60650000  0.50140000  0.32100000  1.0 0.0492714533
C  C9  1  0.56610000  0.55110000  0.30160000  1.0 -0.0129428623
C  C10  1  0.54800000  0.57220000  0.25050000  1.0 -0.0708065791
C  C11  1  0.56810000  0.54380000  0.22220000  1.0 -0.1414453534
C  C12  1  0.60870000  0.49810000  0.24570000  1.0 0.0362472175
C  C13  1  0.59780000  0.56920000  0.56470000  1.0 0.0492714533
C  C14  1  0.54340000  0.58130000  0.53220000  1.0 -0.0218203645
C  C15  1  0.51030000  0.58360000  0.55440000  1.0 -0.0604373831
C  C16  1  0.53080000  0.56960000  0.60510000  1.0 -0.1323309695
C  C17  1  0.58490000  0.55890000  0.63600000  1.0 0.0935261213
C  C18  1  0.40860000  0.71590000  0.33510000  1.0 0.3536000986
C  C19  1  0.47330000  0.64710000  0.33110000  1.0 0.3536000986
C  C20  1  0.54080000  0.58040000  0.33210000  1.0 0.3575023959
C  C21  1  0.53710000  0.58760000  0.40620000  1.0 0.3661870169
C  C22  1  0.52680000  0.59610000  0.47800000  1.0 0.3575023959
C  C23  1  0.46540000  0.65500000  0.40690000  1.0 0.37696718
C  C24  1  0.49250000  0.63090000  0.38120000  1.0 -0.2142209528
C  C25  1  0.92260000  0.54190000  0.46890000  1.0 0.0327735417
C  C26  1  0.96310000  0.59240000  0.48615000  1.0 -0.0218203645
C  C27  1  0.98970000  0.59860000  0.45670000  1.0 -0.0604373831
C  C28  1  0.97630000  0.55310000  0.41570000  1.0 -0.1323309695
C  C29  1  0.93330000  0.50670000  0.40150000  1.0 0.0802840362
C  C30  1  0.11010000  0.94970000  0.68240000  1.0 0.0601493078
C  C31  1  0.09350000  0.91000000  0.63730000  1.0 -0.0267440921
C  C32  1  0.11400000  0.93500000  0.60530000  1.0 -0.0604373831
C  C33  1  0.14820000  0.99510000  0.61960000  1.0 -0.1477912259
C  C34  1  0.16100000  0.02830000  0.66500000  1.0 0.0492714533
C  C35  1  0.91330000  0.62130000  0.71020000  1.0 0.0935261213
C  C36  1  0.95670000  0.66780000  0.71970000  1.0 -0.0405976139
C  C37  1  0.98370000  0.69730000  0.76730000  1.0 -0.0405976139
C  C38  1  0.96610000  0.68310000  0.80360000  1.0 -0.1414453534
C  C39  1  0.92330000  0.63770000  0.79140000  1.0 0.0601493078
C  C40  1  0.97810000  0.63690000  0.53250000  1.0 0.3536000986
C  C41  1  0.02160000  0.73980000  0.57736000  1.0 0.3989522712
C  C42  1  0.06010000  0.84280000  0.62750000  1.0 0.3575023959
C  C43  1  0.01690000  0.76560000  0.65610000  1.0 0.3575023959
C  C44  1  0.97210000  0.68640000  0.68098000  1.0 0.3536000986
C  C45  1  0.97290000  0.65570000  0.60660000  1.0 0.3989522712
C  C46  1  0.00490000  0.72120000  0.61410000  1.0 -0.1991301519
C  C47  1  0.75950000  0.74590000  0.75084000  1.0 -0.0218203645
C  C48  1  0.80810000  0.77860000  0.78030000  1.0 -0.1102720917
C  C49  1  0.81180000  0.85290000  0.79910000  1.0 -0.1102720917
C  C50  1  0.76680000  0.89210000  0.78732000  1.0 -0.0218203645
C  C51  1  0.71890000  0.86030000  0.75660000  1.0 -0.1102720917
C  C52  1  0.71530000  0.78760000  0.73990000  1.0 -0.1102720917
C  C53  1  0.75590000  0.66690000  0.73170000  1.0 0.583919588
C  C54  1  0.77040000  0.96950000  0.80779000  1.0 0.583919588
C  C55  1  0.75820000  0.56710000  0.56158000  1.0 -0.0267440921
C  C56  1  0.71040000  0.55500000  0.51740000  1.0 -0.1102720917
C  C57  1  0.71280000  0.53630000  0.47230000  1.0 -0.0894355302
C  C58  1  0.75950000  0.53000000  0.47106000  1.0 -0.0405976139
C  C59  1  0.80500000  0.54790000  0.51460000  1.0 -0.0894355302
C  C60  1  0.80460000  0.56340000  0.55970000  1.0 -0.1203837601
C  C61  1  0.75670000  0.57810000  0.61090000  1.0 0.5881922635
C  C62  1  0.76040000  0.49800000  0.42600000  1.0 0.5881922635
C  C63  1  0.75450000  0.37990000  0.75780000  1.0 -0.0218203645
C  C64  1  0.79680000  0.34170000  0.76110000  1.0 -0.1102720917
C  C65  1  0.81450000  0.27910000  0.79110000  1.0 -0.0999604365
C  C66  1  0.78980000  0.25230000  0.81830000  1.0 -0.0218203645
C  C67  1  0.74840000  0.29010000  0.81670000  1.0 -0.1102720917
C  C68  1  0.72890000  0.35500000  0.78420000  1.0 -0.0999604365
C  C69  1  0.73410000  0.44780000  0.72570000  1.0 0.5574623378
C  C70  1  0.80710000  0.18150000  0.84698000  1.0 0.5574623378
C  C71  1  0.80450000  0.31470000  0.60570000  1.0 0.008862447
C  C72  1  0.16250000  0.91730000  0.83210000  1.0 0.3536000986
C  C73  1  0.10820000  0.80400000  0.80030000  1.0 -0.0218203645
C  C74  1  0.64350000  0.31170000  0.23090000  1.0 0.0699723805
C  C75  1  0.63500000  0.26700000  0.18900000  1.0 -0.0462814537
C  C76  1  0.67230000  0.27440000  0.16990000  1.0 -0.0462814537
C  C77  1  0.71250000  0.32650000  0.19210000  1.0 -0.1323309695
C  C78  1  0.71760000  0.36660000  0.23520000  1.0 0.0802840362
C  C79  1  0.39350000  0.00140000  0.17900000  1.0 0.0492714533
C  C80  1  0.43390000  0.05110000  0.19840000  1.0 -0.0129428623
C  C81  1  0.45200000  0.07220000  0.24950000  1.0 -0.0708065791
C  C82  1  0.43190000  0.04380000  0.27780000  1.0 -0.1414453534
C  C83  1  0.39130000  0.99810000  0.25430000  1.0 0.0362472175
C  C84  1  0.40220000  0.06920000  0.93530000  1.0 0.0492714533
C  C85  1  0.45660000  0.08130000  0.96780000  1.0 -0.0218203645
C  C86  1  0.48970000  0.08360000  0.94560000  1.0 -0.0604373831
C  C87  1  0.46920000  0.06960000  0.89490000  1.0 -0.1323309695
C  C88  1  0.41510000  0.05890000  0.86400000  1.0 0.0935261213
C  C89  1  0.59140000  0.21590000  0.16490000  1.0 0.3536000986
C  C90  1  0.52670000  0.14710000  0.16890000  1.0 0.3536000986
C  C91  1  0.45920000  0.08040000  0.16790000  1.0 0.3575023959
C  C92  1  0.46290000  0.08760000  0.09380000  1.0 0.3661870169
C  C93  1  0.47320000  0.09610000  0.02200000  1.0 0.3575023959
C  C94  1  0.53460000  0.15500000  0.09310000  1.0 0.37696718
C  C95  1  0.50750000  0.13090000  0.11880000  1.0 -0.2142209528
C  C96  1  0.07740000  0.04190000  0.03110000  1.0 0.0327735417
C  C97  1  0.03690000  0.09240000  0.01385000  1.0 -0.0218203645
C  C98  1  0.01030000  0.09860000  0.04330000  1.0 -0.0604373831
C  C99  1  0.02370000  0.05310000  0.08430000  1.0 -0.1323309695
C  C100  1  0.06670000  0.00670000  0.09850000  1.0 0.0802840362
C  C101  1  0.88990000  0.44970000  0.81760000  1.0 0.0601493078
C  C102  1  0.90650000  0.41000000  0.86270000  1.0 -0.0218203645
C  C103  1  0.88600000  0.43500000  0.89470000  1.0 -0.0604373831
C  C104  1  0.85180000  0.49510000  0.88040000  1.0 -0.1477912259
C  C105  1  0.83900000  0.52830000  0.83500000  1.0 0.0492714533
C  C106  1  0.08670000  0.12130000  0.78980000  1.0 0.0935261213
C  C107  1  0.04330000  0.16780000  0.78030000  1.0 -0.0405976139
C  C108  1  0.01630000  0.19730000  0.73270000  1.0 -0.0405976139
C  C109  1  0.03390000  0.18310000  0.69640000  1.0 -0.1414453534
C  C110  1  0.07670000  0.13770000  0.70860000  1.0 0.0601493078
C  C111  1  0.02190000  0.13690000  0.96750000  1.0 0.3536000986
C  C112  1  0.97840000  0.23980000  0.92264000  1.0 0.3989522712
C  C113  1  0.93990000  0.34280000  0.87250000  1.0 0.3575023959
C  C114  1  0.98310000  0.26560000  0.84390000  1.0 0.3575023959
C  C115  1  0.02790000  0.18640000  0.81902000  1.0 0.3575023959
C  C116  1  0.02710000  0.15570000  0.89340000  1.0 0.3989522712
C  C117  1  0.99510000  0.22120000  0.88590000  1.0 -0.1991301519
C  C118  1  0.24050000  0.24590000  0.74916000  1.0 -0.0218203645
C  C119  1  0.19190000  0.27860000  0.71970000  1.0 -0.1102720917
C  C120  1  0.18820000  0.35290000  0.70090000  1.0 -0.1102720917
C  C121  1  0.23320000  0.39210000  0.71268000  1.0 -0.0218203645
C  C122  1  0.28110000  0.36030000  0.74340000  1.0 -0.1102720917
C  C123  1  0.28470000  0.28760000  0.76010000  1.0 -0.1102720917
C  C124  1  0.24410000  0.16690000  0.76830000  1.0 0.583919588
C  C125  1  0.22960000  0.46950000  0.69221000  1.0 0.583919588
C  C126  1  0.24180000  0.06710000  0.93842000  1.0 -0.0267440921
C  C127  1  0.28960000  0.05500000  0.98260000  1.0 -0.1203837601
C  C128  1  0.28720000  0.03630000  0.02770000  1.0 -0.0894355302
C  C129  1  0.24050000  0.03000000  0.02894000  1.0 -0.0405976139
C  C130  1  0.19500000  0.04790000  0.98540000  1.0 -0.0894355302
C  C131  1  0.19540000  0.06340000  0.94030000  1.0 -0.1203837601
C  C132  1  0.24330000  0.07810000  0.88910000  1.0 0.5881922635
C  C133  1  0.23960000  0.99800000  0.07400000  1.0 0.5953833493
C  C134  1  0.24550000  0.87990000  0.74220000  1.0 -0.0218203645
C  C135  1  0.20320000  0.84170000  0.73890000  1.0 -0.1102720917
C  C136  1  0.18550000  0.77910000  0.70890000  1.0 -0.0999604365
C  C137  1  0.21020000  0.75230000  0.68170000  1.0 -0.0218203645
C  C138  1  0.25160000  0.79010000  0.68330000  1.0 -0.1102720917
C  C139  1  0.27110000  0.85500000  0.71580000  1.0 -0.0999604365
C  C140  1  0.26590000  0.94780000  0.77430000  1.0 0.5574623378
C  C141  1  0.19290000  0.68150000  0.65302000  1.0 0.5574623378
C  C142  1  0.19550000  0.81470000  0.89430000  1.0 0.008862447
C  C143  1  0.16250000  0.58270000  0.33210000  1.0 0.3575023959
C  C144  1  0.10820000  0.69600000  0.30030000  1.0 -0.0129428623
C  C145  1  0.64350000  0.18830000  0.73090000  1.0 0.0699723805
C  C146  1  0.63500000  0.23300000  0.68900000  1.0 -0.0462814537
C  C147  1  0.67230000  0.22560000  0.66990000  1.0 -0.0462814537
C  C148  1  0.71250000  0.17350000  0.69210000  1.0 -0.1323309695
C  C149  1  0.71760000  0.13340000  0.73520000  1.0 0.0802840362
C  C150  1  0.39350000  0.49860000  0.67900000  1.0 0.0492714533
C  C151  1  0.43390000  0.44890000  0.69840000  1.0 -0.0129428623
C  C152  1  0.45200000  0.42780000  0.74950000  1.0 -0.0708065791
C  C153  1  0.43190000  0.45620000  0.77780000  1.0 -0.1414453534
C  C154  1  0.39130000  0.50190000  0.75430000  1.0 0.0362472175
C  C155  1  0.40220000  0.43080000  0.43530000  1.0 0.0492714533
C  C156  1  0.45660000  0.41870000  0.46780000  1.0 -0.0218203645
C  C157  1  0.48970000  0.41640000  0.44560000  1.0 -0.0604373831
C  C158  1  0.46920000  0.43040000  0.39490000  1.0 -0.1323309695
C  C159  1  0.41510000  0.44110000  0.36400000  1.0 0.0935261213
C  C160  1  0.59140000  0.28410000  0.66490000  1.0 0.3536000986
C  C161  1  0.52670000  0.35290000  0.66890000  1.0 0.3536000986
C  C162  1  0.45920000  0.41960000  0.66790000  1.0 0.3575023959
C  C163  1  0.46290000  0.41240000  0.59380000  1.0 0.3661870169
C  C164  1  0.47320000  0.40390000  0.52200000  1.0 0.3575023959
C  C165  1  0.53460000  0.34500000  0.59310000  1.0 0.37696718
C  C166  1  0.50750000  0.36910000  0.61880000  1.0 -0.2142209528
C  C167  1  0.07740000  0.45810000  0.53110000  1.0 0.0327735417
C  C168  1  0.03690000  0.40760000  0.51385000  1.0 -0.0218203645
C  C169  1  0.01030000  0.40140000  0.54330000  1.0 -0.0604373831
C  C170  1  0.02370000  0.44690000  0.58430000  1.0 -0.1323309695
C  C171  1  0.06670000  0.49330000  0.59850000  1.0 0.0802840362
C  C172  1  0.88990000  0.05030000  0.31760000  1.0 0.0601493078
C  C173  1  0.90650000  0.09000000  0.36270000  1.0 -0.0218203645
C  C174  1  0.88600000  0.06500000  0.39470000  1.0 -0.0604373831
C  C175  1  0.85180000  0.00490000  0.38040000  1.0 -0.1477912259
C  C176  1  0.83900000  0.97170000  0.33500000  1.0 0.0492714533
C  C177  1  0.08670000  0.37870000  0.28980000  1.0 0.0935261213
C  C178  1  0.04330000  0.33220000  0.28030000  1.0 -0.0405976139
C  C179  1  0.01630000  0.30270000  0.23270000  1.0 -0.0405976139
C  C180  1  0.03390000  0.31690000  0.19640000  1.0 -0.1414453534
C  C181  1  0.07670000  0.36230000  0.20860000  1.0 0.0601493078
C  C182  1  0.02190000  0.36310000  0.46750000  1.0 0.3536000986
C  C183  1  0.97840000  0.26020000  0.42264000  1.0 0.3989522712
C  C184  1  0.93990000  0.15720000  0.37250000  1.0 0.3575023959
C  C185  1  0.98310000  0.23440000  0.34390000  1.0 0.3575023959
C  C186  1  0.02790000  0.31360000  0.31902000  1.0 0.3575023959
C  C187  1  0.02710000  0.34430000  0.39340000  1.0 0.3989522712
C  C188  1  0.99510000  0.27880000  0.38590000  1.0 -0.1991301519
C  C189  1  0.24050000  0.25410000  0.24916000  1.0 -0.0218203645
C  C190  1  0.19190000  0.22140000  0.21970000  1.0 -0.1102720917
C  C191  1  0.18820000  0.14710000  0.20090000  1.0 -0.1102720917
C  C192  1  0.23320000  0.10790000  0.21268000  1.0 -0.0218203645
C  C193  1  0.28110000  0.13970000  0.24340000  1.0 -0.1102720917
C  C194  1  0.28470000  0.21240000  0.26010000  1.0 -0.1102720917
C  C195  1  0.24410000  0.33310000  0.26830000  1.0 0.583919588
C  C196  1  0.22960000  0.03050000  0.19221000  1.0 0.583919588
C  C197  1  0.24180000  0.43290000  0.43842000  1.0 -0.0267440921
C  C198  1  0.28960000  0.44500000  0.48260000  1.0 -0.1102720917
C  C199  1  0.28720000  0.46370000  0.52770000  1.0 -0.0894355302
C  C200  1  0.24050000  0.47000000  0.52894000  1.0 -0.0405976139
C  C201  1  0.19500000  0.45210000  0.48540000  1.0 -0.0894355302
C  C202  1  0.19540000  0.43660000  0.44030000  1.0 -0.1203837601
C  C203  1  0.24330000  0.42190000  0.38910000  1.0 0.5881922635
C  C204  1  0.23960000  0.50200000  0.57400000  1.0 0.5953833493
C  C205  1  0.24550000  0.62010000  0.24220000  1.0 -0.0218203645
C  C206  1  0.20320000  0.65830000  0.23890000  1.0 -0.1102720917
C  C207  1  0.18550000  0.72090000  0.20890000  1.0 -0.0999604365
C  C208  1  0.21020000  0.74770000  0.18170000  1.0 -0.0218203645
C  C209  1  0.25160000  0.70990000  0.18330000  1.0 -0.1102720917
C  C210  1  0.27110000  0.64500000  0.21580000  1.0 -0.0999604365
C  C211  1  0.26590000  0.55220000  0.27430000  1.0 0.5574623378
C  C212  1  0.19290000  0.81850000  0.15302000  1.0 0.5574623378
C  C213  1  0.19550000  0.68530000  0.39430000  1.0 0.008862447
C  C214  1  0.83750000  0.08270000  0.16790000  1.0 0.3575023959
C  C215  1  0.89180000  0.19600000  0.19970000  1.0 -0.0129428623
C  C216  1  0.35650000  0.68830000  0.76910000  1.0 0.0699723805
C  C217  1  0.36500000  0.73300000  0.81100000  1.0 -0.0462814537
C  C218  1  0.32770000  0.72560000  0.83010000  1.0 -0.0462814537
C  C219  1  0.28750000  0.67350000  0.80790000  1.0 -0.1323309695
C  C220  1  0.28240000  0.63340000  0.76480000  1.0 0.0802840362
C  C221  1  0.60650000  0.99860000  0.82100000  1.0 0.0492714533
C  C222  1  0.56610000  0.94890000  0.80160000  1.0 -0.0129428623
C  C223  1  0.54800000  0.92780000  0.75050000  1.0 -0.0708065791
C  C224  1  0.56810000  0.95620000  0.72220000  1.0 -0.1414453534
C  C225  1  0.60870000  0.00190000  0.74570000  1.0 0.0362472175
C  C226  1  0.59780000  0.93080000  0.06470000  1.0 0.0492714533
C  C227  1  0.54340000  0.91870000  0.03220000  1.0 -0.0218203645
C  C228  1  0.51030000  0.91640000  0.05440000  1.0 -0.0604373831
C  C229  1  0.53080000  0.93040000  0.10510000  1.0 -0.1323309695
C  C230  1  0.58490000  0.94110000  0.13600000  1.0 0.0935261213
C  C231  1  0.40860000  0.78410000  0.83510000  1.0 0.3536000986
C  C232  1  0.47330000  0.85290000  0.83110000  1.0 0.3536000986
C  C233  1  0.54080000  0.91960000  0.83210000  1.0 0.3575023959
C  C234  1  0.53710000  0.91240000  0.90620000  1.0 0.3661870169
C  C235  1  0.52680000  0.90390000  0.97800000  1.0 0.3575023959
C  C236  1  0.46540000  0.84500000  0.90690000  1.0 0.37696718
C  C237  1  0.49250000  0.86910000  0.88120000  1.0 -0.2153115538
C  C238  1  0.92260000  0.95810000  0.96890000  1.0 0.0327735417
C  C239  1  0.96310000  0.90760000  0.98615000  1.0 -0.0218203645
C  C240  1  0.98970000  0.90140000  0.95670000  1.0 -0.0708065791
C  C241  1  0.97630000  0.94690000  0.91570000  1.0 -0.1323309695
C  C242  1  0.93330000  0.99330000  0.90150000  1.0 0.0802840362
C  C243  1  0.11010000  0.55030000  0.18240000  1.0 0.0601493078
C  C244  1  0.09350000  0.59000000  0.13730000  1.0 -0.0267440921
C  C245  1  0.11400000  0.56500000  0.10530000  1.0 -0.0604373831
C  C246  1  0.14820000  0.50490000  0.11960000  1.0 -0.1477912259
C  C247  1  0.16100000  0.47170000  0.16500000  1.0 0.0492714533
C  C248  1  0.91330000  0.87870000  0.21020000  1.0 0.0935261213
C  C249  1  0.95670000  0.83220000  0.21970000  1.0 -0.0405976139
C  C250  1  0.98370000  0.80270000  0.26730000  1.0 -0.0405976139
C  C251  1  0.96610000  0.81690000  0.30360000  1.0 -0.1414453534
C  C252  1  0.92330000  0.86230000  0.29140000  1.0 0.0601493078
C  C253  1  0.97810000  0.86310000  0.03250000  1.0 0.3536000986
C  C254  1  0.02160000  0.76020000  0.07736000  1.0 0.3989522712
C  C255  1  0.06010000  0.65720000  0.12750000  1.0 0.3575023959
C  C256  1  0.01690000  0.73440000  0.15610000  1.0 0.3575023959
C  C257  1  0.97210000  0.81360000  0.18098000  1.0 0.3575023959
C  C258  1  0.97290000  0.84430000  0.10660000  1.0 0.3989522712
C  C259  1  0.00490000  0.77880000  0.11410000  1.0 -0.1991301519
C  C260  1  0.75950000  0.75410000  0.25084000  1.0 -0.0218203645
C  C261  1  0.80810000  0.72140000  0.28030000  1.0 -0.1102720917
C  C262  1  0.81180000  0.64710000  0.29910000  1.0 -0.1102720917
C  C263  1  0.76680000  0.60790000  0.28732000  1.0 -0.0218203645
C  C264  1  0.71890000  0.63970000  0.25660000  1.0 -0.1102720917
C  C265  1  0.71530000  0.71240000  0.23990000  1.0 -0.1102720917
C  C266  1  0.75590000  0.83310000  0.23170000  1.0 0.583919588
C  C267  1  0.77040000  0.53050000  0.30779000  1.0 0.583919588
C  C268  1  0.75820000  0.93290000  0.06158000  1.0 -0.0267440921
C  C269  1  0.71040000  0.94500000  0.01740000  1.0 -0.1102720917
C  C270  1  0.71280000  0.96370000  0.97230000  1.0 -0.0894355302
C  C271  1  0.75950000  0.97000000  0.97106000  1.0 -0.0405976139
C  C272  1  0.80500000  0.95210000  0.01460000  1.0 -0.0894355302
C  C273  1  0.80460000  0.93660000  0.05970000  1.0 -0.1203837601
C  C274  1  0.75670000  0.92190000  0.11090000  1.0 0.5881922635
C  C275  1  0.76040000  0.00200000  0.92600000  1.0 0.5953833493
C  C276  1  0.75450000  0.12010000  0.25780000  1.0 -0.0218203645
C  C277  1  0.79680000  0.15830000  0.26110000  1.0 -0.1102720917
C  C278  1  0.81450000  0.22090000  0.29110000  1.0 -0.0999604365
C  C279  1  0.78980000  0.24770000  0.31830000  1.0 -0.0218203645
C  C280  1  0.74840000  0.20990000  0.31670000  1.0 -0.1102720917
C  C281  1  0.72890000  0.14500000  0.28420000  1.0 -0.0999604365
C  C282  1  0.73410000  0.05220000  0.22570000  1.0 0.5574623378
C  C283  1  0.80710000  0.31850000  0.34698000  1.0 0.5574623378
C  C284  1  0.80450000  0.18530000  0.10570000  1.0 0.008862447
N  N1  1  0.84960000  0.35120000  0.66090000  1.0 -0.0405976139
N  N2  1  0.31680000  0.85820000  0.24597000  1.0 -0.2816864891
N  N3  1  0.62832000  0.47450000  0.29309000  1.0 -0.2332176609
N  N4  1  0.61781000  0.55960000  0.61632000  1.0 -0.2550832001
N  N5  1  0.42890000  0.69290000  0.30601000  1.0 -0.4090005028
N  N6  1  0.49790000  0.62500000  0.30536000  1.0 -0.4090005028
N  N7  1  0.56207000  0.56120000  0.38175000  1.0 -0.4008953903
N  N8  1  0.55559000  0.57090000  0.45790000  1.0 -0.4090005028
N  N9  1  0.48235000  0.63680000  0.45700000  1.0 -0.4229006735
N  N10  1  0.42359000  0.69960000  0.38462000  1.0 -0.4090005028
N  N11  1  0.90615000  0.50000000  0.42629000  1.0 -0.250409366
N  N12  1  0.14294000  0.00700000  0.69743000  1.0 -0.2655858515
N  N13  1  0.89711000  0.60760000  0.74423000  1.0 -0.250409366
N  N14  1  0.00863000  0.69700000  0.53634000  1.0 -0.4306834705
N  N15  1  0.05142000  0.80260000  0.58470000  1.0 -0.4306834705
N  N16  1  0.04603000  0.82810000  0.66328000  1.0 -0.4008953903
N  N17  1  0.00030000  0.74730000  0.69002000  1.0 -0.3907763925
N  N18  1  0.95660000  0.63820000  0.64125000  1.0 -0.4386209558
N  N19  1  0.95848000  0.61430000  0.56316000  1.0 -0.4306834705
N  N20  1  0.15040000  0.85120000  0.83910000  1.0 -0.0405976139
N  N21  1  0.68320000  0.35820000  0.25403000  1.0 -0.2816864891
N  N22  1  0.37168000  0.97450000  0.20691000  1.0 -0.2332176609
N  N23  1  0.38219000  0.05960000  0.88368000  1.0 -0.250409366
N  N24  1  0.57110000  0.19290000  0.19399000  1.0 -0.4090005028
N  N25  1  0.50210000  0.12500000  0.19464000  1.0 -0.4090005028
N  N26  1  0.43793000  0.06120000  0.11825000  1.0 -0.4008953903
N  N27  1  0.44441000  0.07090000  0.04210000  1.0 -0.4090005028
N  N28  1  0.51765000  0.13680000  0.04300000  1.0 -0.4229006735
N  N29  1  0.57641000  0.19960000  0.11538000  1.0 -0.4090005028
N  N30  1  0.09385000  0.00000000  0.07371000  1.0 -0.250409366
N  N31  1  0.85706000  0.50700000  0.80257000  1.0 -0.2655858515
N  N32  1  0.10289000  0.10760000  0.75577000  1.0 -0.250409366
N  N33  1  0.99137000  0.19700000  0.96366000  1.0 -0.4306834705
N  N34  1  0.94858000  0.30260000  0.91530000  1.0 -0.4386209558
N  N35  1  0.95397000  0.32810000  0.83672000  1.0 -0.4008953903
N  N36  1  0.99970000  0.24730000  0.80998000  1.0 -0.3907763925
N  N37  1  0.04340000  0.13820000  0.85875000  1.0 -0.4386209558
N  N38  1  0.04152000  0.11430000  0.93684000  1.0 -0.4306834705
N  N39  1  0.15040000  0.64880000  0.33910000  1.0 -0.0405976139
N  N40  1  0.68320000  0.14180000  0.75403000  1.0 -0.2816864891
N  N41  1  0.37168000  0.52550000  0.70691000  1.0 -0.2332176609
N  N42  1  0.38219000  0.44040000  0.38368000  1.0 -0.250409366
N  N43  1  0.57110000  0.30710000  0.69399000  1.0 -0.4090005028
N  N44  1  0.50210000  0.37500000  0.69464000  1.0 -0.4090005028
N  N45  1  0.43793000  0.43880000  0.61825000  1.0 -0.4008953903
N  N46  1  0.44441000  0.42910000  0.54210000  1.0 -0.4090005028
N  N47  1  0.51765000  0.36320000  0.54300000  1.0 -0.4229006735
N  N48  1  0.57641000  0.30040000  0.61538000  1.0 -0.4090005028
N  N49  1  0.09385000  0.50000000  0.57371000  1.0 -0.250409366
N  N50  1  0.85706000  0.99300000  0.30257000  1.0 -0.2655858515
N  N51  1  0.10289000  0.39240000  0.25577000  1.0 -0.250409366
N  N52  1  0.99137000  0.30300000  0.46366000  1.0 -0.4306834705
N  N53  1  0.94858000  0.19740000  0.41530000  1.0 -0.4386209558
N  N54  1  0.95397000  0.17190000  0.33672000  1.0 -0.4008953903
N  N55  1  0.99970000  0.25270000  0.30998000  1.0 -0.3907763925
N  N56  1  0.04340000  0.36180000  0.35875000  1.0 -0.4386209558
N  N57  1  0.04152000  0.38570000  0.43684000  1.0 -0.4306834705
N  N58  1  0.84960000  0.14880000  0.16090000  1.0 -0.0267440921
N  N59  1  0.31680000  0.64180000  0.74597000  1.0 -0.2816864891
N  N60  1  0.62832000  0.02550000  0.79309000  1.0 -0.2332176609
N  N61  1  0.61781000  0.94040000  0.11632000  1.0 -0.2550832001
N  N62  1  0.42890000  0.80710000  0.80601000  1.0 -0.4090005028
N  N63  1  0.49790000  0.87500000  0.80536000  1.0 -0.4090005028
N  N64  1  0.56207000  0.93880000  0.88175000  1.0 -0.4008953903
N  N65  1  0.55559000  0.92910000  0.95790000  1.0 -0.4090005028
N  N66  1  0.48235000  0.86320000  0.95700000  1.0 -0.4229006735
N  N67  1  0.42359000  0.80040000  0.88462000  1.0 -0.4008953903
N  N68  1  0.90615000  0.00000000  0.92629000  1.0 -0.250409366
N  N69  1  0.14294000  0.49300000  0.19743000  1.0 -0.2655858515
N  N70  1  0.89711000  0.89240000  0.24423000  1.0 -0.250409366
N  N71  1  0.00863000  0.80300000  0.03634000  1.0 -0.4306834705
N  N72  1  0.05142000  0.69740000  0.08470000  1.0 -0.4386209558
N  N73  1  0.04603000  0.67190000  0.16328000  1.0 -0.4008953903
N  N74  1  0.00030000  0.75270000  0.19002000  1.0 -0.3907763925
N  N75  1  0.95660000  0.86180000  0.14125000  1.0 -0.4386209558
N  N76  1  0.95848000  0.88570000  0.06316000  1.0 -0.4306834705
O  O1  1  0.85970000  0.45120000  0.70770000  1.0 -0.1797173848
O  O2  1  0.79747000  0.63453000  0.74506000  1.0 -0.5529285723
O  O3  1  0.71032000  0.64206000  0.70470000  1.0 -0.5297417608
O  O4  1  0.81386000  0.99967000  0.83032000  1.0 -0.5297417608
O  O5  1  0.72892000  0.99961000  0.80104000  1.0 -0.5529285723
O  O6  1  0.71267000  0.58660000  0.60929000  1.0 -0.5385758994
O  O7  1  0.79999000  0.57750000  0.65105000  1.0 -0.6007404742
O  O8  1  0.72126000  0.46178000  0.39439000  1.0 -0.5562342969
O  O9  1  0.80207000  0.50900000  0.42170000  1.0 -0.5758127985
O  O10  1  0.75947000  0.47624000  0.70403000  1.0 -0.6123360811
O  O11  1  0.68963000  0.47380000  0.71492000  1.0 -0.5201002178
O  O12  1  0.85215000  0.15579000  0.85992000  1.0 -0.5201002178
O  O13  1  0.77670000  0.14521000  0.85962000  1.0 -0.5872201887
O  O14  1  0.78330000  0.38140000  0.62560000  1.0 -0.0894355302
O  O15  1  0.86410000  0.46100000  0.69700000  1.0 -0.1323309695
O  O16  1  0.14030000  0.95120000  0.79230000  1.0 -0.1797173848
O  O17  1  0.20253000  0.13453000  0.75494000  1.0 -0.5529285723
O  O18  1  0.28968000  0.14206000  0.79530000  1.0 -0.5297417608
O  O19  1  0.18614000  0.49967000  0.66968000  1.0 -0.5297417608
O  O20  1  0.27108000  0.49961000  0.69896000  1.0 -0.5562342969
O  O21  1  0.28733000  0.08660000  0.89071000  1.0 -0.5385758994
O  O22  1  0.20001000  0.07750000  0.84895000  1.0 -0.6007404742
O  O23  1  0.27874000  0.96178000  0.10561000  1.0 -0.5562342969
O  O24  1  0.19793000  0.00900000  0.07830000  1.0 -0.5758127985
O  O25  1  0.24053000  0.97624000  0.79597000  1.0 -0.6123360811
O  O26  1  0.31037000  0.97380000  0.78508000  1.0 -0.5201002178
O  O27  1  0.14785000  0.65579000  0.64008000  1.0 -0.5201002178
O  O28  1  0.22330000  0.64521000  0.64038000  1.0 -0.5872201887
O  O29  1  0.21670000  0.88140000  0.87440000  1.0 -0.0999604365
O  O30  1  0.13590000  0.96100000  0.80300000  1.0 -0.1414453534
O  O31  1  0.14030000  0.54880000  0.29230000  1.0 -0.1797173848
O  O32  1  0.20253000  0.36547000  0.25494000  1.0 -0.5529285723
O  O33  1  0.28968000  0.35794000  0.29530000  1.0 -0.5297417608
O  O34  1  0.18614000  0.00033000  0.16968000  1.0 -0.5297417608
O  O35  1  0.27108000  0.00039000  0.19896000  1.0 -0.5529285723
O  O36  1  0.28733000  0.41340000  0.39071000  1.0 -0.5385758994
O  O37  1  0.20001000  0.42250000  0.34895000  1.0 -0.6007404742
O  O38  1  0.27874000  0.53822000  0.60561000  1.0 -0.5562342969
O  O39  1  0.19793000  0.49100000  0.57830000  1.0 -0.5758127985
O  O40  1  0.24053000  0.52376000  0.29597000  1.0 -0.6123360811
O  O41  1  0.31037000  0.52620000  0.28508000  1.0 -0.5201002178
O  O42  1  0.14785000  0.84421000  0.14008000  1.0 -0.5201002178
O  O43  1  0.22330000  0.85479000  0.14038000  1.0 -0.5872201887
O  O44  1  0.21670000  0.61860000  0.37440000  1.0 -0.0894355302
O  O45  1  0.13590000  0.53900000  0.30300000  1.0 -0.1414453534
O  O46  1  0.85970000  0.04880000  0.20770000  1.0 -0.1797173848
O  O47  1  0.79747000  0.86547000  0.24506000  1.0 -0.5529285723
O  O48  1  0.71032000  0.85794000  0.20470000  1.0 -0.5297417608
O  O49  1  0.81386000  0.50033000  0.33032000  1.0 -0.5297417608
O  O50  1  0.72892000  0.50039000  0.30104000  1.0 -0.5529285723
O  O51  1  0.71267000  0.91340000  0.10929000  1.0 -0.5385758994
O  O52  1  0.79999000  0.92250000  0.15105000  1.0 -0.6007404742
O  O53  1  0.72126000  0.03822000  0.89439000  1.0 -0.5562342969
O  O54  1  0.80207000  0.99100000  0.92170000  1.0 -0.5758127985
O  O55  1  0.75947000  0.02376000  0.20403000  1.0 -0.6123360811
O  O56  1  0.68963000  0.02620000  0.21492000  1.0 -0.5201002178
O  O57  1  0.85215000  0.34421000  0.35992000  1.0 -0.5201002178
O  O58  1  0.77670000  0.35479000  0.35962000  1.0 -0.5872201887
O  O59  1  0.78330000  0.11860000  0.12560000  1.0 -0.0894355302
O  O60  1  0.86410000  0.03900000  0.19700000  1.0 -0.1323309695
