# DDEC6 charges by PACMAN v1.1 (https://github.com/mtap-research/PACMAN-charge/)
data_XANYIY_FSR_pacman
_symmetry_space_group_name_H-M   'P 1'
_cell_length_a   28.13080000
_cell_length_b   18.27730000
_cell_length_c   28.86820000
_cell_angle_alpha   90.00000000
_cell_angle_beta   116.57200000
_cell_angle_gamma   90.00000000
_symmetry_Int_Tables_number   1
_chemical_formula_structural   Co4H79C87I6N23O27
_chemical_formula_sum   'Co16 H316 C348 I24 N92 O108'
_cell_volume   13274.93742961
_cell_formula_units_Z   4
loop_
 _symmetry_equiv_pos_site_id
 _symmetry_equiv_pos_as_xyz
  1  'x, y, z'
loop_
 _atom_site_type_symbol
 _atom_site_label
 _atom_site_symmetry_multiplicity
 _atom_site_fract_x
 _atom_site_fract_y
 _atom_site_fract_z
 _atom_site_occupancy
 _atom_site_charge
Co  Co1  1  0.17165000  0.54307000  0.26661000  1.0 0.7982463565
Co  Co2  1  0.30089000  0.08137000  0.17664000  1.0 0.9363065985
Co  Co3  1  0.16243000  0.43725000  0.60453000  1.0 0.8825369206
Co  Co4  1  0.30945000  0.55336000  0.32712000  1.0 0.8547452119
Co  Co5  1  0.82835000  0.04307000  0.23339000  1.0 0.7982463565
Co  Co6  1  0.69911000  0.58137000  0.32336000  1.0 0.9363065985
Co  Co7  1  0.83757000  0.93725000  0.89547000  1.0 0.8825369206
Co  Co8  1  0.69055000  0.05336000  0.17288000  1.0 0.8553853061
Co  Co9  1  0.82835000  0.45693000  0.73339000  1.0 0.7982463565
Co  Co10  1  0.69911000  0.91863000  0.82336000  1.0 0.9363065985
Co  Co11  1  0.83757000  0.56275000  0.39547000  1.0 0.8825369206
Co  Co12  1  0.69055000  0.44664000  0.67288000  1.0 0.8553853061
Co  Co13  1  0.17165000  0.95693000  0.76661000  1.0 0.7982463565
Co  Co14  1  0.30089000  0.41863000  0.67664000  1.0 0.9363065985
Co  Co15  1  0.16243000  0.06275000  0.10453000  1.0 0.8825369206
Co  Co16  1  0.30945000  0.94664000  0.82712000  1.0 0.8547452119
H  H1  1  0.11719000  0.29434000  0.55071000  1.0 0.1187814932
H  H2  1  0.06367000  0.20032000  0.43198000  1.0 0.1296155839
H  H3  1  0.04211000  0.21750000  0.47359000  1.0 0.138555107
H  H4  1  0.09832000  0.17793000  0.49135000  1.0 0.1296155839
H  H5  1  0.08605000  0.29234000  0.40145000  1.0 0.1102974404
H  H6  1  0.13757000  0.33838000  0.43831000  1.0 0.1187814932
H  H7  1  0.07951000  0.37031000  0.42317000  1.0 0.1102974404
H  H8  1  0.90693000  0.93027000  0.30221000  1.0 0.1010300496
H  H9  1  0.38312000  0.49198000  0.64457000  1.0 0.1187814932
H  H10  1  0.81441000  0.05928000  0.33450000  1.0 0.1187814932
H  H11  1  0.30762000  0.36892000  0.21763000  1.0 0.1296155839
H  H12  1  0.09323000  0.52838000  0.50958000  1.0 0.1102974404
H  H13  1  0.15947000  0.74432000  0.19817000  1.0 0.1187814932
H  H14  1  0.27888000  0.26027000  0.17178000  1.0 0.138555107
H  H15  1  0.10280000  0.59615000  0.31724000  1.0 0.1010300496
H  H16  1  0.15791000  0.24998000  0.21095000  1.0 0.1010300496
H  H17  1  0.74584000  0.91402000  0.74514000  1.0 0.1010300496
H  H18  1  0.89050000  0.89268000  0.43095000  1.0 0.1187814932
H  H19  1  0.38141000  0.57840000  0.43992000  1.0 0.1102974404
H  H20  1  0.61966000  0.81216000  0.74162000  1.0 0.1187814932
H  H21  1  0.18644000  0.36057000  0.25657000  1.0 0.0904572667
H  H22  1  0.15277000  0.86626000  0.17377000  1.0 0.1187814932
H  H23  1  0.32413000  0.52194000  0.55271000  1.0 0.1187814932
H  H24  1  0.73684000  0.85322000  0.67222000  1.0 0.1102974404
H  H25  1  0.32524000  0.55540000  0.47670000  1.0 0.1187814932
H  H26  1  0.83128000  0.99463000  0.40832000  1.0 0.1296155839
H  H27  1  0.16635000  0.57437000  0.40809000  1.0 0.1102974404
H  H28  1  0.16287000  0.54431000  0.48490000  1.0 0.1102974404
H  H29  1  0.31161000  0.88743000  0.24900000  1.0 0.1187814932
H  H30  1  0.08847000  0.62507000  0.17718000  1.0 0.1010300496
H  H31  1  0.07781000  0.47644000  0.63378000  1.0 0.1010300496
H  H32  1  0.37704000  0.48495000  0.77646000  1.0 0.1102974404
H  H33  1  0.98664000  0.63723000  0.54020000  1.0 0.1010300496
H  H34  1  0.41275000  0.54855000  0.32007000  1.0 0.1187814932
H  H35  1  0.66713000  0.77304000  0.62983000  1.0 0.1010300496
H  H36  1  0.31788000  0.76422000  0.27715000  1.0 0.1296155839
H  H37  1  0.53173000  0.59174000  0.46121000  1.0 0.1296155839
H  H38  1  0.44637000  0.56512000  0.81455000  1.0 0.138555107
H  H39  1  0.50251000  0.56318000  0.37358000  1.0 0.138555107
H  H40  1  0.00713000  0.55577000  0.61223000  1.0 0.1010300496
H  H41  1  0.48610000  0.61182000  0.76518000  1.0 0.1296155839
H  H42  1  0.98847000  0.72996000  0.21910000  1.0 0.1010300496
H  H43  1  0.01702000  0.70407000  0.15610000  1.0 0.1296155839
H  H44  1  0.10256000  0.95974000  0.28341000  1.0 0.1187814932
H  H45  1  0.12940000  0.92834000  0.24895000  1.0 0.1895651304
H  H46  1  0.08061000  0.14083000  0.27183000  1.0 0.1759559948
H  H47  1  0.09908000  0.19723000  0.24171000  1.0 0.1102974404
H  H48  1  0.12152000  0.22961000  0.31810000  1.0 0.138555107
H  H49  1  0.17296000  0.21273000  0.30972000  1.0 0.1187814932
H  H50  1  0.15424000  0.15557000  0.34024000  1.0 0.1102974404
H  H51  1  0.34117000  0.36591000  0.60310000  1.0 0.1102974404
H  H52  1  0.41978000  0.22280000  0.58748000  1.0 0.1296155839
H  H53  1  0.35816000  0.24205000  0.55424000  1.0 0.1187814932
H  H54  1  0.40224000  0.30404000  0.56589000  1.0 0.1187814932
H  H55  1  0.44146000  0.19689000  0.66666667  1.0 0.1187814932
H  H56  1  0.44067000  0.25851000  0.70564000  1.0 0.138555107
H  H57  1  0.39304000  0.20074000  0.68136000  1.0 0.1493802153
H  H58  1  0.89991000  0.37118000  0.16833000  1.0 0.1493802153
H  H59  1  0.01844000  0.47441000  0.23898000  1.0 0.1187814932
H  H60  1  0.96382000  0.49156000  0.18892000  1.0 0.1187814932
H  H61  1  0.99668000  0.41917000  0.19089000  1.0 0.138555107
H  H62  1  0.02111000  0.42407000  0.30650000  1.0 0.0904572667
H  H63  1  0.00194000  0.34075000  0.29478000  1.0 0.0904572667
H  H64  1  0.96912000  0.39797000  0.31117000  1.0 0.1102974404
H  H65  1  0.27031000  0.34597000  0.43885000  1.0 0.1010300496
H  H66  1  0.22016000  0.32200000  0.48415000  1.0 0.0904572667
H  H67  1  0.25316000  0.26846000  0.53166000  1.0 0.1296155839
H  H68  1  0.23970000  0.34993000  0.54237000  1.0 0.1296155839
H  H69  1  0.34823000  0.34651000  0.58900000  1.0 0.0414213314
H  H70  1  0.37078000  0.31788000  0.55027000  1.0 0.0809209249
H  H71  1  0.36064000  0.40342000  0.55369000  1.0 0.1102974404
H  H72  1  0.19635000  0.43485000  0.33177000  1.0 0.1493802153
H  H73  1  0.11114000  0.24971000  0.30410000  1.0 0.138555107
H  H74  1  0.10307000  0.30954000  0.26072000  1.0 0.1010300496
H  H75  1  0.07923000  0.32352000  0.30095000  1.0 0.0809209249
H  H76  1  0.18654000  0.23507000  0.35877000  1.0 0.1010300496
H  H77  1  0.21935000  0.29637000  0.40045000  1.0 0.1187814932
H  H78  1  0.22997000  0.28325000  0.35105000  1.0 0.0904572667
H  H79  1  0.07608000  0.97581000  0.22250000  1.0 0.1102974404
H  H80  1  0.88281000  0.79434000  0.94929000  1.0 0.1187814932
H  H81  1  0.93633000  0.70032000  0.06802000  1.0 0.1296155839
H  H82  1  0.95789000  0.71750000  0.02641000  1.0 0.138555107
H  H83  1  0.90168000  0.67793000  0.00865000  1.0 0.1296155839
H  H84  1  0.91395000  0.79234000  0.09855000  1.0 0.1102974404
H  H85  1  0.86243000  0.83838000  0.06169000  1.0 0.1187814932
H  H86  1  0.92049000  0.87031000  0.07683000  1.0 0.1102974404
H  H87  1  0.09307000  0.43027000  0.19779000  1.0 0.1010300496
H  H88  1  0.61688000  0.99198000  0.85543000  1.0 0.1187814932
H  H89  1  0.18559000  0.55928000  0.16550000  1.0 0.1187814932
H  H90  1  0.69238000  0.86892000  0.28237000  1.0 0.1296155839
H  H91  1  0.90677000  0.02838000  0.99042000  1.0 0.1102974404
H  H92  1  0.84053000  0.24432000  0.30183000  1.0 0.1187814932
H  H93  1  0.72112000  0.76027000  0.32822000  1.0 0.138555107
H  H94  1  0.89720000  0.09615000  0.18276000  1.0 0.1010300496
H  H95  1  0.84209000  0.74998000  0.28905000  1.0 0.1010300496
H  H96  1  0.25416000  0.41402000  0.75486000  1.0 0.1010300496
H  H97  1  0.10950000  0.39268000  0.06905000  1.0 0.1187814932
H  H98  1  0.61859000  0.07840000  0.06008000  1.0 0.1102974404
H  H99  1  0.38034000  0.31216000  0.75838000  1.0 0.1187814932
H  H100  1  0.81356000  0.86057000  0.24343000  1.0 0.0904572667
H  H101  1  0.84723000  0.36626000  0.32623000  1.0 0.1187814932
H  H102  1  0.67587000  0.02194000  0.94729000  1.0 0.1187814932
H  H103  1  0.26316000  0.35322000  0.82778000  1.0 0.1102974404
H  H104  1  0.67476000  0.05540000  0.02330000  1.0 0.1187814932
H  H105  1  0.16872000  0.49463000  0.09168000  1.0 0.1296155839
H  H106  1  0.83365000  0.07437000  0.09191000  1.0 0.1102974404
H  H107  1  0.83713000  0.04431000  0.01510000  1.0 0.1102974404
H  H108  1  0.68839000  0.38743000  0.25100000  1.0 0.1187814932
H  H109  1  0.91153000  0.12507000  0.32282000  1.0 0.1010300496
H  H110  1  0.92219000  0.97644000  0.86622000  1.0 0.1010300496
H  H111  1  0.62296000  0.98495000  0.72354000  1.0 0.1102974404
H  H112  1  0.01336000  0.13723000  0.95980000  1.0 0.1010300496
H  H113  1  0.58725000  0.04855000  0.17993000  1.0 0.1187814932
H  H114  1  0.33287000  0.27304000  0.87017000  1.0 0.1010300496
H  H115  1  0.68212000  0.26422000  0.22285000  1.0 0.1296155839
H  H116  1  0.46827000  0.09174000  0.03879000  1.0 0.1296155839
H  H117  1  0.55363000  0.06512000  0.68545000  1.0 0.138555107
H  H118  1  0.49749000  0.06318000  0.12642000  1.0 0.138555107
H  H119  1  0.99287000  0.05577000  0.88777000  1.0 0.1010300496
H  H120  1  0.51390000  0.11182000  0.73482000  1.0 0.1296155839
H  H121  1  0.01153000  0.22996000  0.28090000  1.0 0.1010300496
H  H122  1  0.98298000  0.20407000  0.34390000  1.0 0.1296155839
H  H123  1  0.89744000  0.45974000  0.21659000  1.0 0.1187814932
H  H124  1  0.87060000  0.42834000  0.25105000  1.0 0.1895651304
H  H125  1  0.91939000  0.64083000  0.22817000  1.0 0.1759559948
H  H126  1  0.90092000  0.69723000  0.25829000  1.0 0.1102974404
H  H127  1  0.87848000  0.72961000  0.18190000  1.0 0.138555107
H  H128  1  0.82704000  0.71273000  0.19028000  1.0 0.1187814932
H  H129  1  0.84576000  0.65557000  0.15976000  1.0 0.1102974404
H  H130  1  0.65883000  0.86591000  0.89690000  1.0 0.1102974404
H  H131  1  0.58022000  0.72280000  0.91252000  1.0 0.1296155839
H  H132  1  0.64184000  0.74205000  0.94576000  1.0 0.1187814932
H  H133  1  0.59776000  0.80404000  0.93411000  1.0 0.1187814932
H  H134  1  0.55854000  0.69689000  0.83339000  1.0 0.1187814932
H  H135  1  0.55933000  0.75851000  0.79436000  1.0 0.138555107
H  H136  1  0.60696000  0.70074000  0.81864000  1.0 0.1493802153
H  H137  1  0.10009000  0.87118000  0.33167000  1.0 0.1493802153
H  H138  1  0.98156000  0.97441000  0.26102000  1.0 0.1187814932
H  H139  1  0.03618000  0.99156000  0.31108000  1.0 0.1187814932
H  H140  1  0.00332000  0.91917000  0.30911000  1.0 0.138555107
H  H141  1  0.97889000  0.92407000  0.19350000  1.0 0.0904572667
H  H142  1  0.99806000  0.84075000  0.20522000  1.0 0.0904572667
H  H143  1  0.03088000  0.89797000  0.18883000  1.0 0.1102974404
H  H144  1  0.72969000  0.84597000  0.06115000  1.0 0.1010300496
H  H145  1  0.77984000  0.82200000  0.01585000  1.0 0.0904572667
H  H146  1  0.74684000  0.76846000  0.96834000  1.0 0.1296155839
H  H147  1  0.76030000  0.84993000  0.95763000  1.0 0.1296155839
H  H148  1  0.65177000  0.84651000  0.91100000  1.0 0.0414213314
H  H149  1  0.62922000  0.81788000  0.94973000  1.0 0.0809209249
H  H150  1  0.63936000  0.90342000  0.94631000  1.0 0.1102974404
H  H151  1  0.80365000  0.93485000  0.16823000  1.0 0.1493802153
H  H152  1  0.88886000  0.74971000  0.19590000  1.0 0.138555107
H  H153  1  0.89693000  0.80954000  0.23928000  1.0 0.1010300496
H  H154  1  0.92077000  0.82352000  0.19905000  1.0 0.0809209249
H  H155  1  0.81346000  0.73507000  0.14123000  1.0 0.1010300496
H  H156  1  0.78065000  0.79637000  0.09955000  1.0 0.1187814932
H  H157  1  0.77003000  0.78325000  0.14895000  1.0 0.0904572667
H  H158  1  0.92392000  0.47581000  0.27750000  1.0 0.1102974404
H  H159  1  0.88281000  0.70566000  0.44929000  1.0 0.1187814932
H  H160  1  0.93633000  0.79968000  0.56802000  1.0 0.1296155839
H  H161  1  0.95789000  0.78250000  0.52641000  1.0 0.138555107
H  H162  1  0.90168000  0.82207000  0.50865000  1.0 0.1296155839
H  H163  1  0.91395000  0.70766000  0.59855000  1.0 0.1102974404
H  H164  1  0.86243000  0.66162000  0.56169000  1.0 0.1187814932
H  H165  1  0.92049000  0.62969000  0.57683000  1.0 0.1102974404
H  H166  1  0.09307000  0.06973000  0.69779000  1.0 0.1010300496
H  H167  1  0.61688000  0.50802000  0.35543000  1.0 0.1187814932
H  H168  1  0.18559000  0.94072000  0.66550000  1.0 0.1187814932
H  H169  1  0.69238000  0.63108000  0.78237000  1.0 0.1296155839
H  H170  1  0.90677000  0.47162000  0.49042000  1.0 0.1102974404
H  H171  1  0.84053000  0.25568000  0.80183000  1.0 0.1187814932
H  H172  1  0.72112000  0.73973000  0.82822000  1.0 0.138555107
H  H173  1  0.89720000  0.40385000  0.68276000  1.0 0.1010300496
H  H174  1  0.84209000  0.75002000  0.78905000  1.0 0.1010300496
H  H175  1  0.25416000  0.08598000  0.25486000  1.0 0.1010300496
H  H176  1  0.10950000  0.10732000  0.56905000  1.0 0.1187814932
H  H177  1  0.61859000  0.42160000  0.56008000  1.0 0.1102974404
H  H178  1  0.38034000  0.18784000  0.25838000  1.0 0.1187814932
H  H179  1  0.81356000  0.63943000  0.74343000  1.0 0.0904572667
H  H180  1  0.84723000  0.13374000  0.82623000  1.0 0.1187814932
H  H181  1  0.67587000  0.47806000  0.44729000  1.0 0.1187814932
H  H182  1  0.26316000  0.14678000  0.32778000  1.0 0.1102974404
H  H183  1  0.67476000  0.44460000  0.52330000  1.0 0.1187814932
H  H184  1  0.16872000  0.00537000  0.59168000  1.0 0.1296155839
H  H185  1  0.83365000  0.42563000  0.59191000  1.0 0.1102974404
H  H186  1  0.83713000  0.45569000  0.51510000  1.0 0.1102974404
H  H187  1  0.68839000  0.11257000  0.75100000  1.0 0.1187814932
H  H188  1  0.91153000  0.37493000  0.82282000  1.0 0.1010300496
H  H189  1  0.92219000  0.52356000  0.36622000  1.0 0.1010300496
H  H190  1  0.62296000  0.51505000  0.22354000  1.0 0.1102974404
H  H191  1  0.01336000  0.36277000  0.45980000  1.0 0.1010300496
H  H192  1  0.58725000  0.45145000  0.67993000  1.0 0.1187814932
H  H193  1  0.33287000  0.22696000  0.37017000  1.0 0.1010300496
H  H194  1  0.68212000  0.23578000  0.72285000  1.0 0.1296155839
H  H195  1  0.46827000  0.40826000  0.53879000  1.0 0.1296155839
H  H196  1  0.55363000  0.43488000  0.18545000  1.0 0.138555107
H  H197  1  0.49749000  0.43682000  0.62642000  1.0 0.138555107
H  H198  1  0.99287000  0.44423000  0.38777000  1.0 0.1010300496
H  H199  1  0.51390000  0.38818000  0.23482000  1.0 0.1296155839
H  H200  1  0.01153000  0.27004000  0.78090000  1.0 0.1010300496
H  H201  1  0.98298000  0.29593000  0.84390000  1.0 0.1296155839
H  H202  1  0.89744000  0.04026000  0.71659000  1.0 0.1187814932
H  H203  1  0.87060000  0.07166000  0.75105000  1.0 0.1895651304
H  H204  1  0.91939000  0.85917000  0.72817000  1.0 0.1759559948
H  H205  1  0.90092000  0.80277000  0.75829000  1.0 0.1102974404
H  H206  1  0.87848000  0.77039000  0.68190000  1.0 0.138555107
H  H207  1  0.82704000  0.78727000  0.69028000  1.0 0.1187814932
H  H208  1  0.84576000  0.84443000  0.65976000  1.0 0.1102974404
H  H209  1  0.65883000  0.63409000  0.39690000  1.0 0.1102974404
H  H210  1  0.58022000  0.77720000  0.41252000  1.0 0.1296155839
H  H211  1  0.64184000  0.75795000  0.44576000  1.0 0.1187814932
H  H212  1  0.59776000  0.69596000  0.43411000  1.0 0.1187814932
H  H213  1  0.55854000  0.80311000  0.33339000  1.0 0.1187814932
H  H214  1  0.55933000  0.74149000  0.29436000  1.0 0.138555107
H  H215  1  0.60696000  0.79926000  0.31864000  1.0 0.1493802153
H  H216  1  0.10009000  0.62882000  0.83167000  1.0 0.1493802153
H  H217  1  0.98156000  0.52559000  0.76102000  1.0 0.1187814932
H  H218  1  0.03618000  0.50844000  0.81108000  1.0 0.1187814932
H  H219  1  0.00332000  0.58083000  0.80911000  1.0 0.138555107
H  H220  1  0.97889000  0.57593000  0.69350000  1.0 0.0904572667
H  H221  1  0.99806000  0.65925000  0.70522000  1.0 0.0904572667
H  H222  1  0.03088000  0.60203000  0.68883000  1.0 0.1102974404
H  H223  1  0.72969000  0.65403000  0.56115000  1.0 0.1010300496
H  H224  1  0.77984000  0.67800000  0.51585000  1.0 0.0904572667
H  H225  1  0.74684000  0.73154000  0.46834000  1.0 0.1296155839
H  H226  1  0.76030000  0.65007000  0.45763000  1.0 0.1296155839
H  H227  1  0.65177000  0.65349000  0.41100000  1.0 0.0414213314
H  H228  1  0.62922000  0.68212000  0.44973000  1.0 0.0809209249
H  H229  1  0.63936000  0.59658000  0.44631000  1.0 0.1102974404
H  H230  1  0.80365000  0.56515000  0.66823000  1.0 0.1493802153
H  H231  1  0.88886000  0.75029000  0.69590000  1.0 0.138555107
H  H232  1  0.89693000  0.69046000  0.73928000  1.0 0.1010300496
H  H233  1  0.92077000  0.67648000  0.69905000  1.0 0.0809209249
H  H234  1  0.81346000  0.76493000  0.64123000  1.0 0.1010300496
H  H235  1  0.78065000  0.70363000  0.59955000  1.0 0.1187814932
H  H236  1  0.77003000  0.71675000  0.64895000  1.0 0.0904572667
H  H237  1  0.92392000  0.02419000  0.77750000  1.0 0.1102974404
H  H238  1  0.11719000  0.20566000  0.05071000  1.0 0.1187814932
H  H239  1  0.06367000  0.29968000  0.93198000  1.0 0.1296155839
H  H240  1  0.04211000  0.28250000  0.97359000  1.0 0.138555107
H  H241  1  0.09832000  0.32207000  0.99135000  1.0 0.1296155839
H  H242  1  0.08605000  0.20766000  0.90145000  1.0 0.1102974404
H  H243  1  0.13757000  0.16162000  0.93831000  1.0 0.1187814932
H  H244  1  0.07951000  0.12969000  0.92317000  1.0 0.1102974404
H  H245  1  0.90693000  0.56973000  0.80221000  1.0 0.1010300496
H  H246  1  0.38312000  0.00802000  0.14457000  1.0 0.1187814932
H  H247  1  0.81441000  0.44072000  0.83450000  1.0 0.1187814932
H  H248  1  0.30762000  0.13108000  0.71763000  1.0 0.1296155839
H  H249  1  0.09323000  0.97162000  0.00958000  1.0 0.1102974404
H  H250  1  0.15947000  0.75568000  0.69817000  1.0 0.1187814932
H  H251  1  0.27888000  0.23973000  0.67178000  1.0 0.138555107
H  H252  1  0.10280000  0.90385000  0.81724000  1.0 0.1010300496
H  H253  1  0.15791000  0.25002000  0.71095000  1.0 0.1010300496
H  H254  1  0.74584000  0.58598000  0.24514000  1.0 0.1010300496
H  H255  1  0.89050000  0.60732000  0.93095000  1.0 0.1187814932
H  H256  1  0.38141000  0.92160000  0.93992000  1.0 0.1102974404
H  H257  1  0.61966000  0.68784000  0.24162000  1.0 0.1187814932
H  H258  1  0.18644000  0.13943000  0.75657000  1.0 0.0904572667
H  H259  1  0.15277000  0.63374000  0.67377000  1.0 0.1187814932
H  H260  1  0.32413000  0.97806000  0.05271000  1.0 0.1187814932
H  H261  1  0.73684000  0.64678000  0.17222000  1.0 0.1102974404
H  H262  1  0.32524000  0.94460000  0.97670000  1.0 0.1187814932
H  H263  1  0.83128000  0.50537000  0.90832000  1.0 0.1296155839
H  H264  1  0.16635000  0.92563000  0.90809000  1.0 0.1102974404
H  H265  1  0.16287000  0.95569000  0.98490000  1.0 0.1102974404
H  H266  1  0.31161000  0.61257000  0.74900000  1.0 0.1187814932
H  H267  1  0.08847000  0.87493000  0.67718000  1.0 0.1010300496
H  H268  1  0.07781000  0.02356000  0.13378000  1.0 0.1010300496
H  H269  1  0.37704000  0.01505000  0.27646000  1.0 0.1102974404
H  H270  1  0.98664000  0.86277000  0.04020000  1.0 0.1010300496
H  H271  1  0.41275000  0.95145000  0.82007000  1.0 0.1187814932
H  H272  1  0.66713000  0.72696000  0.12983000  1.0 0.1010300496
H  H273  1  0.31788000  0.73578000  0.77715000  1.0 0.1296155839
H  H274  1  0.53173000  0.90826000  0.96121000  1.0 0.1296155839
H  H275  1  0.44637000  0.93488000  0.31455000  1.0 0.138555107
H  H276  1  0.50251000  0.93682000  0.87358000  1.0 0.138555107
H  H277  1  0.00713000  0.94423000  0.11223000  1.0 0.1010300496
H  H278  1  0.48610000  0.88818000  0.26518000  1.0 0.1296155839
H  H279  1  0.98847000  0.77004000  0.71910000  1.0 0.1010300496
H  H280  1  0.01702000  0.79593000  0.65610000  1.0 0.1296155839
H  H281  1  0.10256000  0.54026000  0.78341000  1.0 0.1187814932
H  H282  1  0.12940000  0.57166000  0.74895000  1.0 0.1895651304
H  H283  1  0.08061000  0.35917000  0.77183000  1.0 0.1759559948
H  H284  1  0.09908000  0.30277000  0.74171000  1.0 0.1102974404
H  H285  1  0.12152000  0.27039000  0.81810000  1.0 0.138555107
H  H286  1  0.17296000  0.28727000  0.80972000  1.0 0.1187814932
H  H287  1  0.15424000  0.34443000  0.84024000  1.0 0.1102974404
H  H288  1  0.34117000  0.13409000  0.10310000  1.0 0.1102974404
H  H289  1  0.41978000  0.27720000  0.08748000  1.0 0.1296155839
H  H290  1  0.35816000  0.25795000  0.05424000  1.0 0.1187814932
H  H291  1  0.40224000  0.19596000  0.06589000  1.0 0.1187814932
H  H292  1  0.44146000  0.30311000  0.16661000  1.0 0.1187814932
H  H293  1  0.44067000  0.24149000  0.20564000  1.0 0.138555107
H  H294  1  0.39304000  0.29926000  0.18136000  1.0 0.1493802153
H  H295  1  0.89991000  0.12882000  0.66833000  1.0 0.1493802153
H  H296  1  0.01844000  0.02559000  0.73898000  1.0 0.1187814932
H  H297  1  0.96382000  0.00844000  0.68892000  1.0 0.1187814932
H  H298  1  0.99668000  0.08083000  0.69089000  1.0 0.138555107
H  H299  1  0.02111000  0.07593000  0.80650000  1.0 0.0904572667
H  H300  1  0.00194000  0.15925000  0.79478000  1.0 0.0904572667
H  H301  1  0.96912000  0.10203000  0.81117000  1.0 0.1102974404
H  H302  1  0.27031000  0.15403000  0.93885000  1.0 0.1010300496
H  H303  1  0.22016000  0.17800000  0.98415000  1.0 0.0904572667
H  H304  1  0.25316000  0.23154000  0.03166000  1.0 0.1296155839
H  H305  1  0.23970000  0.15007000  0.04237000  1.0 0.1296155839
H  H306  1  0.34823000  0.15349000  0.08900000  1.0 0.0414213314
H  H307  1  0.37078000  0.18212000  0.05027000  1.0 0.0809209249
H  H308  1  0.36064000  0.09658000  0.05369000  1.0 0.1102974404
H  H309  1  0.19635000  0.06515000  0.83177000  1.0 0.1493802153
H  H310  1  0.11114000  0.25029000  0.80410000  1.0 0.138555107
H  H311  1  0.10307000  0.19046000  0.76072000  1.0 0.1010300496
H  H312  1  0.07923000  0.17648000  0.80095000  1.0 0.0809209249
H  H313  1  0.18654000  0.26493000  0.85877000  1.0 0.1010300496
H  H314  1  0.21935000  0.20363000  0.90045000  1.0 0.1187814932
H  H315  1  0.22997000  0.21675000  0.85105000  1.0 0.0904572667
H  H316  1  0.07608000  0.52419000  0.72250000  1.0 0.1102974404
C  C1  1  0.11950000  0.32180000  0.52390000  1.0 0.3332376582
C  C2  1  0.07390000  0.21450000  0.46790000  1.0 -0.3395220015
C  C3  1  0.10110000  0.32570000  0.43110000  1.0 -0.4008114628
C  C4  1  0.19620000  0.17550000  0.15630000  1.0 0.5417121675
C  C5  1  0.02160000  0.63350000  0.46860000  1.0 0.3682444998
C  C6  1  0.89100000  0.94270000  0.32400000  1.0 0.0334461153
C  C7  1  0.21500000  0.24520000  0.18590000  1.0 -0.0157062874
C  C8  1  0.23150000  0.88770000  0.21000000  1.0 0.0031302081
C  C9  1  0.39690000  0.50770000  0.67960000  1.0 0.0590792098
C  C10  1  0.83720000  0.01790000  0.34280000  1.0 0.0809209249
C  C11  1  0.24400000  0.66580000  0.25760000  1.0 0.5917804268
C  C12  1  0.97810000  0.73580000  0.42340000  1.0 0.3682444998
C  C13  1  0.90350000  0.90090000  0.36760000  1.0 -0.0087386081
C  C14  1  0.99500000  0.71810000  0.38760000  1.0 -0.2193719383
C  C15  1  0.25080000  0.37400000  0.24260000  1.0 -0.0291744924
C  C16  1  0.22750000  0.96700000  0.18990000  1.0 0.5808278721
C  C17  1  0.27730000  0.34470000  0.21650000  1.0 -0.0810164634
C  C18  1  0.03540000  0.58820000  0.51630000  1.0 -0.0087386081
C  C19  1  0.07600000  0.53590000  0.53090000  1.0 0.0590792098
C  C20  1  0.93660000  0.83460000  0.37450000  1.0 0.3682444998
C  C21  1  0.24120000  0.49700000  0.57310000  1.0 0.5808278721
C  C22  1  0.24350000  0.52570000  0.52670000  1.0 -0.0291744924
C  C23  1  0.26890000  0.44250000  0.27280000  1.0 0.5330558446
C  C24  1  0.19070000  0.77340000  0.20960000  1.0 -0.0915565073
C  C25  1  0.98010000  0.76090000  0.34330000  1.0 0.3775871571
C  C26  1  0.25990000  0.28050000  0.18890000  1.0 -0.0677701096
C  C27  1  0.08530000  0.61940000  0.28440000  1.0 0.0590792098
C  C28  1  0.23880000  0.74310000  0.24060000  1.0 -0.0291744924
C  C29  1  0.18820000  0.27440000  0.21200000  1.0 -0.1490911014
C  C30  1  0.24520000  0.56430000  0.43410000  1.0 -0.0291744924
C  C31  1  0.24540000  0.57340000  0.38200000  1.0 0.5730517533
C  C32  1  0.71760000  0.88010000  0.72920000  1.0 0.0414213314
C  C33  1  0.02610000  0.68340000  0.31650000  1.0 0.3501947747
C  C34  1  0.88210000  0.91970000  0.40010000  1.0 -0.0571230437
C  C35  1  0.02700000  0.65370000  0.39370000  1.0 0.4024503854
C  C36  1  0.40660000  0.57730000  0.42640000  1.0 0.0414213314
C  C37  1  0.45970000  0.58880000  0.45970000  1.0 -0.0157062874
C  C38  1  0.64350000  0.82100000  0.72710000  1.0 0.0721548562
C  C39  1  0.20550000  0.33970000  0.23970000  1.0 -0.1834571707
C  C40  1  0.50910000  0.64010000  0.61190000  1.0 -0.2119721204
C  C41  1  0.47520000  0.60670000  0.51360000  1.0 0.3588827838
C  C42  1  0.46170000  0.58790000  0.66560000  1.0 0.3501947747
C  C43  1  0.18670000  0.84560000  0.19470000  1.0 -0.1014147772
C  C44  1  0.29150000  0.53170000  0.52310000  1.0 -0.0810164634
C  C45  1  0.43810000  0.55650000  0.69740000  1.0 -0.0291744924
C  C46  1  0.46500000  0.59690000  0.58790000  1.0 0.3588827838
C  C47  1  0.52620000  0.66090000  0.66470000  1.0 0.3921089497
C  C48  1  0.63560000  0.78480000  0.68180000  1.0 -0.0049383637
C  C49  1  0.59020000  0.73190000  0.65810000  1.0 0.3775871571
C  C50  1  0.71190000  0.84460000  0.68550000  1.0 -0.1416699767
C  C51  1  0.29230000  0.55100000  0.47810000  1.0 -0.1014147772
C  C52  1  0.84730000  0.98040000  0.38690000  1.0 -0.1490911014
C  C53  1  0.04300000  0.66580000  0.27600000  1.0 -0.0291744924
C  C54  1  0.19840000  0.56260000  0.43780000  1.0 -0.1180532399
C  C55  1  0.19580000  0.54430000  0.48320000  1.0 -0.1014147772
C  C56  1  0.53480000  0.66820000  0.58460000  1.0 0.3682444998
C  C57  1  0.28050000  0.85870000  0.23950000  1.0 -0.1014147772
C  C58  1  0.07700000  0.63600000  0.20280000  1.0 0.0904572667
C  C59  1  0.06660000  0.50500000  0.60320000  1.0 0.0904572667
C  C60  1  0.39340000  0.50340000  0.75640000  1.0 0.0721548562
C  C61  1  0.01200000  0.59920000  0.54750000  1.0 -0.050232255
C  C62  1  0.42450000  0.55890000  0.35580000  1.0 0.0904572667
C  C63  1  0.67140000  0.79720000  0.66060000  1.0 -0.0810164634
C  C64  1  0.28410000  0.78490000  0.25570000  1.0 -0.1014147772
C  C65  1  0.49500000  0.58400000  0.43950000  1.0 -0.0405186965
C  C66  1  0.43430000  0.55110000  0.77940000  1.0 -0.1490911014
C  C67  1  0.47760000  0.56790000  0.38730000  1.0 -0.1304768707
C  C68  1  0.02570000  0.55300000  0.59170000  1.0 -0.2119721204
C  C69  1  0.45730000  0.57840000  0.75030000  1.0 -0.0677701096
C  C70  1  0.01760000  0.69770000  0.22690000  1.0 -0.1888873228
C  C71  1  0.03430000  0.68290000  0.18960000  1.0 -0.1416699767
C  C72  1  0.14140000  0.03610000  0.26330000  1.0 0.4360082325
C  C73  1  0.10980000  0.96950000  0.25380000  1.0 -0.5676196589
C  C74  1  0.11210000  0.15800000  0.26790000  1.0 0.0102234137
C  C75  1  0.14200000  0.19100000  0.31180000  1.0 -0.1991308934
C  C76  1  0.35540000  0.33120000  0.63040000  1.0 0.3501947747
C  C77  1  0.39300000  0.26100000  0.57980000  1.0 -0.3058729443
C  C78  1  0.41870000  0.23000000  0.67480000  1.0 -0.3165781024
C  C79  1  0.91100000  0.37700000  0.20440000  1.0 0.1010300496
C  C80  1  0.98650000  0.45300000  0.21140000  1.0 -0.4008114628
C  C81  1  0.99000000  0.39200000  0.29200000  1.0 -0.1624202013
C  C82  1  0.30010000  0.35800000  0.47050000  1.0 -0.1082548845
C  C83  1  0.24880000  0.31900000  0.51960000  1.0 -0.4129537814
C  C84  1  0.34770000  0.35400000  0.55520000  1.0 -0.1991308934
C  C85  1  0.16530000  0.41090000  0.32920000  1.0 0.1895651304
C  C86  1  0.10890000  0.30200000  0.29650000  1.0 -0.2517071638
C  C87  1  0.20280000  0.28400000  0.36360000  1.0 -0.1014147772
C  C88  1  0.88050000  0.82180000  0.97610000  1.0 0.3332376582
C  C89  1  0.92610000  0.71450000  0.03210000  1.0 -0.3395220015
C  C90  1  0.89890000  0.82570000  0.06890000  1.0 -0.4008114628
C  C91  1  0.80380000  0.67550000  0.34370000  1.0 0.5417121675
C  C92  1  0.97840000  0.13350000  0.03140000  1.0 0.3682444998
C  C93  1  0.10900000  0.44270000  0.17600000  1.0 0.0334461153
C  C94  1  0.78500000  0.74520000  0.31410000  1.0 -0.0157062874
C  C95  1  0.76850000  0.38770000  0.29000000  1.0 0.0031302081
C  C96  1  0.60310000  0.00770000  0.82040000  1.0 0.0590792098
C  C97  1  0.16280000  0.51790000  0.15720000  1.0 0.0809209249
C  C98  1  0.75600000  0.16580000  0.24240000  1.0 0.5917804268
C  C99  1  0.02190000  0.23580000  0.07660000  1.0 0.3682444998
C  C100  1  0.09650000  0.40090000  0.13240000  1.0 -0.0087386081
C  C101  1  0.00500000  0.21810000  0.11240000  1.0 -0.2193719383
C  C102  1  0.74920000  0.87400000  0.25740000  1.0 -0.0291744924
C  C103  1  0.77250000  0.46700000  0.31010000  1.0 0.5808278721
C  C104  1  0.72270000  0.84470000  0.28350000  1.0 -0.0810164634
C  C105  1  0.96460000  0.08820000  0.98370000  1.0 -0.0087386081
C  C106  1  0.92400000  0.03590000  0.96910000  1.0 0.0590792098
C  C107  1  0.06340000  0.33460000  0.12550000  1.0 0.3682444998
C  C108  1  0.75880000  0.99700000  0.92690000  1.0 0.5808278721
C  C109  1  0.75650000  0.02570000  0.97330000  1.0 -0.0291744924
C  C110  1  0.73110000  0.94250000  0.22720000  1.0 0.5330558446
C  C111  1  0.80930000  0.27340000  0.29040000  1.0 -0.0915565073
C  C112  1  0.01990000  0.26090000  0.15670000  1.0 0.3775871571
C  C113  1  0.74010000  0.78050000  0.31110000  1.0 -0.0677701096
C  C114  1  0.91470000  0.11940000  0.21560000  1.0 0.0590792098
C  C115  1  0.76120000  0.24310000  0.25940000  1.0 -0.0291744924
C  C116  1  0.81180000  0.77440000  0.28800000  1.0 -0.1490911014
C  C117  1  0.75480000  0.06430000  0.06590000  1.0 -0.0291744924
C  C118  1  0.75460000  0.07340000  0.11800000  1.0 0.5730517533
C  C119  1  0.28240000  0.38010000  0.77080000  1.0 0.0334461153
C  C120  1  0.97390000  0.18340000  0.18350000  1.0 0.3501947747
C  C121  1  0.11790000  0.41970000  0.09990000  1.0 -0.0571230437
C  C122  1  0.97300000  0.15370000  0.10630000  1.0 0.4024503854
C  C123  1  0.59340000  0.07730000  0.07360000  1.0 0.0414213314
C  C124  1  0.54030000  0.08880000  0.04030000  1.0 -0.0157062874
C  C125  1  0.35650000  0.32100000  0.77290000  1.0 0.0721548562
C  C126  1  0.79450000  0.83970000  0.26030000  1.0 -0.1834571707
C  C127  1  0.49090000  0.14010000  0.88810000  1.0 -0.2119721204
C  C128  1  0.52480000  0.10670000  0.98640000  1.0 0.3588827838
C  C129  1  0.53830000  0.08790000  0.83440000  1.0 0.3501947747
C  C130  1  0.81330000  0.34560000  0.30530000  1.0 -0.1014147772
C  C131  1  0.70850000  0.03170000  0.97690000  1.0 -0.0810164634
C  C132  1  0.56190000  0.05650000  0.80260000  1.0 -0.0291744924
C  C133  1  0.53500000  0.09690000  0.91210000  1.0 0.3588827838
C  C134  1  0.47380000  0.16090000  0.83530000  1.0 0.3921089497
C  C135  1  0.36440000  0.28480000  0.81820000  1.0 -0.0049383637
C  C136  1  0.40980000  0.23190000  0.84190000  1.0 0.3775871571
C  C137  1  0.28810000  0.34460000  0.81450000  1.0 -0.1416699767
C  C138  1  0.70770000  0.05100000  0.02190000  1.0 -0.1014147772
C  C139  1  0.15270000  0.48040000  0.11310000  1.0 -0.1490911014
C  C140  1  0.95700000  0.16580000  0.22400000  1.0 -0.0291744924
C  C141  1  0.80160000  0.06260000  0.06220000  1.0 -0.1180532399
C  C142  1  0.80420000  0.04430000  0.01680000  1.0 -0.1014147772
C  C143  1  0.46520000  0.16820000  0.91540000  1.0 0.3682444998
C  C144  1  0.71950000  0.35870000  0.26050000  1.0 -0.1014147772
C  C145  1  0.92300000  0.13600000  0.29720000  1.0 0.0904572667
C  C146  1  0.93340000  0.00500000  0.89680000  1.0 0.0904572667
C  C147  1  0.60660000  0.00340000  0.74360000  1.0 0.0721548562
C  C148  1  0.98800000  0.09920000  0.95250000  1.0 -0.050232255
C  C149  1  0.57550000  0.05890000  0.14420000  1.0 0.0904572667
C  C150  1  0.32860000  0.29720000  0.83940000  1.0 -0.0810164634
C  C151  1  0.71590000  0.28490000  0.24430000  1.0 -0.1014147772
C  C152  1  0.50500000  0.08400000  0.06050000  1.0 -0.0405186965
C  C153  1  0.56570000  0.05110000  0.72060000  1.0 -0.1490911014
C  C154  1  0.52240000  0.06790000  0.11270000  1.0 -0.1304768707
C  C155  1  0.97430000  0.05300000  0.90830000  1.0 -0.2119721204
C  C156  1  0.54270000  0.07840000  0.74970000  1.0 -0.0677701096
C  C157  1  0.98240000  0.19770000  0.27310000  1.0 -0.1888873228
C  C158  1  0.96570000  0.18290000  0.31040000  1.0 -0.1416699767
C  C159  1  0.85860000  0.53610000  0.23670000  1.0 0.4360082325
C  C160  1  0.89020000  0.46950000  0.24620000  1.0 -0.5676196589
C  C161  1  0.88790000  0.65800000  0.23210000  1.0 0.0102234137
C  C162  1  0.85800000  0.69100000  0.18820000  1.0 -0.1888873228
C  C163  1  0.64460000  0.83120000  0.86960000  1.0 0.3501947747
C  C164  1  0.60700000  0.76100000  0.92020000  1.0 -0.3058729443
C  C165  1  0.58130000  0.73000000  0.82520000  1.0 -0.3165781024
C  C166  1  0.08900000  0.87700000  0.29560000  1.0 0.1010300496
C  C167  1  0.01350000  0.95300000  0.28860000  1.0 -0.4008114628
C  C168  1  0.01000000  0.89200000  0.20800000  1.0 -0.1624202013
C  C169  1  0.69990000  0.85800000  0.02950000  1.0 -0.1082548845
C  C170  1  0.75120000  0.81900000  0.98040000  1.0 -0.4129537814
C  C171  1  0.65230000  0.85400000  0.94480000  1.0 -0.1991308934
C  C172  1  0.83470000  0.91090000  0.17080000  1.0 0.1895651304
C  C173  1  0.89110000  0.80200000  0.20350000  1.0 -0.2517071638
C  C174  1  0.79720000  0.78400000  0.13640000  1.0 -0.1014147772
C  C175  1  0.88050000  0.67820000  0.47610000  1.0 0.3332376582
C  C176  1  0.92610000  0.78550000  0.53210000  1.0 -0.3395220015
C  C177  1  0.89890000  0.67430000  0.56890000  1.0 -0.4008114628
C  C178  1  0.80380000  0.82450000  0.84370000  1.0 0.5417121675
C  C179  1  0.97840000  0.36650000  0.53140000  1.0 0.3682444998
C  C180  1  0.10900000  0.05730000  0.67600000  1.0 0.0334461153
C  C181  1  0.78500000  0.75480000  0.81410000  1.0 -0.0157062874
C  C182  1  0.76850000  0.11230000  0.79000000  1.0 0.0031302081
C  C183  1  0.60310000  0.49230000  0.32040000  1.0 0.0590792098
C  C184  1  0.16280000  0.98210000  0.65720000  1.0 0.0809209249
C  C185  1  0.75600000  0.33420000  0.74240000  1.0 0.5917804268
C  C186  1  0.02190000  0.26420000  0.57660000  1.0 0.3682444998
C  C187  1  0.09650000  0.09910000  0.63240000  1.0 -0.0087386081
C  C188  1  0.00500000  0.28190000  0.61240000  1.0 -0.2193719383
C  C189  1  0.74920000  0.62600000  0.75740000  1.0 -0.0291744924
C  C190  1  0.77250000  0.03300000  0.81010000  1.0 0.5808278721
C  C191  1  0.72270000  0.65530000  0.78350000  1.0 -0.0810164634
C  C192  1  0.96460000  0.41180000  0.48370000  1.0 -0.0087386081
C  C193  1  0.92400000  0.46410000  0.46910000  1.0 0.0590792098
C  C194  1  0.06340000  0.16540000  0.62550000  1.0 0.3682444998
C  C195  1  0.75880000  0.50300000  0.42690000  1.0 0.5808278721
C  C196  1  0.75650000  0.47430000  0.47330000  1.0 -0.0291744924
C  C197  1  0.73110000  0.55750000  0.72720000  1.0 0.5330558446
C  C198  1  0.80930000  0.22660000  0.79040000  1.0 -0.0915565073
C  C199  1  0.01990000  0.23910000  0.65670000  1.0 0.3775871571
C  C200  1  0.74010000  0.71950000  0.81110000  1.0 -0.0677701096
C  C201  1  0.91470000  0.38060000  0.71560000  1.0 0.0590792098
C  C202  1  0.76120000  0.25690000  0.75940000  1.0 -0.0291744924
C  C203  1  0.81180000  0.72560000  0.78800000  1.0 -0.1490911014
C  C204  1  0.75480000  0.43570000  0.56590000  1.0 -0.0291744924
C  C205  1  0.75460000  0.42660000  0.61800000  1.0 0.5730517533
C  C206  1  0.28240000  0.11990000  0.27080000  1.0 0.0334461153
C  C207  1  0.97390000  0.31660000  0.68350000  1.0 0.3501947747
C  C208  1  0.11790000  0.08030000  0.59990000  1.0 -0.0571230437
C  C209  1  0.97300000  0.34630000  0.60630000  1.0 0.4024503854
C  C210  1  0.59340000  0.42270000  0.57360000  1.0 0.0414213314
C  C211  1  0.54030000  0.41120000  0.54030000  1.0 -0.0157062874
C  C212  1  0.35650000  0.17900000  0.27290000  1.0 0.0721548562
C  C213  1  0.79450000  0.66030000  0.76030000  1.0 -0.1834571707
C  C214  1  0.49090000  0.35990000  0.38810000  1.0 -0.2119721204
C  C215  1  0.52480000  0.39330000  0.48640000  1.0 0.3588827838
C  C216  1  0.53830000  0.41210000  0.33440000  1.0 0.3501947747
C  C217  1  0.81330000  0.15440000  0.80530000  1.0 -0.1014147772
C  C218  1  0.70850000  0.46830000  0.47690000  1.0 -0.0810164634
C  C219  1  0.56190000  0.44350000  0.30260000  1.0 -0.0291744924
C  C220  1  0.53500000  0.40310000  0.41210000  1.0 0.3588827838
C  C221  1  0.47380000  0.33910000  0.33530000  1.0 0.3921089497
C  C222  1  0.36440000  0.21520000  0.31820000  1.0 -0.0049383637
C  C223  1  0.40980000  0.26810000  0.34190000  1.0 0.3775871571
C  C224  1  0.28810000  0.15540000  0.31450000  1.0 -0.1416699767
C  C225  1  0.70770000  0.44900000  0.52190000  1.0 -0.1014147772
C  C226  1  0.15270000  0.01960000  0.61310000  1.0 -0.1490911014
C  C227  1  0.95700000  0.33420000  0.72400000  1.0 -0.0291744924
C  C228  1  0.80160000  0.43740000  0.56220000  1.0 -0.1180532399
C  C229  1  0.80420000  0.45570000  0.51680000  1.0 -0.1014147772
C  C230  1  0.46520000  0.33180000  0.41540000  1.0 0.3682444998
C  C231  1  0.71950000  0.14130000  0.76050000  1.0 -0.1014147772
C  C232  1  0.92300000  0.36400000  0.79720000  1.0 0.0904572667
C  C233  1  0.93340000  0.49500000  0.39680000  1.0 0.0904572667
C  C234  1  0.60660000  0.49660000  0.24360000  1.0 0.0721548562
C  C235  1  0.98800000  0.40080000  0.45250000  1.0 -0.050232255
C  C236  1  0.57550000  0.44110000  0.64420000  1.0 0.0904572667
C  C237  1  0.32860000  0.20280000  0.33940000  1.0 -0.0810164634
C  C238  1  0.71590000  0.21510000  0.74430000  1.0 -0.1014147772
C  C239  1  0.50500000  0.41600000  0.56050000  1.0 -0.0405186965
C  C240  1  0.56570000  0.44890000  0.22060000  1.0 -0.1490911014
C  C241  1  0.52240000  0.43210000  0.61270000  1.0 -0.1304768707
C  C242  1  0.97430000  0.44700000  0.40830000  1.0 -0.2119721204
C  C243  1  0.54270000  0.42160000  0.24970000  1.0 -0.0677701096
C  C244  1  0.98240000  0.30230000  0.77310000  1.0 -0.1888873228
C  C245  1  0.96570000  0.31710000  0.81040000  1.0 -0.1416699767
C  C246  1  0.85860000  0.96390000  0.73670000  1.0 0.4360082325
C  C247  1  0.89020000  0.03050000  0.74620000  1.0 -0.5676196589
C  C248  1  0.88790000  0.84200000  0.73210000  1.0 0.0102234137
C  C249  1  0.85800000  0.80900000  0.68820000  1.0 -0.1991308934
C  C250  1  0.64460000  0.66880000  0.36960000  1.0 0.3501947747
C  C251  1  0.60700000  0.73900000  0.42020000  1.0 -0.3058729443
C  C252  1  0.58130000  0.77000000  0.32520000  1.0 -0.3165781024
C  C253  1  0.08900000  0.62300000  0.79560000  1.0 0.1010300496
C  C254  1  0.01350000  0.54700000  0.78860000  1.0 -0.4008114628
C  C255  1  0.01000000  0.60800000  0.70800000  1.0 -0.1624202013
C  C256  1  0.69990000  0.64200000  0.52950000  1.0 -0.1082548845
C  C257  1  0.75120000  0.68100000  0.48040000  1.0 -0.4129537814
C  C258  1  0.65230000  0.64600000  0.44480000  1.0 -0.1991308934
C  C259  1  0.83470000  0.58910000  0.67080000  1.0 0.1895651304
C  C260  1  0.89110000  0.69800000  0.70350000  1.0 -0.2517071638
C  C261  1  0.79720000  0.71600000  0.63640000  1.0 -0.1014147772
C  C262  1  0.11950000  0.17820000  0.02390000  1.0 0.3332376582
C  C263  1  0.07390000  0.28550000  0.96790000  1.0 -0.3395220015
C  C264  1  0.10110000  0.17430000  0.93110000  1.0 -0.4008114628
C  C265  1  0.19620000  0.32450000  0.65630000  1.0 0.5417121675
C  C266  1  0.02160000  0.86650000  0.96860000  1.0 0.3682444998
C  C267  1  0.89100000  0.55730000  0.82400000  1.0 0.0334461153
C  C268  1  0.21500000  0.25480000  0.68590000  1.0 -0.0157062874
C  C269  1  0.23150000  0.61230000  0.71000000  1.0 0.0031302081
C  C270  1  0.39690000  0.99230000  0.17960000  1.0 0.0590792098
C  C271  1  0.83720000  0.48210000  0.84280000  1.0 0.0809209249
C  C272  1  0.24400000  0.83420000  0.75760000  1.0 0.5917804268
C  C273  1  0.97810000  0.76420000  0.92340000  1.0 0.3682444998
C  C274  1  0.90350000  0.59910000  0.86760000  1.0 -0.0087386081
C  C275  1  0.99500000  0.78190000  0.88760000  1.0 -0.2193719383
C  C276  1  0.25080000  0.12600000  0.74260000  1.0 -0.0291744924
C  C277  1  0.22750000  0.53300000  0.68990000  1.0 0.5808278721
C  C278  1  0.27730000  0.15530000  0.71650000  1.0 -0.0810164634
C  C279  1  0.03540000  0.91180000  0.01630000  1.0 -0.0087386081
C  C280  1  0.07600000  0.96410000  0.03090000  1.0 0.0590792098
C  C281  1  0.93660000  0.66540000  0.87450000  1.0 0.3682444998
C  C282  1  0.24120000  0.00300000  0.07310000  1.0 0.5808278721
C  C283  1  0.24350000  0.97430000  0.02670000  1.0 -0.0291744924
C  C284  1  0.26890000  0.05750000  0.77280000  1.0 0.5330558446
C  C285  1  0.19070000  0.72660000  0.70960000  1.0 -0.0915565073
C  C286  1  0.98010000  0.73910000  0.84330000  1.0 0.3775871571
C  C287  1  0.25990000  0.21950000  0.68890000  1.0 -0.0677701096
C  C288  1  0.08530000  0.88060000  0.78440000  1.0 0.0590792098
C  C289  1  0.23880000  0.75690000  0.74060000  1.0 -0.0291744924
C  C290  1  0.18820000  0.22560000  0.71200000  1.0 -0.1490911014
C  C291  1  0.24520000  0.93570000  0.93410000  1.0 -0.0291744924
C  C292  1  0.24540000  0.92660000  0.88200000  1.0 0.5730517533
C  C293  1  0.71760000  0.61990000  0.22920000  1.0 0.0414213314
C  C294  1  0.02610000  0.81660000  0.81650000  1.0 0.3501947747
C  C295  1  0.88210000  0.58030000  0.90010000  1.0 -0.0571230437
C  C296  1  0.02700000  0.84630000  0.89370000  1.0 0.4024503854
C  C297  1  0.40660000  0.92270000  0.92640000  1.0 0.0414213314
C  C298  1  0.45970000  0.91120000  0.95970000  1.0 -0.0157062874
C  C299  1  0.64350000  0.67900000  0.22710000  1.0 0.0721548562
C  C300  1  0.20550000  0.16030000  0.73970000  1.0 -0.1834571707
C  C301  1  0.50910000  0.85990000  0.11190000  1.0 -0.2119721204
C  C302  1  0.47520000  0.89330000  0.01360000  1.0 0.3588827838
C  C303  1  0.46170000  0.91210000  0.16560000  1.0 0.3501947747
C  C304  1  0.18670000  0.65440000  0.69470000  1.0 -0.1014147772
C  C305  1  0.29150000  0.96830000  0.02310000  1.0 -0.0810164634
C  C306  1  0.43810000  0.94350000  0.19740000  1.0 -0.0291744924
C  C307  1  0.46500000  0.90310000  0.08790000  1.0 0.3588827838
C  C308  1  0.52620000  0.83910000  0.16470000  1.0 0.3921089497
C  C309  1  0.63560000  0.71520000  0.18180000  1.0 -0.0049383637
C  C310  1  0.59020000  0.76810000  0.15810000  1.0 0.3775871571
C  C311  1  0.71190000  0.65540000  0.18550000  1.0 -0.1416699767
C  C312  1  0.29230000  0.94900000  0.97810000  1.0 -0.1014147772
C  C313  1  0.84730000  0.51960000  0.88690000  1.0 -0.1490911014
C  C314  1  0.04300000  0.83420000  0.77600000  1.0 -0.0291744924
C  C315  1  0.19840000  0.93740000  0.93780000  1.0 -0.1180532399
C  C316  1  0.19580000  0.95570000  0.98320000  1.0 -0.1014147772
C  C317  1  0.53480000  0.83180000  0.08460000  1.0 0.3682444998
C  C318  1  0.28050000  0.64130000  0.73950000  1.0 -0.1014147772
C  C319  1  0.07700000  0.86400000  0.70280000  1.0 0.0904572667
C  C320  1  0.06660000  0.99500000  0.10320000  1.0 0.0904572667
C  C321  1  0.39340000  0.99660000  0.25640000  1.0 0.0721548562
C  C322  1  0.01200000  0.90080000  0.04750000  1.0 -0.050232255
C  C323  1  0.42450000  0.94110000  0.85580000  1.0 0.0904572667
C  C324  1  0.67140000  0.70280000  0.16060000  1.0 -0.0810164634
C  C325  1  0.28410000  0.71510000  0.75570000  1.0 -0.1014147772
C  C326  1  0.49500000  0.91600000  0.93950000  1.0 -0.0405186965
C  C327  1  0.43430000  0.94890000  0.27940000  1.0 -0.1490911014
C  C328  1  0.47760000  0.93210000  0.88730000  1.0 -0.1304768707
C  C329  1  0.02570000  0.94700000  0.09170000  1.0 -0.2119721204
C  C330  1  0.45730000  0.92160000  0.25030000  1.0 -0.0677701096
C  C331  1  0.01760000  0.80230000  0.72690000  1.0 -0.1888873228
C  C332  1  0.03430000  0.81710000  0.68960000  1.0 -0.1416699767
C  C333  1  0.14140000  0.46390000  0.76330000  1.0 0.4360082325
C  C334  1  0.10980000  0.53050000  0.75380000  1.0 -0.5676196589
C  C335  1  0.11210000  0.34200000  0.76790000  1.0 0.0102234137
C  C336  1  0.14200000  0.30900000  0.81180000  1.0 -0.1888873228
C  C337  1  0.35540000  0.16880000  0.13040000  1.0 0.3501947747
C  C338  1  0.39300000  0.23900000  0.07980000  1.0 -0.3058729443
C  C339  1  0.41870000  0.27000000  0.17480000  1.0 -0.3165781024
C  C340  1  0.91100000  0.12300000  0.70440000  1.0 0.1010300496
C  C341  1  0.98650000  0.04700000  0.71140000  1.0 -0.4008114628
C  C342  1  0.99000000  0.10800000  0.79200000  1.0 -0.1624202013
C  C343  1  0.30010000  0.14200000  0.97050000  1.0 -0.1082548845
C  C344  1  0.24880000  0.18100000  0.01960000  1.0 -0.4129537814
C  C345  1  0.34770000  0.14600000  0.05520000  1.0 -0.1991308934
C  C346  1  0.16530000  0.08910000  0.82920000  1.0 0.1895651304
C  C347  1  0.10890000  0.19800000  0.79650000  1.0 -0.2517071638
C  C348  1  0.20280000  0.21600000  0.86360000  1.0 -0.1014147772
I  I1  1  0.33900000  0.39240000  0.42230000  1.0 0.2606719014
I  I2  1  0.25290000  0.31110000  0.39620000  1.0 -0.050232255
I  I3  1  0.06880000  0.48090000  0.34290000  1.0 0.1010300496
I  I4  1  0.97520000  0.40730000  0.28600000  1.0 0.0809209249
I  I5  1  0.18190000  0.18370000  0.38090000  1.0 0.1726345782
I  I6  1  0.28300000  0.14000000  0.45360000  1.0 -0.2622276697
I  I7  1  0.66100000  0.89240000  0.07770000  1.0 0.2606719014
I  I8  1  0.74710000  0.81110000  0.10380000  1.0 -0.050232255
I  I9  1  0.93120000  0.98090000  0.15710000  1.0 0.1010300496
I  I10  1  0.02480000  0.90730000  0.21400000  1.0 0.0809209249
I  I11  1  0.81810000  0.68370000  0.11910000  1.0 0.1726345782
I  I12  1  0.71700000  0.64000000  0.04640000  1.0 -0.2517071638
I  I13  1  0.66100000  0.60760000  0.57770000  1.0 0.2606719014
I  I14  1  0.74710000  0.68890000  0.60380000  1.0 -0.050232255
I  I15  1  0.93120000  0.51910000  0.65710000  1.0 0.1010300496
I  I16  1  0.02480000  0.59270000  0.71400000  1.0 0.0809209249
I  I17  1  0.81810000  0.81630000  0.61910000  1.0 0.1726345782
I  I18  1  0.71700000  0.86000000  0.54640000  1.0 -0.2622276697
I  I19  1  0.33900000  0.10760000  0.92230000  1.0 0.2606719014
I  I20  1  0.25290000  0.18890000  0.89620000  1.0 -0.050232255
I  I21  1  0.06880000  0.01910000  0.84290000  1.0 0.1010300496
I  I22  1  0.97520000  0.09270000  0.78600000  1.0 0.0809209249
I  I23  1  0.18190000  0.31630000  0.88090000  1.0 0.1726345782
I  I24  1  0.28300000  0.36000000  0.95360000  1.0 -0.2517071638
N  N1  1  0.10120000  0.28850000  0.47860000  1.0 0.0175605071
N  N2  1  0.85750000  0.00020000  0.31050000  1.0 -0.2622276697
N  N3  1  0.68380000  0.86820000  0.75080000  1.0 -0.2622276697
N  N4  1  0.99060000  0.69190000  0.46600000  1.0 -0.450253294
N  N5  1  0.37500000  0.48090000  0.70830000  1.0 -0.1991308934
N  N6  1  0.10300000  0.60540000  0.24910000  1.0 -0.2517071638
N  N7  1  0.94790000  0.79560000  0.41820000  1.0 -0.4321344468
N  N8  1  0.04290000  0.63710000  0.35770000  1.0 -0.450253294
N  N9  1  0.09120000  0.49590000  0.57440000  1.0 -0.2517071638
N  N10  1  0.04110000  0.61280000  0.43670000  1.0 -0.4191058575
N  N11  1  0.99620000  0.74270000  0.30750000  1.0 -0.450253294
N  N12  1  0.50370000  0.63330000  0.69260000  1.0 -0.4191058575
N  N13  1  0.95130000  0.82120000  0.33780000  1.0 -0.4008114628
N  N14  1  0.44090000  0.56700000  0.61540000  1.0 -0.4129537814
N  N15  1  0.38920000  0.56440000  0.37440000  1.0 -0.2669788945
N  N16  1  0.56900000  0.70760000  0.68750000  1.0 -0.4129537814
N  N17  1  0.44800000  0.57710000  0.53710000  1.0 -0.4008114628
N  N18  1  0.51880000  0.65070000  0.53420000  1.0 -0.4191058575
N  N19  1  0.57730000  0.71650000  0.60740000  1.0 -0.450253294
N  N20  1  0.38900000  0.28100000  0.62920000  1.0 -0.0677701096
N  N21  1  0.95600000  0.41100000  0.23520000  1.0 0.0904572667
N  N22  1  0.30180000  0.34700000  0.52060000  1.0 -0.0405186965
N  N23  1  0.16070000  0.33940000  0.33350000  1.0 -0.1624202013
N  N24  1  0.89880000  0.78850000  0.02140000  1.0 0.0175605071
N  N25  1  0.14250000  0.50020000  0.18950000  1.0 -0.2622276697
N  N26  1  0.31620000  0.36820000  0.74920000  1.0 -0.2622276697
N  N27  1  0.00940000  0.19190000  0.03400000  1.0 -0.450253294
N  N28  1  0.62500000  0.98090000  0.79170000  1.0 -0.1991308934
N  N29  1  0.89700000  0.10540000  0.25090000  1.0 -0.2517071638
N  N30  1  0.05210000  0.29560000  0.08180000  1.0 -0.4321344468
N  N31  1  0.95710000  0.13710000  0.14230000  1.0 -0.450253294
N  N32  1  0.90880000  0.99590000  0.92560000  1.0 -0.2517071638
N  N33  1  0.95890000  0.11280000  0.06330000  1.0 -0.4191058575
N  N34  1  0.00380000  0.24270000  0.19250000  1.0 -0.450253294
N  N35  1  0.49630000  0.13330000  0.80740000  1.0 -0.4191058575
N  N36  1  0.04870000  0.32120000  0.16220000  1.0 -0.4008114628
N  N37  1  0.55910000  0.06700000  0.88460000  1.0 -0.4129537814
N  N38  1  0.61080000  0.06440000  0.12560000  1.0 -0.2669788945
N  N39  1  0.43100000  0.20760000  0.81250000  1.0 -0.4129537814
N  N40  1  0.55200000  0.07710000  0.96290000  1.0 -0.4008114628
N  N41  1  0.48120000  0.15070000  0.96580000  1.0 -0.4191058575
N  N42  1  0.42270000  0.21650000  0.89260000  1.0 -0.450253294
N  N43  1  0.61100000  0.78100000  0.87080000  1.0 -0.0677701096
N  N44  1  0.04400000  0.91100000  0.26480000  1.0 0.0904572667
N  N45  1  0.69820000  0.84700000  0.97940000  1.0 -0.0405186965
N  N46  1  0.83930000  0.83940000  0.16650000  1.0 -0.1624202013
N  N47  1  0.89880000  0.71150000  0.52140000  1.0 0.0175605071
N  N48  1  0.14250000  0.99980000  0.68950000  1.0 -0.2622276697
N  N49  1  0.31620000  0.13180000  0.24920000  1.0 -0.2622276697
N  N50  1  0.00940000  0.30810000  0.53400000  1.0 -0.450253294
N  N51  1  0.62500000  0.51910000  0.29170000  1.0 -0.1991308934
N  N52  1  0.89700000  0.39460000  0.75090000  1.0 -0.2517071638
N  N53  1  0.05210000  0.20440000  0.58180000  1.0 -0.4321344468
N  N54  1  0.95710000  0.36290000  0.64230000  1.0 -0.450253294
N  N55  1  0.90880000  0.50410000  0.42560000  1.0 -0.2517071638
N  N56  1  0.95890000  0.38720000  0.56330000  1.0 -0.4191058575
N  N57  1  0.00380000  0.25730000  0.69250000  1.0 -0.450253294
N  N58  1  0.49630000  0.36670000  0.30740000  1.0 -0.4191058575
N  N59  1  0.04870000  0.17880000  0.66220000  1.0 -0.4008114628
N  N60  1  0.55910000  0.43300000  0.38460000  1.0 -0.4129537814
N  N61  1  0.61080000  0.43560000  0.62560000  1.0 -0.2669788945
N  N62  1  0.43100000  0.29240000  0.31250000  1.0 -0.4129537814
N  N63  1  0.55200000  0.42290000  0.46290000  1.0 -0.4008114628
N  N64  1  0.48120000  0.34930000  0.46580000  1.0 -0.4191058575
N  N65  1  0.42270000  0.28350000  0.39260000  1.0 -0.450253294
N  N66  1  0.61100000  0.71900000  0.37080000  1.0 -0.0677701096
N  N67  1  0.04400000  0.58900000  0.76480000  1.0 0.0904572667
N  N68  1  0.69820000  0.65300000  0.47940000  1.0 -0.0405186965
N  N69  1  0.83930000  0.66060000  0.66650000  1.0 -0.1624202013
N  N70  1  0.10120000  0.21150000  0.97860000  1.0 0.0175605071
N  N71  1  0.85750000  0.49980000  0.81050000  1.0 -0.2622276697
N  N72  1  0.68380000  0.63180000  0.25080000  1.0 -0.2622276697
N  N73  1  0.99060000  0.80810000  0.96600000  1.0 -0.450253294
N  N74  1  0.37500000  0.01910000  0.20830000  1.0 -0.1991308934
N  N75  1  0.10300000  0.89460000  0.74910000  1.0 -0.2517071638
N  N76  1  0.94790000  0.70440000  0.91820000  1.0 -0.4321344468
N  N77  1  0.04290000  0.86290000  0.85770000  1.0 -0.450253294
N  N78  1  0.09120000  0.00410000  0.07440000  1.0 -0.2517071638
N  N79  1  0.04110000  0.88720000  0.93670000  1.0 -0.4191058575
N  N80  1  0.99620000  0.75730000  0.80750000  1.0 -0.450253294
N  N81  1  0.50370000  0.86670000  0.19260000  1.0 -0.4191058575
N  N82  1  0.95130000  0.67880000  0.83780000  1.0 -0.4008114628
N  N83  1  0.44090000  0.93300000  0.11540000  1.0 -0.4129537814
N  N84  1  0.38920000  0.93560000  0.87440000  1.0 -0.2669788945
N  N85  1  0.56900000  0.79240000  0.18750000  1.0 -0.4129537814
N  N86  1  0.44800000  0.92290000  0.03710000  1.0 -0.4008114628
N  N87  1  0.51880000  0.84930000  0.03420000  1.0 -0.4191058575
N  N88  1  0.57730000  0.78350000  0.10740000  1.0 -0.450253294
N  N89  1  0.38900000  0.21900000  0.12920000  1.0 -0.0677701096
N  N90  1  0.95600000  0.08900000  0.73520000  1.0 0.0809209249
N  N91  1  0.30180000  0.15300000  0.02060000  1.0 -0.0405186965
N  N92  1  0.16070000  0.16060000  0.83350000  1.0 -0.1624202013
O  O1  1  0.15500000  0.09470000  0.37580000  1.0 -0.1490911014
O  O2  1  0.13720000  0.37750000  0.53530000  1.0 -0.3165781024
O  O3  1  0.22630000  0.13960000  0.14236000  1.0 -0.5594462229
O  O4  1  0.20210000  0.63020000  0.24433000  1.0 -0.5676196589
O  O5  1  0.20230000  0.57850000  0.34290000  1.0 -0.5594462229
O  O6  1  0.14970000  0.15280000  0.14414000  1.0 -0.5676196589
O  O7  1  0.28260000  0.46280000  0.60559000  1.0 -0.578909849
O  O8  1  0.18370000  0.99630000  0.16890000  1.0 -0.5395243141
O  O9  1  0.24020000  0.47780000  0.28771000  1.0 -0.578909849
O  O10  1  0.13800000  0.45620000  0.29010000  1.0 -0.0810164634
O  O11  1  0.28980000  0.64140000  0.28400000  1.0 -0.5250028345
O  O12  1  0.19900000  0.50690000  0.57640000  1.0 -0.5512208912
O  O13  1  0.27200000  0.99360000  0.19880000  1.0 -0.5594462229
O  O14  1  0.31510000  0.46560000  0.28500000  1.0 -0.4951270196
O  O15  1  0.29100000  0.57260000  0.38288000  1.0 -0.5512208912
O  O16  1  0.33730000  0.16650000  0.15830000  1.0 -0.4695848982
O  O17  1  0.18620000  0.04040000  0.30160000  1.0 -0.3577014554
O  O18  1  0.12460000  0.09700000  0.24210000  1.0 0.1296155839
O  O19  1  0.08880000  0.07590000  0.31130000  1.0 -0.3728189963
O  O20  1  0.13030000  0.08920000  0.26500000  1.0 0.1493802153
O  O21  1  0.10380000  0.10780000  0.23820000  1.0 0.0809209249
O  O22  1  0.14500000  0.24740000  0.33150000  1.0 -0.0291744924
O  O23  1  0.11360000  0.07370000  0.38070000  1.0 -0.1991308934
O  O24  1  0.34330000  0.33400000  0.66200000  1.0 -0.4695848982
O  O25  1  0.88690000  0.35510000  0.22390000  1.0 -0.3058729443
O  O26  1  0.35360000  0.39240000  0.47390000  1.0 -0.1991308934
O  O27  1  0.12770000  0.43870000  0.32230000  1.0 0.0414213314
O  O28  1  0.84500000  0.59470000  0.12420000  1.0 -0.1490911014
O  O29  1  0.86280000  0.87750000  0.96470000  1.0 -0.3165781024
O  O30  1  0.77370000  0.63960000  0.35764000  1.0 -0.5594462229
O  O31  1  0.79790000  0.13020000  0.25567000  1.0 -0.5676196589
O  O32  1  0.79770000  0.07850000  0.15710000  1.0 -0.5594462229
O  O33  1  0.85030000  0.65280000  0.35586000  1.0 -0.5676196589
O  O34  1  0.71740000  0.96280000  0.89441000  1.0 -0.578909849
O  O35  1  0.81630000  0.49630000  0.33110000  1.0 -0.5395243141
O  O36  1  0.75980000  0.97780000  0.21229000  1.0 -0.578909849
O  O37  1  0.86200000  0.95620000  0.20990000  1.0 -0.0810164634
O  O38  1  0.71020000  0.14140000  0.21600000  1.0 -0.5250028345
O  O39  1  0.80100000  0.00690000  0.92360000  1.0 -0.5512208912
O  O40  1  0.72800000  0.49360000  0.30120000  1.0 -0.5594462229
O  O41  1  0.68490000  0.96560000  0.21500000  1.0 -0.4951270196
O  O42  1  0.70900000  0.07260000  0.11712000  1.0 -0.5512208912
O  O43  1  0.66270000  0.66650000  0.34170000  1.0 -0.4695848982
O  O44  1  0.81380000  0.54040000  0.19840000  1.0 -0.3577014554
O  O45  1  0.87540000  0.59700000  0.25790000  1.0 0.1296155839
O  O46  1  0.91120000  0.57590000  0.18870000  1.0 -0.3728189963
O  O47  1  0.86970000  0.58920000  0.23500000  1.0 0.1493802153
O  O48  1  0.89620000  0.60780000  0.26180000  1.0 0.0809209249
O  O49  1  0.85500000  0.74740000  0.16850000  1.0 -0.0291744924
O  O50  1  0.88640000  0.57370000  0.11930000  1.0 -0.1991308934
O  O51  1  0.65670000  0.83400000  0.83800000  1.0 -0.4695848982
O  O52  1  0.11310000  0.85510000  0.27610000  1.0 -0.3058729443
O  O53  1  0.64640000  0.89240000  0.02610000  1.0 -0.1991308934
O  O54  1  0.87230000  0.93870000  0.17770000  1.0 0.0414213314
O  O55  1  0.84500000  0.90530000  0.62420000  1.0 -0.1490911014
O  O56  1  0.86280000  0.62250000  0.46470000  1.0 -0.3165781024
O  O57  1  0.77370000  0.86040000  0.85764000  1.0 -0.5594462229
O  O58  1  0.79790000  0.36980000  0.75567000  1.0 -0.5676196589
O  O59  1  0.79770000  0.42150000  0.65710000  1.0 -0.5594462229
O  O60  1  0.85030000  0.84720000  0.85586000  1.0 -0.5676196589
O  O61  1  0.71740000  0.53720000  0.39441000  1.0 -0.578909849
O  O62  1  0.81630000  0.00370000  0.83110000  1.0 -0.5395243141
O  O63  1  0.75980000  0.52220000  0.71229000  1.0 -0.578909849
O  O64  1  0.86200000  0.54380000  0.70990000  1.0 -0.0810164634
O  O65  1  0.71020000  0.35860000  0.71600000  1.0 -0.5250028345
O  O66  1  0.80100000  0.49310000  0.42360000  1.0 -0.5512208912
O  O67  1  0.72800000  0.00640000  0.80120000  1.0 -0.5594462229
O  O68  1  0.68490000  0.53440000  0.71500000  1.0 -0.4945346091
O  O69  1  0.70900000  0.42740000  0.61712000  1.0 -0.5512208912
O  O70  1  0.66270000  0.83350000  0.84170000  1.0 -0.4695848982
O  O71  1  0.81380000  0.95960000  0.69840000  1.0 -0.3577014554
O  O72  1  0.87540000  0.90300000  0.75790000  1.0 0.1296155839
O  O73  1  0.91120000  0.92410000  0.68870000  1.0 -0.3728189963
O  O74  1  0.86970000  0.91080000  0.73500000  1.0 0.1493802153
O  O75  1  0.89620000  0.89220000  0.76180000  1.0 0.0809209249
O  O76  1  0.85500000  0.75260000  0.66850000  1.0 -0.0291744924
O  O77  1  0.88640000  0.92630000  0.61930000  1.0 -0.1991308934
O  O78  1  0.65670000  0.66600000  0.33800000  1.0 -0.4695848982
O  O79  1  0.11310000  0.64490000  0.77610000  1.0 -0.3058729443
O  O80  1  0.64640000  0.60760000  0.52610000  1.0 -0.1991308934
O  O81  1  0.87230000  0.56130000  0.67770000  1.0 0.0414213314
O  O82  1  0.15500000  0.40530000  0.87580000  1.0 -0.1490911014
O  O83  1  0.13720000  0.12250000  0.03530000  1.0 -0.3165781024
O  O84  1  0.22630000  0.36040000  0.64236000  1.0 -0.5594462229
O  O85  1  0.20210000  0.86980000  0.74433000  1.0 -0.5676196589
O  O86  1  0.20230000  0.92150000  0.84290000  1.0 -0.5594462229
O  O87  1  0.14970000  0.34720000  0.64414000  1.0 -0.5676196589
O  O88  1  0.28260000  0.03720000  0.10559000  1.0 -0.578909849
O  O89  1  0.18370000  0.50370000  0.66890000  1.0 -0.5395243141
O  O90  1  0.24020000  0.02220000  0.78771000  1.0 -0.578909849
O  O91  1  0.13800000  0.04380000  0.79010000  1.0 -0.0810164634
O  O92  1  0.28980000  0.85860000  0.78400000  1.0 -0.5250028345
O  O93  1  0.19900000  0.99310000  0.07640000  1.0 -0.5512208912
O  O94  1  0.27200000  0.50640000  0.69880000  1.0 -0.5594462229
O  O95  1  0.31510000  0.03440000  0.78500000  1.0 -0.4945346091
O  O96  1  0.29100000  0.92740000  0.88288000  1.0 -0.5512208912
O  O97  1  0.33730000  0.33350000  0.65830000  1.0 -0.4695848982
O  O98  1  0.18620000  0.45960000  0.80160000  1.0 -0.3577014554
O  O99  1  0.12460000  0.40300000  0.74210000  1.0 0.1296155839
O  O100  1  0.08880000  0.42410000  0.81130000  1.0 -0.3728189963
O  O101  1  0.13030000  0.41080000  0.76500000  1.0 0.1493802153
O  O102  1  0.10380000  0.39220000  0.73820000  1.0 0.0809209249
O  O103  1  0.14500000  0.25260000  0.83150000  1.0 -0.0291744924
O  O104  1  0.11360000  0.42630000  0.88070000  1.0 -0.1991308934
O  O105  1  0.34330000  0.16600000  0.16200000  1.0 -0.4695848982
O  O106  1  0.88690000  0.14490000  0.72390000  1.0 -0.3058729443
O  O107  1  0.35360000  0.10760000  0.97390000  1.0 -0.1991308934
O  O108  1  0.12770000  0.06130000  0.82230000  1.0 0.0414213314
