# DDEC6 charges by PACMAN v1.1 (https://github.com/mtap-research/PACMAN-charge/)
data_XANZAQ01_FSR_pacman
_symmetry_space_group_name_H-M   'P 1'
_cell_length_a   13.55100000
_cell_length_b   13.55100000
_cell_length_c   13.55100000
_cell_angle_alpha   148.93900000
_cell_angle_beta   118.45500000
_cell_angle_gamma   70.54410000
_symmetry_Int_Tables_number   1
_chemical_formula_structural   CuH12C14N6Cl
_chemical_formula_sum   'Cu2 H24 C28 N12 Cl2'
_cell_volume   1113.20560230
_cell_formula_units_Z   2
loop_
 _symmetry_equiv_pos_site_id
 _symmetry_equiv_pos_as_xyz
  1  'x, y, z'
loop_
 _atom_site_type_symbol
 _atom_site_label
 _atom_site_symmetry_multiplicity
 _atom_site_fract_x
 _atom_site_fract_y
 _atom_site_fract_z
 _atom_site_occupancy
 _atom_site_charge
Cu  Cu1  1  0.50000000  0.50000000  0.50000000  1.0 0.6490381523
Cu  Cu2  1  0.50000000  0.00000000  0.00000000  1.0 0.6490381523
H  H1  1  0.49850000  0.59990000  0.35520000  1.0 0.1214822321
H  H2  1  0.25530000  0.90010000  0.89860000  1.0 0.1214822321
H  H3  1  0.74470000  0.64330000  0.64480000  1.0 0.1214822321
H  H4  1  0.50150000  0.85670000  0.10140000  1.0 0.1214822321
H  H5  1  0.50150000  0.40010000  0.64480000  1.0 0.1214822321
H  H6  1  0.74470000  0.09990000  0.10140000  1.0 0.1214822321
H  H7  1  0.25530000  0.35670000  0.35520000  1.0 0.1214822321
H  H8  1  0.49850000  0.14330000  0.89860000  1.0 0.1214822321
H  H9  1  0.36660000  0.73640000  0.27040000  1.0 0.0906417458
H  H10  1  0.03400000  0.76360000  0.63020000  1.0 0.0906417458
H  H11  1  0.96600000  0.59620000  0.72960000  1.0 0.0906417458
H  H12  1  0.63340000  0.90380000  0.36980000  1.0 0.0906417458
H  H13  1  0.63340000  0.26360000  0.72960000  1.0 0.0906417458
H  H14  1  0.96600000  0.23640000  0.36980000  1.0 0.0906417458
H  H15  1  0.03400000  0.40380000  0.27040000  1.0 0.0906417458
H  H16  1  0.36660000  0.09620000  0.63020000  1.0 0.0906417458
H  H17  1  0.63830000  0.82760000  0.48230000  1.0 0.0906417458
H  H18  1  0.15470000  0.67240000  0.81070000  1.0 0.0906417458
H  H19  1  0.84530000  0.65600000  0.51770000  1.0 0.0906417458
H  H20  1  0.36170000  0.84400000  0.18930000  1.0 0.0906417458
H  H21  1  0.36170000  0.17240000  0.51770000  1.0 0.0906417458
H  H22  1  0.84530000  0.32760000  0.18930000  1.0 0.0906417458
H  H23  1  0.15470000  0.34400000  0.48230000  1.0 0.0906417458
H  H24  1  0.63830000  0.15600000  0.81070000  1.0 0.0906417458
C  C1  1  0.49848000  0.71138000  0.48810000  1.0 0.0987016349
C  C2  1  0.27672000  0.78862000  0.78710000  1.0 0.0987016349
C  C3  1  0.72328000  0.51038000  0.51190000  1.0 0.0987016349
C  C4  1  0.50152000  0.98962000  0.21290000  1.0 0.0987016349
C  C5  1  0.50152000  0.28862000  0.51190000  1.0 0.0987016349
C  C6  1  0.72328000  0.21138000  0.21290000  1.0 0.0987016349
C  C7  1  0.27672000  0.48962000  0.48810000  1.0 0.0987016349
C  C8  1  0.49848000  0.01038000  0.78710000  1.0 0.0987016349
C  C9  1  0.49960000  0.94770000  0.55190000  1.0 0.1076656203
C  C10  1  0.10420000  0.55230000  0.55190000  1.0 0.1076656203
C  C11  1  0.89580000  0.44770000  0.44810000  1.0 0.1076656203
C  C12  1  0.50040000  0.05230000  0.44810000  1.0 0.1076656203
C  C13  1  0.41870000  0.84600000  0.36490000  1.0 -0.0941770361
C  C14  1  0.01890000  0.65400000  0.57270000  1.0 -0.0941770361
C  C15  1  0.98110000  0.55380000  0.63510000  1.0 -0.0941770361
C  C16  1  0.58130000  0.94620000  0.42730000  1.0 -0.0941770361
C  C17  1  0.58130000  0.15400000  0.63510000  1.0 -0.0941770361
C  C18  1  0.98110000  0.34600000  0.42730000  1.0 -0.0941770361
C  C19  1  0.01890000  0.44620000  0.36490000  1.0 -0.0941770361
C  C20  1  0.41870000  0.05380000  0.57270000  1.0 -0.0941770361
C  C21  1  0.58010000  0.89240000  0.48310000  1.0 -0.1150598288
C  C22  1  0.09070000  0.60760000  0.68770000  1.0 -0.1145134181
C  C23  1  0.90930000  0.59700000  0.51690000  1.0 -0.1145134181
C  C24  1  0.41990000  0.90300000  0.31230000  1.0 -0.1150598288
C  C25  1  0.41990000  0.10760000  0.51690000  1.0 -0.1145134181
C  C26  1  0.90930000  0.39240000  0.31230000  1.0 -0.1145134181
C  C27  1  0.09070000  0.40300000  0.48310000  1.0 -0.1145134181
C  C28  1  0.58010000  0.09700000  0.68770000  1.0 -0.1145134181
N  N1  1  0.62839000  0.40889000  0.40950000  1.0 -0.1846747533
N  N2  1  0.50061000  0.09111000  0.21950000  1.0 -0.1846747533
N  N3  1  0.49939000  0.71889000  0.59050000  1.0 -0.1846747533
N  N4  1  0.37161000  0.78111000  0.78050000  1.0 -0.1852687732
N  N5  1  0.37161000  0.59111000  0.59050000  1.0 -0.1846747533
N  N6  1  0.49939000  0.90889000  0.78050000  1.0 -0.1852687732
N  N7  1  0.50061000  0.28111000  0.40950000  1.0 -0.1846747533
N  N8  1  0.62839000  0.21889000  0.21950000  1.0 -0.1846747533
N  N9  1  0.49770000  0.89220000  0.60550000  1.0 -0.0847760052
N  N10  1  0.21330000  0.60780000  0.60550000  1.0 -0.0847760052
N  N11  1  0.78670000  0.39220000  0.39450000  1.0 -0.0847760052
N  N12  1  0.50230000  0.10780000  0.39450000  1.0 -0.0847760052
Cl  Cl1  1  0.64249000  0.75000000  0.89249000  1.0 -0.7260855571
Cl  Cl2  1  0.35751000  0.25000000  0.10751000  1.0 -0.7260855571
