# DDEC6 charges by PACMAN v1.1 (https://github.com/mtap-research/PACMAN-charge/)
data_XAPFOM_FSR_pacman
_symmetry_space_group_name_H-M   'P 1'
_cell_length_a   23.86490000
_cell_length_b   23.86490000
_cell_length_c   23.86490000
_cell_angle_alpha   90.00000000
_cell_angle_beta   90.00000000
_cell_angle_gamma   90.00000000
_symmetry_Int_Tables_number   1
_chemical_formula_structural   Zr6H27(C27O19)2
_chemical_formula_sum   'Zr48 H216 C432 O304'
_cell_volume   13591.85887887
_cell_formula_units_Z   8
loop_
 _symmetry_equiv_pos_site_id
 _symmetry_equiv_pos_as_xyz
  1  'x, y, z'
loop_
 _atom_site_type_symbol
 _atom_site_label
 _atom_site_symmetry_multiplicity
 _atom_site_fract_x
 _atom_site_fract_y
 _atom_site_fract_z
 _atom_site_occupancy
 _atom_site_charge
Zr  Zr1  1  0.35318000  0.75590000  0.25744000  1.0 1.5435366601
Zr  Zr2  1  0.35288000  0.75598000  0.23895000  1.0 1.4739751478
Zr  Zr3  1  0.64682000  0.24410000  0.25744000  1.0 1.5435366601
Zr  Zr4  1  0.64712000  0.24402000  0.23895000  1.0 1.4739751478
Zr  Zr5  1  0.64682000  0.75590000  0.74256000  1.0 1.5435366601
Zr  Zr6  1  0.64712000  0.75598000  0.76105000  1.0 1.4739751478
Zr  Zr7  1  0.35318000  0.24410000  0.74256000  1.0 1.5435366601
Zr  Zr8  1  0.35288000  0.24402000  0.76105000  1.0 1.4760744791
Zr  Zr9  1  0.25744000  0.35318000  0.75590000  1.0 1.5435366601
Zr  Zr10  1  0.23895000  0.35288000  0.75598000  1.0 1.4760744791
Zr  Zr11  1  0.25744000  0.64682000  0.24410000  1.0 1.5435366601
Zr  Zr12  1  0.23895000  0.64712000  0.24402000  1.0 1.4760744791
Zr  Zr13  1  0.74256000  0.64682000  0.75590000  1.0 1.5435366601
Zr  Zr14  1  0.76105000  0.64712000  0.75598000  1.0 1.4739751478
Zr  Zr15  1  0.74256000  0.35318000  0.24410000  1.0 1.5435366601
Zr  Zr16  1  0.76105000  0.35288000  0.24402000  1.0 1.4739751478
Zr  Zr17  1  0.75590000  0.25744000  0.35318000  1.0 1.5435366601
Zr  Zr18  1  0.75598000  0.23895000  0.35288000  1.0 1.4739751478
Zr  Zr19  1  0.24410000  0.25744000  0.64682000  1.0 1.5435366601
Zr  Zr20  1  0.24402000  0.23895000  0.64712000  1.0 1.4760744791
Zr  Zr21  1  0.75590000  0.74256000  0.64682000  1.0 1.5435366601
Zr  Zr22  1  0.75598000  0.76105000  0.64712000  1.0 1.4739751478
Zr  Zr23  1  0.24410000  0.74256000  0.35318000  1.0 1.5435366601
Zr  Zr24  1  0.24402000  0.76105000  0.35288000  1.0 1.4760744791
Zr  Zr25  1  0.14682000  0.74410000  0.24256000  1.0 1.5435366601
Zr  Zr26  1  0.14712000  0.74402000  0.26105000  1.0 1.4760744791
Zr  Zr27  1  0.85318000  0.25590000  0.24256000  1.0 1.5435366601
Zr  Zr28  1  0.85288000  0.25598000  0.26105000  1.0 1.4739751478
Zr  Zr29  1  0.85318000  0.74410000  0.75744000  1.0 1.5435366601
Zr  Zr30  1  0.85288000  0.74402000  0.73895000  1.0 1.4739751478
Zr  Zr31  1  0.14682000  0.25590000  0.75744000  1.0 1.5435366601
Zr  Zr32  1  0.14712000  0.25598000  0.73895000  1.0 1.4760744791
Zr  Zr33  1  0.24256000  0.14682000  0.74410000  1.0 1.5435366601
Zr  Zr34  1  0.26105000  0.14712000  0.74402000  1.0 1.4760744791
Zr  Zr35  1  0.24256000  0.85318000  0.25590000  1.0 1.5435366601
Zr  Zr36  1  0.26105000  0.85288000  0.25598000  1.0 1.4739751478
Zr  Zr37  1  0.75744000  0.85318000  0.74410000  1.0 1.5435366601
Zr  Zr38  1  0.73895000  0.85288000  0.74402000  1.0 1.4739751478
Zr  Zr39  1  0.75744000  0.14682000  0.25590000  1.0 1.5435366601
Zr  Zr40  1  0.73895000  0.14712000  0.25598000  1.0 1.4739751478
Zr  Zr41  1  0.74410000  0.24256000  0.14682000  1.0 1.5435366601
Zr  Zr42  1  0.74402000  0.26105000  0.14712000  1.0 1.4739751478
Zr  Zr43  1  0.25590000  0.24256000  0.85318000  1.0 1.5435366601
Zr  Zr44  1  0.25598000  0.26105000  0.85288000  1.0 1.4760744791
Zr  Zr45  1  0.74410000  0.75744000  0.85318000  1.0 1.5435366601
Zr  Zr46  1  0.74402000  0.73895000  0.85288000  1.0 1.4739751478
Zr  Zr47  1  0.25590000  0.75744000  0.14682000  1.0 1.5435366601
Zr  Zr48  1  0.25598000  0.73895000  0.14712000  1.0 1.4739751478
H  H1  1  0.47990000  0.89020000  0.26680000  1.0 0.1399466841
H  H2  1  0.42610000  0.07030000  0.26270000  1.0 0.1040133407
H  H3  1  0.36100000  0.99980000  0.25910000  1.0 0.1399466841
H  H4  1  0.48310000  0.76980000  0.38870000  1.0 0.0595486644
H  H5  1  0.42500000  0.75930000  0.57010000  1.0 0.0708746923
H  H6  1  0.36040000  0.75980000  0.49730000  1.0 0.0752016276
H  H7  1  0.48190000  0.74440000  0.39040000  1.0 0.0708746923
H  H8  1  0.42700000  0.73040000  0.57030000  1.0 0.0595486644
H  H9  1  0.35940000  0.72940000  0.49910000  1.0 0.0595486644
H  H10  1  0.52010000  0.10980000  0.26680000  1.0 0.1399466841
H  H11  1  0.57390000  0.92970000  0.26270000  1.0 0.1040133407
H  H12  1  0.63900000  0.00020000  0.25910000  1.0 0.1399466841
H  H13  1  0.51690000  0.23020000  0.38870000  1.0 0.0595486644
H  H14  1  0.57500000  0.24070000  0.57010000  1.0 0.0708746923
H  H15  1  0.63960000  0.24020000  0.49730000  1.0 0.0708746923
H  H16  1  0.51810000  0.25560000  0.39040000  1.0 0.0708746923
H  H17  1  0.57300000  0.26960000  0.57030000  1.0 0.0595486644
H  H18  1  0.64060000  0.27060000  0.49910000  1.0 0.0595486644
H  H19  1  0.52010000  0.89020000  0.73320000  1.0 0.1399466841
H  H20  1  0.57390000  0.07030000  0.73730000  1.0 0.1040133407
H  H21  1  0.63900000  0.99980000  0.74090000  1.0 0.1399466841
H  H22  1  0.51690000  0.76980000  0.61130000  1.0 0.0595486644
H  H23  1  0.57500000  0.75930000  0.42990000  1.0 0.0708746923
H  H24  1  0.63960000  0.75980000  0.50270000  1.0 0.0752016276
H  H25  1  0.51810000  0.74440000  0.60960000  1.0 0.0708746923
H  H26  1  0.57300000  0.73040000  0.42970000  1.0 0.0595486644
H  H27  1  0.64060000  0.72940000  0.50090000  1.0 0.0595486644
H  H28  1  0.47990000  0.10980000  0.73320000  1.0 0.1399466841
H  H29  1  0.42610000  0.92970000  0.73730000  1.0 0.1040133407
H  H30  1  0.36100000  0.00020000  0.74090000  1.0 0.1399466841
H  H31  1  0.48310000  0.23020000  0.61130000  1.0 0.0595486644
H  H32  1  0.42500000  0.24070000  0.42990000  1.0 0.0708746923
H  H33  1  0.36040000  0.24020000  0.50270000  1.0 0.0708746923
H  H34  1  0.48190000  0.25560000  0.60960000  1.0 0.0708746923
H  H35  1  0.42700000  0.26960000  0.42970000  1.0 0.0595486644
H  H36  1  0.35940000  0.27060000  0.50090000  1.0 0.0595486644
H  H37  1  0.26680000  0.47990000  0.89020000  1.0 0.1399466841
H  H38  1  0.26270000  0.42610000  0.07030000  1.0 0.1040133407
H  H39  1  0.25910000  0.36100000  0.99980000  1.0 0.1399466841
H  H40  1  0.38870000  0.48310000  0.76980000  1.0 0.0595486644
H  H41  1  0.57010000  0.42500000  0.75930000  1.0 0.0708746923
H  H42  1  0.49730000  0.36040000  0.75980000  1.0 0.0752016276
H  H43  1  0.39040000  0.48190000  0.74440000  1.0 0.0708746923
H  H44  1  0.57030000  0.42700000  0.73040000  1.0 0.0595486644
H  H45  1  0.49910000  0.35940000  0.72940000  1.0 0.0595486644
H  H46  1  0.26680000  0.52010000  0.10980000  1.0 0.1399466841
H  H47  1  0.26270000  0.57390000  0.92970000  1.0 0.1040133407
H  H48  1  0.25910000  0.63900000  0.00020000  1.0 0.1399466841
H  H49  1  0.38870000  0.51690000  0.23020000  1.0 0.0595486644
H  H50  1  0.57010000  0.57500000  0.24070000  1.0 0.0708746923
H  H51  1  0.49730000  0.63960000  0.24020000  1.0 0.0708746923
H  H52  1  0.39040000  0.51810000  0.25560000  1.0 0.0708746923
H  H53  1  0.57030000  0.57300000  0.26960000  1.0 0.0595486644
H  H54  1  0.49910000  0.64060000  0.27060000  1.0 0.0595486644
H  H55  1  0.73320000  0.52010000  0.89020000  1.0 0.1399466841
H  H56  1  0.73730000  0.57390000  0.07030000  1.0 0.1040133407
H  H57  1  0.74090000  0.63900000  0.99980000  1.0 0.1399466841
H  H58  1  0.61130000  0.51690000  0.76980000  1.0 0.0595486644
H  H59  1  0.42990000  0.57500000  0.75930000  1.0 0.0708746923
H  H60  1  0.50270000  0.63960000  0.75980000  1.0 0.0752016276
H  H61  1  0.60960000  0.51810000  0.74440000  1.0 0.0708746923
H  H62  1  0.42970000  0.57300000  0.73040000  1.0 0.0595486644
H  H63  1  0.50090000  0.64060000  0.72940000  1.0 0.0595486644
H  H64  1  0.73320000  0.47990000  0.10980000  1.0 0.1399466841
H  H65  1  0.73730000  0.42610000  0.92970000  1.0 0.1040133407
H  H66  1  0.74090000  0.36100000  0.00020000  1.0 0.1399466841
H  H67  1  0.61130000  0.48310000  0.23020000  1.0 0.0595486644
H  H68  1  0.42990000  0.42500000  0.24070000  1.0 0.0708746923
H  H69  1  0.50270000  0.36040000  0.24020000  1.0 0.0708746923
H  H70  1  0.60960000  0.48190000  0.25560000  1.0 0.0708746923
H  H71  1  0.42970000  0.42700000  0.26960000  1.0 0.0595486644
H  H72  1  0.50090000  0.35940000  0.27060000  1.0 0.0595486644
H  H73  1  0.89020000  0.26680000  0.47990000  1.0 0.1399466841
H  H74  1  0.07030000  0.26270000  0.42610000  1.0 0.1040133407
H  H75  1  0.99980000  0.25910000  0.36100000  1.0 0.1399466841
H  H76  1  0.76980000  0.38870000  0.48310000  1.0 0.0595486644
H  H77  1  0.75930000  0.57010000  0.42500000  1.0 0.0708746923
H  H78  1  0.75980000  0.49730000  0.36040000  1.0 0.0708746923
H  H79  1  0.74440000  0.39040000  0.48190000  1.0 0.0708746923
H  H80  1  0.73040000  0.57030000  0.42700000  1.0 0.0595486644
H  H81  1  0.72940000  0.49910000  0.35940000  1.0 0.0595486644
H  H82  1  0.10980000  0.26680000  0.52010000  1.0 0.1399466841
H  H83  1  0.92970000  0.26270000  0.57390000  1.0 0.1040133407
H  H84  1  0.00020000  0.25910000  0.63900000  1.0 0.1399466841
H  H85  1  0.23020000  0.38870000  0.51690000  1.0 0.0595486644
H  H86  1  0.24070000  0.57010000  0.57500000  1.0 0.0708746923
H  H87  1  0.24020000  0.49730000  0.63960000  1.0 0.0708746923
H  H88  1  0.25560000  0.39040000  0.51810000  1.0 0.0708746923
H  H89  1  0.26960000  0.57030000  0.57300000  1.0 0.0595486644
H  H90  1  0.27060000  0.49910000  0.64060000  1.0 0.0595486644
H  H91  1  0.89020000  0.73320000  0.52010000  1.0 0.1399466841
H  H92  1  0.07030000  0.73730000  0.57390000  1.0 0.1040133407
H  H93  1  0.99980000  0.74090000  0.63900000  1.0 0.1399466841
H  H94  1  0.76980000  0.61130000  0.51690000  1.0 0.0595486644
H  H95  1  0.75930000  0.42990000  0.57500000  1.0 0.0708746923
H  H96  1  0.75980000  0.50270000  0.63960000  1.0 0.0752016276
H  H97  1  0.74440000  0.60960000  0.51810000  1.0 0.0708746923
H  H98  1  0.73040000  0.42970000  0.57300000  1.0 0.0595486644
H  H99  1  0.72940000  0.50090000  0.64060000  1.0 0.0595486644
H  H100  1  0.10980000  0.73320000  0.47990000  1.0 0.1399466841
H  H101  1  0.92970000  0.73730000  0.42610000  1.0 0.1040133407
H  H102  1  0.00020000  0.74090000  0.36100000  1.0 0.1399466841
H  H103  1  0.23020000  0.61130000  0.48310000  1.0 0.0595486644
H  H104  1  0.24070000  0.42990000  0.42500000  1.0 0.0708746923
H  H105  1  0.24020000  0.50270000  0.36040000  1.0 0.0708746923
H  H106  1  0.25560000  0.60960000  0.48190000  1.0 0.0708746923
H  H107  1  0.26960000  0.42970000  0.42700000  1.0 0.0595486644
H  H108  1  0.27060000  0.50090000  0.35940000  1.0 0.0595486644
H  H109  1  0.02010000  0.60980000  0.23320000  1.0 0.1399466841
H  H110  1  0.07390000  0.42970000  0.23730000  1.0 0.1040133407
H  H111  1  0.13900000  0.50020000  0.24090000  1.0 0.1399466841
H  H112  1  0.01690000  0.73020000  0.11130000  1.0 0.0595486644
H  H113  1  0.07500000  0.74070000  0.92990000  1.0 0.0708746923
H  H114  1  0.13960000  0.74020000  0.00270000  1.0 0.0708746923
H  H115  1  0.01810000  0.75560000  0.10960000  1.0 0.0708746923
H  H116  1  0.07300000  0.76960000  0.92970000  1.0 0.0595486644
H  H117  1  0.14060000  0.77060000  0.00090000  1.0 0.0595486644
H  H118  1  0.97990000  0.39020000  0.23320000  1.0 0.1399466841
H  H119  1  0.92610000  0.57030000  0.23730000  1.0 0.1040133407
H  H120  1  0.86100000  0.49980000  0.24090000  1.0 0.1399466841
H  H121  1  0.98310000  0.26980000  0.11130000  1.0 0.0595486644
H  H122  1  0.92500000  0.25930000  0.92990000  1.0 0.0708746923
H  H123  1  0.86040000  0.25980000  0.00270000  1.0 0.0708746923
H  H124  1  0.98190000  0.24440000  0.10960000  1.0 0.0708746923
H  H125  1  0.92700000  0.23040000  0.92970000  1.0 0.0595486644
H  H126  1  0.85940000  0.22940000  0.00090000  1.0 0.0595486644
H  H127  1  0.97990000  0.60980000  0.76680000  1.0 0.1399466841
H  H128  1  0.92610000  0.42970000  0.76270000  1.0 0.1040133407
H  H129  1  0.86100000  0.50020000  0.75910000  1.0 0.1399466841
H  H130  1  0.98310000  0.73020000  0.88870000  1.0 0.0595486644
H  H131  1  0.92500000  0.74070000  0.07010000  1.0 0.0708746923
H  H132  1  0.86040000  0.74020000  0.99730000  1.0 0.0752016276
H  H133  1  0.98190000  0.75560000  0.89040000  1.0 0.0708746923
H  H134  1  0.92700000  0.76960000  0.07030000  1.0 0.0595486644
H  H135  1  0.85940000  0.77060000  0.99910000  1.0 0.0595486644
H  H136  1  0.02010000  0.39020000  0.76680000  1.0 0.1399466841
H  H137  1  0.07390000  0.57030000  0.76270000  1.0 0.1040133407
H  H138  1  0.13900000  0.49980000  0.75910000  1.0 0.1399466841
H  H139  1  0.01690000  0.26980000  0.88870000  1.0 0.0595486644
H  H140  1  0.07500000  0.25930000  0.07010000  1.0 0.0708746923
H  H141  1  0.13960000  0.25980000  0.99730000  1.0 0.0708746923
H  H142  1  0.01810000  0.24440000  0.89040000  1.0 0.0708746923
H  H143  1  0.07300000  0.23040000  0.07030000  1.0 0.0595486644
H  H144  1  0.14060000  0.22940000  0.99910000  1.0 0.0595486644
H  H145  1  0.23320000  0.02010000  0.60980000  1.0 0.1399466841
H  H146  1  0.23730000  0.07390000  0.42970000  1.0 0.1040133407
H  H147  1  0.24090000  0.13900000  0.50020000  1.0 0.1399466841
H  H148  1  0.11130000  0.01690000  0.73020000  1.0 0.0595486644
H  H149  1  0.92990000  0.07500000  0.74070000  1.0 0.0708746923
H  H150  1  0.00270000  0.13960000  0.74020000  1.0 0.0752016276
H  H151  1  0.10960000  0.01810000  0.75560000  1.0 0.0708746923
H  H152  1  0.92970000  0.07300000  0.76960000  1.0 0.0595486644
H  H153  1  0.00090000  0.14060000  0.77060000  1.0 0.0595486644
H  H154  1  0.23320000  0.97990000  0.39020000  1.0 0.1399466841
H  H155  1  0.23730000  0.92610000  0.57030000  1.0 0.1040133407
H  H156  1  0.24090000  0.86100000  0.49980000  1.0 0.1399466841
H  H157  1  0.11130000  0.98310000  0.26980000  1.0 0.0595486644
H  H158  1  0.92990000  0.92500000  0.25930000  1.0 0.0708746923
H  H159  1  0.00270000  0.86040000  0.25980000  1.0 0.0708746923
H  H160  1  0.10960000  0.98190000  0.24440000  1.0 0.0708746923
H  H161  1  0.92970000  0.92700000  0.23040000  1.0 0.0595486644
H  H162  1  0.00090000  0.85940000  0.22940000  1.0 0.0595486644
H  H163  1  0.76680000  0.97990000  0.60980000  1.0 0.1399466841
H  H164  1  0.76270000  0.92610000  0.42970000  1.0 0.1040133407
H  H165  1  0.75910000  0.86100000  0.50020000  1.0 0.1399466841
H  H166  1  0.88870000  0.98310000  0.73020000  1.0 0.0595486644
H  H167  1  0.07010000  0.92500000  0.74070000  1.0 0.0708746923
H  H168  1  0.99730000  0.86040000  0.74020000  1.0 0.0708746923
H  H169  1  0.89040000  0.98190000  0.75560000  1.0 0.0708746923
H  H170  1  0.07030000  0.92700000  0.76960000  1.0 0.0595486644
H  H171  1  0.99910000  0.85940000  0.77060000  1.0 0.0595486644
H  H172  1  0.76680000  0.02010000  0.39020000  1.0 0.1399466841
H  H173  1  0.76270000  0.07390000  0.57030000  1.0 0.1040133407
H  H174  1  0.75910000  0.13900000  0.49980000  1.0 0.1399466841
H  H175  1  0.88870000  0.01690000  0.26980000  1.0 0.0595486644
H  H176  1  0.07010000  0.07500000  0.25930000  1.0 0.0708746923
H  H177  1  0.99730000  0.13960000  0.25980000  1.0 0.0708746923
H  H178  1  0.89040000  0.01810000  0.24440000  1.0 0.0708746923
H  H179  1  0.07030000  0.07300000  0.23040000  1.0 0.0595486644
H  H180  1  0.99910000  0.14060000  0.22940000  1.0 0.0595486644
H  H181  1  0.60980000  0.23320000  0.02010000  1.0 0.1399466841
H  H182  1  0.42970000  0.23730000  0.07390000  1.0 0.1040133407
H  H183  1  0.50020000  0.24090000  0.13900000  1.0 0.1399466841
H  H184  1  0.73020000  0.11130000  0.01690000  1.0 0.0595486644
H  H185  1  0.74070000  0.92990000  0.07500000  1.0 0.0708746923
H  H186  1  0.74020000  0.00270000  0.13960000  1.0 0.0708746923
H  H187  1  0.75560000  0.10960000  0.01810000  1.0 0.0708746923
H  H188  1  0.76960000  0.92970000  0.07300000  1.0 0.0595486644
H  H189  1  0.77060000  0.00090000  0.14060000  1.0 0.0595486644
H  H190  1  0.39020000  0.23320000  0.97990000  1.0 0.1399466841
H  H191  1  0.57030000  0.23730000  0.92610000  1.0 0.1040133407
H  H192  1  0.49980000  0.24090000  0.86100000  1.0 0.1399466841
H  H193  1  0.26980000  0.11130000  0.98310000  1.0 0.0595486644
H  H194  1  0.25930000  0.92990000  0.92500000  1.0 0.0708746923
H  H195  1  0.25980000  0.00270000  0.86040000  1.0 0.0752016276
H  H196  1  0.24440000  0.10960000  0.98190000  1.0 0.0708746923
H  H197  1  0.23040000  0.92970000  0.92700000  1.0 0.0595486644
H  H198  1  0.22940000  0.00090000  0.85940000  1.0 0.0595486644
H  H199  1  0.60980000  0.76680000  0.97990000  1.0 0.1399466841
H  H200  1  0.42970000  0.76270000  0.92610000  1.0 0.1040133407
H  H201  1  0.50020000  0.75910000  0.86100000  1.0 0.1399466841
H  H202  1  0.73020000  0.88870000  0.98310000  1.0 0.0595486644
H  H203  1  0.74070000  0.07010000  0.92500000  1.0 0.0708746923
H  H204  1  0.74020000  0.99730000  0.86040000  1.0 0.0752016276
H  H205  1  0.75560000  0.89040000  0.98190000  1.0 0.0708746923
H  H206  1  0.76960000  0.07030000  0.92700000  1.0 0.0595486644
H  H207  1  0.77060000  0.99910000  0.85940000  1.0 0.0595486644
H  H208  1  0.39020000  0.76680000  0.02010000  1.0 0.1399466841
H  H209  1  0.57030000  0.76270000  0.07390000  1.0 0.1040133407
H  H210  1  0.49980000  0.75910000  0.13900000  1.0 0.1399466841
H  H211  1  0.26980000  0.88870000  0.01690000  1.0 0.0595486644
H  H212  1  0.25930000  0.07010000  0.07500000  1.0 0.0708746923
H  H213  1  0.25980000  0.99730000  0.13960000  1.0 0.0708746923
H  H214  1  0.24440000  0.89040000  0.01810000  1.0 0.0708746923
H  H215  1  0.23040000  0.07030000  0.07300000  1.0 0.0595486644
H  H216  1  0.22940000  0.99910000  0.14060000  1.0 0.0595486644
C  C1  1  0.37170000  0.89000000  0.26350000  1.0 0.1323859377
C  C2  1  0.41310000  0.93770000  0.26450000  1.0 0.041308886
C  C3  1  0.46710000  0.92790000  0.26550000  1.0 -0.1722712074
C  C4  1  0.50850000  0.97310000  0.26470000  1.0 0.041308886
C  C5  1  0.43980000  0.03290000  0.26310000  1.0 -0.1367782202
C  C6  1  0.39950000  0.99000000  0.26190000  1.0 -0.1367782202
C  C7  1  0.41450000  0.76090000  0.43520000  1.0 -0.0153481411
C  C8  1  0.46900000  0.76620000  0.42580000  1.0 -0.0814312136
C  C9  1  0.50680000  0.76660000  0.47360000  1.0 0.010581958
C  C10  1  0.43890000  0.76200000  0.53290000  1.0 -0.0727648644
C  C11  1  0.39920000  0.76070000  0.48850000  1.0 -0.0506265764
C  C12  1  0.37280000  0.75820000  0.38850000  1.0 0.2894713614
C  C13  1  0.37150000  0.74150000  0.38950000  1.0 0.2894713614
C  C14  1  0.41270000  0.74360000  0.43710000  1.0 -0.0265006217
C  C15  1  0.46840000  0.74300000  0.42780000  1.0 -0.0814312136
C  C16  1  0.50810000  0.74010000  0.47370000  1.0 0.0010017314
C  C17  1  0.43980000  0.73490000  0.53290000  1.0 -0.0554833578
C  C18  1  0.39770000  0.73520000  0.48980000  1.0 -0.0506265764
C  C19  1  0.62830000  0.11000000  0.26350000  1.0 0.1323859377
C  C20  1  0.58690000  0.06230000  0.26450000  1.0 0.041308886
C  C21  1  0.53290000  0.07210000  0.26550000  1.0 -0.1722712074
C  C22  1  0.49150000  0.02690000  0.26470000  1.0 0.041308886
C  C23  1  0.56020000  0.96710000  0.26310000  1.0 -0.1367782202
C  C24  1  0.60050000  0.01000000  0.26190000  1.0 -0.1367782202
C  C25  1  0.58550000  0.23910000  0.43520000  1.0 -0.0145236826
C  C26  1  0.53100000  0.23380000  0.42580000  1.0 -0.0814312136
C  C27  1  0.49320000  0.23340000  0.47360000  1.0 0.010581958
C  C28  1  0.56110000  0.23800000  0.53290000  1.0 -0.0727648644
C  C29  1  0.60080000  0.23930000  0.48850000  1.0 -0.0506265764
C  C30  1  0.62720000  0.24180000  0.38850000  1.0 0.2894713614
C  C31  1  0.62850000  0.25850000  0.38950000  1.0 0.2894713614
C  C32  1  0.58730000  0.25640000  0.43710000  1.0 -0.0265006217
C  C33  1  0.53160000  0.25700000  0.42780000  1.0 -0.0814312136
C  C34  1  0.49190000  0.25990000  0.47370000  1.0 0.0010017314
C  C35  1  0.56020000  0.26510000  0.53290000  1.0 -0.0554833578
C  C36  1  0.60230000  0.26480000  0.48980000  1.0 -0.0506265764
C  C37  1  0.62830000  0.89000000  0.73650000  1.0 0.1323859377
C  C38  1  0.58690000  0.93770000  0.73550000  1.0 0.041308886
C  C39  1  0.53290000  0.92790000  0.73450000  1.0 -0.1722712074
C  C40  1  0.49150000  0.97310000  0.73530000  1.0 0.041308886
C  C41  1  0.56020000  0.03290000  0.73690000  1.0 -0.1367782202
C  C42  1  0.60050000  0.99000000  0.73810000  1.0 -0.1367782202
C  C43  1  0.58550000  0.76090000  0.56480000  1.0 -0.0153481411
C  C44  1  0.53100000  0.76620000  0.57420000  1.0 -0.0814312136
C  C45  1  0.49320000  0.76660000  0.52640000  1.0 0.010581958
C  C46  1  0.56110000  0.76200000  0.46710000  1.0 -0.0727648644
C  C47  1  0.60080000  0.76070000  0.51150000  1.0 -0.0506265764
C  C48  1  0.62720000  0.75820000  0.61150000  1.0 0.2894713614
C  C49  1  0.62850000  0.74150000  0.61050000  1.0 0.2894713614
C  C50  1  0.58730000  0.74360000  0.56290000  1.0 -0.0265006217
C  C51  1  0.53160000  0.74300000  0.57220000  1.0 -0.0814312136
C  C52  1  0.49190000  0.74010000  0.52630000  1.0 0.0010017314
C  C53  1  0.56020000  0.73490000  0.46710000  1.0 -0.0554833578
C  C54  1  0.60230000  0.73520000  0.51020000  1.0 -0.0506265764
C  C55  1  0.37170000  0.11000000  0.73650000  1.0 0.1323859377
C  C56  1  0.41310000  0.06230000  0.73550000  1.0 0.041308886
C  C57  1  0.46710000  0.07210000  0.73450000  1.0 -0.1722712074
C  C58  1  0.50850000  0.02690000  0.73530000  1.0 0.041308886
C  C59  1  0.43980000  0.96710000  0.73690000  1.0 -0.1367782202
C  C60  1  0.39950000  0.01000000  0.73810000  1.0 -0.1367782202
C  C61  1  0.41450000  0.23910000  0.56480000  1.0 -0.0153481411
C  C62  1  0.46900000  0.23380000  0.57420000  1.0 -0.0814312136
C  C63  1  0.50680000  0.23340000  0.52640000  1.0 0.010581958
C  C64  1  0.43890000  0.23800000  0.46710000  1.0 -0.0727648644
C  C65  1  0.39920000  0.23930000  0.51150000  1.0 -0.0506265764
C  C66  1  0.37280000  0.24180000  0.61150000  1.0 0.2894713614
C  C67  1  0.37150000  0.25850000  0.61050000  1.0 0.2894713614
C  C68  1  0.41270000  0.25640000  0.56290000  1.0 -0.0265006217
C  C69  1  0.46840000  0.25700000  0.57220000  1.0 -0.0814312136
C  C70  1  0.50810000  0.25990000  0.52630000  1.0 0.0010017314
C  C71  1  0.43980000  0.26510000  0.46710000  1.0 -0.0554833578
C  C72  1  0.39770000  0.26480000  0.51020000  1.0 -0.0506265764
C  C73  1  0.26350000  0.37170000  0.89000000  1.0 0.1323859377
C  C74  1  0.26450000  0.41310000  0.93770000  1.0 0.041308886
C  C75  1  0.26550000  0.46710000  0.92790000  1.0 -0.1722712074
C  C76  1  0.26470000  0.50850000  0.97310000  1.0 0.041308886
C  C77  1  0.26310000  0.43980000  0.03290000  1.0 -0.1367782202
C  C78  1  0.26190000  0.39950000  0.99000000  1.0 -0.1367782202
C  C79  1  0.43520000  0.41450000  0.76090000  1.0 -0.0153481411
C  C80  1  0.42580000  0.46900000  0.76620000  1.0 -0.0814312136
C  C81  1  0.47360000  0.50680000  0.76660000  1.0 0.010581958
C  C82  1  0.53290000  0.43890000  0.76200000  1.0 -0.0727648644
C  C83  1  0.48850000  0.39920000  0.76070000  1.0 -0.0506265764
C  C84  1  0.38850000  0.37280000  0.75820000  1.0 0.2894713614
C  C85  1  0.38950000  0.37150000  0.74150000  1.0 0.2894713614
C  C86  1  0.43710000  0.41270000  0.74360000  1.0 -0.0265006217
C  C87  1  0.42780000  0.46840000  0.74300000  1.0 -0.0814312136
C  C88  1  0.47370000  0.50810000  0.74010000  1.0 0.0010017314
C  C89  1  0.53290000  0.43980000  0.73490000  1.0 -0.0554833578
C  C90  1  0.48980000  0.39770000  0.73520000  1.0 -0.0506265764
C  C91  1  0.26350000  0.62830000  0.11000000  1.0 0.1323859377
C  C92  1  0.26450000  0.58690000  0.06230000  1.0 0.041308886
C  C93  1  0.26550000  0.53290000  0.07210000  1.0 -0.1722712074
C  C94  1  0.26470000  0.49150000  0.02690000  1.0 0.041308886
C  C95  1  0.26310000  0.56020000  0.96710000  1.0 -0.1367782202
C  C96  1  0.26190000  0.60050000  0.01000000  1.0 -0.1367782202
C  C97  1  0.43520000  0.58550000  0.23910000  1.0 -0.0153481411
C  C98  1  0.42580000  0.53100000  0.23380000  1.0 -0.0814312136
C  C99  1  0.47360000  0.49320000  0.23340000  1.0 0.010581958
C  C100  1  0.53290000  0.56110000  0.23800000  1.0 -0.0727648644
C  C101  1  0.48850000  0.60080000  0.23930000  1.0 -0.0506265764
C  C102  1  0.38850000  0.62720000  0.24180000  1.0 0.2894713614
C  C103  1  0.38950000  0.62850000  0.25850000  1.0 0.2894713614
C  C104  1  0.43710000  0.58730000  0.25640000  1.0 -0.0265006217
C  C105  1  0.42780000  0.53160000  0.25700000  1.0 -0.0814312136
C  C106  1  0.47370000  0.49190000  0.25990000  1.0 0.0010017314
C  C107  1  0.53290000  0.56020000  0.26510000  1.0 -0.0554833578
C  C108  1  0.48980000  0.60230000  0.26480000  1.0 -0.0506265764
C  C109  1  0.73650000  0.62830000  0.89000000  1.0 0.1323859377
C  C110  1  0.73550000  0.58690000  0.93770000  1.0 0.041308886
C  C111  1  0.73450000  0.53290000  0.92790000  1.0 -0.1722712074
C  C112  1  0.73530000  0.49150000  0.97310000  1.0 0.041308886
C  C113  1  0.73690000  0.56020000  0.03290000  1.0 -0.1367782202
C  C114  1  0.73810000  0.60050000  0.99000000  1.0 -0.1367782202
C  C115  1  0.56480000  0.58550000  0.76090000  1.0 -0.0153481411
C  C116  1  0.57420000  0.53100000  0.76620000  1.0 -0.0814312136
C  C117  1  0.52640000  0.49320000  0.76660000  1.0 0.010581958
C  C118  1  0.46710000  0.56110000  0.76200000  1.0 -0.0727648644
C  C119  1  0.51150000  0.60080000  0.76070000  1.0 -0.0506265764
C  C120  1  0.61150000  0.62720000  0.75820000  1.0 0.2894713614
C  C121  1  0.61050000  0.62850000  0.74150000  1.0 0.2894713614
C  C122  1  0.56290000  0.58730000  0.74360000  1.0 -0.0265006217
C  C123  1  0.57220000  0.53160000  0.74300000  1.0 -0.0814312136
C  C124  1  0.52630000  0.49190000  0.74010000  1.0 0.0010017314
C  C125  1  0.46710000  0.56020000  0.73490000  1.0 -0.0554833578
C  C126  1  0.51020000  0.60230000  0.73520000  1.0 -0.0506265764
C  C127  1  0.73650000  0.37170000  0.11000000  1.0 0.1323859377
C  C128  1  0.73550000  0.41310000  0.06230000  1.0 0.041308886
C  C129  1  0.73450000  0.46710000  0.07210000  1.0 -0.1722712074
C  C130  1  0.73530000  0.50850000  0.02690000  1.0 0.041308886
C  C131  1  0.73690000  0.43980000  0.96710000  1.0 -0.1367782202
C  C132  1  0.73810000  0.39950000  0.01000000  1.0 -0.1367782202
C  C133  1  0.56480000  0.41450000  0.23910000  1.0 -0.0153481411
C  C134  1  0.57420000  0.46900000  0.23380000  1.0 -0.0814312136
C  C135  1  0.52640000  0.50680000  0.23340000  1.0 0.010581958
C  C136  1  0.46710000  0.43890000  0.23800000  1.0 -0.0727648644
C  C137  1  0.51150000  0.39920000  0.23930000  1.0 -0.0506265764
C  C138  1  0.61150000  0.37280000  0.24180000  1.0 0.2894713614
C  C139  1  0.61050000  0.37150000  0.25850000  1.0 0.2894713614
C  C140  1  0.56290000  0.41270000  0.25640000  1.0 -0.0265006217
C  C141  1  0.57220000  0.46840000  0.25700000  1.0 -0.0814312136
C  C142  1  0.52630000  0.50810000  0.25990000  1.0 0.0010017314
C  C143  1  0.46710000  0.43980000  0.26510000  1.0 -0.0554833578
C  C144  1  0.51020000  0.39770000  0.26480000  1.0 -0.0506265764
C  C145  1  0.89000000  0.26350000  0.37170000  1.0 0.1323859377
C  C146  1  0.93770000  0.26450000  0.41310000  1.0 0.041308886
C  C147  1  0.92790000  0.26550000  0.46710000  1.0 -0.1722712074
C  C148  1  0.97310000  0.26470000  0.50850000  1.0 0.041308886
C  C149  1  0.03290000  0.26310000  0.43980000  1.0 -0.1367782202
C  C150  1  0.99000000  0.26190000  0.39950000  1.0 -0.1367782202
C  C151  1  0.76090000  0.43520000  0.41450000  1.0 -0.0153481411
C  C152  1  0.76620000  0.42580000  0.46900000  1.0 -0.0814312136
C  C153  1  0.76660000  0.47360000  0.50680000  1.0 0.010581958
C  C154  1  0.76200000  0.53290000  0.43890000  1.0 -0.0727648644
C  C155  1  0.76070000  0.48850000  0.39920000  1.0 -0.0506265764
C  C156  1  0.75820000  0.38850000  0.37280000  1.0 0.2894713614
C  C157  1  0.74150000  0.38950000  0.37150000  1.0 0.2894713614
C  C158  1  0.74360000  0.43710000  0.41270000  1.0 -0.0265006217
C  C159  1  0.74300000  0.42780000  0.46840000  1.0 -0.0814312136
C  C160  1  0.74010000  0.47370000  0.50810000  1.0 0.0010017314
C  C161  1  0.73490000  0.53290000  0.43980000  1.0 -0.0506265764
C  C162  1  0.73520000  0.48980000  0.39770000  1.0 -0.0506265764
C  C163  1  0.11000000  0.26350000  0.62830000  1.0 0.1323859377
C  C164  1  0.06230000  0.26450000  0.58690000  1.0 0.041308886
C  C165  1  0.07210000  0.26550000  0.53290000  1.0 -0.1722712074
C  C166  1  0.02690000  0.26470000  0.49150000  1.0 0.041308886
C  C167  1  0.96710000  0.26310000  0.56020000  1.0 -0.1367782202
C  C168  1  0.01000000  0.26190000  0.60050000  1.0 -0.1367782202
C  C169  1  0.23910000  0.43520000  0.58550000  1.0 -0.0153481411
C  C170  1  0.23380000  0.42580000  0.53100000  1.0 -0.0814312136
C  C171  1  0.23340000  0.47360000  0.49320000  1.0 0.010581958
C  C172  1  0.23800000  0.53290000  0.56110000  1.0 -0.0727648644
C  C173  1  0.23930000  0.48850000  0.60080000  1.0 -0.0554833578
C  C174  1  0.24180000  0.38850000  0.62720000  1.0 0.2894713614
C  C175  1  0.25850000  0.38950000  0.62850000  1.0 0.2894713614
C  C176  1  0.25640000  0.43710000  0.58730000  1.0 -0.0265006217
C  C177  1  0.25700000  0.42780000  0.53160000  1.0 -0.0814312136
C  C178  1  0.25990000  0.47370000  0.49190000  1.0 0.0010017314
C  C179  1  0.26510000  0.53290000  0.56020000  1.0 -0.0554833578
C  C180  1  0.26480000  0.48980000  0.60230000  1.0 -0.0506265764
C  C181  1  0.89000000  0.73650000  0.62830000  1.0 0.1323859377
C  C182  1  0.93770000  0.73550000  0.58690000  1.0 0.041308886
C  C183  1  0.92790000  0.73450000  0.53290000  1.0 -0.1722712074
C  C184  1  0.97310000  0.73530000  0.49150000  1.0 0.041308886
C  C185  1  0.03290000  0.73690000  0.56020000  1.0 -0.1367782202
C  C186  1  0.99000000  0.73810000  0.60050000  1.0 -0.1367782202
C  C187  1  0.76090000  0.56480000  0.58550000  1.0 -0.0153481411
C  C188  1  0.76620000  0.57420000  0.53100000  1.0 -0.0814312136
C  C189  1  0.76660000  0.52640000  0.49320000  1.0 0.010581958
C  C190  1  0.76200000  0.46710000  0.56110000  1.0 -0.0727648644
C  C191  1  0.76070000  0.51150000  0.60080000  1.0 -0.0506265764
C  C192  1  0.75820000  0.61150000  0.62720000  1.0 0.2894713614
C  C193  1  0.74150000  0.61050000  0.62850000  1.0 0.2894713614
C  C194  1  0.74360000  0.56290000  0.58730000  1.0 -0.0265006217
C  C195  1  0.74300000  0.57220000  0.53160000  1.0 -0.0814312136
C  C196  1  0.74010000  0.52630000  0.49190000  1.0 0.0010017314
C  C197  1  0.73490000  0.46710000  0.56020000  1.0 -0.0554833578
C  C198  1  0.73520000  0.51020000  0.60230000  1.0 -0.0506265764
C  C199  1  0.11000000  0.73650000  0.37170000  1.0 0.1323859377
C  C200  1  0.06230000  0.73550000  0.41310000  1.0 0.041308886
C  C201  1  0.07210000  0.73450000  0.46710000  1.0 -0.1722712074
C  C202  1  0.02690000  0.73530000  0.50850000  1.0 0.041308886
C  C203  1  0.96710000  0.73690000  0.43980000  1.0 -0.1367782202
C  C204  1  0.01000000  0.73810000  0.39950000  1.0 -0.1367782202
C  C205  1  0.23910000  0.56480000  0.41450000  1.0 -0.0153481411
C  C206  1  0.23380000  0.57420000  0.46900000  1.0 -0.0814312136
C  C207  1  0.23340000  0.52640000  0.50680000  1.0 0.010581958
C  C208  1  0.23800000  0.46710000  0.43890000  1.0 -0.0727648644
C  C209  1  0.23930000  0.51150000  0.39920000  1.0 -0.0506265764
C  C210  1  0.24180000  0.61150000  0.37280000  1.0 0.2894713614
C  C211  1  0.25850000  0.61050000  0.37150000  1.0 0.2894713614
C  C212  1  0.25640000  0.56290000  0.41270000  1.0 -0.0265006217
C  C213  1  0.25700000  0.57220000  0.46840000  1.0 -0.0814312136
C  C214  1  0.25990000  0.52630000  0.50810000  1.0 0.0010017314
C  C215  1  0.26510000  0.46710000  0.43980000  1.0 -0.0554833578
C  C216  1  0.26480000  0.51020000  0.39770000  1.0 -0.0506265764
C  C217  1  0.12830000  0.61000000  0.23650000  1.0 0.1323859377
C  C218  1  0.08690000  0.56230000  0.23550000  1.0 0.041308886
C  C219  1  0.03290000  0.57210000  0.23450000  1.0 -0.1722712074
C  C220  1  0.99150000  0.52690000  0.23530000  1.0 0.041308886
C  C221  1  0.06020000  0.46710000  0.23690000  1.0 -0.1367782202
C  C222  1  0.10050000  0.51000000  0.23810000  1.0 -0.1367782202
C  C223  1  0.08550000  0.73910000  0.06480000  1.0 -0.0153481411
C  C224  1  0.03100000  0.73380000  0.07420000  1.0 -0.0814312136
C  C225  1  0.99320000  0.73340000  0.02640000  1.0 0.010581958
C  C226  1  0.06110000  0.73800000  0.96710000  1.0 -0.0727648644
C  C227  1  0.10080000  0.73930000  0.01150000  1.0 -0.0506265764
C  C228  1  0.12720000  0.74180000  0.11150000  1.0 0.2849999786
C  C229  1  0.12850000  0.75850000  0.11050000  1.0 0.2894713614
C  C230  1  0.08730000  0.75640000  0.06290000  1.0 -0.0265006217
C  C231  1  0.03160000  0.75700000  0.07220000  1.0 -0.0814312136
C  C232  1  0.99190000  0.75990000  0.02630000  1.0 0.0010017314
C  C233  1  0.06020000  0.76510000  0.96710000  1.0 -0.0554833578
C  C234  1  0.10230000  0.76480000  0.01020000  1.0 -0.0506265764
C  C235  1  0.87170000  0.39000000  0.23650000  1.0 0.1323859377
C  C236  1  0.91310000  0.43770000  0.23550000  1.0 0.041308886
C  C237  1  0.96710000  0.42790000  0.23450000  1.0 -0.1722712074
C  C238  1  0.00850000  0.47310000  0.23530000  1.0 0.041308886
C  C239  1  0.93980000  0.53290000  0.23690000  1.0 -0.1367782202
C  C240  1  0.89950000  0.49000000  0.23810000  1.0 -0.1367782202
C  C241  1  0.91450000  0.26090000  0.06480000  1.0 -0.0145236826
C  C242  1  0.96900000  0.26620000  0.07420000  1.0 -0.0814312136
C  C243  1  0.00680000  0.26660000  0.02640000  1.0 0.010581958
C  C244  1  0.93890000  0.26200000  0.96710000  1.0 -0.0727648644
C  C245  1  0.89920000  0.26070000  0.01150000  1.0 -0.0506265764
C  C246  1  0.87280000  0.25820000  0.11150000  1.0 0.2894713614
C  C247  1  0.87150000  0.24150000  0.11050000  1.0 0.2894713614
C  C248  1  0.91270000  0.24360000  0.06290000  1.0 -0.0265006217
C  C249  1  0.96840000  0.24300000  0.07220000  1.0 -0.0814312136
C  C250  1  0.00810000  0.24010000  0.02630000  1.0 0.0010017314
C  C251  1  0.93980000  0.23490000  0.96710000  1.0 -0.0554833578
C  C252  1  0.89770000  0.23520000  0.01020000  1.0 -0.0506265764
C  C253  1  0.87170000  0.61000000  0.76350000  1.0 0.1323859377
C  C254  1  0.91310000  0.56230000  0.76450000  1.0 0.041308886
C  C255  1  0.96710000  0.57210000  0.76550000  1.0 -0.1722712074
C  C256  1  0.00850000  0.52690000  0.76470000  1.0 0.041308886
C  C257  1  0.93980000  0.46710000  0.76310000  1.0 -0.1367782202
C  C258  1  0.89950000  0.51000000  0.76190000  1.0 -0.1367782202
C  C259  1  0.91450000  0.73910000  0.93520000  1.0 -0.0153481411
C  C260  1  0.96900000  0.73380000  0.92580000  1.0 -0.0814312136
C  C261  1  0.00680000  0.73340000  0.97360000  1.0 0.010581958
C  C262  1  0.93890000  0.73800000  0.03290000  1.0 -0.0727648644
C  C263  1  0.89920000  0.73930000  0.98850000  1.0 -0.0506265764
C  C264  1  0.87280000  0.74180000  0.88850000  1.0 0.2894713614
C  C265  1  0.87150000  0.75850000  0.88950000  1.0 0.2894713614
C  C266  1  0.91270000  0.75640000  0.93710000  1.0 -0.0265006217
C  C267  1  0.96840000  0.75700000  0.92780000  1.0 -0.0814312136
C  C268  1  0.00810000  0.75990000  0.97370000  1.0 0.0010017314
C  C269  1  0.93980000  0.76510000  0.03290000  1.0 -0.0506265764
C  C270  1  0.89770000  0.76480000  0.98980000  1.0 -0.0506265764
C  C271  1  0.12830000  0.39000000  0.76350000  1.0 0.1323859377
C  C272  1  0.08690000  0.43770000  0.76450000  1.0 0.041308886
C  C273  1  0.03290000  0.42790000  0.76550000  1.0 -0.1722712074
C  C274  1  0.99150000  0.47310000  0.76470000  1.0 0.041308886
C  C275  1  0.06020000  0.53290000  0.76310000  1.0 -0.1367782202
C  C276  1  0.10050000  0.49000000  0.76190000  1.0 -0.1367782202
C  C277  1  0.08550000  0.26090000  0.93520000  1.0 -0.0153481411
C  C278  1  0.03100000  0.26620000  0.92580000  1.0 -0.0814312136
C  C279  1  0.99320000  0.26660000  0.97360000  1.0 0.010581958
C  C280  1  0.06110000  0.26200000  0.03290000  1.0 -0.0727648644
C  C281  1  0.10080000  0.26070000  0.98850000  1.0 -0.0554833578
C  C282  1  0.12720000  0.25820000  0.88850000  1.0 0.2894713614
C  C283  1  0.12850000  0.24150000  0.88950000  1.0 0.2894713614
C  C284  1  0.08730000  0.24360000  0.93710000  1.0 -0.0265006217
C  C285  1  0.03160000  0.24300000  0.92780000  1.0 -0.0814312136
C  C286  1  0.99190000  0.24010000  0.97370000  1.0 0.0010017314
C  C287  1  0.06020000  0.23490000  0.03290000  1.0 -0.0506265764
C  C288  1  0.10230000  0.23520000  0.98980000  1.0 -0.0506265764
C  C289  1  0.23650000  0.12830000  0.61000000  1.0 0.1323859377
C  C290  1  0.23550000  0.08690000  0.56230000  1.0 0.041308886
C  C291  1  0.23450000  0.03290000  0.57210000  1.0 -0.1722712074
C  C292  1  0.23530000  0.99150000  0.52690000  1.0 0.041308886
C  C293  1  0.23690000  0.06020000  0.46710000  1.0 -0.1367782202
C  C294  1  0.23810000  0.10050000  0.51000000  1.0 -0.1367782202
C  C295  1  0.06480000  0.08550000  0.73910000  1.0 -0.0153481411
C  C296  1  0.07420000  0.03100000  0.73380000  1.0 -0.0814312136
C  C297  1  0.02640000  0.99320000  0.73340000  1.0 0.010581958
C  C298  1  0.96710000  0.06110000  0.73800000  1.0 -0.0727648644
C  C299  1  0.01150000  0.10080000  0.73930000  1.0 -0.0554833578
C  C300  1  0.11150000  0.12720000  0.74180000  1.0 0.2894713614
C  C301  1  0.11050000  0.12850000  0.75850000  1.0 0.2894713614
C  C302  1  0.06290000  0.08730000  0.75640000  1.0 -0.0265006217
C  C303  1  0.07220000  0.03160000  0.75700000  1.0 -0.0814312136
C  C304  1  0.02630000  0.99190000  0.75990000  1.0 0.0010017314
C  C305  1  0.96710000  0.06020000  0.76510000  1.0 -0.0506265764
C  C306  1  0.01020000  0.10230000  0.76480000  1.0 -0.0506265764
C  C307  1  0.23650000  0.87170000  0.39000000  1.0 0.1323859377
C  C308  1  0.23550000  0.91310000  0.43770000  1.0 0.041308886
C  C309  1  0.23450000  0.96710000  0.42790000  1.0 -0.1722712074
C  C310  1  0.23530000  0.00850000  0.47310000  1.0 0.041308886
C  C311  1  0.23690000  0.93980000  0.53290000  1.0 -0.1367782202
C  C312  1  0.23810000  0.89950000  0.49000000  1.0 -0.1367782202
C  C313  1  0.06480000  0.91450000  0.26090000  1.0 -0.0153481411
C  C314  1  0.07420000  0.96900000  0.26620000  1.0 -0.0814312136
C  C315  1  0.02640000  0.00680000  0.26660000  1.0 0.010581958
C  C316  1  0.96710000  0.93890000  0.26200000  1.0 -0.0727648644
C  C317  1  0.01150000  0.89920000  0.26070000  1.0 -0.0554833578
C  C318  1  0.11150000  0.87280000  0.25820000  1.0 0.2849999786
C  C319  1  0.11050000  0.87150000  0.24150000  1.0 0.2894713614
C  C320  1  0.06290000  0.91270000  0.24360000  1.0 -0.0265006217
C  C321  1  0.07220000  0.96840000  0.24300000  1.0 -0.0814312136
C  C322  1  0.02630000  0.00810000  0.24010000  1.0 -0.0002186114
C  C323  1  0.96710000  0.93980000  0.23490000  1.0 -0.0554833578
C  C324  1  0.01020000  0.89770000  0.23520000  1.0 -0.0506265764
C  C325  1  0.76350000  0.87170000  0.61000000  1.0 0.1323859377
C  C326  1  0.76450000  0.91310000  0.56230000  1.0 0.041308886
C  C327  1  0.76550000  0.96710000  0.57210000  1.0 -0.1722712074
C  C328  1  0.76470000  0.00850000  0.52690000  1.0 0.041308886
C  C329  1  0.76310000  0.93980000  0.46710000  1.0 -0.1367782202
C  C330  1  0.76190000  0.89950000  0.51000000  1.0 -0.1367782202
C  C331  1  0.93520000  0.91450000  0.73910000  1.0 -0.0153481411
C  C332  1  0.92580000  0.96900000  0.73380000  1.0 -0.0814312136
C  C333  1  0.97360000  0.00680000  0.73340000  1.0 0.010581958
C  C334  1  0.03290000  0.93890000  0.73800000  1.0 -0.0727648644
C  C335  1  0.98850000  0.89920000  0.73930000  1.0 -0.0506265764
C  C336  1  0.88850000  0.87280000  0.74180000  1.0 0.2894713614
C  C337  1  0.88950000  0.87150000  0.75850000  1.0 0.2894713614
C  C338  1  0.93710000  0.91270000  0.75640000  1.0 -0.0265006217
C  C339  1  0.92780000  0.96840000  0.75700000  1.0 -0.0814312136
C  C340  1  0.97370000  0.00810000  0.75990000  1.0 0.0010017314
C  C341  1  0.03290000  0.93980000  0.76510000  1.0 -0.0554833578
C  C342  1  0.98980000  0.89770000  0.76480000  1.0 -0.0506265764
C  C343  1  0.76350000  0.12830000  0.39000000  1.0 0.1323859377
C  C344  1  0.76450000  0.08690000  0.43770000  1.0 0.041308886
C  C345  1  0.76550000  0.03290000  0.42790000  1.0 -0.1722712074
C  C346  1  0.76470000  0.99150000  0.47310000  1.0 0.041308886
C  C347  1  0.76310000  0.06020000  0.53290000  1.0 -0.1367782202
C  C348  1  0.76190000  0.10050000  0.49000000  1.0 -0.1367782202
C  C349  1  0.93520000  0.08550000  0.26090000  1.0 -0.0145236826
C  C350  1  0.92580000  0.03100000  0.26620000  1.0 -0.0814312136
C  C351  1  0.97360000  0.99320000  0.26660000  1.0 0.010581958
C  C352  1  0.03290000  0.06110000  0.26200000  1.0 -0.0727648644
C  C353  1  0.98850000  0.10080000  0.26070000  1.0 -0.0506265764
C  C354  1  0.88850000  0.12720000  0.25820000  1.0 0.2894713614
C  C355  1  0.88950000  0.12850000  0.24150000  1.0 0.2894713614
C  C356  1  0.93710000  0.08730000  0.24360000  1.0 -0.0265006217
C  C357  1  0.92780000  0.03160000  0.24300000  1.0 -0.0814312136
C  C358  1  0.97370000  0.99190000  0.24010000  1.0 0.0010017314
C  C359  1  0.03290000  0.06020000  0.23490000  1.0 -0.0554833578
C  C360  1  0.98980000  0.10230000  0.23520000  1.0 -0.0506265764
C  C361  1  0.61000000  0.23650000  0.12830000  1.0 0.1323859377
C  C362  1  0.56230000  0.23550000  0.08690000  1.0 0.041308886
C  C363  1  0.57210000  0.23450000  0.03290000  1.0 -0.1722712074
C  C364  1  0.52690000  0.23530000  0.99150000  1.0 0.041308886
C  C365  1  0.46710000  0.23690000  0.06020000  1.0 -0.1367782202
C  C366  1  0.51000000  0.23810000  0.10050000  1.0 -0.1367782202
C  C367  1  0.73910000  0.06480000  0.08550000  1.0 -0.0145236826
C  C368  1  0.73380000  0.07420000  0.03100000  1.0 -0.0814312136
C  C369  1  0.73340000  0.02640000  0.99320000  1.0 0.010581958
C  C370  1  0.73800000  0.96710000  0.06110000  1.0 -0.0727648644
C  C371  1  0.73930000  0.01150000  0.10080000  1.0 -0.0506265764
C  C372  1  0.74180000  0.11150000  0.12720000  1.0 0.2894713614
C  C373  1  0.75850000  0.11050000  0.12850000  1.0 0.2894713614
C  C374  1  0.75640000  0.06290000  0.08730000  1.0 -0.0265006217
C  C375  1  0.75700000  0.07220000  0.03160000  1.0 -0.0814312136
C  C376  1  0.75990000  0.02630000  0.99190000  1.0 0.0010017314
C  C377  1  0.76510000  0.96710000  0.06020000  1.0 -0.0506265764
C  C378  1  0.76480000  0.01020000  0.10230000  1.0 -0.0506265764
C  C379  1  0.39000000  0.23650000  0.87170000  1.0 0.1323859377
C  C380  1  0.43770000  0.23550000  0.91310000  1.0 0.041308886
C  C381  1  0.42790000  0.23450000  0.96710000  1.0 -0.1722712074
C  C382  1  0.47310000  0.23530000  0.00850000  1.0 0.041308886
C  C383  1  0.53290000  0.23690000  0.93980000  1.0 -0.1367782202
C  C384  1  0.49000000  0.23810000  0.89950000  1.0 -0.1367782202
C  C385  1  0.26090000  0.06480000  0.91450000  1.0 -0.0153481411
C  C386  1  0.26620000  0.07420000  0.96900000  1.0 -0.0814312136
C  C387  1  0.26660000  0.02640000  0.00680000  1.0 0.010581958
C  C388  1  0.26200000  0.96710000  0.93890000  1.0 -0.0727648644
C  C389  1  0.26070000  0.01150000  0.89920000  1.0 -0.0554833578
C  C390  1  0.25820000  0.11150000  0.87280000  1.0 0.2894713614
C  C391  1  0.24150000  0.11050000  0.87150000  1.0 0.2894713614
C  C392  1  0.24360000  0.06290000  0.91270000  1.0 -0.0265006217
C  C393  1  0.24300000  0.07220000  0.96840000  1.0 -0.0814312136
C  C394  1  0.24010000  0.02630000  0.00810000  1.0 0.0010017314
C  C395  1  0.23490000  0.96710000  0.93980000  1.0 -0.0554833578
C  C396  1  0.23520000  0.01020000  0.89770000  1.0 -0.0506265764
C  C397  1  0.61000000  0.76350000  0.87170000  1.0 0.1323859377
C  C398  1  0.56230000  0.76450000  0.91310000  1.0 0.041308886
C  C399  1  0.57210000  0.76550000  0.96710000  1.0 -0.1722712074
C  C400  1  0.52690000  0.76470000  0.00850000  1.0 0.041308886
C  C401  1  0.46710000  0.76310000  0.93980000  1.0 -0.1367782202
C  C402  1  0.51000000  0.76190000  0.89950000  1.0 -0.1367782202
C  C403  1  0.73910000  0.93520000  0.91450000  1.0 -0.0153481411
C  C404  1  0.73380000  0.92580000  0.96900000  1.0 -0.0814312136
C  C405  1  0.73340000  0.97360000  0.00680000  1.0 0.010581958
C  C406  1  0.73800000  0.03290000  0.93890000  1.0 -0.0727648644
C  C407  1  0.73930000  0.98850000  0.89920000  1.0 -0.0506265764
C  C408  1  0.74180000  0.88850000  0.87280000  1.0 0.2894713614
C  C409  1  0.75850000  0.88950000  0.87150000  1.0 0.2894713614
C  C410  1  0.75640000  0.93710000  0.91270000  1.0 -0.0265006217
C  C411  1  0.75700000  0.92780000  0.96840000  1.0 -0.0814312136
C  C412  1  0.75990000  0.97370000  0.00810000  1.0 0.0010017314
C  C413  1  0.76510000  0.03290000  0.93980000  1.0 -0.0554833578
C  C414  1  0.76480000  0.98980000  0.89770000  1.0 -0.0506265764
C  C415  1  0.39000000  0.76350000  0.12830000  1.0 0.1323859377
C  C416  1  0.43770000  0.76450000  0.08690000  1.0 0.041308886
C  C417  1  0.42790000  0.76550000  0.03290000  1.0 -0.1722712074
C  C418  1  0.47310000  0.76470000  0.99150000  1.0 0.041308886
C  C419  1  0.53290000  0.76310000  0.06020000  1.0 -0.1367782202
C  C420  1  0.49000000  0.76190000  0.10050000  1.0 -0.1367782202
C  C421  1  0.26090000  0.93520000  0.08550000  1.0 -0.0153481411
C  C422  1  0.26620000  0.92580000  0.03100000  1.0 -0.0814312136
C  C423  1  0.26660000  0.97360000  0.99320000  1.0 0.010581958
C  C424  1  0.26200000  0.03290000  0.06110000  1.0 -0.0727648644
C  C425  1  0.26070000  0.98850000  0.10080000  1.0 -0.0506265764
C  C426  1  0.25820000  0.88850000  0.12720000  1.0 0.2849999786
C  C427  1  0.24150000  0.88950000  0.12850000  1.0 0.2894713614
C  C428  1  0.24360000  0.93710000  0.08730000  1.0 -0.0265006217
C  C429  1  0.24300000  0.92780000  0.03160000  1.0 -0.0814312136
C  C430  1  0.24010000  0.97370000  0.99190000  1.0 0.0010017314
C  C431  1  0.23490000  0.03290000  0.06020000  1.0 -0.0554833578
C  C432  1  0.23520000  0.98980000  0.10230000  1.0 -0.0506265764
O  O1  1  0.39368000  0.83960000  0.26349000  1.0 -0.2905290901
O  O2  1  0.32010000  0.90460000  0.26378000  1.0 -0.3192873825
O  O3  1  0.39280000  0.76100000  0.34090000  1.0 -0.2498196914
O  O4  1  0.32110000  0.75540000  0.40390000  1.0 -0.1889625569
O  O5  1  0.30141000  0.80850000  0.31490000  1.0 -0.5809357643
O  O6  1  0.28849000  0.79400000  0.29890000  1.0 -0.5352673113
O  O7  1  0.41667000  0.75480000  0.31530000  1.0 -0.1121143713
O  O8  1  0.30740000  0.73810000  0.41900000  1.0 -0.0506265764
O  O9  1  0.39200000  0.74560000  0.34240000  1.0 -0.2345463216
O  O10  1  0.32200000  0.73870000  0.40340000  1.0 -0.2019550576
O  O11  1  0.41930000  0.81820000  0.26860000  1.0 -0.2498196914
O  O12  1  0.29470000  0.93160000  0.26130000  1.0 -0.3354944765
O  O13  1  0.60632000  0.16040000  0.26349000  1.0 -0.2905290901
O  O14  1  0.67990000  0.09540000  0.26378000  1.0 -0.3192873825
O  O15  1  0.60720000  0.23900000  0.34090000  1.0 -0.2498196914
O  O16  1  0.67890000  0.24460000  0.40390000  1.0 -0.1889625569
O  O17  1  0.69859000  0.19150000  0.31490000  1.0 -0.5809357643
O  O18  1  0.71151000  0.20600000  0.29890000  1.0 -0.5352673113
O  O19  1  0.58333000  0.24520000  0.31530000  1.0 -0.1121143713
O  O20  1  0.69260000  0.26190000  0.41900000  1.0 -0.0506265764
O  O21  1  0.60800000  0.25440000  0.34240000  1.0 -0.2350389838
O  O22  1  0.67800000  0.26130000  0.40340000  1.0 -0.2019550576
O  O23  1  0.58070000  0.18180000  0.26860000  1.0 -0.2498196914
O  O24  1  0.70530000  0.06840000  0.26130000  1.0 -0.3354944765
O  O25  1  0.60632000  0.83960000  0.73651000  1.0 -0.2905290901
O  O26  1  0.67990000  0.90460000  0.73622000  1.0 -0.3192873825
O  O27  1  0.60720000  0.76100000  0.65910000  1.0 -0.2498196914
O  O28  1  0.67890000  0.75540000  0.59610000  1.0 -0.1889625569
O  O29  1  0.69859000  0.80850000  0.68510000  1.0 -0.5809357643
O  O30  1  0.71151000  0.79400000  0.70110000  1.0 -0.5326458077
O  O31  1  0.58333000  0.75480000  0.68470000  1.0 -0.1121143713
O  O32  1  0.69260000  0.73810000  0.58100000  1.0 -0.0506265764
O  O33  1  0.60800000  0.74560000  0.65760000  1.0 -0.2345463216
O  O34  1  0.67800000  0.73870000  0.59660000  1.0 -0.2019550576
O  O35  1  0.58070000  0.81820000  0.73140000  1.0 -0.2498196914
O  O36  1  0.70530000  0.93160000  0.73870000  1.0 -0.3354944765
O  O37  1  0.39368000  0.16040000  0.73651000  1.0 -0.2905290901
O  O38  1  0.32010000  0.09540000  0.73622000  1.0 -0.3192873825
O  O39  1  0.39280000  0.23900000  0.65910000  1.0 -0.2498196914
O  O40  1  0.32110000  0.24460000  0.59610000  1.0 -0.1889625569
O  O41  1  0.30141000  0.19150000  0.68510000  1.0 -0.5809357643
O  O42  1  0.28849000  0.20600000  0.70110000  1.0 -0.5352673113
O  O43  1  0.41667000  0.24520000  0.68470000  1.0 -0.1121143713
O  O44  1  0.30740000  0.26190000  0.58100000  1.0 -0.0506265764
O  O45  1  0.39200000  0.25440000  0.65760000  1.0 -0.2350389838
O  O46  1  0.32200000  0.26130000  0.59660000  1.0 -0.2019550576
O  O47  1  0.41930000  0.18180000  0.73140000  1.0 -0.2498196914
O  O48  1  0.29470000  0.06840000  0.73870000  1.0 -0.3354944765
O  O49  1  0.26349000  0.39368000  0.83960000  1.0 -0.2905290901
O  O50  1  0.26378000  0.32010000  0.90460000  1.0 -0.3192873825
O  O51  1  0.34090000  0.39280000  0.76100000  1.0 -0.2498196914
O  O52  1  0.40390000  0.32110000  0.75540000  1.0 -0.1889625569
O  O53  1  0.31490000  0.30141000  0.80850000  1.0 -0.5809357643
O  O54  1  0.29890000  0.28849000  0.79400000  1.0 -0.5352673113
O  O55  1  0.31530000  0.41667000  0.75480000  1.0 -0.1121143713
O  O56  1  0.41900000  0.30740000  0.73810000  1.0 -0.0506265764
O  O57  1  0.34240000  0.39200000  0.74560000  1.0 -0.2350389838
O  O58  1  0.40340000  0.32200000  0.73870000  1.0 -0.2019550576
O  O59  1  0.26860000  0.41930000  0.81820000  1.0 -0.2498196914
O  O60  1  0.26130000  0.29470000  0.93160000  1.0 -0.3354944765
O  O61  1  0.26349000  0.60632000  0.16040000  1.0 -0.2905290901
O  O62  1  0.26378000  0.67990000  0.09540000  1.0 -0.3192873825
O  O63  1  0.34090000  0.60720000  0.23900000  1.0 -0.2498196914
O  O64  1  0.40390000  0.67890000  0.24460000  1.0 -0.1889625569
O  O65  1  0.31490000  0.69859000  0.19150000  1.0 -0.5809357643
O  O66  1  0.29890000  0.71151000  0.20600000  1.0 -0.5352673113
O  O67  1  0.31530000  0.58333000  0.24520000  1.0 -0.1121143713
O  O68  1  0.41900000  0.69260000  0.26190000  1.0 -0.0506265764
O  O69  1  0.34240000  0.60800000  0.25440000  1.0 -0.2350389838
O  O70  1  0.40340000  0.67800000  0.26130000  1.0 -0.2019550576
O  O71  1  0.26860000  0.58070000  0.18180000  1.0 -0.2498196914
O  O72  1  0.26130000  0.70530000  0.06840000  1.0 -0.3354944765
O  O73  1  0.73651000  0.60632000  0.83960000  1.0 -0.2905290901
O  O74  1  0.73622000  0.67990000  0.90460000  1.0 -0.3192873825
O  O75  1  0.65910000  0.60720000  0.76100000  1.0 -0.2498196914
O  O76  1  0.59610000  0.67890000  0.75540000  1.0 -0.1889625569
O  O77  1  0.68510000  0.69859000  0.80850000  1.0 -0.5809357643
O  O78  1  0.70110000  0.71151000  0.79400000  1.0 -0.5326458077
O  O79  1  0.68470000  0.58333000  0.75480000  1.0 -0.1121143713
O  O80  1  0.58100000  0.69260000  0.73810000  1.0 -0.0506265764
O  O81  1  0.65760000  0.60800000  0.74560000  1.0 -0.2345463216
O  O82  1  0.59660000  0.67800000  0.73870000  1.0 -0.2019550576
O  O83  1  0.73140000  0.58070000  0.81820000  1.0 -0.2498196914
O  O84  1  0.73870000  0.70530000  0.93160000  1.0 -0.3354944765
O  O85  1  0.73651000  0.39368000  0.16040000  1.0 -0.2905290901
O  O86  1  0.73622000  0.32010000  0.09540000  1.0 -0.3192873825
O  O87  1  0.65910000  0.39280000  0.23900000  1.0 -0.2498196914
O  O88  1  0.59610000  0.32110000  0.24460000  1.0 -0.1889625569
O  O89  1  0.68510000  0.30141000  0.19150000  1.0 -0.5809357643
O  O90  1  0.70110000  0.28849000  0.20600000  1.0 -0.5352673113
O  O91  1  0.68470000  0.41667000  0.24520000  1.0 -0.1121143713
O  O92  1  0.58100000  0.30740000  0.26190000  1.0 -0.0506265764
O  O93  1  0.65760000  0.39200000  0.25440000  1.0 -0.2350389838
O  O94  1  0.59660000  0.32200000  0.26130000  1.0 -0.2019550576
O  O95  1  0.73140000  0.41930000  0.18180000  1.0 -0.2498196914
O  O96  1  0.73870000  0.29470000  0.06840000  1.0 -0.3354944765
O  O97  1  0.83960000  0.26349000  0.39368000  1.0 -0.2905290901
O  O98  1  0.90460000  0.26378000  0.32010000  1.0 -0.3192873825
O  O99  1  0.76100000  0.34090000  0.39280000  1.0 -0.2498196914
O  O100  1  0.75540000  0.40390000  0.32110000  1.0 -0.1889625569
O  O101  1  0.80850000  0.31490000  0.30141000  1.0 -0.5809357643
O  O102  1  0.79400000  0.29890000  0.28849000  1.0 -0.5352673113
O  O103  1  0.75480000  0.31530000  0.41667000  1.0 -0.1121143713
O  O104  1  0.73810000  0.41900000  0.30740000  1.0 -0.0506265764
O  O105  1  0.74560000  0.34240000  0.39200000  1.0 -0.2345463216
O  O106  1  0.73870000  0.40340000  0.32200000  1.0 -0.2019550576
O  O107  1  0.81820000  0.26860000  0.41930000  1.0 -0.2498196914
O  O108  1  0.93160000  0.26130000  0.29470000  1.0 -0.3354944765
O  O109  1  0.16040000  0.26349000  0.60632000  1.0 -0.2905290901
O  O110  1  0.09540000  0.26378000  0.67990000  1.0 -0.3192873825
O  O111  1  0.23900000  0.34090000  0.60720000  1.0 -0.2498196914
O  O112  1  0.24460000  0.40390000  0.67890000  1.0 -0.1889625569
O  O113  1  0.19150000  0.31490000  0.69859000  1.0 -0.5809357643
O  O114  1  0.20600000  0.29890000  0.71151000  1.0 -0.5352673113
O  O115  1  0.24520000  0.31530000  0.58333000  1.0 -0.1121143713
O  O116  1  0.26190000  0.41900000  0.69260000  1.0 -0.0506265764
O  O117  1  0.25440000  0.34240000  0.60800000  1.0 -0.2350389838
O  O118  1  0.26130000  0.40340000  0.67800000  1.0 -0.2019550576
O  O119  1  0.18180000  0.26860000  0.58070000  1.0 -0.2498196914
O  O120  1  0.06840000  0.26130000  0.70530000  1.0 -0.3354944765
O  O121  1  0.83960000  0.73651000  0.60632000  1.0 -0.2905290901
O  O122  1  0.90460000  0.73622000  0.67990000  1.0 -0.3192873825
O  O123  1  0.76100000  0.65910000  0.60720000  1.0 -0.2498196914
O  O124  1  0.75540000  0.59610000  0.67890000  1.0 -0.1889625569
O  O125  1  0.80850000  0.68510000  0.69859000  1.0 -0.5809357643
O  O126  1  0.79400000  0.70110000  0.71151000  1.0 -0.5326458077
O  O127  1  0.75480000  0.68470000  0.58333000  1.0 -0.1121143713
O  O128  1  0.73810000  0.58100000  0.69260000  1.0 -0.0506265764
O  O129  1  0.74560000  0.65760000  0.60800000  1.0 -0.2345463216
O  O130  1  0.73870000  0.59660000  0.67800000  1.0 -0.2019550576
O  O131  1  0.81820000  0.73140000  0.58070000  1.0 -0.2498196914
O  O132  1  0.93160000  0.73870000  0.70530000  1.0 -0.3354944765
O  O133  1  0.16040000  0.73651000  0.39368000  1.0 -0.2905290901
O  O134  1  0.09540000  0.73622000  0.32010000  1.0 -0.3192873825
O  O135  1  0.23900000  0.65910000  0.39280000  1.0 -0.2498196914
O  O136  1  0.24460000  0.59610000  0.32110000  1.0 -0.1889625569
O  O137  1  0.19150000  0.68510000  0.30141000  1.0 -0.5809357643
O  O138  1  0.20600000  0.70110000  0.28849000  1.0 -0.5352673113
O  O139  1  0.24520000  0.68470000  0.41667000  1.0 -0.1121143713
O  O140  1  0.26190000  0.58100000  0.30740000  1.0 -0.0506265764
O  O141  1  0.25440000  0.65760000  0.39200000  1.0 -0.2350389838
O  O142  1  0.26130000  0.59660000  0.32200000  1.0 -0.2019550576
O  O143  1  0.18180000  0.73140000  0.41930000  1.0 -0.2498196914
O  O144  1  0.06840000  0.73870000  0.29470000  1.0 -0.3354944765
O  O145  1  0.10632000  0.66040000  0.23651000  1.0 -0.2905290901
O  O146  1  0.17990000  0.59540000  0.23622000  1.0 -0.3192873825
O  O147  1  0.10720000  0.73900000  0.15910000  1.0 -0.2498196914
O  O148  1  0.17890000  0.74460000  0.09610000  1.0 -0.1889625569
O  O149  1  0.19859000  0.69150000  0.18510000  1.0 -0.5809357643
O  O150  1  0.21151000  0.70600000  0.20110000  1.0 -0.5352673113
O  O151  1  0.08333000  0.74520000  0.18470000  1.0 -0.1121143713
O  O152  1  0.19260000  0.76190000  0.08100000  1.0 -0.0506265764
O  O153  1  0.10800000  0.75440000  0.15760000  1.0 -0.2350389838
O  O154  1  0.17800000  0.76130000  0.09660000  1.0 -0.2019550576
O  O155  1  0.08070000  0.68180000  0.23140000  1.0 -0.2498196914
O  O156  1  0.20530000  0.56840000  0.23870000  1.0 -0.3354944765
O  O157  1  0.89368000  0.33960000  0.23651000  1.0 -0.2905290901
O  O158  1  0.82010000  0.40460000  0.23622000  1.0 -0.3192873825
O  O159  1  0.89280000  0.26100000  0.15910000  1.0 -0.2498196914
O  O160  1  0.82110000  0.25540000  0.09610000  1.0 -0.1889625569
O  O161  1  0.80141000  0.30850000  0.18510000  1.0 -0.5809357643
O  O162  1  0.78849000  0.29400000  0.20110000  1.0 -0.5352673113
O  O163  1  0.91667000  0.25480000  0.18470000  1.0 -0.1121143713
O  O164  1  0.80740000  0.23810000  0.08100000  1.0 -0.0506265764
O  O165  1  0.89200000  0.24560000  0.15760000  1.0 -0.2350389838
O  O166  1  0.82200000  0.23870000  0.09660000  1.0 -0.2019550576
O  O167  1  0.91930000  0.31820000  0.23140000  1.0 -0.2498196914
O  O168  1  0.79470000  0.43160000  0.23870000  1.0 -0.3354944765
O  O169  1  0.89368000  0.66040000  0.76349000  1.0 -0.2905290901
O  O170  1  0.82010000  0.59540000  0.76378000  1.0 -0.3192873825
O  O171  1  0.89280000  0.73900000  0.84090000  1.0 -0.2498196914
O  O172  1  0.82110000  0.74460000  0.90390000  1.0 -0.1889625569
O  O173  1  0.80141000  0.69150000  0.81490000  1.0 -0.5809357643
O  O174  1  0.78849000  0.70600000  0.79890000  1.0 -0.5326458077
O  O175  1  0.91667000  0.74520000  0.81530000  1.0 -0.1121143713
O  O176  1  0.80740000  0.76190000  0.91900000  1.0 -0.0506265764
O  O177  1  0.89200000  0.75440000  0.84240000  1.0 -0.2345463216
O  O178  1  0.82200000  0.76130000  0.90340000  1.0 -0.2019550576
O  O179  1  0.91930000  0.68180000  0.76860000  1.0 -0.2498196914
O  O180  1  0.79470000  0.56840000  0.76130000  1.0 -0.3354944765
O  O181  1  0.10632000  0.33960000  0.76349000  1.0 -0.2905290901
O  O182  1  0.17990000  0.40460000  0.76378000  1.0 -0.3192873825
O  O183  1  0.10720000  0.26100000  0.84090000  1.0 -0.2498196914
O  O184  1  0.17890000  0.25540000  0.90390000  1.0 -0.1889625569
O  O185  1  0.19859000  0.30850000  0.81490000  1.0 -0.5809357643
O  O186  1  0.21151000  0.29400000  0.79890000  1.0 -0.5352673113
O  O187  1  0.08333000  0.25480000  0.81530000  1.0 -0.1121143713
O  O188  1  0.19260000  0.23810000  0.91900000  1.0 -0.0506265764
O  O189  1  0.10800000  0.24560000  0.84240000  1.0 -0.2350389838
O  O190  1  0.17800000  0.23870000  0.90340000  1.0 -0.2019550576
O  O191  1  0.08070000  0.31820000  0.76860000  1.0 -0.2498196914
O  O192  1  0.20530000  0.43160000  0.76130000  1.0 -0.3354944765
O  O193  1  0.23651000  0.10632000  0.66040000  1.0 -0.2905290901
O  O194  1  0.23622000  0.17990000  0.59540000  1.0 -0.3192873825
O  O195  1  0.15910000  0.10720000  0.73900000  1.0 -0.2498196914
O  O196  1  0.09610000  0.17890000  0.74460000  1.0 -0.1889625569
O  O197  1  0.18510000  0.19859000  0.69150000  1.0 -0.5809357643
O  O198  1  0.20110000  0.21151000  0.70600000  1.0 -0.5352673113
O  O199  1  0.18470000  0.08333000  0.74520000  1.0 -0.1121143713
O  O200  1  0.08100000  0.19260000  0.76190000  1.0 -0.0506265764
O  O201  1  0.15760000  0.10800000  0.75440000  1.0 -0.2350389838
O  O202  1  0.09660000  0.17800000  0.76130000  1.0 -0.2019550576
O  O203  1  0.23140000  0.08070000  0.68180000  1.0 -0.2498196914
O  O204  1  0.23870000  0.20530000  0.56840000  1.0 -0.3354944765
O  O205  1  0.23651000  0.89368000  0.33960000  1.0 -0.2905290901
O  O206  1  0.23622000  0.82010000  0.40460000  1.0 -0.3192873825
O  O207  1  0.15910000  0.89280000  0.26100000  1.0 -0.2498196914
O  O208  1  0.09610000  0.82110000  0.25540000  1.0 -0.1889625569
O  O209  1  0.18510000  0.80141000  0.30850000  1.0 -0.5809357643
O  O210  1  0.20110000  0.78849000  0.29400000  1.0 -0.5352673113
O  O211  1  0.18470000  0.91667000  0.25480000  1.0 -0.1121143713
O  O212  1  0.08100000  0.80740000  0.23810000  1.0 -0.0506265764
O  O213  1  0.15760000  0.89200000  0.24560000  1.0 -0.2350389838
O  O214  1  0.09660000  0.82200000  0.23870000  1.0 -0.2019550576
O  O215  1  0.23140000  0.91930000  0.31820000  1.0 -0.2498196914
O  O216  1  0.23870000  0.79470000  0.43160000  1.0 -0.3354944765
O  O217  1  0.76349000  0.89368000  0.66040000  1.0 -0.2905290901
O  O218  1  0.76378000  0.82010000  0.59540000  1.0 -0.3192873825
O  O219  1  0.84090000  0.89280000  0.73900000  1.0 -0.2498196914
O  O220  1  0.90390000  0.82110000  0.74460000  1.0 -0.1889625569
O  O221  1  0.81490000  0.80141000  0.69150000  1.0 -0.5809357643
O  O222  1  0.79890000  0.78849000  0.70600000  1.0 -0.5326458077
O  O223  1  0.81530000  0.91667000  0.74520000  1.0 -0.1121143713
O  O224  1  0.91900000  0.80740000  0.76190000  1.0 -0.0506265764
O  O225  1  0.84240000  0.89200000  0.75440000  1.0 -0.2345463216
O  O226  1  0.90340000  0.82200000  0.76130000  1.0 -0.2019550576
O  O227  1  0.76860000  0.91930000  0.68180000  1.0 -0.2498196914
O  O228  1  0.76130000  0.79470000  0.56840000  1.0 -0.3354944765
O  O229  1  0.76349000  0.10632000  0.33960000  1.0 -0.2905290901
O  O230  1  0.76378000  0.17990000  0.40460000  1.0 -0.3192873825
O  O231  1  0.84090000  0.10720000  0.26100000  1.0 -0.2498196914
O  O232  1  0.90390000  0.17890000  0.25540000  1.0 -0.1889625569
O  O233  1  0.81490000  0.19859000  0.30850000  1.0 -0.5809357643
O  O234  1  0.79890000  0.21151000  0.29400000  1.0 -0.5326458077
O  O235  1  0.81530000  0.08333000  0.25480000  1.0 -0.1121143713
O  O236  1  0.91900000  0.19260000  0.23810000  1.0 -0.0506265764
O  O237  1  0.84240000  0.10800000  0.24560000  1.0 -0.2350389838
O  O238  1  0.90340000  0.17800000  0.23870000  1.0 -0.2019550576
O  O239  1  0.76860000  0.08070000  0.31820000  1.0 -0.2498196914
O  O240  1  0.76130000  0.20530000  0.43160000  1.0 -0.3354944765
O  O241  1  0.66040000  0.23651000  0.10632000  1.0 -0.2905290901
O  O242  1  0.59540000  0.23622000  0.17990000  1.0 -0.3192873825
O  O243  1  0.73900000  0.15910000  0.10720000  1.0 -0.2498196914
O  O244  1  0.74460000  0.09610000  0.17890000  1.0 -0.1889625569
O  O245  1  0.69150000  0.18510000  0.19859000  1.0 -0.5809357643
O  O246  1  0.70600000  0.20110000  0.21151000  1.0 -0.5352673113
O  O247  1  0.74520000  0.18470000  0.08333000  1.0 -0.1121143713
O  O248  1  0.76190000  0.08100000  0.19260000  1.0 -0.0506265764
O  O249  1  0.75440000  0.15760000  0.10800000  1.0 -0.2350389838
O  O250  1  0.76130000  0.09660000  0.17800000  1.0 -0.2019550576
O  O251  1  0.68180000  0.23140000  0.08070000  1.0 -0.2498196914
O  O252  1  0.56840000  0.23870000  0.20530000  1.0 -0.3354944765
O  O253  1  0.33960000  0.23651000  0.89368000  1.0 -0.2905290901
O  O254  1  0.40460000  0.23622000  0.82010000  1.0 -0.3192873825
O  O255  1  0.26100000  0.15910000  0.89280000  1.0 -0.2498196914
O  O256  1  0.25540000  0.09610000  0.82110000  1.0 -0.1889625569
O  O257  1  0.30850000  0.18510000  0.80141000  1.0 -0.5809357643
O  O258  1  0.29400000  0.20110000  0.78849000  1.0 -0.5352673113
O  O259  1  0.25480000  0.18470000  0.91667000  1.0 -0.1121143713
O  O260  1  0.23810000  0.08100000  0.80740000  1.0 -0.0506265764
O  O261  1  0.24560000  0.15760000  0.89200000  1.0 -0.2350389838
O  O262  1  0.23870000  0.09660000  0.82200000  1.0 -0.2019550576
O  O263  1  0.31820000  0.23140000  0.91930000  1.0 -0.2498196914
O  O264  1  0.43160000  0.23870000  0.79470000  1.0 -0.3354944765
O  O265  1  0.66040000  0.76349000  0.89368000  1.0 -0.2905290901
O  O266  1  0.59540000  0.76378000  0.82010000  1.0 -0.3192873825
O  O267  1  0.73900000  0.84090000  0.89280000  1.0 -0.2498196914
O  O268  1  0.74460000  0.90390000  0.82110000  1.0 -0.1889625569
O  O269  1  0.69150000  0.81490000  0.80141000  1.0 -0.5809357643
O  O270  1  0.70600000  0.79890000  0.78849000  1.0 -0.5326458077
O  O271  1  0.74520000  0.81530000  0.91667000  1.0 -0.1121143713
O  O272  1  0.76190000  0.91900000  0.80740000  1.0 -0.0506265764
O  O273  1  0.75440000  0.84240000  0.89200000  1.0 -0.2345463216
O  O274  1  0.76130000  0.90340000  0.82200000  1.0 -0.2019550576
O  O275  1  0.68180000  0.76860000  0.91930000  1.0 -0.2498196914
O  O276  1  0.56840000  0.76130000  0.79470000  1.0 -0.3354944765
O  O277  1  0.33960000  0.76349000  0.10632000  1.0 -0.2905290901
O  O278  1  0.40460000  0.76378000  0.17990000  1.0 -0.3192873825
O  O279  1  0.26100000  0.84090000  0.10720000  1.0 -0.2498196914
O  O280  1  0.25540000  0.90390000  0.17890000  1.0 -0.1889625569
O  O281  1  0.30850000  0.81490000  0.19859000  1.0 -0.5809357643
O  O282  1  0.29400000  0.79890000  0.21151000  1.0 -0.5352673113
O  O283  1  0.25480000  0.81530000  0.08333000  1.0 -0.1121143713
O  O284  1  0.23810000  0.91900000  0.19260000  1.0 -0.0506265764
O  O285  1  0.24560000  0.84240000  0.10800000  1.0 -0.2350389838
O  O286  1  0.23870000  0.90340000  0.17800000  1.0 -0.2019550576
O  O287  1  0.31820000  0.76860000  0.08070000  1.0 -0.2498196914
O  O288  1  0.43160000  0.76130000  0.20530000  1.0 -0.3354944765
O  O289  1  0.29380000  0.70620000  0.29380000  1.0 -0.5809357643
O  O290  1  0.30900000  0.69100000  0.30900000  1.0 -0.5326458077
O  O291  1  0.70620000  0.29380000  0.29380000  1.0 -0.5809357643
O  O292  1  0.69100000  0.30900000  0.30900000  1.0 -0.5326458077
O  O293  1  0.70620000  0.70620000  0.70620000  1.0 -0.5809357643
O  O294  1  0.69100000  0.69100000  0.69100000  1.0 -0.5326458077
O  O295  1  0.29380000  0.29380000  0.70620000  1.0 -0.5809357643
O  O296  1  0.30900000  0.30900000  0.69100000  1.0 -0.5326458077
O  O297  1  0.20620000  0.79380000  0.20620000  1.0 -0.5809357643
O  O298  1  0.19100000  0.80900000  0.19100000  1.0 -0.5326458077
O  O299  1  0.79380000  0.20620000  0.20620000  1.0 -0.5809357643
O  O300  1  0.80900000  0.19100000  0.19100000  1.0 -0.5326458077
O  O301  1  0.79380000  0.79380000  0.79380000  1.0 -0.5809357643
O  O302  1  0.80900000  0.80900000  0.80900000  1.0 -0.5326458077
O  O303  1  0.20620000  0.20620000  0.79380000  1.0 -0.5809357643
O  O304  1  0.19100000  0.19100000  0.80900000  1.0 -0.5326458077
