# DDEC6 charges by PACMAN v1.1 (https://github.com/mtap-research/PACMAN-charge/)
data_XAPGED_ASR_pacman
_symmetry_space_group_name_H-M   'P 1'
_cell_length_a   27.00830000
_cell_length_b   27.01210000
_cell_length_c   27.81610000
_cell_angle_alpha   90.00000000
_cell_angle_beta   90.00000000
_cell_angle_gamma   90.00000000
_symmetry_Int_Tables_number   1
_chemical_formula_structural   Zn4Mo12PH3C9O34
_chemical_formula_sum   'Zn32 Mo96 P8 H24 C72 O272'
_cell_volume   20293.26080145
_cell_formula_units_Z   8
loop_
 _symmetry_equiv_pos_site_id
 _symmetry_equiv_pos_as_xyz
  1  'x, y, z'
loop_
 _atom_site_type_symbol
 _atom_site_label
 _atom_site_symmetry_multiplicity
 _atom_site_fract_x
 _atom_site_fract_y
 _atom_site_fract_z
 _atom_site_occupancy
 _atom_site_charge
Zn  Zn1  1  0.99472000  0.55948000  0.02701000  1.0 1.0161745093
Zn  Zn2  1  0.50528000  0.44052000  0.52701000  1.0 1.0093099992
Zn  Zn3  1  0.00528000  0.05948000  0.47299000  1.0 1.0093099992
Zn  Zn4  1  0.49472000  0.94052000  0.97299000  1.0 1.0161745093
Zn  Zn5  1  0.00528000  0.44052000  0.97299000  1.0 1.0093099992
Zn  Zn6  1  0.49472000  0.55948000  0.47299000  1.0 1.0161745093
Zn  Zn7  1  0.99472000  0.94052000  0.52701000  1.0 1.0161745093
Zn  Zn8  1  0.50528000  0.05948000  0.02701000  1.0 1.0093099992
Zn  Zn9  1  0.85263000  0.71709000  0.07045000  1.0 1.0093099992
Zn  Zn10  1  0.64737000  0.28291000  0.57045000  1.0 1.0093099992
Zn  Zn11  1  0.14737000  0.21709000  0.42955000  1.0 1.0093099992
Zn  Zn12  1  0.35263000  0.78291000  0.92955000  1.0 1.0093099992
Zn  Zn13  1  0.14737000  0.28291000  0.92955000  1.0 1.0093099992
Zn  Zn14  1  0.35263000  0.71709000  0.42955000  1.0 1.0093099992
Zn  Zn15  1  0.85263000  0.78291000  0.57045000  1.0 1.0093099992
Zn  Zn16  1  0.64737000  0.21709000  0.07045000  1.0 1.0093099992
Zn  Zn17  1  0.82163000  0.59015000  0.88677000  1.0 1.0035591465
Zn  Zn18  1  0.67837000  0.40985000  0.38677000  1.0 1.0035591465
Zn  Zn19  1  0.17837000  0.09015000  0.61323000  1.0 1.0093099992
Zn  Zn20  1  0.32163000  0.90985000  0.11323000  1.0 1.0093099992
Zn  Zn21  1  0.17837000  0.40985000  0.11323000  1.0 1.0093099992
Zn  Zn22  1  0.32163000  0.59015000  0.61323000  1.0 1.0093099992
Zn  Zn23  1  0.82163000  0.90985000  0.38677000  1.0 1.0093099992
Zn  Zn24  1  0.67837000  0.09015000  0.88677000  1.0 1.0035591465
Zn  Zn25  1  0.77900000  0.50155000  0.06999000  1.0 1.0035591465
Zn  Zn26  1  0.72100000  0.49845000  0.56999000  1.0 1.0093099992
Zn  Zn27  1  0.22100000  0.00155000  0.43001000  1.0 1.0035591465
Zn  Zn28  1  0.27900000  0.99845000  0.93001000  1.0 1.0035591465
Zn  Zn29  1  0.22100000  0.49845000  0.93001000  1.0 1.0035591465
Zn  Zn30  1  0.27900000  0.50155000  0.43001000  1.0 1.0035591465
Zn  Zn31  1  0.77900000  0.99845000  0.56999000  1.0 1.0035591465
Zn  Zn32  1  0.72100000  0.00155000  0.06999000  1.0 1.0093099992
Mo  Mo1  1  0.89929000  0.46297000  0.03322000  1.0 1.708544345
Mo  Mo2  1  0.60071000  0.53703000  0.53322000  1.0 1.708544345
Mo  Mo3  1  0.10071000  0.96297000  0.46678000  1.0 1.708544345
Mo  Mo4  1  0.39929000  0.03703000  0.96678000  1.0 1.708544345
Mo  Mo5  1  0.10071000  0.53703000  0.96678000  1.0 1.708544345
Mo  Mo6  1  0.39929000  0.46297000  0.46678000  1.0 1.708544345
Mo  Mo7  1  0.89929000  0.03703000  0.53322000  1.0 1.7038741848
Mo  Mo8  1  0.60071000  0.96297000  0.03322000  1.0 1.708544345
Mo  Mo9  1  0.90681000  0.51417000  0.11279000  1.0 1.8598752758
Mo  Mo10  1  0.59319000  0.48583000  0.61279000  1.0 1.8598752758
Mo  Mo11  1  0.09319000  0.01417000  0.38721000  1.0 1.8598752758
Mo  Mo12  1  0.40681000  0.98583000  0.88721000  1.0 1.8598752758
Mo  Mo13  1  0.09319000  0.48583000  0.88721000  1.0 1.8503060482
Mo  Mo14  1  0.40681000  0.51417000  0.38721000  1.0 1.8598752758
Mo  Mo15  1  0.90681000  0.98583000  0.61279000  1.0 1.8598752758
Mo  Mo16  1  0.59319000  0.01417000  0.11279000  1.0 1.8598752758
Mo  Mo17  1  0.94048000  0.63620000  0.11562000  1.0 2.069546334
Mo  Mo18  1  0.55952000  0.36380000  0.61562000  1.0 2.069546334
Mo  Mo19  1  0.05952000  0.13620000  0.38438000  1.0 2.069546334
Mo  Mo20  1  0.44048000  0.86380000  0.88438000  1.0 2.069546334
Mo  Mo21  1  0.05952000  0.36380000  0.88438000  1.0 2.069546334
Mo  Mo22  1  0.44048000  0.63620000  0.38438000  1.0 2.069546334
Mo  Mo23  1  0.94048000  0.86380000  0.61562000  1.0 2.069546334
Mo  Mo24  1  0.55952000  0.13620000  0.11562000  1.0 2.069546334
Mo  Mo25  1  0.96458000  0.68576000  0.01460000  1.0 2.0640396617
Mo  Mo26  1  0.53542000  0.31424000  0.51460000  1.0 2.069546334
Mo  Mo27  1  0.03542000  0.18576000  0.48540000  1.0 2.069546334
Mo  Mo28  1  0.46458000  0.81424000  0.98540000  1.0 2.069546334
Mo  Mo29  1  0.03542000  0.31424000  0.98540000  1.0 2.069546334
Mo  Mo30  1  0.46458000  0.68576000  0.48540000  1.0 2.0640396617
Mo  Mo31  1  0.96458000  0.81424000  0.51460000  1.0 2.0640396617
Mo  Mo32  1  0.53542000  0.18576000  0.01460000  1.0 2.0640396617
Mo  Mo33  1  0.95315000  0.61027000  0.91561000  1.0 1.8598752758
Mo  Mo34  1  0.54685000  0.38973000  0.41561000  1.0 1.8503060482
Mo  Mo35  1  0.04685000  0.11027000  0.58439000  1.0 1.8503060482
Mo  Mo36  1  0.45315000  0.88973000  0.08439000  1.0 1.8692157741
Mo  Mo37  1  0.04685000  0.38973000  0.08439000  1.0 1.8503060482
Mo  Mo38  1  0.45315000  0.61027000  0.58439000  1.0 1.8598752758
Mo  Mo39  1  0.95315000  0.88973000  0.41561000  1.0 1.8598752758
Mo  Mo40  1  0.54685000  0.11027000  0.91561000  1.0 1.8503060482
Mo  Mo41  1  0.92551000  0.51719000  0.92096000  1.0 1.6677339814
Mo  Mo42  1  0.57449000  0.48281000  0.42096000  1.0 1.6594964407
Mo  Mo43  1  0.07449000  0.01719000  0.57904000  1.0 1.6677339814
Mo  Mo44  1  0.42551000  0.98281000  0.07904000  1.0 1.6677339814
Mo  Mo45  1  0.07449000  0.48281000  0.07904000  1.0 1.6677339814
Mo  Mo46  1  0.42551000  0.51719000  0.57904000  1.0 1.6677339814
Mo  Mo47  1  0.92551000  0.98281000  0.42096000  1.0 1.6677339814
Mo  Mo48  1  0.57449000  0.01719000  0.92096000  1.0 1.6594964407
Mo  Mo49  1  0.80707000  0.48015000  0.94905000  1.0 2.1013199232
Mo  Mo50  1  0.69293000  0.51985000  0.44905000  1.0 2.1013199232
Mo  Mo51  1  0.19293000  0.98015000  0.55095000  1.0 2.1013199232
Mo  Mo52  1  0.30707000  0.01985000  0.05095000  1.0 2.1013199232
Mo  Mo53  1  0.19293000  0.51985000  0.05095000  1.0 2.1013199232
Mo  Mo54  1  0.30707000  0.48015000  0.55095000  1.0 2.1013199232
Mo  Mo55  1  0.80707000  0.01985000  0.44905000  1.0 2.1013199232
Mo  Mo56  1  0.69293000  0.98015000  0.94905000  1.0 2.1013199232
Mo  Mo57  1  0.72891000  0.56581000  0.97266000  1.0 2.069546334
Mo  Mo58  1  0.77109000  0.43419000  0.47266000  1.0 2.069546334
Mo  Mo59  1  0.27109000  0.06581000  0.52734000  1.0 2.0751591465
Mo  Mo60  1  0.22891000  0.93419000  0.02734000  1.0 2.069546334
Mo  Mo61  1  0.27109000  0.43419000  0.02734000  1.0 2.069546334
Mo  Mo62  1  0.22891000  0.56581000  0.52734000  1.0 2.069546334
Mo  Mo63  1  0.72891000  0.93419000  0.47266000  1.0 2.069546334
Mo  Mo64  1  0.77109000  0.06581000  0.97266000  1.0 2.069546334
Mo  Mo65  1  0.77465000  0.68350000  0.96488000  1.0 1.8383473724
Mo  Mo66  1  0.72535000  0.31650000  0.46488000  1.0 1.8383473724
Mo  Mo67  1  0.22535000  0.18350000  0.53512000  1.0 1.8383473724
Mo  Mo68  1  0.27465000  0.81650000  0.03512000  1.0 1.8383473724
Mo  Mo69  1  0.22535000  0.31650000  0.03512000  1.0 1.8383473724
Mo  Mo70  1  0.27465000  0.68350000  0.53512000  1.0 1.8383473724
Mo  Mo71  1  0.77465000  0.81650000  0.46488000  1.0 1.8383473724
Mo  Mo72  1  0.72535000  0.18350000  0.96488000  1.0 1.8383473724
Mo  Mo73  1  0.86491000  0.70681000  0.94220000  1.0 1.8383473724
Mo  Mo74  1  0.63509000  0.29319000  0.44220000  1.0 1.8383473724
Mo  Mo75  1  0.13509000  0.20681000  0.55780000  1.0 1.8328473709
Mo  Mo76  1  0.36491000  0.79319000  0.05780000  1.0 1.8383473724
Mo  Mo77  1  0.13509000  0.29319000  0.05780000  1.0 1.8328473709
Mo  Mo78  1  0.36491000  0.70681000  0.55780000  1.0 1.8383473724
Mo  Mo79  1  0.86491000  0.79319000  0.44220000  1.0 1.8383473724
Mo  Mo80  1  0.63509000  0.20681000  0.94220000  1.0 1.8383473724
Mo  Mo81  1  0.74618000  0.62938000  0.07855000  1.0 1.8692157741
Mo  Mo82  1  0.75382000  0.37062000  0.57855000  1.0 1.8692157741
Mo  Mo83  1  0.25382000  0.12938000  0.42145000  1.0 1.8598752758
Mo  Mo84  1  0.24618000  0.87062000  0.92145000  1.0 1.8598752758
Mo  Mo85  1  0.25382000  0.37062000  0.92145000  1.0 1.8503060482
Mo  Mo86  1  0.24618000  0.62938000  0.42145000  1.0 1.8598752758
Mo  Mo87  1  0.74618000  0.87062000  0.57855000  1.0 1.8692157741
Mo  Mo88  1  0.75382000  0.12938000  0.07855000  1.0 1.8692157741
Mo  Mo89  1  0.81831000  0.61074000  0.13788000  1.0 1.8692157741
Mo  Mo90  1  0.68169000  0.38926000  0.63788000  1.0 1.8692157741
Mo  Mo91  1  0.18169000  0.11074000  0.36212000  1.0 1.8598752758
Mo  Mo92  1  0.31831000  0.88926000  0.86212000  1.0 1.8598752758
Mo  Mo93  1  0.18169000  0.38926000  0.86212000  1.0 1.8598752758
Mo  Mo94  1  0.31831000  0.61074000  0.36212000  1.0 1.8598752758
Mo  Mo95  1  0.81831000  0.88926000  0.63788000  1.0 1.8692157741
Mo  Mo96  1  0.68169000  0.11074000  0.13788000  1.0 1.8692157741
P  P1  1  0.86016000  0.59267000  0.01300000  1.0 1.4075612566
P  P2  1  0.63984000  0.40733000  0.51300000  1.0 1.4075612566
P  P3  1  0.13984000  0.09267000  0.48700000  1.0 1.4075612566
P  P4  1  0.36016000  0.90733000  0.98700000  1.0 1.4040500662
P  P5  1  0.13984000  0.40733000  0.98700000  1.0 1.4075612566
P  P6  1  0.36016000  0.59267000  0.48700000  1.0 1.4040500662
P  P7  1  0.86016000  0.90733000  0.51300000  1.0 1.4075612566
P  P8  1  0.63984000  0.09267000  0.01300000  1.0 1.4040500662
H  H1  1  0.69830000  0.36790000  0.10920000  1.0 0.1015143731
H  H2  1  0.80170000  0.63210000  0.60920000  1.0 0.1015143731
H  H3  1  0.30170000  0.86790000  0.39080000  1.0 0.1015143731
H  H4  1  0.19830000  0.13210000  0.89080000  1.0 0.1015143731
H  H5  1  0.30170000  0.63210000  0.89080000  1.0 0.1015143731
H  H6  1  0.19830000  0.36790000  0.39080000  1.0 0.1015143731
H  H7  1  0.69830000  0.13210000  0.60920000  1.0 0.1015143731
H  H8  1  0.80170000  0.86790000  0.10920000  1.0 0.1015143731
H  H9  1  0.62960000  0.31730000  0.22870000  1.0 0.0928546182
H  H10  1  0.87040000  0.68270000  0.72870000  1.0 0.0928546182
H  H11  1  0.37040000  0.81730000  0.27130000  1.0 0.0928546182
H  H12  1  0.12960000  0.18270000  0.77130000  1.0 0.0928546182
H  H13  1  0.37040000  0.68270000  0.77130000  1.0 0.0928546182
H  H14  1  0.12960000  0.31730000  0.27130000  1.0 0.0928546182
H  H15  1  0.62960000  0.18270000  0.72870000  1.0 0.0928546182
H  H16  1  0.87040000  0.81730000  0.22870000  1.0 0.0928546182
H  H17  1  0.72440000  0.43320000  0.23800000  1.0 0.1015143731
H  H18  1  0.77560000  0.56680000  0.73800000  1.0 0.1015143731
H  H19  1  0.27560000  0.93320000  0.26200000  1.0 0.1015143731
H  H20  1  0.22440000  0.06680000  0.76200000  1.0 0.1015143731
H  H21  1  0.27560000  0.56680000  0.76200000  1.0 0.1015143731
H  H22  1  0.22440000  0.43320000  0.26200000  1.0 0.1015143731
H  H23  1  0.72440000  0.06680000  0.73800000  1.0 0.1015143731
H  H24  1  0.77560000  0.93320000  0.23800000  1.0 0.1015143731
C  C1  1  0.71448000  0.40776000  0.16952000  1.0 -0.0617030273
C  C2  1  0.78552000  0.59224000  0.66952000  1.0 -0.0701748176
C  C3  1  0.28552000  0.90776000  0.33048000  1.0 -0.0701748176
C  C4  1  0.21448000  0.09224000  0.83048000  1.0 -0.0701748176
C  C5  1  0.28552000  0.59224000  0.83048000  1.0 -0.0617030273
C  C6  1  0.21448000  0.40776000  0.33048000  1.0 -0.0701748176
C  C7  1  0.71448000  0.09224000  0.66952000  1.0 -0.0617030273
C  C8  1  0.78552000  0.90776000  0.16952000  1.0 -0.0701748176
C  C9  1  0.69261000  0.36982000  0.14281000  1.0 -0.11957699
C  C10  1  0.80739000  0.63018000  0.64281000  1.0 -0.11957699
C  C11  1  0.30739000  0.86982000  0.35719000  1.0 -0.11957699
C  C12  1  0.19261000  0.13018000  0.85719000  1.0 -0.11957699
C  C13  1  0.30739000  0.63018000  0.85719000  1.0 -0.11957699
C  C14  1  0.19261000  0.36982000  0.35719000  1.0 -0.11957699
C  C15  1  0.69261000  0.13018000  0.64281000  1.0 -0.11957699
C  C16  1  0.80739000  0.86982000  0.14281000  1.0 -0.11957699
C  C17  1  0.66260000  0.33487000  0.16500000  1.0 -0.0617030273
C  C18  1  0.83740000  0.66513000  0.66500000  1.0 -0.0617030273
C  C19  1  0.33740000  0.83487000  0.33500000  1.0 -0.0617030273
C  C20  1  0.16260000  0.16513000  0.83500000  1.0 -0.0617030273
C  C21  1  0.33740000  0.66513000  0.83500000  1.0 -0.0617030273
C  C22  1  0.16260000  0.33487000  0.33500000  1.0 -0.0617030273
C  C23  1  0.66260000  0.16513000  0.66500000  1.0 -0.0617030273
C  C24  1  0.83740000  0.83487000  0.16500000  1.0 -0.0617030273
C  C25  1  0.65244000  0.33930000  0.21394000  1.0 -0.1096786211
C  C26  1  0.84756000  0.66070000  0.71394000  1.0 -0.1096786211
C  C27  1  0.34756000  0.83930000  0.28606000  1.0 -0.1096786211
C  C28  1  0.15244000  0.16070000  0.78606000  1.0 -0.1096786211
C  C29  1  0.34756000  0.66070000  0.78606000  1.0 -0.1096786211
C  C30  1  0.15244000  0.33930000  0.28606000  1.0 -0.1096786211
C  C31  1  0.65244000  0.16070000  0.71394000  1.0 -0.1096786211
C  C32  1  0.84756000  0.83930000  0.21394000  1.0 -0.1096786211
C  C33  1  0.67560000  0.37591000  0.24146000  1.0 -0.0701748176
C  C34  1  0.82440000  0.62409000  0.74146000  1.0 -0.0701748176
C  C35  1  0.32440000  0.87591000  0.25854000  1.0 -0.0701748176
C  C36  1  0.17560000  0.12409000  0.75854000  1.0 -0.0701748176
C  C37  1  0.32440000  0.62409000  0.75854000  1.0 -0.0701748176
C  C38  1  0.17560000  0.37591000  0.25854000  1.0 -0.0701748176
C  C39  1  0.67560000  0.12409000  0.74146000  1.0 -0.0701748176
C  C40  1  0.82440000  0.87591000  0.24146000  1.0 -0.0701748176
C  C41  1  0.70738000  0.40924000  0.21923000  1.0 -0.11957699
C  C42  1  0.79262000  0.59076000  0.71923000  1.0 -0.1096786211
C  C43  1  0.29262000  0.90924000  0.28077000  1.0 -0.1096786211
C  C44  1  0.20738000  0.09076000  0.78077000  1.0 -0.1096786211
C  C45  1  0.29262000  0.59076000  0.78077000  1.0 -0.1096786211
C  C46  1  0.20738000  0.40924000  0.28077000  1.0 -0.1096786211
C  C47  1  0.70738000  0.09076000  0.71923000  1.0 -0.11957699
C  C48  1  0.79262000  0.90924000  0.21923000  1.0 -0.1096786211
C  C49  1  0.74561000  0.44665000  0.14537000  1.0 0.4999398395
C  C50  1  0.75439000  0.55335000  0.64537000  1.0 0.4999398395
C  C51  1  0.25439000  0.94665000  0.35463000  1.0 0.4999398395
C  C52  1  0.24561000  0.05335000  0.85463000  1.0 0.4999398395
C  C53  1  0.25439000  0.55335000  0.85463000  1.0 0.4999398395
C  C54  1  0.24561000  0.44665000  0.35463000  1.0 0.4999398395
C  C55  1  0.74561000  0.05335000  0.64537000  1.0 0.4999398395
C  C56  1  0.75439000  0.94665000  0.14537000  1.0 0.4999398395
C  C57  1  0.64110000  0.29164000  0.13797000  1.0 0.4999398395
C  C58  1  0.85890000  0.70836000  0.63797000  1.0 0.4999398395
C  C59  1  0.35890000  0.79164000  0.36203000  1.0 0.4999398395
C  C60  1  0.14110000  0.20836000  0.86203000  1.0 0.4999398395
C  C61  1  0.35890000  0.70836000  0.86203000  1.0 0.4999398395
C  C62  1  0.14110000  0.29164000  0.36203000  1.0 0.4999398395
C  C63  1  0.64110000  0.20836000  0.63797000  1.0 0.4999398395
C  C64  1  0.85890000  0.79164000  0.13797000  1.0 0.4999398395
C  C65  1  0.66571000  0.37797000  0.29459000  1.0 0.5123289667
C  C66  1  0.83429000  0.62203000  0.79459000  1.0 0.5123289667
C  C67  1  0.33429000  0.87797000  0.20541000  1.0 0.5150109074
C  C68  1  0.16571000  0.12203000  0.70541000  1.0 0.5123289667
C  C69  1  0.33429000  0.62203000  0.70541000  1.0 0.5150109074
C  C70  1  0.16571000  0.37797000  0.20541000  1.0 0.5123289667
C  C71  1  0.66571000  0.12203000  0.79459000  1.0 0.5123289667
C  C72  1  0.83429000  0.87797000  0.29459000  1.0 0.5123289667
O  O1  1  0.74160000  0.44790000  0.09892000  1.0 -0.5482876851
O  O2  1  0.75840000  0.55210000  0.59892000  1.0 -0.5565050103
O  O3  1  0.25840000  0.94790000  0.40108000  1.0 -0.5482876851
O  O4  1  0.24160000  0.05210000  0.90108000  1.0 -0.5482876851
O  O5  1  0.25840000  0.55210000  0.90108000  1.0 -0.5482876851
O  O6  1  0.24160000  0.44790000  0.40108000  1.0 -0.5482876851
O  O7  1  0.74160000  0.05210000  0.59892000  1.0 -0.5482876851
O  O8  1  0.75840000  0.94790000  0.09892000  1.0 -0.5565050103
O  O9  1  0.77196000  0.47477000  0.16884000  1.0 -0.4813673043
O  O10  1  0.72804000  0.52523000  0.66884000  1.0 -0.4813673043
O  O11  1  0.22804000  0.97477000  0.33116000  1.0 -0.4813673043
O  O12  1  0.27196000  0.02523000  0.83116000  1.0 -0.4813673043
O  O13  1  0.22804000  0.52523000  0.83116000  1.0 -0.4813673043
O  O14  1  0.27196000  0.47477000  0.33116000  1.0 -0.4813673043
O  O15  1  0.77196000  0.02523000  0.66884000  1.0 -0.4813673043
O  O16  1  0.72804000  0.97477000  0.16884000  1.0 -0.4813673043
O  O17  1  0.66383000  0.28068000  0.09811000  1.0 -0.54414557
O  O18  1  0.83617000  0.71932000  0.59811000  1.0 -0.5482876851
O  O19  1  0.33617000  0.78068000  0.40189000  1.0 -0.54414557
O  O20  1  0.16383000  0.21932000  0.90189000  1.0 -0.5482876851
O  O21  1  0.33617000  0.71932000  0.90189000  1.0 -0.5482876851
O  O22  1  0.16383000  0.28068000  0.40189000  1.0 -0.5482876851
O  O23  1  0.66383000  0.21932000  0.59811000  1.0 -0.5482876851
O  O24  1  0.83617000  0.78068000  0.09811000  1.0 -0.5482876851
O  O25  1  0.60648000  0.26861000  0.15380000  1.0 -0.4697510385
O  O26  1  0.89352000  0.73139000  0.65380000  1.0 -0.4813673043
O  O27  1  0.39352000  0.76861000  0.34620000  1.0 -0.4813673043
O  O28  1  0.10648000  0.23139000  0.84620000  1.0 -0.4697510385
O  O29  1  0.39352000  0.73139000  0.84620000  1.0 -0.4813673043
O  O30  1  0.10648000  0.26861000  0.34620000  1.0 -0.4697510385
O  O31  1  0.60648000  0.23139000  0.65380000  1.0 -0.4697510385
O  O32  1  0.89352000  0.76861000  0.15380000  1.0 -0.4813673043
O  O33  1  0.69330000  0.40755000  0.31863000  1.0 -0.5482876851
O  O34  1  0.80670000  0.59245000  0.81863000  1.0 -0.5482876851
O  O35  1  0.30670000  0.90755000  0.18137000  1.0 -0.54414557
O  O36  1  0.19330000  0.09245000  0.68137000  1.0 -0.5482876851
O  O37  1  0.30670000  0.59245000  0.68137000  1.0 -0.5482876851
O  O38  1  0.19330000  0.40755000  0.18137000  1.0 -0.5482876851
O  O39  1  0.69330000  0.09245000  0.81863000  1.0 -0.5482876851
O  O40  1  0.80670000  0.90755000  0.31863000  1.0 -0.5482876851
O  O41  1  0.63278000  0.35121000  0.31180000  1.0 -0.4813673043
O  O42  1  0.86722000  0.64879000  0.81180000  1.0 -0.4813673043
O  O43  1  0.36722000  0.85121000  0.18820000  1.0 -0.4813673043
O  O44  1  0.13278000  0.14879000  0.68820000  1.0 -0.4813673043
O  O45  1  0.36722000  0.64879000  0.68820000  1.0 -0.4813673043
O  O46  1  0.13278000  0.35121000  0.18820000  1.0 -0.4813673043
O  O47  1  0.63278000  0.14879000  0.81180000  1.0 -0.4813673043
O  O48  1  0.86722000  0.85121000  0.31180000  1.0 -0.4813673043
O  O49  1  0.94834000  0.51124000  0.05515000  1.0 -0.9405271042
O  O50  1  0.55166000  0.48876000  0.55515000  1.0 -0.9405271042
O  O51  1  0.05166000  0.01124000  0.44485000  1.0 -0.9405271042
O  O52  1  0.44834000  0.98876000  0.94485000  1.0 -0.9405271042
O  O53  1  0.05166000  0.48876000  0.94485000  1.0 -0.9405271042
O  O54  1  0.44834000  0.51124000  0.44485000  1.0 -0.9405271042
O  O55  1  0.94834000  0.98876000  0.55515000  1.0 -0.9405271042
O  O56  1  0.55166000  0.01124000  0.05515000  1.0 -0.9405271042
O  O57  1  0.84957000  0.48574000  0.07966000  1.0 -0.9405271042
O  O58  1  0.65043000  0.51426000  0.57966000  1.0 -0.9405271042
O  O59  1  0.15043000  0.98574000  0.42034000  1.0 -0.9405271042
O  O60  1  0.34957000  0.01426000  0.92034000  1.0 -0.9405271042
O  O61  1  0.15043000  0.51426000  0.92034000  1.0 -0.9405271042
O  O62  1  0.34957000  0.48574000  0.42034000  1.0 -0.9405271042
O  O63  1  0.84957000  0.01426000  0.57966000  1.0 -0.9405271042
O  O64  1  0.65043000  0.98574000  0.07966000  1.0 -0.9405271042
O  O65  1  0.93663000  0.46405000  0.97068000  1.0 -0.9801884823
O  O66  1  0.56337000  0.53595000  0.47068000  1.0 -0.9801884823
O  O67  1  0.06337000  0.96405000  0.52932000  1.0 -0.9801884823
O  O68  1  0.43663000  0.03595000  0.02932000  1.0 -0.9801884823
O  O69  1  0.06337000  0.53595000  0.02932000  1.0 -0.9801884823
O  O70  1  0.43663000  0.46405000  0.52932000  1.0 -0.9801884823
O  O71  1  0.93663000  0.03595000  0.47068000  1.0 -0.9801884823
O  O72  1  0.56337000  0.96405000  0.97068000  1.0 -0.9801884823
O  O73  1  0.83867000  0.44340000  0.99500000  1.0 -0.8999455755
O  O74  1  0.66133000  0.55660000  0.49500000  1.0 -0.8901588995
O  O75  1  0.16133000  0.94340000  0.50500000  1.0 -0.8901588995
O  O76  1  0.33867000  0.05660000  0.00500000  1.0 -0.8901588995
O  O77  1  0.16133000  0.55660000  0.00500000  1.0 -0.8901588995
O  O78  1  0.33867000  0.44340000  0.50500000  1.0 -0.8901588995
O  O79  1  0.83867000  0.05660000  0.49500000  1.0 -0.8901588995
O  O80  1  0.66133000  0.94340000  0.99500000  1.0 -0.8901588995
O  O81  1  0.86764000  0.54057000  0.99059000  1.0 -0.8901588995
O  O82  1  0.63236000  0.45943000  0.49059000  1.0 -0.8901588995
O  O83  1  0.13236000  0.04057000  0.50941000  1.0 -0.8901588995
O  O84  1  0.36764000  0.95943000  0.00941000  1.0 -0.8901588995
O  O85  1  0.13236000  0.45943000  0.00941000  1.0 -0.8901588995
O  O86  1  0.36764000  0.54057000  0.50941000  1.0 -0.8901588995
O  O87  1  0.86764000  0.95943000  0.49059000  1.0 -0.8901588995
O  O88  1  0.63236000  0.04057000  0.99059000  1.0 -0.8901588995
O  O89  1  0.94930000  0.57137000  0.13083000  1.0 -0.8816609019
O  O90  1  0.55070000  0.42863000  0.63083000  1.0 -0.8816609019
O  O91  1  0.05070000  0.07137000  0.36917000  1.0 -0.8816609019
O  O92  1  0.44930000  0.92863000  0.86917000  1.0 -0.8816609019
O  O93  1  0.05070000  0.42863000  0.86917000  1.0 -0.8816609019
O  O94  1  0.44930000  0.57137000  0.36917000  1.0 -0.8816609019
O  O95  1  0.94930000  0.92863000  0.63083000  1.0 -0.8816609019
O  O96  1  0.55070000  0.07137000  0.13083000  1.0 -0.8816609019
O  O97  1  0.85275000  0.54499000  0.15683000  1.0 -0.9958899097
O  O98  1  0.64725000  0.45501000  0.65683000  1.0 -0.9958899097
O  O99  1  0.14725000  0.04499000  0.34317000  1.0 -0.9958899097
O  O100  1  0.35275000  0.95501000  0.84317000  1.0 -0.9958899097
O  O101  1  0.14725000  0.45501000  0.84317000  1.0 -0.9958899097
O  O102  1  0.35275000  0.54499000  0.34317000  1.0 -0.9958899097
O  O103  1  0.85275000  0.95501000  0.65683000  1.0 -0.9958899097
O  O104  1  0.64725000  0.04499000  0.15683000  1.0 -0.9958899097
O  O105  1  0.87357000  0.59022000  0.06739000  1.0 -0.8999455755
O  O106  1  0.62643000  0.40978000  0.56739000  1.0 -0.8999455755
O  O107  1  0.12643000  0.09022000  0.43261000  1.0 -0.8901588995
O  O108  1  0.37357000  0.90978000  0.93261000  1.0 -0.8999455755
O  O109  1  0.12643000  0.40978000  0.93261000  1.0 -0.8901588995
O  O110  1  0.37357000  0.59022000  0.43261000  1.0 -0.8999455755
O  O111  1  0.87357000  0.90978000  0.56739000  1.0 -0.8999455755
O  O112  1  0.62643000  0.09022000  0.06739000  1.0 -0.8999455755
O  O113  1  0.88292000  0.64416000  0.14953000  1.0 -0.8999455755
O  O114  1  0.61708000  0.35584000  0.64953000  1.0 -0.8901588995
O  O115  1  0.11708000  0.14416000  0.35047000  1.0 -0.8999455755
O  O116  1  0.38292000  0.85584000  0.85047000  1.0 -0.8999455755
O  O117  1  0.11708000  0.35584000  0.85047000  1.0 -0.8999455755
O  O118  1  0.38292000  0.64416000  0.35047000  1.0 -0.8999455755
O  O119  1  0.88292000  0.85584000  0.64953000  1.0 -0.8999455755
O  O120  1  0.61708000  0.14416000  0.14953000  1.0 -0.8901588995
O  O121  1  0.91844000  0.68920000  0.07038000  1.0 -1.0311014809
O  O122  1  0.58156000  0.31080000  0.57038000  1.0 -1.0311014809
O  O123  1  0.08156000  0.18920000  0.42962000  1.0 -1.0311014809
O  O124  1  0.41844000  0.81080000  0.92962000  1.0 -1.0311014809
O  O125  1  0.08156000  0.31080000  0.92962000  1.0 -1.0311014809
O  O126  1  0.41844000  0.68920000  0.42962000  1.0 -1.0311014809
O  O127  1  0.91844000  0.81080000  0.57038000  1.0 -1.0311014809
O  O128  1  0.58156000  0.18920000  0.07038000  1.0 -1.0311014809
O  O129  1  0.97719000  0.62426000  0.05374000  1.0 -1.0487414827
O  O130  1  0.52281000  0.37574000  0.55374000  1.0 -1.0435746569
O  O131  1  0.02281000  0.12426000  0.44626000  1.0 -1.0487414827
O  O132  1  0.47719000  0.87574000  0.94626000  1.0 -1.0435746569
O  O133  1  0.02281000  0.37574000  0.94626000  1.0 -1.0487414827
O  O134  1  0.47719000  0.62426000  0.44626000  1.0 -1.0435746569
O  O135  1  0.97719000  0.87574000  0.55374000  1.0 -1.0487414827
O  O136  1  0.52281000  0.12426000  0.05374000  1.0 -1.0487414827
O  O137  1  0.98914000  0.65324000  0.96248000  1.0 -0.8999455755
O  O138  1  0.51086000  0.34676000  0.46248000  1.0 -0.8901588995
O  O139  1  0.01086000  0.15324000  0.53752000  1.0 -0.8999455755
O  O140  1  0.48914000  0.84676000  0.03752000  1.0 -0.8999455755
O  O141  1  0.01086000  0.34676000  0.03752000  1.0 -0.8999455755
O  O142  1  0.48914000  0.65324000  0.53752000  1.0 -0.8999455755
O  O143  1  0.98914000  0.84676000  0.46248000  1.0 -0.8901588995
O  O144  1  0.51086000  0.15324000  0.96248000  1.0 -0.8901588995
O  O145  1  0.92316000  0.72720000  0.98147000  1.0 -0.8999455755
O  O146  1  0.57684000  0.27280000  0.48147000  1.0 -0.8999455755
O  O147  1  0.07684000  0.22720000  0.51853000  1.0 -0.8999455755
O  O148  1  0.42316000  0.77280000  0.01853000  1.0 -0.8999455755
O  O149  1  0.07684000  0.27280000  0.01853000  1.0 -0.8999455755
O  O150  1  0.42316000  0.72720000  0.51853000  1.0 -0.8999455755
O  O151  1  0.92316000  0.77280000  0.48147000  1.0 -0.8999455755
O  O152  1  0.57684000  0.22720000  0.98147000  1.0 -0.8999455755
O  O153  1  0.89310000  0.63031000  0.98545000  1.0 -0.8999455755
O  O154  1  0.60690000  0.36969000  0.48545000  1.0 -0.8999455755
O  O155  1  0.10690000  0.13031000  0.51455000  1.0 -0.8999455755
O  O156  1  0.39310000  0.86969000  0.01455000  1.0 -0.8999455755
O  O157  1  0.10690000  0.36969000  0.01455000  1.0 -0.8999455755
O  O158  1  0.39310000  0.63031000  0.51455000  1.0 -0.8999455755
O  O159  1  0.89310000  0.86969000  0.48545000  1.0 -0.8999455755
O  O160  1  0.60690000  0.13031000  0.98545000  1.0 -0.8999455755
O  O161  1  0.97074000  0.55712000  0.96000000  1.0 -0.9337783017
O  O162  1  0.52926000  0.44288000  0.46000000  1.0 -0.9337783017
O  O163  1  0.02926000  0.05712000  0.54000000  1.0 -0.9337783017
O  O164  1  0.47074000  0.94288000  0.04000000  1.0 -0.9337783017
O  O165  1  0.02926000  0.44288000  0.04000000  1.0 -0.9337783017
O  O166  1  0.47074000  0.55712000  0.54000000  1.0 -0.9337783017
O  O167  1  0.97074000  0.94288000  0.46000000  1.0 -0.9337783017
O  O168  1  0.52926000  0.05712000  0.96000000  1.0 -0.9337783017
O  O169  1  0.89297000  0.57609000  0.89386000  1.0 -0.9476222662
O  O170  1  0.60703000  0.42391000  0.39386000  1.0 -0.9476222662
O  O171  1  0.10703000  0.07609000  0.60614000  1.0 -0.9476222662
O  O172  1  0.39297000  0.92391000  0.10614000  1.0 -0.9476222662
O  O173  1  0.10703000  0.42391000  0.10614000  1.0 -0.9476222662
O  O174  1  0.39297000  0.57609000  0.60614000  1.0 -0.9476222662
O  O175  1  0.89297000  0.92391000  0.39386000  1.0 -0.9476222662
O  O176  1  0.60703000  0.07609000  0.89386000  1.0 -0.9476222662
O  O177  1  0.91510000  0.67394000  0.89553000  1.0 -0.9958899097
O  O178  1  0.58490000  0.32606000  0.39553000  1.0 -0.9958899097
O  O179  1  0.08490000  0.17394000  0.60447000  1.0 -0.9942220309
O  O180  1  0.41510000  0.82606000  0.10447000  1.0 -0.9958899097
O  O181  1  0.08490000  0.32606000  0.10447000  1.0 -0.9958899097
O  O182  1  0.41510000  0.67394000  0.60447000  1.0 -0.9958899097
O  O183  1  0.91510000  0.82606000  0.39553000  1.0 -0.9958899097
O  O184  1  0.58490000  0.17394000  0.89553000  1.0 -0.9942220309
O  O185  1  0.85892000  0.48536000  0.90780000  1.0 -0.8901588995
O  O186  1  0.64108000  0.51464000  0.40780000  1.0 -0.8901588995
O  O187  1  0.14108000  0.98536000  0.59220000  1.0 -0.8901588995
O  O188  1  0.35892000  0.01464000  0.09220000  1.0 -0.8901588995
O  O189  1  0.14108000  0.51464000  0.09220000  1.0 -0.8901588995
O  O190  1  0.35892000  0.48536000  0.59220000  1.0 -0.8901588995
O  O191  1  0.85892000  0.01464000  0.40780000  1.0 -0.8901588995
O  O192  1  0.64108000  0.98536000  0.90780000  1.0 -0.8901588995
O  O193  1  0.76368000  0.50794000  0.00195000  1.0 -1.0487414827
O  O194  1  0.73632000  0.49206000  0.50195000  1.0 -1.0487414827
O  O195  1  0.23632000  0.00794000  0.49805000  1.0 -1.0487414827
O  O196  1  0.26368000  0.99206000  0.99805000  1.0 -1.0487414827
O  O197  1  0.23632000  0.49206000  0.99805000  1.0 -1.0487414827
O  O198  1  0.26368000  0.50794000  0.49805000  1.0 -1.0487414827
O  O199  1  0.76368000  0.99206000  0.50195000  1.0 -1.0487414827
O  O200  1  0.73632000  0.00794000  0.00195000  1.0 -1.0487414827
O  O201  1  0.78092000  0.54526000  0.92468000  1.0 -1.0487414827
O  O202  1  0.71908000  0.45474000  0.42468000  1.0 -1.0487414827
O  O203  1  0.21908000  0.04526000  0.57532000  1.0 -1.0487414827
O  O204  1  0.28092000  0.95474000  0.07532000  1.0 -1.0487414827
O  O205  1  0.21908000  0.45474000  0.07532000  1.0 -1.0487414827
O  O206  1  0.28092000  0.54526000  0.57532000  1.0 -1.0487414827
O  O207  1  0.78092000  0.95474000  0.42468000  1.0 -1.0487414827
O  O208  1  0.71908000  0.04526000  0.92468000  1.0 -1.0487414827
O  O209  1  0.73054000  0.62721000  0.94520000  1.0 -0.8999455755
O  O210  1  0.76946000  0.37279000  0.44520000  1.0 -0.8999455755
O  O211  1  0.26946000  0.12721000  0.55480000  1.0 -0.8999455755
O  O212  1  0.23054000  0.87279000  0.05480000  1.0 -0.9062653639
O  O213  1  0.26946000  0.37279000  0.05480000  1.0 -0.8999455755
O  O214  1  0.23054000  0.62721000  0.55480000  1.0 -0.8999455755
O  O215  1  0.73054000  0.87279000  0.44520000  1.0 -0.8999455755
O  O216  1  0.76946000  0.12721000  0.94520000  1.0 -0.8999455755
O  O217  1  0.70976000  0.58581000  0.03266000  1.0 -0.8999455755
O  O218  1  0.79024000  0.41419000  0.53266000  1.0 -0.8999455755
O  O219  1  0.29024000  0.08581000  0.46734000  1.0 -0.8999455755
O  O220  1  0.20976000  0.91419000  0.96734000  1.0 -0.8999455755
O  O221  1  0.29024000  0.41419000  0.96734000  1.0 -0.8999455755
O  O222  1  0.20976000  0.58581000  0.46734000  1.0 -0.8999455755
O  O223  1  0.70976000  0.91419000  0.53266000  1.0 -0.8999455755
O  O224  1  0.79024000  0.08581000  0.03266000  1.0 -0.8999455755
O  O225  1  0.80502000  0.61001000  0.00858000  1.0 -0.8999455755
O  O226  1  0.69498000  0.38999000  0.50858000  1.0 -0.8999455755
O  O227  1  0.19498000  0.11001000  0.49142000  1.0 -0.8999455755
O  O228  1  0.30502000  0.88999000  0.99142000  1.0 -0.8999455755
O  O229  1  0.19498000  0.38999000  0.99142000  1.0 -0.8999455755
O  O230  1  0.30502000  0.61001000  0.49142000  1.0 -0.8999455755
O  O231  1  0.80502000  0.88999000  0.50858000  1.0 -0.8999455755
O  O232  1  0.69498000  0.11001000  0.00858000  1.0 -0.8999455755
O  O233  1  0.81897000  0.65754000  0.91544000  1.0 -0.9476222662
O  O234  1  0.68103000  0.34246000  0.41544000  1.0 -0.9476222662
O  O235  1  0.18103000  0.15754000  0.58456000  1.0 -0.9405271042
O  O236  1  0.31897000  0.84246000  0.08456000  1.0 -0.9476222662
O  O237  1  0.18103000  0.34246000  0.08456000  1.0 -0.9405271042
O  O238  1  0.31897000  0.65754000  0.58456000  1.0 -0.9476222662
O  O239  1  0.81897000  0.84246000  0.41544000  1.0 -0.9476222662
O  O240  1  0.68103000  0.15754000  0.91544000  1.0 -0.9476222662
O  O241  1  0.82782000  0.71480000  0.00261000  1.0 -0.9476222662
O  O242  1  0.67218000  0.28520000  0.50261000  1.0 -0.9476222662
O  O243  1  0.17218000  0.21480000  0.49739000  1.0 -0.9476222662
O  O244  1  0.32782000  0.78520000  0.99739000  1.0 -0.9476222662
O  O245  1  0.17218000  0.28520000  0.99739000  1.0 -0.9476222662
O  O246  1  0.32782000  0.71480000  0.49739000  1.0 -0.9476222662
O  O247  1  0.82782000  0.78520000  0.50261000  1.0 -0.9476222662
O  O248  1  0.67218000  0.21480000  0.00261000  1.0 -0.9476222662
O  O249  1  0.73494000  0.68432000  0.02837000  1.0 -0.9958899097
O  O250  1  0.76506000  0.31568000  0.52837000  1.0 -0.9958899097
O  O251  1  0.26506000  0.18432000  0.47163000  1.0 -0.9958899097
O  O252  1  0.23494000  0.81568000  0.97163000  1.0 -0.9958899097
O  O253  1  0.26506000  0.31568000  0.97163000  1.0 -0.9958899097
O  O254  1  0.23494000  0.68432000  0.47163000  1.0 -0.9958899097
O  O255  1  0.73494000  0.81568000  0.52837000  1.0 -0.9958899097
O  O256  1  0.76506000  0.18432000  0.02837000  1.0 -0.9958899097
O  O257  1  0.77433000  0.56700000  0.10133000  1.0 -0.9405271042
O  O258  1  0.72567000  0.43300000  0.60133000  1.0 -0.9405271042
O  O259  1  0.22567000  0.06700000  0.39867000  1.0 -0.9405271042
O  O260  1  0.27433000  0.93300000  0.89867000  1.0 -0.9405271042
O  O261  1  0.22567000  0.43300000  0.89867000  1.0 -0.9405271042
O  O262  1  0.27433000  0.56700000  0.39867000  1.0 -0.9405271042
O  O263  1  0.77433000  0.93300000  0.60133000  1.0 -0.9405271042
O  O264  1  0.72567000  0.06700000  0.10133000  1.0 -0.9405271042
O  O265  1  0.80415000  0.66853000  0.09736000  1.0 -0.9405271042
O  O266  1  0.69585000  0.33147000  0.59736000  1.0 -0.9405271042
O  O267  1  0.19585000  0.16853000  0.40264000  1.0 -0.9405271042
O  O268  1  0.30415000  0.83147000  0.90264000  1.0 -0.9405271042
O  O269  1  0.19585000  0.33147000  0.90264000  1.0 -0.9405271042
O  O270  1  0.30415000  0.66853000  0.40264000  1.0 -0.9405271042
O  O271  1  0.80415000  0.83147000  0.59736000  1.0 -0.9405271042
O  O272  1  0.69585000  0.16853000  0.09736000  1.0 -0.9405271042
