# DDEC6 charges by PACMAN v1.1 (https://github.com/mtap-research/PACMAN-charge/)
data_XAPQUE_FSR_pacman
_symmetry_space_group_name_H-M   'P 1'
_cell_length_a   29.47200000
_cell_length_b   17.09300000
_cell_length_c   31.49300000
_cell_angle_alpha   90.00000000
_cell_angle_beta   118.82100000
_cell_angle_gamma   90.00000000
_symmetry_Int_Tables_number   1
_chemical_formula_structural   Co2H51C53N13O11
_chemical_formula_sum   'Co16 H408 C424 N104 O88'
_cell_volume   13899.86269397
_cell_formula_units_Z   8
loop_
 _symmetry_equiv_pos_site_id
 _symmetry_equiv_pos_as_xyz
  1  'x, y, z'
loop_
 _atom_site_type_symbol
 _atom_site_label
 _atom_site_symmetry_multiplicity
 _atom_site_fract_x
 _atom_site_fract_y
 _atom_site_fract_z
 _atom_site_occupancy
 _atom_site_charge
Co  Co1  1  0.19745000  0.42488000  0.32560000  1.0 0.8773475822
Co  Co2  1  0.32244000  0.96977000  0.21410000  1.0 0.7744154569
Co  Co3  1  0.18931000  0.53132000  0.64367000  1.0 0.8198198017
Co  Co4  1  0.33168000  0.44429000  0.39618000  1.0 0.9038253065
Co  Co5  1  0.80255000  0.92488000  0.17440000  1.0 0.8773475822
Co  Co6  1  0.67756000  0.46977000  0.28590000  1.0 0.7757244643
Co  Co7  1  0.81069000  0.03132000  0.85633000  1.0 0.8198198017
Co  Co8  1  0.66832000  0.94429000  0.10382000  1.0 0.9038253065
Co  Co9  1  0.80255000  0.57512000  0.67440000  1.0 0.8773475822
Co  Co10  1  0.67756000  0.03023000  0.78590000  1.0 0.7757244643
Co  Co11  1  0.81069000  0.46868000  0.35633000  1.0 0.8198198017
Co  Co12  1  0.66832000  0.55571000  0.60382000  1.0 0.9038253065
Co  Co13  1  0.19745000  0.07512000  0.82560000  1.0 0.8773475822
Co  Co14  1  0.32244000  0.53023000  0.71410000  1.0 0.7744154569
Co  Co15  1  0.18931000  0.96868000  0.14367000  1.0 0.8198198017
Co  Co16  1  0.33168000  0.05571000  0.89618000  1.0 0.9038253065
H  H1  1  0.88027000  0.82329000  0.25723000  1.0 0.1099624226
H  H2  1  0.75850000  0.93524000  0.24655000  1.0 0.1019563087
H  H3  1  0.76917000  0.87928000  0.31805000  1.0 0.1285357531
H  H4  1  0.83818000  0.79187000  0.36081000  1.0 0.1099624226
H  H5  1  0.97219000  0.60274000  0.52202000  1.0 0.1099624226
H  H6  1  0.00486000  0.57520000  0.60451000  1.0 0.1386419477
H  H7  1  0.09259000  0.55247000  0.65287000  1.0 0.1189884109
H  H8  1  0.11578000  0.56731000  0.53982000  1.0 0.1099624226
H  H9  1  0.11572000  0.49662000  0.35399000  1.0 0.1189884109
H  H10  1  0.12262000  0.50093000  0.23210000  1.0 0.1099624226
H  H11  1  0.05183000  0.58230000  0.19639000  1.0 0.1285357531
H  H12  1  0.01240000  0.62465000  0.24102000  1.0 0.1189884109
H  H13  1  0.59503000  0.93494000  0.70776000  1.0 0.1019563087
H  H14  1  0.70259000  0.05801000  0.69856000  1.0 0.1099624226
H  H15  1  0.68137000  0.00343000  0.62413000  1.0 0.1285357531
H  H16  1  0.61684000  0.90742000  0.59167000  1.0 0.1189884109
H  H17  1  0.51901000  0.63004000  0.48054000  1.0 0.1099624226
H  H18  1  0.49453000  0.55761000  0.40914000  1.0 0.1285357531
H  H19  1  0.42023000  0.48198000  0.37857000  1.0 0.1189884109
H  H20  1  0.39668000  0.53905000  0.48740000  1.0 0.1099624226
H  H21  1  0.39177000  0.58666000  0.67062000  1.0 0.1019563087
H  H22  1  0.39889000  0.62933000  0.79640000  1.0 0.1019563087
H  H23  1  0.45870000  0.72975000  0.81227000  1.0 0.1285357531
H  H24  1  0.48422000  0.75952000  0.75544000  1.0 0.1189884109
H  H25  1  0.18284000  0.64135000  0.26390000  1.0 0.1099624226
H  H26  1  0.17398000  0.75861000  0.22277000  1.0 0.1189884109
H  H27  1  0.32767000  0.75932000  0.26936000  1.0 0.1099624226
H  H28  1  0.33700000  0.64244000  0.31113000  1.0 0.1189884109
H  H29  1  0.17741000  0.55949000  0.51551000  1.0 0.1189884109
H  H30  1  0.17591000  0.52333000  0.44373000  1.0 0.1285357531
H  H31  1  0.33214000  0.53071000  0.51168000  1.0 0.1189884109
H  H32  1  0.33343000  0.55844000  0.58422000  1.0 0.1189884109
H  H33  1  0.31137000  0.15459000  0.23868000  1.0 0.1099624226
H  H34  1  0.34219000  0.26005000  0.29322000  1.0 0.1285357531
H  H35  1  0.21809000  0.23923000  0.31552000  1.0 0.1099624226
H  H36  1  0.18672000  0.13549000  0.25973000  1.0 0.1189884109
H  H37  1  0.16165000  0.34062000  0.39175000  1.0 0.1099624226
H  H38  1  0.06639000  0.19526000  0.30447000  1.0 0.1285357531
H  H39  1  0.11803000  0.20621000  0.30029000  1.0 0.1386419477
H  H40  1  0.11428000  0.13710000  0.33274000  1.0 0.1285357531
H  H41  1  0.14496000  0.23000000  0.43438000  1.0 0.1189884109
H  H42  1  0.08616000  0.25703000  0.40139000  1.0 0.1285357531
H  H43  1  0.10235000  0.16814000  0.39985000  1.0 0.1189884109
H  H44  1  0.46405000  0.19694000  0.54140000  1.0 0.1386419477
H  H45  1  0.41029000  0.15179000  0.51090000  1.0 0.1285357531
H  H46  1  0.43944000  0.18852000  0.48388000  1.0 0.1285357531
H  H47  1  0.38500000  0.26941000  0.55820000  1.0 0.1099624226
H  H48  1  0.44060000  0.30686000  0.57374000  1.0 0.1189884109
H  H49  1  0.38908000  0.35491000  0.53961000  1.0 0.1386419477
H  H50  1  0.38684000  0.28578000  0.43741000  1.0 0.1099624226
H  H51  1  0.13966000  0.35922000  0.59849000  1.0 0.1099624226
H  H52  1  0.10463000  0.25204000  0.55175000  1.0 0.1285357531
H  H53  1  0.07677000  0.27022000  0.49488000  1.0 0.1019563087
H  H54  1  0.13315000  0.23135000  0.52092000  1.0 0.1099624226
H  H55  1  0.16712000  0.37107000  0.49436000  1.0 0.1189884109
H  H56  1  0.10534000  0.36540000  0.46384000  1.0 0.197371849
H  H57  1  0.13207000  0.44061000  0.49676000  1.0 0.1099624226
H  H58  1  0.36584000  0.06587000  0.15245000  1.0 0.0915712725
H  H59  1  0.39227000  0.16326000  0.12086000  1.0 0.0915712725
H  H60  1  0.37154000  0.24455000  0.13013000  1.0 0.0915712725
H  H61  1  0.43202000  0.22442000  0.15925000  1.0 0.0799260872
H  H62  1  0.36009000  0.25358000  0.20379000  1.0 0.0915712725
H  H63  1  0.39979000  0.19846000  0.24676000  1.0 0.0915712725
H  H64  1  0.42107000  0.26237000  0.22358000  1.0 0.0698052721
H  H65  1  0.25696000  0.10679000  0.10679000  1.0 0.0799260872
H  H66  1  0.26053000  0.22343000  0.15154000  1.0 0.1189884109
H  H67  1  0.25295000  0.35952000  0.11240000  1.0 0.1099624226
H  H68  1  0.27691000  0.11097000  0.04981000  1.0 0.1099624226
H  H69  1  0.26957000  0.18963000  0.97611000  1.0 0.1606671449
H  H70  1  0.26540000  0.38678000  0.87341000  1.0 0.1189884109
H  H71  1  0.25908000  0.50206000  0.91029000  1.0 0.0915712725
H  H72  1  0.25987000  0.49658000  0.98489000  1.0 0.0799260872
H  H73  1  0.27253000  0.26601000  0.91113000  1.0 0.1700393867
H  H74  1  0.25891000  0.42302000  0.04858000  1.0 0.0799260872
H  H75  1  0.12986000  0.37720000  0.58763000  1.0 0.1189884109
H  H76  1  0.21806000  0.38180000  0.54741000  1.0 0.0915712725
H  H77  1  0.21150000  0.29116000  0.53291000  1.0 0.1099624226
H  H78  1  0.17385000  0.35476000  0.49502000  1.0 0.1099624226
H  H79  1  0.09952000  0.27367000  0.49315000  1.0 0.1019563087
H  H80  1  0.13867000  0.21745000  0.53572000  1.0 0.1189884109
H  H81  1  0.09711000  0.26811000  0.54275000  1.0 0.1285357531
H  H82  1  0.26706000  0.35588000  0.92609000  1.0 0.1099624226
H  H83  1  0.36318000  0.42237000  0.96158000  1.0 0.1189884109
H  H84  1  0.37018000  0.46781000  0.00880000  1.0 0.1386419477
H  H85  1  0.31849000  0.47942000  0.95816000  1.0 0.1019563087
H  H86  1  0.30286000  0.38041000  0.04423000  1.0 0.1099624226
H  H87  1  0.35956000  0.41277000  0.05922000  1.0 0.1285357531
H  H88  1  0.34876000  0.32058000  0.05439000  1.0 0.1189884109
H  H89  1  0.24524000  0.39057000  0.06335000  1.0 0.0698052721
H  H90  1  0.27627000  0.53010000  0.08236000  1.0 0.1285357531
H  H91  1  0.27327000  0.57639000  0.03691000  1.0 0.1285357531
H  H92  1  0.30927000  0.50057000  0.05733000  1.0 0.1099624226
H  H93  1  0.18957000  0.49740000  0.94792000  1.0 0.1285357531
H  H94  1  0.20623000  0.57482000  0.98053000  1.0 0.0915712725
H  H95  1  0.16198000  0.51922000  0.97941000  1.0 0.1189884109
H  H96  1  0.30724000  0.08902000  0.14258000  1.0 0.0799260872
H  H97  1  0.39043000  0.22307000  0.23194000  1.0 0.0602831512
H  H98  1  0.42668000  0.17698000  0.21553000  1.0 0.1019563087
H  H99  1  0.40607000  0.26273000  0.19479000  1.0 0.0799260872
H  H100  1  0.30055000  0.26198000  0.12803000  1.0 0.0915712725
H  H101  1  0.34940000  0.26184000  0.11880000  1.0 0.0915712725
H  H102  1  0.30587000  0.19567000  0.09483000  1.0 0.0915712725
H  H103  1  0.11973000  0.32329000  0.24277000  1.0 0.1099624226
H  H104  1  0.24150000  0.43524000  0.25345000  1.0 0.1019563087
H  H105  1  0.23083000  0.37928000  0.18195000  1.0 0.1285357531
H  H106  1  0.16182000  0.29187000  0.13919000  1.0 0.1099624226
H  H107  1  0.02781000  0.10274000  0.97798000  1.0 0.1099624226
H  H108  1  0.99514000  0.07520000  0.89549000  1.0 0.1386419477
H  H109  1  0.90741000  0.05247000  0.84713000  1.0 0.1189884109
H  H110  1  0.88422000  0.06731000  0.96018000  1.0 0.1099624226
H  H111  1  0.88428000  0.99662000  0.14601000  1.0 0.1189884109
H  H112  1  0.87738000  0.00093000  0.26790000  1.0 0.1099624226
H  H113  1  0.94817000  0.08230000  0.30361000  1.0 0.1285357531
H  H114  1  0.98760000  0.12465000  0.25898000  1.0 0.1189884109
H  H115  1  0.40497000  0.43494000  0.79224000  1.0 0.1019563087
H  H116  1  0.29741000  0.55801000  0.80144000  1.0 0.1099624226
H  H117  1  0.31863000  0.50343000  0.87587000  1.0 0.1285357531
H  H118  1  0.38316000  0.40742000  0.90833000  1.0 0.1189884109
H  H119  1  0.48099000  0.13004000  0.01946000  1.0 0.1099624226
H  H120  1  0.50547000  0.05761000  0.09086000  1.0 0.1285357531
H  H121  1  0.57977000  0.98198000  0.12143000  1.0 0.1189884109
H  H122  1  0.60332000  0.03905000  0.01260000  1.0 0.1099624226
H  H123  1  0.60823000  0.08666000  0.82938000  1.0 0.1019563087
H  H124  1  0.60111000  0.12933000  0.70360000  1.0 0.1019563087
H  H125  1  0.54130000  0.22975000  0.68773000  1.0 0.1285357531
H  H126  1  0.51578000  0.25952000  0.74456000  1.0 0.1189884109
H  H127  1  0.81716000  0.14135000  0.23610000  1.0 0.1099624226
H  H128  1  0.82602000  0.25861000  0.27723000  1.0 0.1189884109
H  H129  1  0.67233000  0.25932000  0.23064000  1.0 0.1099624226
H  H130  1  0.66300000  0.14244000  0.18887000  1.0 0.1189884109
H  H131  1  0.82259000  0.05949000  0.98449000  1.0 0.1189884109
H  H132  1  0.82409000  0.02333000  0.05627000  1.0 0.1285357531
H  H133  1  0.66786000  0.03071000  0.98832000  1.0 0.1189884109
H  H134  1  0.66657000  0.05844000  0.91578000  1.0 0.1189884109
H  H135  1  0.68863000  0.65459000  0.26132000  1.0 0.1099624226
H  H136  1  0.65781000  0.76005000  0.20678000  1.0 0.1285357531
H  H137  1  0.78191000  0.73923000  0.18448000  1.0 0.1099624226
H  H138  1  0.81328000  0.63549000  0.24027000  1.0 0.1189884109
H  H139  1  0.83835000  0.84062000  0.10825000  1.0 0.1099624226
H  H140  1  0.93361000  0.69526000  0.19553000  1.0 0.1285357531
H  H141  1  0.88197000  0.70621000  0.19971000  1.0 0.1386419477
H  H142  1  0.88572000  0.63710000  0.16726000  1.0 0.1285357531
H  H143  1  0.85504000  0.73000000  0.06562000  1.0 0.1189884109
H  H144  1  0.91384000  0.75703000  0.09861000  1.0 0.1285357531
H  H145  1  0.89765000  0.66814000  0.10015000  1.0 0.1189884109
H  H146  1  0.53595000  0.69694000  0.95860000  1.0 0.1386419477
H  H147  1  0.58971000  0.65179000  0.98910000  1.0 0.1285357531
H  H148  1  0.56056000  0.68852000  0.01612000  1.0 0.1285357531
H  H149  1  0.61500000  0.76941000  0.94180000  1.0 0.1099624226
H  H150  1  0.55940000  0.80686000  0.92626000  1.0 0.1189884109
H  H151  1  0.61092000  0.85491000  0.96039000  1.0 0.1386419477
H  H152  1  0.61316000  0.78578000  0.06259000  1.0 0.1099624226
H  H153  1  0.86034000  0.85922000  0.90151000  1.0 0.1099624226
H  H154  1  0.89537000  0.75204000  0.94825000  1.0 0.1285357531
H  H155  1  0.92323000  0.77022000  0.00512000  1.0 0.1019563087
H  H156  1  0.86685000  0.73135000  0.97908000  1.0 0.1099624226
H  H157  1  0.83288000  0.87107000  0.00564000  1.0 0.1189884109
H  H158  1  0.89466000  0.86540000  0.03616000  1.0 0.197371849
H  H159  1  0.86793000  0.94061000  0.00324000  1.0 0.1099624226
H  H160  1  0.63416000  0.56587000  0.34755000  1.0 0.0915712725
H  H161  1  0.60773000  0.66326000  0.37914000  1.0 0.0915712725
H  H162  1  0.62846000  0.74455000  0.36987000  1.0 0.0915712725
H  H163  1  0.56798000  0.72442000  0.34075000  1.0 0.0799260872
H  H164  1  0.63991000  0.75358000  0.29621000  1.0 0.0915712725
H  H165  1  0.60021000  0.69846000  0.25324000  1.0 0.0915712725
H  H166  1  0.57893000  0.76237000  0.27642000  1.0 0.0698052721
H  H167  1  0.74304000  0.60679000  0.39321000  1.0 0.0799260872
H  H168  1  0.73947000  0.72343000  0.34846000  1.0 0.1189884109
H  H169  1  0.74705000  0.85952000  0.38760000  1.0 0.1099624226
H  H170  1  0.72309000  0.61097000  0.45019000  1.0 0.1099624226
H  H171  1  0.73043000  0.68963000  0.52389000  1.0 0.1606671449
H  H172  1  0.73460000  0.88678000  0.62659000  1.0 0.1189884109
H  H173  1  0.74092000  0.00206000  0.58971000  1.0 0.0915712725
H  H174  1  0.74013000  0.99658000  0.51511000  1.0 0.0799260872
H  H175  1  0.72747000  0.76601000  0.58887000  1.0 0.1700393867
H  H176  1  0.74109000  0.92302000  0.45142000  1.0 0.0799260872
H  H177  1  0.87014000  0.87720000  0.91237000  1.0 0.1189884109
H  H178  1  0.78194000  0.88180000  0.95259000  1.0 0.0915712725
H  H179  1  0.78850000  0.79116000  0.96709000  1.0 0.1099624226
H  H180  1  0.82615000  0.85476000  0.00498000  1.0 0.1099624226
H  H181  1  0.90048000  0.77367000  0.00685000  1.0 0.1019563087
H  H182  1  0.86133000  0.71745000  0.96428000  1.0 0.1189884109
H  H183  1  0.90289000  0.76811000  0.95725000  1.0 0.1285357531
H  H184  1  0.73294000  0.85588000  0.57391000  1.0 0.1099624226
H  H185  1  0.63682000  0.92237000  0.53842000  1.0 0.1189884109
H  H186  1  0.62982000  0.96781000  0.49120000  1.0 0.1386419477
H  H187  1  0.68151000  0.97942000  0.54184000  1.0 0.1019563087
H  H188  1  0.69714000  0.88041000  0.45577000  1.0 0.1099624226
H  H189  1  0.64044000  0.91277000  0.44078000  1.0 0.1285357531
H  H190  1  0.65124000  0.82058000  0.44561000  1.0 0.1189884109
H  H191  1  0.75476000  0.89057000  0.43665000  1.0 0.0698052721
H  H192  1  0.72373000  0.03010000  0.41764000  1.0 0.1285357531
H  H193  1  0.72673000  0.07639000  0.46309000  1.0 0.1285357531
H  H194  1  0.69073000  0.00057000  0.44267000  1.0 0.1099624226
H  H195  1  0.81043000  0.99740000  0.55208000  1.0 0.1285357531
H  H196  1  0.79377000  0.07482000  0.51947000  1.0 0.0915712725
H  H197  1  0.83802000  0.01922000  0.52059000  1.0 0.1285357531
H  H198  1  0.69276000  0.58902000  0.35742000  1.0 0.0799260872
H  H199  1  0.60957000  0.72307000  0.26806000  1.0 0.0602831512
H  H200  1  0.57332000  0.67698000  0.28447000  1.0 0.1019563087
H  H201  1  0.59393000  0.76273000  0.30521000  1.0 0.0799260872
H  H202  1  0.69945000  0.76198000  0.37197000  1.0 0.0915712725
H  H203  1  0.65060000  0.76184000  0.38120000  1.0 0.0915712725
H  H204  1  0.69413000  0.69567000  0.40517000  1.0 0.0915712725
H  H205  1  0.11973000  0.17671000  0.74277000  1.0 0.1099624226
H  H206  1  0.24150000  0.06476000  0.75345000  1.0 0.1019563087
H  H207  1  0.23083000  0.12072000  0.68195000  1.0 0.1285357531
H  H208  1  0.16182000  0.20813000  0.63919000  1.0 0.1099624226
H  H209  1  0.02781000  0.39726000  0.47798000  1.0 0.1099624226
H  H210  1  0.99514000  0.42480000  0.39549000  1.0 0.1386419477
H  H211  1  0.90741000  0.44753000  0.34713000  1.0 0.1189884109
H  H212  1  0.88422000  0.43269000  0.46018000  1.0 0.1099624226
H  H213  1  0.88428000  0.50338000  0.64601000  1.0 0.1189884109
H  H214  1  0.87738000  0.49907000  0.76790000  1.0 0.1099624226
H  H215  1  0.94817000  0.41770000  0.80361000  1.0 0.1285357531
H  H216  1  0.98760000  0.37535000  0.75898000  1.0 0.1189884109
H  H217  1  0.40497000  0.06506000  0.29224000  1.0 0.1019563087
H  H218  1  0.29741000  0.94199000  0.30144000  1.0 0.1099624226
H  H219  1  0.31863000  0.99657000  0.37587000  1.0 0.1285357531
H  H220  1  0.38316000  0.09258000  0.40833000  1.0 0.1189884109
H  H221  1  0.48099000  0.36996000  0.51946000  1.0 0.1099624226
H  H222  1  0.50547000  0.44239000  0.59086000  1.0 0.1285357531
H  H223  1  0.57977000  0.51802000  0.62143000  1.0 0.1189884109
H  H224  1  0.60332000  0.46095000  0.51260000  1.0 0.1099624226
H  H225  1  0.60823000  0.41334000  0.32938000  1.0 0.1019563087
H  H226  1  0.60111000  0.37067000  0.20360000  1.0 0.1019563087
H  H227  1  0.54130000  0.27025000  0.18773000  1.0 0.1285357531
H  H228  1  0.51578000  0.24048000  0.24456000  1.0 0.1189884109
H  H229  1  0.81716000  0.35865000  0.73610000  1.0 0.1099624226
H  H230  1  0.82602000  0.24139000  0.77723000  1.0 0.1189884109
H  H231  1  0.67233000  0.24068000  0.73064000  1.0 0.1099624226
H  H232  1  0.66300000  0.35756000  0.68887000  1.0 0.1189884109
H  H233  1  0.82259000  0.44051000  0.48449000  1.0 0.1189884109
H  H234  1  0.82409000  0.47667000  0.55627000  1.0 0.1285357531
H  H235  1  0.66786000  0.46929000  0.48832000  1.0 0.1189884109
H  H236  1  0.66657000  0.44156000  0.41578000  1.0 0.1189884109
H  H237  1  0.68863000  0.84541000  0.76132000  1.0 0.1099624226
H  H238  1  0.65781000  0.73995000  0.70678000  1.0 0.1285357531
H  H239  1  0.78191000  0.76077000  0.68448000  1.0 0.1099624226
H  H240  1  0.81328000  0.86451000  0.74027000  1.0 0.1189884109
H  H241  1  0.83835000  0.65938000  0.60825000  1.0 0.1099624226
H  H242  1  0.93361000  0.80474000  0.69553000  1.0 0.1285357531
H  H243  1  0.88197000  0.79379000  0.69971000  1.0 0.1386419477
H  H244  1  0.88572000  0.86290000  0.66726000  1.0 0.1285357531
H  H245  1  0.85504000  0.77000000  0.56562000  1.0 0.1189884109
H  H246  1  0.91384000  0.74297000  0.59861000  1.0 0.1285357531
H  H247  1  0.89765000  0.83186000  0.60015000  1.0 0.1189884109
H  H248  1  0.53595000  0.80306000  0.45860000  1.0 0.1386419477
H  H249  1  0.58971000  0.84821000  0.48910000  1.0 0.1285357531
H  H250  1  0.56056000  0.81148000  0.51612000  1.0 0.1285357531
H  H251  1  0.61500000  0.73059000  0.44180000  1.0 0.1099624226
H  H252  1  0.55940000  0.69314000  0.42626000  1.0 0.1189884109
H  H253  1  0.61092000  0.64509000  0.46039000  1.0 0.1386419477
H  H254  1  0.61316000  0.71422000  0.56259000  1.0 0.1099624226
H  H255  1  0.86034000  0.64078000  0.40151000  1.0 0.1099624226
H  H256  1  0.89537000  0.74796000  0.44825000  1.0 0.1285357531
H  H257  1  0.92323000  0.72978000  0.50512000  1.0 0.1019563087
H  H258  1  0.86685000  0.76865000  0.47908000  1.0 0.1099624226
H  H259  1  0.83288000  0.62893000  0.50564000  1.0 0.1189884109
H  H260  1  0.89466000  0.63460000  0.53616000  1.0 0.197371849
H  H261  1  0.86793000  0.55939000  0.50324000  1.0 0.1099624226
H  H262  1  0.63416000  0.93413000  0.84755000  1.0 0.0915712725
H  H263  1  0.60773000  0.83674000  0.87914000  1.0 0.0915712725
H  H264  1  0.62846000  0.75545000  0.86987000  1.0 0.0915712725
H  H265  1  0.56798000  0.77558000  0.84075000  1.0 0.0799260872
H  H266  1  0.63991000  0.74642000  0.79621000  1.0 0.0915712725
H  H267  1  0.60021000  0.80154000  0.75324000  1.0 0.0915712725
H  H268  1  0.57893000  0.73763000  0.77642000  1.0 0.0698052721
H  H269  1  0.74304000  0.89321000  0.89321000  1.0 0.0799260872
H  H270  1  0.73947000  0.77657000  0.84846000  1.0 0.1189884109
H  H271  1  0.74705000  0.64048000  0.88760000  1.0 0.1099624226
H  H272  1  0.72309000  0.88903000  0.95019000  1.0 0.1099624226
H  H273  1  0.73043000  0.81037000  0.02389000  1.0 0.1606671449
H  H274  1  0.73460000  0.61322000  0.12659000  1.0 0.1189884109
H  H275  1  0.74092000  0.49794000  0.08971000  1.0 0.0915712725
H  H276  1  0.74013000  0.50342000  0.01511000  1.0 0.0799260872
H  H277  1  0.72747000  0.73399000  0.08887000  1.0 0.1700393867
H  H278  1  0.74109000  0.57698000  0.95142000  1.0 0.0799260872
H  H279  1  0.87014000  0.62280000  0.41237000  1.0 0.1189884109
H  H280  1  0.78194000  0.61820000  0.45259000  1.0 0.0915712725
H  H281  1  0.78850000  0.70884000  0.46709000  1.0 0.1099624226
H  H282  1  0.82615000  0.64524000  0.50498000  1.0 0.1099624226
H  H283  1  0.90048000  0.72633000  0.50685000  1.0 0.1019563087
H  H284  1  0.86133000  0.78255000  0.46428000  1.0 0.1189884109
H  H285  1  0.90289000  0.73189000  0.45725000  1.0 0.1285357531
H  H286  1  0.73294000  0.64412000  0.07391000  1.0 0.1099624226
H  H287  1  0.63682000  0.57763000  0.03842000  1.0 0.1189884109
H  H288  1  0.62982000  0.53219000  0.99120000  1.0 0.1386419477
H  H289  1  0.68151000  0.52058000  0.04184000  1.0 0.1019563087
H  H290  1  0.69714000  0.61959000  0.95577000  1.0 0.1099624226
H  H291  1  0.64044000  0.58723000  0.94078000  1.0 0.1285357531
H  H292  1  0.65124000  0.67942000  0.94561000  1.0 0.1189884109
H  H293  1  0.75476000  0.60943000  0.93665000  1.0 0.0698052721
H  H294  1  0.72373000  0.46990000  0.91764000  1.0 0.1285357531
H  H295  1  0.72673000  0.42361000  0.96309000  1.0 0.1285357531
H  H296  1  0.69073000  0.49943000  0.94267000  1.0 0.1099624226
H  H297  1  0.81043000  0.50260000  0.05208000  1.0 0.1285357531
H  H298  1  0.79377000  0.42518000  0.01947000  1.0 0.0915712725
H  H299  1  0.83802000  0.48078000  0.02059000  1.0 0.1285357531
H  H300  1  0.69276000  0.91098000  0.85742000  1.0 0.0799260872
H  H301  1  0.60957000  0.77693000  0.76806000  1.0 0.0602831512
H  H302  1  0.57332000  0.82302000  0.78447000  1.0 0.1019563087
H  H303  1  0.59393000  0.73727000  0.80521000  1.0 0.0799260872
H  H304  1  0.69945000  0.73802000  0.87197000  1.0 0.0915712725
H  H305  1  0.65060000  0.73816000  0.88120000  1.0 0.0915712725
H  H306  1  0.69413000  0.80433000  0.90517000  1.0 0.0915712725
H  H307  1  0.88027000  0.67671000  0.75723000  1.0 0.1099624226
H  H308  1  0.75850000  0.56476000  0.74655000  1.0 0.1019563087
H  H309  1  0.76917000  0.62072000  0.81805000  1.0 0.1285357531
H  H310  1  0.83818000  0.70813000  0.86081000  1.0 0.1099624226
H  H311  1  0.97219000  0.89726000  0.02202000  1.0 0.1099624226
H  H312  1  0.00486000  0.92480000  0.10451000  1.0 0.1386419477
H  H313  1  0.09259000  0.94753000  0.15287000  1.0 0.1189884109
H  H314  1  0.11578000  0.93269000  0.03982000  1.0 0.1099624226
H  H315  1  0.11572000  0.00338000  0.85399000  1.0 0.1189884109
H  H316  1  0.12262000  0.99907000  0.73210000  1.0 0.1099624226
H  H317  1  0.05183000  0.91770000  0.69639000  1.0 0.1285357531
H  H318  1  0.01240000  0.87535000  0.74102000  1.0 0.1189884109
H  H319  1  0.59503000  0.56506000  0.20776000  1.0 0.1019563087
H  H320  1  0.70259000  0.44199000  0.19856000  1.0 0.1099624226
H  H321  1  0.68137000  0.49657000  0.12413000  1.0 0.1285357531
H  H322  1  0.61684000  0.59258000  0.09167000  1.0 0.1189884109
H  H323  1  0.51901000  0.86996000  0.98054000  1.0 0.1099624226
H  H324  1  0.49453000  0.94239000  0.90914000  1.0 0.1285357531
H  H325  1  0.42023000  0.01802000  0.87857000  1.0 0.1189884109
H  H326  1  0.39668000  0.96095000  0.98740000  1.0 0.1099624226
H  H327  1  0.39177000  0.91334000  0.17062000  1.0 0.1019563087
H  H328  1  0.39889000  0.87067000  0.29640000  1.0 0.1019563087
H  H329  1  0.45870000  0.77025000  0.31227000  1.0 0.1285357531
H  H330  1  0.48422000  0.74048000  0.25544000  1.0 0.1189884109
H  H331  1  0.18284000  0.85865000  0.76390000  1.0 0.1099624226
H  H332  1  0.17398000  0.74139000  0.72277000  1.0 0.1189884109
H  H333  1  0.32767000  0.74068000  0.76936000  1.0 0.1099624226
H  H334  1  0.33700000  0.85756000  0.81113000  1.0 0.1189884109
H  H335  1  0.17741000  0.94051000  0.01551000  1.0 0.1189884109
H  H336  1  0.17591000  0.97667000  0.94373000  1.0 0.1285357531
H  H337  1  0.33214000  0.96929000  0.01168000  1.0 0.1189884109
H  H338  1  0.33343000  0.94156000  0.08422000  1.0 0.1189884109
H  H339  1  0.31137000  0.34541000  0.73868000  1.0 0.1099624226
H  H340  1  0.34219000  0.23995000  0.79322000  1.0 0.1285357531
H  H341  1  0.21809000  0.26077000  0.81552000  1.0 0.1099624226
H  H342  1  0.18672000  0.36451000  0.75973000  1.0 0.1189884109
H  H343  1  0.16165000  0.15938000  0.89175000  1.0 0.1099624226
H  H344  1  0.06639000  0.30474000  0.80447000  1.0 0.1285357531
H  H345  1  0.11803000  0.29379000  0.80029000  1.0 0.1386419477
H  H346  1  0.11428000  0.36290000  0.83274000  1.0 0.1285357531
H  H347  1  0.14496000  0.27000000  0.93438000  1.0 0.1189884109
H  H348  1  0.08616000  0.24297000  0.90139000  1.0 0.1285357531
H  H349  1  0.10235000  0.33186000  0.89985000  1.0 0.1189884109
H  H350  1  0.46405000  0.30306000  0.04140000  1.0 0.1386419477
H  H351  1  0.41029000  0.34821000  0.01090000  1.0 0.1285357531
H  H352  1  0.43944000  0.31148000  0.98388000  1.0 0.1285357531
H  H353  1  0.38500000  0.23059000  0.05820000  1.0 0.1099624226
H  H354  1  0.44060000  0.19314000  0.07374000  1.0 0.1189884109
H  H355  1  0.38908000  0.14509000  0.03961000  1.0 0.1386419477
H  H356  1  0.38684000  0.21422000  0.93741000  1.0 0.1099624226
H  H357  1  0.13966000  0.14078000  0.09849000  1.0 0.1099624226
H  H358  1  0.10463000  0.24796000  0.05175000  1.0 0.1285357531
H  H359  1  0.07677000  0.22978000  0.99488000  1.0 0.1019563087
H  H360  1  0.13315000  0.26865000  0.02092000  1.0 0.1099624226
H  H361  1  0.16712000  0.12893000  0.99436000  1.0 0.1189884109
H  H362  1  0.10534000  0.13460000  0.96384000  1.0 0.197371849
H  H363  1  0.13207000  0.05939000  0.99676000  1.0 0.1099624226
H  H364  1  0.36584000  0.43413000  0.65245000  1.0 0.0915712725
H  H365  1  0.39227000  0.33674000  0.62086000  1.0 0.0915712725
H  H366  1  0.37154000  0.25545000  0.63013000  1.0 0.0915712725
H  H367  1  0.43202000  0.27558000  0.65925000  1.0 0.0799260872
H  H368  1  0.36009000  0.24642000  0.70379000  1.0 0.0915712725
H  H369  1  0.39979000  0.30154000  0.74676000  1.0 0.0915712725
H  H370  1  0.42107000  0.23763000  0.72358000  1.0 0.0698052721
H  H371  1  0.25696000  0.39321000  0.60679000  1.0 0.0799260872
H  H372  1  0.26053000  0.27657000  0.65154000  1.0 0.1189884109
H  H373  1  0.25295000  0.14048000  0.61240000  1.0 0.1099624226
H  H374  1  0.27691000  0.38903000  0.54981000  1.0 0.1099624226
H  H375  1  0.26957000  0.31037000  0.47611000  1.0 0.1606671449
H  H376  1  0.26540000  0.11322000  0.37341000  1.0 0.1099624226
H  H377  1  0.25908000  0.99794000  0.41029000  1.0 0.0915712725
H  H378  1  0.25987000  0.00342000  0.48489000  1.0 0.0799260872
H  H379  1  0.27253000  0.23399000  0.41113000  1.0 0.1700393867
H  H380  1  0.25891000  0.07698000  0.54858000  1.0 0.0799260872
H  H381  1  0.12986000  0.12280000  0.08763000  1.0 0.1189884109
H  H382  1  0.21806000  0.11820000  0.04741000  1.0 0.0915712725
H  H383  1  0.21150000  0.20884000  0.03291000  1.0 0.1099624226
H  H384  1  0.17385000  0.14524000  0.99502000  1.0 0.1099624226
H  H385  1  0.09952000  0.22633000  0.99315000  1.0 0.1019563087
H  H386  1  0.13867000  0.28255000  0.03572000  1.0 0.1189884109
H  H387  1  0.09711000  0.23189000  0.04275000  1.0 0.1285357531
H  H388  1  0.26706000  0.14412000  0.42609000  1.0 0.1099624226
H  H389  1  0.36318000  0.07763000  0.46158000  1.0 0.1189884109
H  H390  1  0.37018000  0.03219000  0.50880000  1.0 0.1386419477
H  H391  1  0.31849000  0.02058000  0.45816000  1.0 0.1019563087
H  H392  1  0.30286000  0.11959000  0.54423000  1.0 0.1099624226
H  H393  1  0.35956000  0.08723000  0.55922000  1.0 0.1285357531
H  H394  1  0.34876000  0.17942000  0.55439000  1.0 0.1189884109
H  H395  1  0.24524000  0.10943000  0.56335000  1.0 0.0698052721
H  H396  1  0.27627000  0.96990000  0.58236000  1.0 0.1285357531
H  H397  1  0.27327000  0.92361000  0.53691000  1.0 0.1285357531
H  H398  1  0.30927000  0.99943000  0.55733000  1.0 0.1099624226
H  H399  1  0.18957000  0.00260000  0.44792000  1.0 0.1285357531
H  H400  1  0.20623000  0.92518000  0.48053000  1.0 0.0915712725
H  H401  1  0.16198000  0.98078000  0.47941000  1.0 0.1189884109
H  H402  1  0.30724000  0.41098000  0.64258000  1.0 0.0799260872
H  H403  1  0.39043000  0.27693000  0.73194000  1.0 0.0602831512
H  H404  1  0.42668000  0.32302000  0.71553000  1.0 0.1019563087
H  H405  1  0.40607000  0.23727000  0.69479000  1.0 0.0799260872
H  H406  1  0.30055000  0.23802000  0.62803000  1.0 0.0915712725
H  H407  1  0.34940000  0.23816000  0.61880000  1.0 0.0915712725
H  H408  1  0.30587000  0.30433000  0.59483000  1.0 0.0915712725
C  C1  1  0.85728000  0.83460000  0.26960000  1.0 0.0504731448
C  C2  1  0.78642000  0.89990000  0.26346000  1.0 0.0698052721
C  C3  1  0.79251000  0.86670000  0.30627000  1.0 -0.1395490456
C  C4  1  0.83302000  0.81520000  0.33143000  1.0 -0.0890525021
C  C5  1  0.86617000  0.79846000  0.31243000  1.0 -0.0178279558
C  C6  1  0.91009000  0.74223000  0.33667000  1.0 0.3706360545
C  C7  1  0.96391000  0.67474000  0.40471000  1.0 0.3706360545
C  C8  1  0.02274000  0.60760000  0.47044000  1.0 0.3706360545
C  C9  1  0.04119000  0.58760000  0.52234000  1.0 -0.0294930016
C  C10  1  0.00778000  0.59060000  0.54189000  1.0 -0.0890525021
C  C11  1  0.02724000  0.57540000  0.59066000  1.0 -0.1098603171
C  C12  1  0.07933000  0.56070000  0.61911000  1.0 0.0799260872
C  C13  1  0.09292000  0.57030000  0.55309000  1.0 0.0504731448
C  C14  1  0.03311000  0.59820000  0.40331000  1.0 0.3901981052
C  C15  1  0.03633000  0.59440000  0.33206000  1.0 0.3620207582
C  C16  1  0.06051000  0.56590000  0.30303000  1.0 -0.0178279558
C  C17  1  0.10254000  0.51478000  0.32166000  1.0 0.0698052721
C  C18  1  0.10621000  0.51690000  0.25027000  1.0 0.0602831512
C  C19  1  0.06459000  0.56570000  0.22897000  1.0 -0.1395490456
C  C20  1  0.04144000  0.59060000  0.25532000  1.0 -0.068227561
C  C21  1  0.97194000  0.66950000  0.33174000  1.0 0.3792394262
C  C22  1  0.98951000  0.64746000  0.37976000  1.0 -0.2101160152
C  C23  1  0.61354000  0.94764000  0.69096000  1.0 0.0382536638
C  C24  1  0.67574000  0.02010000  0.68535000  1.0 0.0698052721
C  C25  1  0.66365000  0.98740000  0.64111000  1.0 -0.1294038925
C  C26  1  0.62541000  0.93120000  0.62189000  1.0 -0.0815950844
C  C27  1  0.59959000  0.90950000  0.64702000  1.0 -0.003456849
C  C28  1  0.56129000  0.84480000  0.63281000  1.0 0.352532142
C  C29  1  0.51824000  0.74400000  0.58207000  1.0 0.3706360545
C  C30  1  0.47303000  0.63990000  0.53548000  1.0 0.352532142
C  C31  1  0.45931000  0.59370000  0.49088000  1.0 -0.0178279558
C  C32  1  0.48893000  0.59810000  0.46766000  1.0 -0.0815950844
C  C33  1  0.47453000  0.55550000  0.42541000  1.0 -0.1395490456
C  C34  1  0.43061000  0.51020000  0.40781000  1.0 0.0799260872
C  C35  1  0.41644000  0.54440000  0.47103000  1.0 0.0602831512
C  C36  1  0.46273000  0.66250000  0.60152000  1.0 0.3901981052
C  C37  1  0.45944000  0.69220000  0.67044000  1.0 0.3620207582
C  C38  1  0.44213000  0.67400000  0.70691000  1.0 -0.0138374963
C  C39  1  0.40564000  0.61630000  0.69971000  1.0 0.0602831512
C  C40  1  0.40936000  0.64140000  0.77296000  1.0 0.0698052721
C  C41  1  0.44526000  0.70120000  0.78280000  1.0 -0.1395490456
C  C42  1  0.46065000  0.71780000  0.74965000  1.0 -0.0890525021
C  C43  1  0.50945000  0.77320000  0.65282000  1.0 0.3792394262
C  C44  1  0.49679000  0.72680000  0.61154000  1.0 -0.1973635171
C  C45  1  0.26612000  0.55324000  0.31641000  1.0 0.5838235553
C  C46  1  0.26038000  0.62959000  0.29043000  1.0 -0.0178279558
C  C47  1  0.21244000  0.66520000  0.26484000  1.0 -0.1098603171
C  C48  1  0.20711000  0.73500000  0.24057000  1.0 -0.1173960174
C  C49  1  0.25032000  0.77041000  0.24237000  1.0 -0.0138374963
C  C50  1  0.29807000  0.73530000  0.26829000  1.0 -0.1173960174
C  C51  1  0.30374000  0.66540000  0.29285000  1.0 -0.1098603171
C  C52  1  0.24624000  0.84752000  0.21660000  1.0 0.5856404241
C  C53  1  0.25647000  0.56965000  0.60496000  1.0 0.565972143
C  C54  1  0.25517000  0.55940000  0.55705000  1.0 -0.0178279558
C  C55  1  0.20905000  0.55100000  0.51510000  1.0 -0.1019672014
C  C56  1  0.20812000  0.53040000  0.47233000  1.0 -0.1019672014
C  C57  1  0.25426000  0.51980000  0.47095000  1.0 -0.0294930016
C  C58  1  0.30047000  0.53360000  0.51268000  1.0 -0.1098603171
C  C59  1  0.30128000  0.55150000  0.55554000  1.0 -0.1173960174
C  C60  1  0.25533000  0.49389000  0.42639000  1.0 0.5838235553
C  C61  1  0.22545000  0.07123000  0.20773000  1.0 0.5287321147
C  C62  1  0.24624000  0.13566000  0.24396000  1.0 -0.0138374963
C  C63  1  0.29224000  0.17220000  0.25398000  1.0 -0.1803138636
C  C64  1  0.31070000  0.23480000  0.28644000  1.0 -0.1294038925
C  C65  1  0.28255000  0.25957000  0.30858000  1.0 -0.0294930016
C  C66  1  0.23668000  0.22251000  0.29950000  1.0 -0.1294038925
C  C67  1  0.21829000  0.16061000  0.26664000  1.0 -0.1019672014
C  C68  1  0.30071000  0.32924000  0.34098000  1.0 0.5402277049
C  C69  1  0.15045000  0.30710000  0.36446000  1.0 0.2227744136
C  C70  1  0.10430000  0.19120000  0.32190000  1.0 -0.3135166679
C  C71  1  0.11360000  0.22280000  0.40310000  1.0 -0.3817214321
C  C72  1  0.43170000  0.19550000  0.51060000  1.0 -0.3433409595
C  C73  1  0.40470000  0.30270000  0.54760000  1.0 -0.3817214321
C  C74  1  0.38308000  0.30650000  0.46354000  1.0 0.2705947097
C  C75  1  0.14770000  0.38290000  0.57560000  1.0 -0.003456849
C  C76  1  0.11010000  0.26860000  0.52480000  1.0 -0.2970910136
C  C77  1  0.13450000  0.38380000  0.49410000  1.0 -0.1173960174
C  C78  1  0.37060000  0.09730000  0.17920000  1.0 0.1515330758
C  C79  1  0.39700000  0.20260000  0.14530000  1.0 -0.227509459
C  C80  1  0.39310000  0.22530000  0.21680000  1.0 -0.1618952814
C  C81  1  0.26160000  0.15610000  0.09550000  1.0 -0.2101160152
C  C82  1  0.25990000  0.22800000  0.12120000  1.0 -0.2101160152
C  C83  1  0.25690000  0.31190000  0.09900000  1.0 -0.3433409595
C  C84  1  0.26080000  0.30540000  0.05510000  1.0 0.0382536638
C  C85  1  0.26520000  0.23670000  0.03410000  1.0 -0.0890525021
C  C86  1  0.26890000  0.15790000  0.06090000  1.0 -0.1973635171
C  C87  1  0.26860000  0.23740000  0.99110000  1.0 -0.1294038925
C  C88  1  0.26570000  0.38460000  0.90370000  1.0 -0.1973635171
C  C89  1  0.26200000  0.45300000  0.92560000  1.0 -0.2410361802
C  C90  1  0.26240000  0.44980000  0.96990000  1.0 -0.1803138636
C  C91  1  0.26670000  0.37800000  0.99230000  1.0 0.0504731448
C  C92  1  0.27040000  0.30960000  0.97040000  1.0 0.1386419477
C  C93  1  0.27000000  0.31280000  0.92610000  1.0 -0.0570135888
C  C94  1  0.26170000  0.37560000  0.03430000  1.0 0.000572801
C  C95  1  0.15660000  0.38250000  0.57920000  1.0 0.0915712725
C  C96  1  0.19310000  0.34050000  0.52940000  1.0 -0.227509459
C  C97  1  0.12010000  0.26740000  0.52840000  1.0 -0.2720441397
C  C98  1  0.28360000  0.33280000  0.95740000  1.0 0.1099624226
C  C99  1  0.34530000  0.44190000  0.97880000  1.0 -0.3987185795
C  C100  1  0.33410000  0.37200000  0.04120000  1.0 -0.3602278296
C  C101  1  0.22500000  0.40670000  0.03060000  1.0 0.0915712725
C  C102  1  0.27660000  0.52470000  0.05150000  1.0 -0.3817214321
C  C103  1  0.19470000  0.52050000  0.97840000  1.0 -0.1679446835
C  C104  1  0.33720000  0.10950000  0.16960000  1.0 0.0799260872
C  C105  1  0.39750000  0.21330000  0.20500000  1.0 -0.0815950844
C  C106  1  0.32490000  0.22880000  0.12340000  1.0 -0.2890115444
C  C107  1  0.14272000  0.33460000  0.23040000  1.0 0.0504731448
C  C108  1  0.21358000  0.39990000  0.23654000  1.0 0.0698052721
C  C109  1  0.20749000  0.36670000  0.19373000  1.0 -0.1395490456
C  C110  1  0.16698000  0.31520000  0.16857000  1.0 -0.0890525021
C  C111  1  0.13383000  0.29846000  0.18757000  1.0 -0.0178279558
C  C112  1  0.08991000  0.24223000  0.16333000  1.0 0.3706360545
C  C113  1  0.03609000  0.17474000  0.09529000  1.0 0.3706360545
C  C114  1  0.97726000  0.10760000  0.02956000  1.0 0.3706360545
C  C115  1  0.95881000  0.08760000  0.97766000  1.0 -0.0294930016
C  C116  1  0.99222000  0.09060000  0.95811000  1.0 -0.0890525021
C  C117  1  0.97276000  0.07540000  0.90934000  1.0 -0.1098603171
C  C118  1  0.92067000  0.06070000  0.88089000  1.0 0.0799260872
C  C119  1  0.90708000  0.07030000  0.94691000  1.0 0.0504731448
C  C120  1  0.96689000  0.09820000  0.09669000  1.0 0.3901981052
C  C121  1  0.96367000  0.09440000  0.16794000  1.0 0.3620207582
C  C122  1  0.93949000  0.06590000  0.19697000  1.0 -0.0178279558
C  C123  1  0.89746000  0.01478000  0.17834000  1.0 0.0698052721
C  C124  1  0.89379000  0.01690000  0.24973000  1.0 0.0602831512
C  C125  1  0.93541000  0.06570000  0.27103000  1.0 -0.1395490456
C  C126  1  0.95856000  0.09060000  0.24468000  1.0 -0.068227561
C  C127  1  0.02806000  0.16950000  0.16826000  1.0 0.3792394262
C  C128  1  0.01049000  0.14746000  0.12024000  1.0 -0.2101160152
C  C129  1  0.38646000  0.44764000  0.80904000  1.0 0.0382536638
C  C130  1  0.32426000  0.52010000  0.81465000  1.0 0.0698052721
C  C131  1  0.33635000  0.48740000  0.85889000  1.0 -0.1294038925
C  C132  1  0.37459000  0.43120000  0.87811000  1.0 -0.0815950844
C  C133  1  0.40041000  0.40950000  0.85298000  1.0 -0.003456849
C  C134  1  0.43871000  0.34480000  0.86719000  1.0 0.352532142
C  C135  1  0.48176000  0.24400000  0.91793000  1.0 0.3706360545
C  C136  1  0.52697000  0.13990000  0.96452000  1.0 0.352532142
C  C137  1  0.54069000  0.09370000  0.00912000  1.0 -0.0178279558
C  C138  1  0.51107000  0.09810000  0.03234000  1.0 -0.0815950844
C  C139  1  0.52547000  0.05550000  0.07459000  1.0 -0.1395490456
C  C140  1  0.56939000  0.01020000  0.09219000  1.0 0.0799260872
C  C141  1  0.58356000  0.04440000  0.02897000  1.0 0.0602831512
C  C142  1  0.53727000  0.16250000  0.89848000  1.0 0.3901981052
C  C143  1  0.54056000  0.19220000  0.82956000  1.0 0.3620207582
C  C144  1  0.55787000  0.17400000  0.79309000  1.0 -0.0138374963
C  C145  1  0.59436000  0.11630000  0.80029000  1.0 0.0602831512
C  C146  1  0.59064000  0.14140000  0.72704000  1.0 0.0799260872
C  C147  1  0.55474000  0.20120000  0.71720000  1.0 -0.1395490456
C  C148  1  0.53935000  0.21780000  0.75035000  1.0 -0.0890525021
C  C149  1  0.49055000  0.27320000  0.84718000  1.0 0.3792394262
C  C150  1  0.50321000  0.22680000  0.88846000  1.0 -0.1973635171
C  C151  1  0.73388000  0.05324000  0.18359000  1.0 0.5838235553
C  C152  1  0.73962000  0.12959000  0.20957000  1.0 -0.0178279558
C  C153  1  0.78756000  0.16520000  0.23516000  1.0 -0.1098603171
C  C154  1  0.79289000  0.23500000  0.25943000  1.0 -0.1173960174
C  C155  1  0.74968000  0.27041000  0.25763000  1.0 -0.0138374963
C  C156  1  0.70193000  0.23530000  0.23171000  1.0 -0.1173960174
C  C157  1  0.69626000  0.16540000  0.20715000  1.0 -0.1098603171
C  C158  1  0.75376000  0.34752000  0.28340000  1.0 0.5856404241
C  C159  1  0.74353000  0.06965000  0.89504000  1.0 0.565972143
C  C160  1  0.74483000  0.05940000  0.94295000  1.0 -0.0178279558
C  C161  1  0.79095000  0.05100000  0.98490000  1.0 -0.1019672014
C  C162  1  0.79188000  0.03040000  0.02767000  1.0 -0.1019672014
C  C163  1  0.74574000  0.01980000  0.02905000  1.0 -0.0294930016
C  C164  1  0.69953000  0.03360000  0.98732000  1.0 -0.1098603171
C  C165  1  0.69872000  0.05150000  0.94446000  1.0 -0.1173960174
C  C166  1  0.74467000  0.99389000  0.07361000  1.0 0.5838235553
C  C167  1  0.77455000  0.57123000  0.29227000  1.0 0.5287321147
C  C168  1  0.75376000  0.63566000  0.25604000  1.0 -0.0138374963
C  C169  1  0.70776000  0.67220000  0.24602000  1.0 -0.1803138636
C  C170  1  0.68930000  0.73480000  0.21356000  1.0 -0.1294038925
C  C171  1  0.71745000  0.75957000  0.19142000  1.0 -0.0294930016
C  C172  1  0.76332000  0.72251000  0.20050000  1.0 -0.1173960174
C  C173  1  0.78171000  0.66061000  0.23336000  1.0 -0.1019672014
C  C174  1  0.69929000  0.82924000  0.15902000  1.0 0.5402277049
C  C175  1  0.84955000  0.80710000  0.13554000  1.0 0.2227744136
C  C176  1  0.89570000  0.69120000  0.17810000  1.0 -0.3135166679
C  C177  1  0.88640000  0.72280000  0.09690000  1.0 -0.3817214321
C  C178  1  0.56830000  0.69550000  0.98940000  1.0 -0.3433409595
C  C179  1  0.59530000  0.80270000  0.95240000  1.0 -0.3817214321
C  C180  1  0.61692000  0.80650000  0.03646000  1.0 0.2705947097
C  C181  1  0.85230000  0.88290000  0.92440000  1.0 0.000572801
C  C182  1  0.88990000  0.76860000  0.97520000  1.0 -0.2970910136
C  C183  1  0.86550000  0.88380000  0.00590000  1.0 -0.1173960174
C  C184  1  0.62940000  0.59730000  0.32080000  1.0 0.1515330758
C  C185  1  0.60300000  0.70260000  0.35470000  1.0 -0.227509459
C  C186  1  0.60690000  0.72530000  0.28320000  1.0 -0.1618952814
C  C187  1  0.73840000  0.65610000  0.40450000  1.0 -0.2101160152
C  C188  1  0.74010000  0.72800000  0.37880000  1.0 -0.2101160152
C  C189  1  0.74310000  0.81190000  0.40100000  1.0 -0.3433409595
C  C190  1  0.73920000  0.80540000  0.44490000  1.0 0.0382536638
C  C191  1  0.73480000  0.73670000  0.46590000  1.0 -0.0890525021
C  C192  1  0.73110000  0.65790000  0.43910000  1.0 -0.1973635171
C  C193  1  0.73140000  0.73740000  0.50890000  1.0 -0.1294038925
C  C194  1  0.73430000  0.88460000  0.59630000  1.0 -0.1973635171
C  C195  1  0.73800000  0.95300000  0.57440000  1.0 -0.2410361802
C  C196  1  0.73760000  0.94980000  0.53010000  1.0 -0.1803138636
C  C197  1  0.73330000  0.87800000  0.50770000  1.0 0.0504731448
C  C198  1  0.72960000  0.80960000  0.52960000  1.0 0.1386419477
C  C199  1  0.73000000  0.81280000  0.57390000  1.0 -0.0570135888
C  C200  1  0.73830000  0.87560000  0.46570000  1.0 0.000572801
C  C201  1  0.84340000  0.88250000  0.92080000  1.0 0.0915712725
C  C202  1  0.80690000  0.84050000  0.97060000  1.0 -0.227509459
C  C203  1  0.87990000  0.76740000  0.97160000  1.0 -0.2720441397
C  C204  1  0.71640000  0.83280000  0.54260000  1.0 0.1099624226
C  C205  1  0.65470000  0.94190000  0.52120000  1.0 -0.3987185795
C  C206  1  0.66590000  0.87200000  0.45880000  1.0 -0.3602278296
C  C207  1  0.77500000  0.90670000  0.46940000  1.0 0.0915712725
C  C208  1  0.72340000  0.02470000  0.44850000  1.0 -0.3817214321
C  C209  1  0.80530000  0.02050000  0.52160000  1.0 -0.1679446835
C  C210  1  0.66280000  0.60950000  0.33040000  1.0 0.0799260872
C  C211  1  0.60250000  0.71330000  0.29500000  1.0 -0.0815950844
C  C212  1  0.67510000  0.72880000  0.37660000  1.0 -0.2890115444
C  C213  1  0.14272000  0.16540000  0.73040000  1.0 0.0504731448
C  C214  1  0.21358000  0.10010000  0.73654000  1.0 0.0698052721
C  C215  1  0.20749000  0.13330000  0.69373000  1.0 -0.1395490456
C  C216  1  0.16698000  0.18480000  0.66857000  1.0 -0.0890525021
C  C217  1  0.13383000  0.20154000  0.68757000  1.0 -0.0178279558
C  C218  1  0.08991000  0.25777000  0.66333000  1.0 0.3706360545
C  C219  1  0.03609000  0.32526000  0.59529000  1.0 0.3706360545
C  C220  1  0.97726000  0.39240000  0.52956000  1.0 0.3706360545
C  C221  1  0.95881000  0.41240000  0.47766000  1.0 -0.0294930016
C  C222  1  0.99222000  0.40940000  0.45811000  1.0 -0.0890525021
C  C223  1  0.97276000  0.42460000  0.40934000  1.0 -0.1098603171
C  C224  1  0.92067000  0.43930000  0.38089000  1.0 0.0799260872
C  C225  1  0.90708000  0.42970000  0.44691000  1.0 0.0504731448
C  C226  1  0.96689000  0.40180000  0.59669000  1.0 0.3901981052
C  C227  1  0.96367000  0.40560000  0.66794000  1.0 0.3620207582
C  C228  1  0.93949000  0.43410000  0.69697000  1.0 -0.0178279558
C  C229  1  0.89746000  0.48522000  0.67834000  1.0 0.0698052721
C  C230  1  0.89379000  0.48310000  0.74973000  1.0 0.0602831512
C  C231  1  0.93541000  0.43430000  0.77103000  1.0 -0.1395490456
C  C232  1  0.95856000  0.40940000  0.74468000  1.0 -0.068227561
C  C233  1  0.02806000  0.33050000  0.66826000  1.0 0.3792394262
C  C234  1  0.01049000  0.35254000  0.62024000  1.0 -0.2101160152
C  C235  1  0.38646000  0.05236000  0.30904000  1.0 0.0382536638
C  C236  1  0.32426000  0.97990000  0.31465000  1.0 0.0698052721
C  C237  1  0.33635000  0.01260000  0.35889000  1.0 -0.1294038925
C  C238  1  0.37459000  0.06880000  0.37811000  1.0 -0.0815950844
C  C239  1  0.40041000  0.09050000  0.35298000  1.0 -0.003456849
C  C240  1  0.43871000  0.15520000  0.36719000  1.0 0.352532142
C  C241  1  0.48176000  0.25600000  0.41793000  1.0 0.3706360545
C  C242  1  0.52697000  0.36010000  0.46452000  1.0 0.352532142
C  C243  1  0.54069000  0.40630000  0.50912000  1.0 -0.0178279558
C  C244  1  0.51107000  0.40190000  0.53234000  1.0 -0.0815950844
C  C245  1  0.52547000  0.44450000  0.57459000  1.0 -0.1395490456
C  C246  1  0.56939000  0.48980000  0.59219000  1.0 0.0799260872
C  C247  1  0.58356000  0.45560000  0.52897000  1.0 0.0602831512
C  C248  1  0.53727000  0.33750000  0.39848000  1.0 0.3901981052
C  C249  1  0.54056000  0.30780000  0.32956000  1.0 0.3620207582
C  C250  1  0.55787000  0.32600000  0.29309000  1.0 -0.0138374963
C  C251  1  0.59436000  0.38370000  0.30029000  1.0 0.0602831512
C  C252  1  0.59064000  0.35860000  0.22704000  1.0 0.0799260872
C  C253  1  0.55474000  0.29880000  0.21720000  1.0 -0.1395490456
C  C254  1  0.53935000  0.28220000  0.25035000  1.0 -0.0890525021
C  C255  1  0.49055000  0.22680000  0.34718000  1.0 0.3792394262
C  C256  1  0.50321000  0.27320000  0.38846000  1.0 -0.1973635171
C  C257  1  0.73388000  0.44676000  0.68359000  1.0 0.5838235553
C  C258  1  0.73962000  0.37041000  0.70957000  1.0 -0.0178279558
C  C259  1  0.78756000  0.33480000  0.73516000  1.0 -0.1098603171
C  C260  1  0.79289000  0.26500000  0.75943000  1.0 -0.1173960174
C  C261  1  0.74968000  0.22959000  0.75763000  1.0 -0.0138374963
C  C262  1  0.70193000  0.26470000  0.73171000  1.0 -0.1173960174
C  C263  1  0.69626000  0.33460000  0.70715000  1.0 -0.1098603171
C  C264  1  0.75376000  0.15248000  0.78340000  1.0 0.5856404241
C  C265  1  0.74353000  0.43035000  0.39504000  1.0 0.565972143
C  C266  1  0.74483000  0.44060000  0.44295000  1.0 -0.0178279558
C  C267  1  0.79095000  0.44900000  0.48490000  1.0 -0.1019672014
C  C268  1  0.79188000  0.46960000  0.52767000  1.0 -0.1019672014
C  C269  1  0.74574000  0.48020000  0.52905000  1.0 -0.0294930016
C  C270  1  0.69953000  0.46640000  0.48732000  1.0 -0.1098603171
C  C271  1  0.69872000  0.44850000  0.44446000  1.0 -0.1173960174
C  C272  1  0.74467000  0.50611000  0.57361000  1.0 0.5838235553
C  C273  1  0.77455000  0.92877000  0.79227000  1.0 0.5287321147
C  C274  1  0.75376000  0.86434000  0.75604000  1.0 -0.0138374963
C  C275  1  0.70776000  0.82780000  0.74602000  1.0 -0.1803138636
C  C276  1  0.68930000  0.76520000  0.71356000  1.0 -0.1294038925
C  C277  1  0.71745000  0.74043000  0.69142000  1.0 -0.0294930016
C  C278  1  0.76332000  0.77749000  0.70050000  1.0 -0.1294038925
C  C279  1  0.78171000  0.83939000  0.73336000  1.0 -0.1019672014
C  C280  1  0.69929000  0.67076000  0.65902000  1.0 0.5402277049
C  C281  1  0.84955000  0.69290000  0.63554000  1.0 0.2227744136
C  C282  1  0.89570000  0.80880000  0.67810000  1.0 -0.3135166679
C  C283  1  0.88640000  0.77720000  0.59690000  1.0 -0.3817214321
C  C284  1  0.56830000  0.80450000  0.48940000  1.0 -0.3433409595
C  C285  1  0.59530000  0.69730000  0.45240000  1.0 -0.3817214321
C  C286  1  0.61692000  0.69350000  0.53646000  1.0 0.2705947097
C  C287  1  0.85230000  0.61710000  0.42440000  1.0 -0.003456849
C  C288  1  0.88990000  0.73140000  0.47520000  1.0 -0.2970910136
C  C289  1  0.86550000  0.61620000  0.50590000  1.0 -0.1173960174
C  C290  1  0.62940000  0.90270000  0.82080000  1.0 0.1515330758
C  C291  1  0.60300000  0.79740000  0.85470000  1.0 -0.227509459
C  C292  1  0.60690000  0.77470000  0.78320000  1.0 -0.1618952814
C  C293  1  0.73840000  0.84390000  0.90450000  1.0 -0.2101160152
C  C294  1  0.74010000  0.77200000  0.87880000  1.0 -0.2101160152
C  C295  1  0.74310000  0.68810000  0.90100000  1.0 -0.345195568
C  C296  1  0.73920000  0.69460000  0.94490000  1.0 0.0382536638
C  C297  1  0.73480000  0.76330000  0.96590000  1.0 -0.0890525021
C  C298  1  0.73110000  0.84210000  0.93910000  1.0 -0.1973635171
C  C299  1  0.73140000  0.76260000  0.00890000  1.0 -0.1294038925
C  C300  1  0.73430000  0.61540000  0.09630000  1.0 -0.1973635171
C  C301  1  0.73800000  0.54700000  0.07440000  1.0 -0.2410361802
C  C302  1  0.73760000  0.55020000  0.03010000  1.0 -0.1803138636
C  C303  1  0.73330000  0.62200000  0.00770000  1.0 0.0504731448
C  C304  1  0.72960000  0.69040000  0.02960000  1.0 0.1386419477
C  C305  1  0.73000000  0.68720000  0.07390000  1.0 -0.0570135888
C  C306  1  0.73830000  0.62440000  0.96570000  1.0 0.000572801
C  C307  1  0.84340000  0.61750000  0.42080000  1.0 0.0915712725
C  C308  1  0.80690000  0.65950000  0.47060000  1.0 -0.227509459
C  C309  1  0.87990000  0.73260000  0.47160000  1.0 -0.2720441397
C  C310  1  0.71640000  0.66720000  0.04260000  1.0 0.1099624226
C  C311  1  0.65470000  0.55810000  0.02120000  1.0 -0.3987185795
C  C312  1  0.66590000  0.62800000  0.95880000  1.0 -0.3602278296
C  C313  1  0.77500000  0.59330000  0.96940000  1.0 0.0915712725
C  C314  1  0.72340000  0.47530000  0.94850000  1.0 -0.3817214321
C  C315  1  0.80530000  0.47950000  0.02160000  1.0 -0.1679446835
C  C316  1  0.66280000  0.89050000  0.83040000  1.0 0.0915712725
C  C317  1  0.60250000  0.78670000  0.79500000  1.0 -0.0815950844
C  C318  1  0.67510000  0.77120000  0.87660000  1.0 -0.2890115444
C  C319  1  0.85728000  0.66540000  0.76960000  1.0 0.0504731448
C  C320  1  0.78642000  0.60010000  0.76346000  1.0 0.0698052721
C  C321  1  0.79251000  0.63330000  0.80627000  1.0 -0.1395490456
C  C322  1  0.83302000  0.68480000  0.83143000  1.0 -0.0890525021
C  C323  1  0.86617000  0.70154000  0.81243000  1.0 -0.0178279558
C  C324  1  0.91009000  0.75777000  0.83667000  1.0 0.3706360545
C  C325  1  0.96391000  0.82526000  0.90471000  1.0 0.3706360545
C  C326  1  0.02274000  0.89240000  0.97044000  1.0 0.3706360545
C  C327  1  0.04119000  0.91240000  0.02234000  1.0 -0.0294930016
C  C328  1  0.00778000  0.90940000  0.04189000  1.0 -0.0890525021
C  C329  1  0.02724000  0.92460000  0.09066000  1.0 -0.1098603171
C  C330  1  0.07933000  0.93930000  0.11911000  1.0 0.0698052721
C  C331  1  0.09292000  0.92970000  0.05309000  1.0 0.0504731448
C  C332  1  0.03311000  0.90180000  0.90331000  1.0 0.3901981052
C  C333  1  0.03633000  0.90560000  0.83206000  1.0 0.3620207582
C  C334  1  0.06051000  0.93410000  0.80303000  1.0 -0.0178279558
C  C335  1  0.10254000  0.98522000  0.82166000  1.0 0.0698052721
C  C336  1  0.10621000  0.98310000  0.75027000  1.0 0.0602831512
C  C337  1  0.06459000  0.93430000  0.72897000  1.0 -0.1395490456
C  C338  1  0.04144000  0.90940000  0.75532000  1.0 -0.068227561
C  C339  1  0.97194000  0.83050000  0.83174000  1.0 0.3792394262
C  C340  1  0.98951000  0.85254000  0.87976000  1.0 -0.2101160152
C  C341  1  0.61354000  0.55236000  0.19096000  1.0 0.0382536638
C  C342  1  0.67574000  0.47990000  0.18535000  1.0 0.0698052721
C  C343  1  0.66365000  0.51260000  0.14111000  1.0 -0.1294038925
C  C344  1  0.62541000  0.56880000  0.12189000  1.0 -0.0815950844
C  C345  1  0.59959000  0.59050000  0.14702000  1.0 -0.003456849
C  C346  1  0.56129000  0.65520000  0.13281000  1.0 0.352532142
C  C347  1  0.51824000  0.75600000  0.08207000  1.0 0.3706360545
C  C348  1  0.47303000  0.86010000  0.03548000  1.0 0.352532142
C  C349  1  0.45931000  0.90630000  0.99088000  1.0 -0.0178279558
C  C350  1  0.48893000  0.90190000  0.96766000  1.0 -0.0815950844
C  C351  1  0.47453000  0.94450000  0.92541000  1.0 -0.1395490456
C  C352  1  0.43061000  0.98980000  0.90781000  1.0 0.0799260872
C  C353  1  0.41644000  0.95560000  0.97103000  1.0 0.0602831512
C  C354  1  0.46273000  0.83750000  0.10152000  1.0 0.3901981052
C  C355  1  0.45944000  0.80780000  0.17044000  1.0 0.3620207582
C  C356  1  0.44213000  0.82600000  0.20691000  1.0 -0.0138374963
C  C357  1  0.40564000  0.88370000  0.19971000  1.0 0.0602831512
C  C358  1  0.40936000  0.85860000  0.27296000  1.0 0.0698052721
C  C359  1  0.44526000  0.79880000  0.28280000  1.0 -0.1395490456
C  C360  1  0.46065000  0.78220000  0.24965000  1.0 -0.0890525021
C  C361  1  0.50945000  0.72680000  0.15282000  1.0 0.3792394262
C  C362  1  0.49679000  0.77320000  0.11154000  1.0 -0.1973635171
C  C363  1  0.26612000  0.94676000  0.81641000  1.0 0.5838235553
C  C364  1  0.26038000  0.87041000  0.79043000  1.0 -0.0178279558
C  C365  1  0.21244000  0.83480000  0.76484000  1.0 -0.1098603171
C  C366  1  0.20711000  0.76500000  0.74057000  1.0 -0.1173960174
C  C367  1  0.25032000  0.72959000  0.74237000  1.0 -0.0138374963
C  C368  1  0.29807000  0.76470000  0.76829000  1.0 -0.1173960174
C  C369  1  0.30374000  0.83460000  0.79285000  1.0 -0.1098603171
C  C370  1  0.24624000  0.65248000  0.71660000  1.0 0.5856404241
C  C371  1  0.25647000  0.93035000  0.10496000  1.0 0.565972143
C  C372  1  0.25517000  0.94060000  0.05705000  1.0 -0.0178279558
C  C373  1  0.20905000  0.94900000  0.01510000  1.0 -0.1019672014
C  C374  1  0.20812000  0.96960000  0.97233000  1.0 -0.1019672014
C  C375  1  0.25426000  0.98020000  0.97095000  1.0 -0.0294930016
C  C376  1  0.30047000  0.96640000  0.01268000  1.0 -0.1098603171
C  C377  1  0.30128000  0.94850000  0.05554000  1.0 -0.1173960174
C  C378  1  0.25533000  0.00611000  0.92639000  1.0 0.5838235553
C  C379  1  0.22545000  0.42877000  0.70773000  1.0 0.5287321147
C  C380  1  0.24624000  0.36434000  0.74396000  1.0 -0.0138374963
C  C381  1  0.29224000  0.32780000  0.75398000  1.0 -0.1803138636
C  C382  1  0.31070000  0.26520000  0.78644000  1.0 -0.1294038925
C  C383  1  0.28255000  0.24043000  0.80858000  1.0 -0.0294930016
C  C384  1  0.23668000  0.27749000  0.79950000  1.0 -0.1294038925
C  C385  1  0.21829000  0.33939000  0.76664000  1.0 -0.1019672014
C  C386  1  0.30071000  0.17076000  0.84098000  1.0 0.5402277049
C  C387  1  0.15045000  0.19290000  0.86446000  1.0 0.2227744136
C  C388  1  0.10430000  0.30880000  0.82190000  1.0 -0.3135166679
C  C389  1  0.11360000  0.27720000  0.90310000  1.0 -0.3817214321
C  C390  1  0.43170000  0.30450000  0.01060000  1.0 -0.3433409595
C  C391  1  0.40470000  0.19730000  0.04760000  1.0 -0.3817214321
C  C392  1  0.38308000  0.19350000  0.96354000  1.0 0.2705947097
C  C393  1  0.14770000  0.11710000  0.07560000  1.0 0.000572801
C  C394  1  0.11010000  0.23140000  0.02480000  1.0 -0.2970910136
C  C395  1  0.13450000  0.11620000  0.99410000  1.0 -0.1173960174
C  C396  1  0.37060000  0.40270000  0.67920000  1.0 0.1515330758
C  C397  1  0.39700000  0.29740000  0.64530000  1.0 -0.227509459
C  C398  1  0.39310000  0.27470000  0.71680000  1.0 -0.1618952814
C  C399  1  0.26160000  0.34390000  0.59550000  1.0 -0.2101160152
C  C400  1  0.25990000  0.27200000  0.62120000  1.0 -0.2101160152
C  C401  1  0.25690000  0.18810000  0.59900000  1.0 -0.345195568
C  C402  1  0.26080000  0.19460000  0.55510000  1.0 0.0382536638
C  C403  1  0.26520000  0.26330000  0.53410000  1.0 -0.0890525021
C  C404  1  0.26890000  0.34210000  0.56090000  1.0 -0.1973635171
C  C405  1  0.26860000  0.26260000  0.49110000  1.0 -0.1294038925
C  C406  1  0.26570000  0.11540000  0.40370000  1.0 -0.1973635171
C  C407  1  0.26200000  0.04700000  0.42560000  1.0 -0.2410361802
C  C408  1  0.26240000  0.05020000  0.46990000  1.0 -0.1803138636
C  C409  1  0.26670000  0.12200000  0.49230000  1.0 0.0504731448
C  C410  1  0.27040000  0.19040000  0.47040000  1.0 0.1386419477
C  C411  1  0.27000000  0.18720000  0.42610000  1.0 -0.0570135888
C  C412  1  0.26170000  0.12440000  0.53430000  1.0 0.000572801
C  C413  1  0.15660000  0.11750000  0.07920000  1.0 0.0915712725
C  C414  1  0.19310000  0.15950000  0.02940000  1.0 -0.227509459
C  C415  1  0.12010000  0.23260000  0.02840000  1.0 -0.2720441397
C  C416  1  0.28360000  0.16720000  0.45740000  1.0 0.1099624226
C  C417  1  0.34530000  0.05810000  0.47880000  1.0 -0.3987185795
C  C418  1  0.33410000  0.12800000  0.54120000  1.0 -0.3602278296
C  C419  1  0.22500000  0.09330000  0.53060000  1.0 0.0915712725
C  C420  1  0.27660000  0.97530000  0.55150000  1.0 -0.3817214321
C  C421  1  0.19470000  0.97950000  0.47840000  1.0 -0.1679446835
C  C422  1  0.33720000  0.39050000  0.66960000  1.0 0.0915712725
C  C423  1  0.39750000  0.28670000  0.70500000  1.0 -0.0815950844
C  C424  1  0.32490000  0.27120000  0.62340000  1.0 -0.2890115444
N  N1  1  0.81826000  0.88448000  0.24470000  1.0 -0.2789307896
N  N2  1  0.92260000  0.72319000  0.38215000  1.0 -0.4789766286
N  N3  1  0.98048000  0.65271000  0.45104000  1.0 -0.4614679025
N  N4  1  0.11206000  0.55762000  0.60067000  1.0 -0.2720441397
N  N5  1  0.05115000  0.57942000  0.45065000  1.0 -0.4272810215
N  N6  1  0.05725000  0.57140000  0.37857000  1.0 -0.3817214321
N  N7  1  0.12518000  0.49013000  0.29610000  1.0 -0.227509459
N  N8  1  0.99597000  0.64289000  0.30738000  1.0 -0.4272810215
N  N9  1  0.93119000  0.71900000  0.30954000  1.0 -0.423544741
N  N10  1  0.65151000  0.00106000  0.71077000  1.0 -0.2636038129
N  N11  1  0.55136000  0.80555000  0.59228000  1.0 -0.4614679025
N  N12  1  0.50608000  0.69920000  0.54239000  1.0 -0.4272810215
N  N13  1  0.40170000  0.50403000  0.43007000  1.0 -0.2410361802
N  N14  1  0.45020000  0.61848000  0.56170000  1.0 -0.4272810215
N  N15  1  0.44390000  0.64479000  0.63206000  1.0 -0.4489121948
N  N16  1  0.38912000  0.60054000  0.73163000  1.0 -0.2478938166
N  N17  1  0.49061000  0.75500000  0.68289000  1.0 -0.4408946498
N  N18  1  0.54287000  0.83288000  0.66394000  1.0 -0.4408946498
N  N19  1  0.12496000  0.24260000  0.36344000  1.0 -0.0382150755
N  N20  1  0.40403000  0.26780000  0.50411000  1.0 0.0120985547
N  N21  1  0.13350000  0.34600000  0.53480000  1.0 0.1700393867
N  N22  1  0.39030000  0.16810000  0.18150000  1.0 0.1386419477
N  N23  1  0.15710000  0.33120000  0.54830000  1.0 0.1840059247
N  N24  1  0.32080000  0.37550000  0.99050000  1.0 0.0265660818
N  N25  1  0.23380000  0.47590000  0.01910000  1.0 0.0171503347
N  N26  1  0.35300000  0.18010000  0.16560000  1.0 0.1851618525
N  N27  1  0.18174000  0.38448000  0.25530000  1.0 -0.2789307896
N  N28  1  0.07740000  0.22319000  0.11785000  1.0 -0.4789766286
N  N29  1  0.01952000  0.15271000  0.04896000  1.0 -0.4614679025
N  N30  1  0.88794000  0.05762000  0.89933000  1.0 -0.2720441397
N  N31  1  0.94885000  0.07942000  0.04935000  1.0 -0.423544741
N  N32  1  0.94275000  0.07140000  0.12143000  1.0 -0.3817214321
N  N33  1  0.87482000  0.99013000  0.20390000  1.0 -0.227509459
N  N34  1  0.00403000  0.14289000  0.19262000  1.0 -0.423544741
N  N35  1  0.06881000  0.21900000  0.19046000  1.0 -0.423544741
N  N36  1  0.34849000  0.50106000  0.78923000  1.0 -0.2636038129
N  N37  1  0.44864000  0.30555000  0.90772000  1.0 -0.4614679025
N  N38  1  0.49392000  0.19920000  0.95761000  1.0 -0.4272810215
N  N39  1  0.59830000  0.00403000  0.06993000  1.0 -0.2410361802
N  N40  1  0.54980000  0.11848000  0.93830000  1.0 -0.4272810215
N  N41  1  0.55610000  0.14479000  0.86794000  1.0 -0.4489121948
N  N42  1  0.61088000  0.10054000  0.76837000  1.0 -0.2478938166
N  N43  1  0.50939000  0.25500000  0.81711000  1.0 -0.4408946498
N  N44  1  0.45713000  0.33288000  0.83606000  1.0 -0.4408946498
N  N45  1  0.87504000  0.74260000  0.13656000  1.0 -0.0382150755
N  N46  1  0.59597000  0.76780000  0.99589000  1.0 0.0120985547
N  N47  1  0.86650000  0.84600000  0.96520000  1.0 0.1700393867
N  N48  1  0.60970000  0.66810000  0.31850000  1.0 0.1386419477
N  N49  1  0.84290000  0.83120000  0.95170000  1.0 0.1840059247
N  N50  1  0.67920000  0.87550000  0.50950000  1.0 0.0265660818
N  N51  1  0.76620000  0.97590000  0.48090000  1.0 0.0171503347
N  N52  1  0.64700000  0.68010000  0.33440000  1.0 0.1851618525
N  N53  1  0.18174000  0.11552000  0.75530000  1.0 -0.2789307896
N  N54  1  0.07740000  0.27681000  0.61785000  1.0 -0.4789766286
N  N55  1  0.01952000  0.34729000  0.54896000  1.0 -0.4655742411
N  N56  1  0.88794000  0.44238000  0.39933000  1.0 -0.2720441397
N  N57  1  0.94885000  0.42058000  0.54935000  1.0 -0.4272810215
N  N58  1  0.94275000  0.42860000  0.62143000  1.0 -0.3817214321
N  N59  1  0.87482000  0.50987000  0.70390000  1.0 -0.227509459
N  N60  1  0.00403000  0.35711000  0.69262000  1.0 -0.423544741
N  N61  1  0.06881000  0.28100000  0.69046000  1.0 -0.423544741
N  N62  1  0.34849000  0.99894000  0.28923000  1.0 -0.2636038129
N  N63  1  0.44864000  0.19445000  0.40772000  1.0 -0.4614679025
N  N64  1  0.49392000  0.30080000  0.45761000  1.0 -0.4272810215
N  N65  1  0.59830000  0.49597000  0.56993000  1.0 -0.2410361802
N  N66  1  0.54980000  0.38152000  0.43830000  1.0 -0.4272810215
N  N67  1  0.55610000  0.35521000  0.36794000  1.0 -0.4489121948
N  N68  1  0.61088000  0.39946000  0.26837000  1.0 -0.2478938166
N  N69  1  0.50939000  0.24500000  0.31711000  1.0 -0.4408946498
N  N70  1  0.45713000  0.16712000  0.33606000  1.0 -0.4408946498
N  N71  1  0.87504000  0.75740000  0.63656000  1.0 -0.0382150755
N  N72  1  0.59597000  0.73220000  0.49589000  1.0 0.0120985547
N  N73  1  0.86650000  0.65400000  0.46520000  1.0 0.1700393867
N  N74  1  0.60970000  0.83190000  0.81850000  1.0 0.1386419477
N  N75  1  0.84290000  0.66880000  0.45170000  1.0 0.1840059247
N  N76  1  0.67920000  0.62450000  0.00950000  1.0 0.0265660818
N  N77  1  0.76620000  0.52410000  0.98090000  1.0 0.0171503347
N  N78  1  0.64700000  0.81990000  0.83440000  1.0 0.1851618525
N  N79  1  0.81826000  0.61552000  0.74470000  1.0 -0.2789307896
N  N80  1  0.92260000  0.77681000  0.88215000  1.0 -0.4789766286
N  N81  1  0.98048000  0.84729000  0.95104000  1.0 -0.4614679025
N  N82  1  0.11206000  0.94238000  0.10067000  1.0 -0.2720441397
N  N83  1  0.05115000  0.92058000  0.95065000  1.0 -0.4272810215
N  N84  1  0.05725000  0.92860000  0.87857000  1.0 -0.3817214321
N  N85  1  0.12518000  0.00987000  0.79610000  1.0 -0.227509459
N  N86  1  0.99597000  0.85711000  0.80738000  1.0 -0.4272810215
N  N87  1  0.93119000  0.78100000  0.80954000  1.0 -0.423544741
N  N88  1  0.65151000  0.49894000  0.21077000  1.0 -0.2636038129
N  N89  1  0.55136000  0.69445000  0.09228000  1.0 -0.4614679025
N  N90  1  0.50608000  0.80080000  0.04239000  1.0 -0.4272810215
N  N91  1  0.40170000  0.99597000  0.93007000  1.0 -0.2410361802
N  N92  1  0.45020000  0.88152000  0.06170000  1.0 -0.4272810215
N  N93  1  0.44390000  0.85521000  0.13206000  1.0 -0.4489121948
N  N94  1  0.38912000  0.89946000  0.23163000  1.0 -0.2478938166
N  N95  1  0.49061000  0.74500000  0.18289000  1.0 -0.4408946498
N  N96  1  0.54287000  0.66712000  0.16394000  1.0 -0.4408946498
N  N97  1  0.12496000  0.25740000  0.86344000  1.0 -0.0382150755
N  N98  1  0.40403000  0.23220000  0.00411000  1.0 0.0120985547
N  N99  1  0.13350000  0.15400000  0.03480000  1.0 0.1700393867
N  N100  1  0.39030000  0.33190000  0.68150000  1.0 0.1386419477
N  N101  1  0.15710000  0.16880000  0.04830000  1.0 0.1840059247
N  N102  1  0.32080000  0.12450000  0.49050000  1.0 0.0265660818
N  N103  1  0.23380000  0.02410000  0.51910000  1.0 0.0171503347
N  N104  1  0.35300000  0.31990000  0.66560000  1.0 0.1851618525
O  O1  1  0.30999000  0.52276000  0.33866000  1.0 -0.5490660731
O  O2  1  0.22458000  0.52521000  0.31261000  1.0 -0.5730417732
O  O3  1  0.28857000  0.87403000  0.22318000  1.0 -0.5600971643
O  O4  1  0.20214000  0.87718000  0.19138000  1.0 -0.5401867245
O  O5  1  0.29808000  0.55121000  0.64192000  1.0 -0.5815084938
O  O6  1  0.21547000  0.59258000  0.60462000  1.0 -0.5401867245
O  O7  1  0.29569000  0.50844000  0.42423000  1.0 -0.5401867245
O  O8  1  0.21529000  0.45810000  0.39446000  1.0 -0.5730417732
O  O9  1  0.17871000  0.05079000  0.19011000  1.0 -0.5287994359
O  O10  1  0.25436000  0.03835000  0.19317000  1.0 -0.5913921807
O  O11  1  0.27058000  0.36147000  0.35493000  1.0 -0.6045733456
O  O12  1  0.34551000  0.35623000  0.35526000  1.0 -0.5401867245
O  O13  1  0.16037000  0.32596000  0.33260000  1.0 -0.4408946498
O  O14  1  0.35822000  0.36927000  0.45633000  1.0 -0.4902454678
O  O15  1  0.17120000  0.44740000  0.58700000  1.0 -0.068227561
O  O16  1  0.35862000  0.06929000  0.20562000  1.0 -0.2410361802
O  O17  1  0.18670000  0.43570000  0.59780000  1.0 -0.0890525021
O  O18  1  0.09570000  0.41180000  0.43260000  1.0 -0.5287994359
O  O19  1  0.25710000  0.32100000  0.02190000  1.0 -0.0519248757
O  O20  1  0.26590000  0.26640000  0.95960000  1.0 -0.0890525021
O  O21  1  0.19420000  0.42500000  0.98210000  1.0 -0.1019672014
O  O22  1  0.19170000  0.35960000  0.00170000  1.0 -0.2410361802
O  O23  1  0.69001000  0.02276000  0.16134000  1.0 -0.5490660731
O  O24  1  0.77542000  0.02521000  0.18739000  1.0 -0.5730417732
O  O25  1  0.71143000  0.37403000  0.27682000  1.0 -0.5600971643
O  O26  1  0.79786000  0.37718000  0.30862000  1.0 -0.5401867245
O  O27  1  0.70192000  0.05121000  0.85808000  1.0 -0.5815084938
O  O28  1  0.78453000  0.09258000  0.89538000  1.0 -0.5401867245
O  O29  1  0.70431000  0.00844000  0.07577000  1.0 -0.5401867245
O  O30  1  0.78471000  0.95810000  0.10554000  1.0 -0.5730417732
O  O31  1  0.82129000  0.55079000  0.30989000  1.0 -0.5287994359
O  O32  1  0.74564000  0.53835000  0.30683000  1.0 -0.5913921807
O  O33  1  0.72942000  0.86147000  0.14507000  1.0 -0.6045733456
O  O34  1  0.65449000  0.85623000  0.14474000  1.0 -0.5401867245
O  O35  1  0.83963000  0.82596000  0.16740000  1.0 -0.4408946498
O  O36  1  0.64178000  0.86927000  0.04367000  1.0 -0.4902454678
O  O37  1  0.82880000  0.94740000  0.91300000  1.0 -0.068227561
O  O38  1  0.64138000  0.56929000  0.29438000  1.0 -0.2410361802
O  O39  1  0.81330000  0.93570000  0.90220000  1.0 -0.0890525021
O  O40  1  0.90430000  0.91180000  0.06740000  1.0 -0.5287994359
O  O41  1  0.74290000  0.82100000  0.47810000  1.0 -0.0519248757
O  O42  1  0.73410000  0.76640000  0.54040000  1.0 -0.0890525021
O  O43  1  0.80580000  0.92500000  0.51790000  1.0 -0.1019672014
O  O44  1  0.80830000  0.85960000  0.49830000  1.0 -0.2410361802
O  O45  1  0.69001000  0.47724000  0.66134000  1.0 -0.5490660731
O  O46  1  0.77542000  0.47479000  0.68739000  1.0 -0.5730417732
O  O47  1  0.71143000  0.12597000  0.77682000  1.0 -0.5600971643
O  O48  1  0.79786000  0.12282000  0.80862000  1.0 -0.5401867245
O  O49  1  0.70192000  0.44879000  0.35808000  1.0 -0.5815084938
O  O50  1  0.78453000  0.40742000  0.39538000  1.0 -0.5401867245
O  O51  1  0.70431000  0.49156000  0.57577000  1.0 -0.5401867245
O  O52  1  0.78471000  0.54190000  0.60554000  1.0 -0.5730417732
O  O53  1  0.82129000  0.94921000  0.80989000  1.0 -0.5287994359
O  O54  1  0.74564000  0.96165000  0.80683000  1.0 -0.5913921807
O  O55  1  0.72942000  0.63853000  0.64507000  1.0 -0.6045733456
O  O56  1  0.65449000  0.64377000  0.64474000  1.0 -0.5401867245
O  O57  1  0.83963000  0.67404000  0.66740000  1.0 -0.4408946498
O  O58  1  0.64178000  0.63073000  0.54367000  1.0 -0.4902454678
O  O59  1  0.82880000  0.55260000  0.41300000  1.0 -0.068227561
O  O60  1  0.64138000  0.93071000  0.79438000  1.0 -0.2410361802
O  O61  1  0.81330000  0.56430000  0.40220000  1.0 -0.0815950844
O  O62  1  0.90430000  0.58820000  0.56740000  1.0 -0.5287994359
O  O63  1  0.74290000  0.67900000  0.97810000  1.0 -0.0519248757
O  O64  1  0.73410000  0.73360000  0.04040000  1.0 -0.0890525021
O  O65  1  0.80580000  0.57500000  0.01790000  1.0 -0.1019672014
O  O66  1  0.80830000  0.64040000  0.99830000  1.0 -0.2410361802
O  O67  1  0.30999000  0.97724000  0.83866000  1.0 -0.5490660731
O  O68  1  0.22458000  0.97479000  0.81261000  1.0 -0.5730417732
O  O69  1  0.28857000  0.62597000  0.72318000  1.0 -0.5600971643
O  O70  1  0.20214000  0.62282000  0.69138000  1.0 -0.5401867245
O  O71  1  0.29808000  0.94879000  0.14192000  1.0 -0.5815084938
O  O72  1  0.21547000  0.90742000  0.10462000  1.0 -0.5401867245
O  O73  1  0.29569000  0.99156000  0.92423000  1.0 -0.5401867245
O  O74  1  0.21529000  0.04190000  0.89446000  1.0 -0.5730417732
O  O75  1  0.17871000  0.44921000  0.69011000  1.0 -0.5287994359
O  O76  1  0.25436000  0.46165000  0.69317000  1.0 -0.5913921807
O  O77  1  0.27058000  0.13853000  0.85493000  1.0 -0.6045733456
O  O78  1  0.34551000  0.14377000  0.85526000  1.0 -0.5401867245
O  O79  1  0.16037000  0.17404000  0.83260000  1.0 -0.4408946498
O  O80  1  0.35822000  0.13073000  0.95633000  1.0 -0.4902454678
O  O81  1  0.17120000  0.05260000  0.08700000  1.0 -0.068227561
O  O82  1  0.35862000  0.43071000  0.70562000  1.0 -0.2410361802
O  O83  1  0.18670000  0.06430000  0.09780000  1.0 -0.0890525021
O  O84  1  0.09570000  0.08820000  0.93260000  1.0 -0.5287994359
O  O85  1  0.25710000  0.17900000  0.52190000  1.0 -0.0519248757
O  O86  1  0.26590000  0.23360000  0.45960000  1.0 -0.0890525021
O  O87  1  0.19420000  0.07500000  0.48210000  1.0 -0.1019672014
O  O88  1  0.19170000  0.14040000  0.50170000  1.0 -0.2410361802
