# DDEC6 charges by PACMAN v1.1 (https://github.com/mtap-research/PACMAN-charge/)
data_XAQTOY01_ASR_pacman
_symmetry_space_group_name_H-M   'P 1'
_cell_length_a   9.99370000
_cell_length_b   9.99370000
_cell_length_c   12.85190000
_cell_angle_alpha   90.00000000
_cell_angle_beta   90.00000000
_cell_angle_gamma   90.00000000
_symmetry_Int_Tables_number   1
_chemical_formula_structural   CoPO4
_chemical_formula_sum   'Co10 P10 O40'
_cell_volume   1283.57117069
_cell_formula_units_Z   10
loop_
 _symmetry_equiv_pos_site_id
 _symmetry_equiv_pos_as_xyz
  1  'x, y, z'
loop_
 _atom_site_type_symbol
 _atom_site_label
 _atom_site_symmetry_multiplicity
 _atom_site_fract_x
 _atom_site_fract_y
 _atom_site_fract_z
 _atom_site_occupancy
 _atom_site_charge
Co  Co1  1  0.87890000  0.12610000  0.29810000  1.0 1.2303273748
Co  Co2  1  0.12610000  0.12110000  0.70190000  1.0 1.2303273748
Co  Co3  1  0.37890000  0.37390000  0.20190000  1.0 1.2303273748
Co  Co4  1  0.12110000  0.87390000  0.29810000  1.0 1.2303273748
Co  Co5  1  0.37390000  0.62110000  0.79810000  1.0 1.2303273748
Co  Co6  1  0.87390000  0.87890000  0.70190000  1.0 1.2303273748
Co  Co7  1  0.62110000  0.62610000  0.20190000  1.0 1.2303273748
Co  Co8  1  0.62610000  0.37890000  0.79810000  1.0 1.2303273748
Co  Co9  1  0.00000000  0.00000000  0.00000000  1.0 1.2048295657
Co  Co10  1  0.50000000  0.50000000  0.50000000  1.0 1.2048295657
P  P1  1  0.85010000  0.86140000  0.17840000  1.0 1.3541967193
P  P2  1  0.86140000  0.14990000  0.82160000  1.0 1.3541967193
P  P3  1  0.35010000  0.63860000  0.32160000  1.0 1.3579329967
P  P4  1  0.14990000  0.13860000  0.17840000  1.0 1.3579329967
P  P5  1  0.63860000  0.64990000  0.67840000  1.0 1.3579329967
P  P6  1  0.13860000  0.85010000  0.82160000  1.0 1.3579329967
P  P7  1  0.64990000  0.36140000  0.32160000  1.0 1.3579329967
P  P8  1  0.36140000  0.35010000  0.67840000  1.0 1.3579329967
P  P9  1  0.00000000  0.00000000  0.50000000  1.0 1.4297172944
P  P10  1  0.50000000  0.50000000  0.00000000  1.0 1.4297172944
O  O1  1  0.72780000  0.77760000  0.17320000  1.0 -0.5704867919
O  O2  1  0.77760000  0.27220000  0.82680000  1.0 -0.5704867919
O  O3  1  0.22780000  0.72240000  0.32680000  1.0 -0.5704867919
O  O4  1  0.27220000  0.22240000  0.17320000  1.0 -0.5704867919
O  O5  1  0.72240000  0.77220000  0.67320000  1.0 -0.5704867919
O  O6  1  0.22240000  0.72780000  0.82680000  1.0 -0.5704867919
O  O7  1  0.77220000  0.27760000  0.32680000  1.0 -0.5704867919
O  O8  1  0.27760000  0.22780000  0.67320000  1.0 -0.5704867919
O  O9  1  0.92270000  0.84790000  0.07570000  1.0 -0.6336699804
O  O10  1  0.84790000  0.07730000  0.92430000  1.0 -0.6336699804
O  O11  1  0.42270000  0.65210000  0.42430000  1.0 -0.6336699804
O  O12  1  0.07730000  0.15210000  0.07570000  1.0 -0.6336699804
O  O13  1  0.65210000  0.57730000  0.57570000  1.0 -0.6336699804
O  O14  1  0.15210000  0.92270000  0.92430000  1.0 -0.6336699804
O  O15  1  0.57730000  0.34790000  0.42430000  1.0 -0.6336699804
O  O16  1  0.34790000  0.42270000  0.57570000  1.0 -0.6336699804
O  O17  1  0.80960000  0.01010000  0.19330000  1.0 -0.6913532136
O  O18  1  0.01010000  0.19040000  0.80670000  1.0 -0.6913532136
O  O19  1  0.30960000  0.48990000  0.30670000  1.0 -0.6913532136
O  O20  1  0.19040000  0.98990000  0.19330000  1.0 -0.6913532136
O  O21  1  0.48990000  0.69040000  0.69330000  1.0 -0.6913532136
O  O22  1  0.98990000  0.80960000  0.80670000  1.0 -0.6913532136
O  O23  1  0.69040000  0.51010000  0.30670000  1.0 -0.6913532136
O  O24  1  0.51010000  0.30960000  0.69330000  1.0 -0.6913532136
O  O25  1  0.88000000  0.04260000  0.43370000  1.0 -0.6590998178
O  O26  1  0.04260000  0.12000000  0.56630000  1.0 -0.6590998178
O  O27  1  0.38000000  0.45740000  0.06630000  1.0 -0.6590998178
O  O28  1  0.12000000  0.95740000  0.43370000  1.0 -0.6590998178
O  O29  1  0.45740000  0.62000000  0.93370000  1.0 -0.6590998178
O  O30  1  0.95740000  0.88000000  0.56630000  1.0 -0.6590998178
O  O31  1  0.62000000  0.54260000  0.06630000  1.0 -0.6590998178
O  O32  1  0.54260000  0.38000000  0.93370000  1.0 -0.6590998178
O  O33  1  0.05810000  0.18570000  0.26420000  1.0 -0.6913532136
O  O34  1  0.18570000  0.94190000  0.73580000  1.0 -0.6913532136
O  O35  1  0.55810000  0.31430000  0.23580000  1.0 -0.6913532136
O  O36  1  0.94190000  0.81430000  0.26420000  1.0 -0.6913532136
O  O37  1  0.31430000  0.44190000  0.76420000  1.0 -0.6913532136
O  O38  1  0.81430000  0.05810000  0.73580000  1.0 -0.6913532136
O  O39  1  0.44190000  0.68570000  0.23580000  1.0 -0.6913532136
O  O40  1  0.68570000  0.55810000  0.76420000  1.0 -0.6913532136
