# DDEC6 charges by PACMAN v1.1 (https://github.com/mtap-research/PACMAN-charge/)
data_XAQTIS_FSR_pacman
_symmetry_space_group_name_H-M   'P 1'
_cell_length_a   10.08730000
_cell_length_b   10.08730000
_cell_length_c   12.93580000
_cell_angle_alpha   90.00000000
_cell_angle_beta   90.00000000
_cell_angle_gamma   90.00000000
_symmetry_Int_Tables_number   1
_chemical_formula_structural   CoPO4
_chemical_formula_sum   'Co10 P10 O40'
_cell_volume   1316.26449428
_cell_formula_units_Z   10
loop_
 _symmetry_equiv_pos_site_id
 _symmetry_equiv_pos_as_xyz
  1  'x, y, z'
loop_
 _atom_site_type_symbol
 _atom_site_label
 _atom_site_symmetry_multiplicity
 _atom_site_fract_x
 _atom_site_fract_y
 _atom_site_fract_z
 _atom_site_occupancy
 _atom_site_charge
Co  Co1  1  0.88160000  0.13240000  0.29890000  1.0 1.2065943072
Co  Co2  1  0.13240000  0.11840000  0.70110000  1.0 1.2065943072
Co  Co3  1  0.38160000  0.36760000  0.20110000  1.0 1.2065943072
Co  Co4  1  0.11840000  0.86760000  0.29890000  1.0 1.2065943072
Co  Co5  1  0.36760000  0.61840000  0.79890000  1.0 1.2065943072
Co  Co6  1  0.86760000  0.88160000  0.70110000  1.0 1.2065943072
Co  Co7  1  0.61840000  0.63240000  0.20110000  1.0 1.2065943072
Co  Co8  1  0.63240000  0.38160000  0.79890000  1.0 1.2065943072
Co  Co9  1  0.00000000  0.00000000  0.00000000  1.0 1.2516756247
Co  Co10  1  0.50000000  0.50000000  0.50000000  1.0 1.2516756247
P  P1  1  0.84460000  0.86790000  0.18390000  1.0 1.3430817713
P  P2  1  0.86790000  0.15540000  0.81610000  1.0 1.3430817713
P  P3  1  0.34460000  0.63210000  0.31610000  1.0 1.3466410826
P  P4  1  0.15540000  0.13210000  0.18390000  1.0 1.3466410826
P  P5  1  0.63210000  0.65540000  0.68390000  1.0 1.3466410826
P  P6  1  0.13210000  0.84460000  0.81610000  1.0 1.3466410826
P  P7  1  0.65540000  0.36790000  0.31610000  1.0 1.3430817713
P  P8  1  0.36790000  0.34460000  0.68390000  1.0 1.3466410826
P  P9  1  0.00000000  0.00000000  0.50000000  1.0 1.4076100777
P  P10  1  0.50000000  0.50000000  0.00000000  1.0 1.4076100777
O  O1  1  0.72080000  0.78480000  0.18870000  1.0 -0.5657304188
O  O2  1  0.78480000  0.27920000  0.81130000  1.0 -0.5657304188
O  O3  1  0.22080000  0.71520000  0.31130000  1.0 -0.5657304188
O  O4  1  0.27920000  0.21520000  0.18870000  1.0 -0.5657304188
O  O5  1  0.71520000  0.77920000  0.68870000  1.0 -0.5657304188
O  O6  1  0.21520000  0.72080000  0.81130000  1.0 -0.5657304188
O  O7  1  0.77920000  0.28480000  0.31130000  1.0 -0.5657304188
O  O8  1  0.28480000  0.22080000  0.68870000  1.0 -0.5657304188
O  O9  1  0.90620000  0.85790000  0.07610000  1.0 -0.6530157139
O  O10  1  0.85790000  0.09380000  0.92390000  1.0 -0.6530157139
O  O11  1  0.40620000  0.64210000  0.42390000  1.0 -0.6530157139
O  O12  1  0.09380000  0.14210000  0.07610000  1.0 -0.6530157139
O  O13  1  0.64210000  0.59380000  0.57610000  1.0 -0.6530157139
O  O14  1  0.14210000  0.90620000  0.92390000  1.0 -0.6530157139
O  O15  1  0.59380000  0.35790000  0.42390000  1.0 -0.6530157139
O  O16  1  0.35790000  0.40620000  0.57610000  1.0 -0.6530157139
O  O17  1  0.80750000  0.01230000  0.20340000  1.0 -0.6804140394
O  O18  1  0.01230000  0.19250000  0.79660000  1.0 -0.6804140394
O  O19  1  0.30750000  0.48770000  0.29660000  1.0 -0.6804140394
O  O20  1  0.19250000  0.98770000  0.20340000  1.0 -0.6804140394
O  O21  1  0.48770000  0.69250000  0.70340000  1.0 -0.6804140394
O  O22  1  0.98770000  0.80750000  0.79660000  1.0 -0.6804140394
O  O23  1  0.69250000  0.51230000  0.29660000  1.0 -0.6804140394
O  O24  1  0.51230000  0.30750000  0.70340000  1.0 -0.6804140394
O  O25  1  0.88950000  0.06290000  0.43420000  1.0 -0.6371478622
O  O26  1  0.06290000  0.11050000  0.56580000  1.0 -0.6371478622
O  O27  1  0.38950000  0.43710000  0.06580000  1.0 -0.6371478622
O  O28  1  0.11050000  0.93710000  0.43420000  1.0 -0.6371478622
O  O29  1  0.43710000  0.61050000  0.93420000  1.0 -0.6371478622
O  O30  1  0.93710000  0.88950000  0.56580000  1.0 -0.6371478622
O  O31  1  0.61050000  0.56290000  0.06580000  1.0 -0.6371478622
O  O32  1  0.56290000  0.38950000  0.93420000  1.0 -0.6371478622
O  O33  1  0.05840000  0.18150000  0.26470000  1.0 -0.6804140394
O  O34  1  0.18150000  0.94160000  0.73530000  1.0 -0.6804140394
O  O35  1  0.55840000  0.31850000  0.23530000  1.0 -0.6804140394
O  O36  1  0.94160000  0.81850000  0.26470000  1.0 -0.6804140394
O  O37  1  0.31850000  0.44160000  0.76470000  1.0 -0.6804140394
O  O38  1  0.81850000  0.05840000  0.73530000  1.0 -0.6804140394
O  O39  1  0.44160000  0.68150000  0.23530000  1.0 -0.6804140394
O  O40  1  0.68150000  0.55840000  0.76470000  1.0 -0.6804140394
