# DDEC6 charges by PACMAN v1.1 (https://github.com/mtap-research/PACMAN-charge/)
data_XAQTEO01_ASR_pacman
_symmetry_space_group_name_H-M   'P 1'
_cell_length_a   10.01030000
_cell_length_b   9.98960000
_cell_length_c   12.85200000
_cell_angle_alpha   90.00000000
_cell_angle_beta   91.11300000
_cell_angle_gamma   90.00000000
_symmetry_Int_Tables_number   1
_chemical_formula_structural   CoPO4
_chemical_formula_sum   'Co10 P10 O40'
_cell_volume   1284.94329610
_cell_formula_units_Z   10
loop_
 _symmetry_equiv_pos_site_id
 _symmetry_equiv_pos_as_xyz
  1  'x, y, z'
loop_
 _atom_site_type_symbol
 _atom_site_label
 _atom_site_symmetry_multiplicity
 _atom_site_fract_x
 _atom_site_fract_y
 _atom_site_fract_z
 _atom_site_occupancy
 _atom_site_charge
Co  Co1  1  0.62890000  0.95060000  0.45370000  1.0 1.1906318655
Co  Co2  1  0.37110000  0.45060000  0.54630000  1.0 1.1906318655
Co  Co3  1  0.88170000  0.19910000  0.45030000  1.0 1.2292545229
Co  Co4  1  0.11830000  0.69910000  0.54970000  1.0 1.2204262406
Co  Co5  1  0.87110000  0.95660000  0.04400000  1.0 1.1835709006
Co  Co6  1  0.12890000  0.45660000  0.95600000  1.0 1.1906318655
Co  Co7  1  0.62390000  0.20690000  0.05350000  1.0 1.2292545229
Co  Co8  1  0.37610000  0.70690000  0.94650000  1.0 1.2292545229
Co  Co9  1  0.74840000  0.09470000  0.75100000  1.0 1.2045491726
Co  Co10  1  0.25160000  0.59470000  0.24900000  1.0 1.2045491726
P  P1  1  0.88700000  0.23770000  0.93800000  1.0 1.369539538
P  P2  1  0.11300000  0.73770000  0.06200000  1.0 1.369539538
P  P3  1  0.60320000  0.94500000  0.92540000  1.0 1.369539538
P  P4  1  0.39680000  0.44500000  0.07460000  1.0 1.369539538
P  P5  1  0.89890000  0.93910000  0.57830000  1.0 1.369539538
P  P6  1  0.10110000  0.43910000  0.42170000  1.0 1.369539538
P  P7  1  0.75320000  0.06440000  0.24980000  1.0 1.4062089116
P  P8  1  0.24680000  0.56440000  0.75020000  1.0 1.4062089116
P  P9  1  0.60720000  0.22200000  0.56160000  1.0 1.369539538
P  P10  1  0.39280000  0.72200000  0.43840000  1.0 1.3757877737
O  O1  1  0.70110000  0.26140000  0.47490000  1.0 -0.695781073
O  O2  1  0.29890000  0.76140000  0.52510000  1.0 -0.695781073
O  O3  1  0.66720000  0.24040000  0.66740000  1.0 -0.6399652511
O  O4  1  0.33280000  0.74040000  0.33260000  1.0 -0.6399652511
O  O5  1  0.51660000  0.82480000  0.91540000  1.0 -0.5786277115
O  O6  1  0.48340000  0.32480000  0.08460000  1.0 -0.5786277115
O  O7  1  0.87470000  0.10390000  0.32030000  1.0 -0.6583577305
O  O8  1  0.12530000  0.60390000  0.67970000  1.0 -0.6583577305
O  O9  1  0.55940000  0.03340000  0.01530000  1.0 -0.6914042642
O  O10  1  0.44060000  0.53340000  0.98470000  1.0 -0.695781073
O  O11  1  0.80170000  0.89260000  0.49190000  1.0 -0.6813870102
O  O12  1  0.19830000  0.39260000  0.50810000  1.0 -0.6813870102
O  O13  1  0.70280000  0.18550000  0.19020000  1.0 -0.6583577305
O  O14  1  0.29720000  0.68550000  0.80980000  1.0 -0.6583577305
O  O15  1  0.89570000  0.18270000  0.82890000  1.0 -0.6496784896
O  O16  1  0.10430000  0.68270000  0.17110000  1.0 -0.6496784896
O  O17  1  0.64020000  0.00740000  0.31490000  1.0 -0.6399652511
O  O18  1  0.35980000  0.50740000  0.68510000  1.0 -0.6399652511
O  O19  1  0.74070000  0.28040000  0.95480000  1.0 -0.6813870102
O  O20  1  0.25930000  0.78040000  0.04520000  1.0 -0.6813870102
O  O21  1  0.56350000  0.07660000  0.54910000  1.0 -0.6813870102
O  O22  1  0.43650000  0.57660000  0.45090000  1.0 -0.6813870102
O  O23  1  0.59050000  0.02420000  0.82540000  1.0 -0.6399652511
O  O24  1  0.40950000  0.52420000  0.17460000  1.0 -0.6399652511
O  O25  1  0.82960000  0.94320000  0.68090000  1.0 -0.6399652511
O  O26  1  0.17040000  0.44320000  0.31910000  1.0 -0.6399652511
O  O27  1  0.79930000  0.95400000  0.17760000  1.0 -0.6399652511
O  O28  1  0.20070000  0.45400000  0.82240000  1.0 -0.6399652511
O  O29  1  0.93070000  0.13280000  0.01760000  1.0 -0.6813870102
O  O30  1  0.06930000  0.63280000  0.98240000  1.0 -0.6813870102
O  O31  1  0.94660000  0.07930000  0.55620000  1.0 -0.6914042642
O  O32  1  0.05340000  0.57930000  0.44380000  1.0 -0.6914042642
O  O33  1  0.48300000  0.30810000  0.54680000  1.0 -0.553010425
O  O34  1  0.51700000  0.80810000  0.45320000  1.0 -0.553010425
O  O35  1  0.00970000  0.84110000  0.58950000  1.0 -0.5786277115
O  O36  1  0.99030000  0.34110000  0.41050000  1.0 -0.5786277115
O  O37  1  0.97700000  0.35680000  0.95150000  1.0 -0.5596693963
O  O38  1  0.02300000  0.85680000  0.04850000  1.0 -0.5596693963
O  O39  1  0.74680000  0.89820000  0.94090000  1.0 -0.6813870102
O  O40  1  0.25320000  0.39820000  0.05910000  1.0 -0.6813870102
