# DDEC6 charges by PACMAN v1.1 (https://github.com/mtap-research/PACMAN-charge/)
data_XAQTEO_FSR_pacman
_symmetry_space_group_name_H-M   'P 1'
_cell_length_a   10.03170000
_cell_length_b   10.03170000
_cell_length_c   12.88370000
_cell_angle_alpha   90.00000000
_cell_angle_beta   90.00000000
_cell_angle_gamma   90.00000000
_symmetry_Int_Tables_number   1
_chemical_formula_structural   CoPO4
_chemical_formula_sum   'Co10 P10 O40'
_cell_volume   1296.55121250
_cell_formula_units_Z   10
loop_
 _symmetry_equiv_pos_site_id
 _symmetry_equiv_pos_as_xyz
  1  'x, y, z'
loop_
 _atom_site_type_symbol
 _atom_site_label
 _atom_site_symmetry_multiplicity
 _atom_site_fract_x
 _atom_site_fract_y
 _atom_site_fract_z
 _atom_site_occupancy
 _atom_site_charge
Co  Co1  1  0.87590000  0.12460000  0.29780000  1.0 1.2028173198
Co  Co2  1  0.12460000  0.12410000  0.70220000  1.0 1.2028173198
Co  Co3  1  0.37590000  0.37540000  0.20220000  1.0 1.2028173198
Co  Co4  1  0.12410000  0.87540000  0.29780000  1.0 1.2028173198
Co  Co5  1  0.37540000  0.62410000  0.79780000  1.0 1.2028173198
Co  Co6  1  0.87540000  0.87590000  0.70220000  1.0 1.2028173198
Co  Co7  1  0.62410000  0.62460000  0.20220000  1.0 1.2028173198
Co  Co8  1  0.62460000  0.37590000  0.79780000  1.0 1.2028173198
Co  Co9  1  0.00000000  0.00000000  0.00000000  1.0 1.2028173198
Co  Co10  1  0.50000000  0.50000000  0.50000000  1.0 1.2028173198
P  P1  1  0.85200000  0.85900000  0.17990000  1.0 1.3530613234
P  P2  1  0.85900000  0.14800000  0.82010000  1.0 1.3530613234
P  P3  1  0.35200000  0.64100000  0.32010000  1.0 1.3575561593
P  P4  1  0.14800000  0.14100000  0.17990000  1.0 1.3575561593
P  P5  1  0.64100000  0.64800000  0.67990000  1.0 1.3530613234
P  P6  1  0.14100000  0.85200000  0.82010000  1.0 1.3575561593
P  P7  1  0.64800000  0.35900000  0.32010000  1.0 1.3530613234
P  P8  1  0.35900000  0.35200000  0.67990000  1.0 1.3575561593
P  P9  1  0.00000000  0.00000000  0.50000000  1.0 1.3575561593
P  P10  1  0.50000000  0.50000000  0.00000000  1.0 1.3575561593
O  O1  1  0.73000000  0.76840000  0.18300000  1.0 -0.5446382413
O  O2  1  0.76840000  0.27000000  0.81700000  1.0 -0.5446382413
O  O3  1  0.23000000  0.73160000  0.31700000  1.0 -0.5446382413
O  O4  1  0.27000000  0.23160000  0.18300000  1.0 -0.5446382413
O  O5  1  0.73160000  0.77000000  0.68300000  1.0 -0.5446382413
O  O6  1  0.23160000  0.73000000  0.81700000  1.0 -0.5446382413
O  O7  1  0.77000000  0.26840000  0.31700000  1.0 -0.5446382413
O  O8  1  0.26840000  0.23000000  0.68300000  1.0 -0.5446382413
O  O9  1  0.91760000  0.84800000  0.07620000  1.0 -0.6373751412
O  O10  1  0.84800000  0.08240000  0.92380000  1.0 -0.6373751412
O  O11  1  0.41760000  0.65200000  0.42380000  1.0 -0.6373751412
O  O12  1  0.08240000  0.15200000  0.07620000  1.0 -0.6373751412
O  O13  1  0.65200000  0.58240000  0.57620000  1.0 -0.6373751412
O  O14  1  0.15200000  0.91760000  0.92380000  1.0 -0.6373751412
O  O15  1  0.58240000  0.34800000  0.42380000  1.0 -0.6373751412
O  O16  1  0.34800000  0.41760000  0.57620000  1.0 -0.6373751412
O  O17  1  0.80910000  0.00750000  0.19660000  1.0 -0.6803503583
O  O18  1  0.00750000  0.19090000  0.80340000  1.0 -0.6803503583
O  O19  1  0.30910000  0.49250000  0.30340000  1.0 -0.6803503583
O  O20  1  0.19090000  0.99250000  0.19660000  1.0 -0.6803503583
O  O21  1  0.49250000  0.69090000  0.69660000  1.0 -0.6803503583
O  O22  1  0.99250000  0.80910000  0.80340000  1.0 -0.6803503583
O  O23  1  0.69090000  0.50750000  0.30340000  1.0 -0.6803503583
O  O24  1  0.50750000  0.30910000  0.69660000  1.0 -0.6803503583
O  O25  1  0.88750000  0.04810000  0.43290000  1.0 -0.6555053318
O  O26  1  0.04810000  0.11250000  0.56710000  1.0 -0.6555053318
O  O27  1  0.38750000  0.45190000  0.06710000  1.0 -0.6555053318
O  O28  1  0.11250000  0.95190000  0.43290000  1.0 -0.6555053318
O  O29  1  0.45190000  0.61250000  0.93290000  1.0 -0.6555053318
O  O30  1  0.95190000  0.88750000  0.56710000  1.0 -0.6555053318
O  O31  1  0.61250000  0.54810000  0.06710000  1.0 -0.6555053318
O  O32  1  0.54810000  0.38750000  0.93290000  1.0 -0.6555053318
O  O33  1  0.05460000  0.18580000  0.26640000  1.0 -0.6803503583
O  O34  1  0.18580000  0.94540000  0.73360000  1.0 -0.6803503583
O  O35  1  0.55460000  0.31420000  0.23360000  1.0 -0.6803503583
O  O36  1  0.94540000  0.81420000  0.26640000  1.0 -0.6803503583
O  O37  1  0.31420000  0.44540000  0.76640000  1.0 -0.6803503583
O  O38  1  0.81420000  0.05460000  0.73360000  1.0 -0.6803503583
O  O39  1  0.44540000  0.68580000  0.23360000  1.0 -0.6803503583
O  O40  1  0.68580000  0.55460000  0.76640000  1.0 -0.6803503583
