# DDEC6 charges by PACMAN v1.1 (https://github.com/mtap-research/PACMAN-charge/)
data_XASFAY_ASR_pacman
_symmetry_space_group_name_H-M   'P 1'
_cell_length_a   13.26390000
_cell_length_b   13.26390000
_cell_length_c   19.96600000
_cell_angle_alpha   82.15730000
_cell_angle_beta   97.84270000
_cell_angle_gamma   58.97060000
_symmetry_Int_Tables_number   1
_chemical_formula_structural   CuH30(C6N)5
_chemical_formula_sum   'Cu4 H120 C120 N20'
_cell_volume   2892.00774728
_cell_formula_units_Z   4
loop_
 _symmetry_equiv_pos_site_id
 _symmetry_equiv_pos_as_xyz
  1  'x, y, z'
loop_
 _atom_site_type_symbol
 _atom_site_label
 _atom_site_symmetry_multiplicity
 _atom_site_fract_x
 _atom_site_fract_y
 _atom_site_fract_z
 _atom_site_occupancy
 _atom_site_charge
Cu  Cu1  1  0.50000000  0.00000000  0.50000000  1.0 0.2835404095
Cu  Cu2  1  0.00000000  0.50000000  0.00000000  1.0 0.2835404095
Cu  Cu3  1  0.00000000  0.00000000  0.00000000  1.0 0.2241067928
Cu  Cu4  1  0.00000000  0.00000000  0.50000000  1.0 0.2241067928
H  H1  1  0.51040000  0.84220000  0.39940000  1.0 0.0490707216
H  H2  1  0.15780000  0.48960000  0.89940000  1.0 0.0490707216
H  H3  1  0.48960000  0.15780000  0.60060000  1.0 0.0490707216
H  H4  1  0.84220000  0.51040000  0.10060000  1.0 0.0490707216
H  H5  1  0.63020000  0.74540000  0.32700000  1.0 0.0988873342
H  H6  1  0.25460000  0.36980000  0.82700000  1.0 0.0988873342
H  H7  1  0.36980000  0.25460000  0.67300000  1.0 0.0988873342
H  H8  1  0.74540000  0.63020000  0.17300000  1.0 0.0988873342
H  H9  1  0.80730000  0.90890000  0.36010000  1.0 0.0910134676
H  H10  1  0.09110000  0.19270000  0.86010000  1.0 0.0910134676
H  H11  1  0.19270000  0.09110000  0.63990000  1.0 0.0910134676
H  H12  1  0.90890000  0.80730000  0.13990000  1.0 0.0910134676
H  H13  1  0.68740000  0.00560000  0.43240000  1.0 0.0490707216
H  H14  1  0.99440000  0.31260000  0.93240000  1.0 0.0490707216
H  H15  1  0.31260000  0.99440000  0.56760000  1.0 0.0490707216
H  H16  1  0.00560000  0.68740000  0.06760000  1.0 0.0490707216
H  H17  1  0.82630000  0.67010000  0.29870000  1.0 0.0811685328
H  H18  1  0.32990000  0.17370000  0.79870000  1.0 0.0811685328
H  H19  1  0.17370000  0.32990000  0.70130000  1.0 0.0811685328
H  H20  1  0.67010000  0.82630000  0.20130000  1.0 0.0811685328
H  H21  1  0.88280000  0.74840000  0.30010000  1.0 0.0674898504
H  H22  1  0.25160000  0.11720000  0.80010000  1.0 0.0674898504
H  H23  1  0.11720000  0.25160000  0.69990000  1.0 0.0674898504
H  H24  1  0.74840000  0.88280000  0.19990000  1.0 0.0674898504
H  H25  1  0.84540000  0.93580000  0.92670000  1.0 0.0910134676
H  H26  1  0.06420000  0.15460000  0.42670000  1.0 0.0910134676
H  H27  1  0.15460000  0.06420000  0.07330000  1.0 0.0910134676
H  H28  1  0.93580000  0.84540000  0.57330000  1.0 0.0910134676
H  H29  1  0.66690000  0.94590000  0.92300000  1.0 0.1396044013
H  H30  1  0.05410000  0.33310000  0.42300000  1.0 0.1396044013
H  H31  1  0.33310000  0.05410000  0.07700000  1.0 0.1396044013
H  H32  1  0.94590000  0.66690000  0.57700000  1.0 0.1310798837
H  H33  1  0.60990000  0.13430000  0.06800000  1.0 0.1310798837
H  H34  1  0.86570000  0.39010000  0.56800000  1.0 0.1310798837
H  H35  1  0.39010000  0.86570000  0.93200000  1.0 0.1310798837
H  H36  1  0.13430000  0.60990000  0.43200000  1.0 0.1310798837
H  H37  1  0.79330000  0.11310000  0.07210000  1.0 0.0910134676
H  H38  1  0.88690000  0.20670000  0.57210000  1.0 0.0910134676
H  H39  1  0.20670000  0.88690000  0.92790000  1.0 0.0910134676
H  H40  1  0.11310000  0.79330000  0.42790000  1.0 0.0910134676
H  H41  1  0.45400000  0.10840000  0.02240000  1.0 0.1097353441
H  H42  1  0.89160000  0.54600000  0.52240000  1.0 0.1097353441
H  H43  1  0.54600000  0.89160000  0.97760000  1.0 0.1097353441
H  H44  1  0.10840000  0.45400000  0.47760000  1.0 0.1097353441
H  H45  1  0.44310000  0.10310000  0.94380000  1.0 0.1097353441
H  H46  1  0.89690000  0.55690000  0.44380000  1.0 0.1097353441
H  H47  1  0.55690000  0.89690000  0.05620000  1.0 0.1097353441
H  H48  1  0.10310000  0.44310000  0.55620000  1.0 0.1097353441
H  H49  1  0.70820000  0.85340000  0.62350000  1.0 0.0910134676
H  H50  1  0.14660000  0.29180000  0.12350000  1.0 0.0910134676
H  H51  1  0.29180000  0.14660000  0.37650000  1.0 0.0910134676
H  H52  1  0.85340000  0.70820000  0.87650000  1.0 0.0910134676
H  H53  1  0.81700000  0.66740000  0.70030000  1.0 0.1310798837
H  H54  1  0.33260000  0.18300000  0.20030000  1.0 0.1310798837
H  H55  1  0.18300000  0.33260000  0.29970000  1.0 0.1310798837
H  H56  1  0.66740000  0.81700000  0.79970000  1.0 0.1310798837
H  H57  1  0.61840000  0.57340000  0.58990000  1.0 0.1201761991
H  H58  1  0.42660000  0.38160000  0.08990000  1.0 0.1201761991
H  H59  1  0.38160000  0.42660000  0.41010000  1.0 0.1201761991
H  H60  1  0.57340000  0.61840000  0.91010000  1.0 0.1201761991
H  H61  1  0.51480000  0.76320000  0.51550000  1.0 0.0910134676
H  H62  1  0.23680000  0.48520000  0.01550000  1.0 0.0910134676
H  H63  1  0.48520000  0.23680000  0.48450000  1.0 0.0910134676
H  H64  1  0.76320000  0.51480000  0.98450000  1.0 0.0910134676
H  H65  1  0.80710000  0.49210000  0.75520000  1.0 0.1201761991
H  H66  1  0.50790000  0.19290000  0.25520000  1.0 0.1201761991
H  H67  1  0.19290000  0.50790000  0.24480000  1.0 0.1201761991
H  H68  1  0.49210000  0.80710000  0.74480000  1.0 0.1201761991
H  H69  1  0.87780000  0.42900000  0.70150000  1.0 0.1097353441
H  H70  1  0.57100000  0.12220000  0.20150000  1.0 0.1097353441
H  H71  1  0.12220000  0.57100000  0.29850000  1.0 0.1097353441
H  H72  1  0.42900000  0.87780000  0.79850000  1.0 0.1097353441
H  H73  1  0.82680000  0.26200000  0.94280000  1.0 0.0988873342
H  H74  1  0.73800000  0.17320000  0.44280000  1.0 0.0988873342
H  H75  1  0.17320000  0.73800000  0.05720000  1.0 0.0988873342
H  H76  1  0.26200000  0.82680000  0.55720000  1.0 0.0988873342
H  H77  1  0.72630000  0.40830000  0.84150000  1.0 0.1310798837
H  H78  1  0.59170000  0.27370000  0.34150000  1.0 0.1310798837
H  H79  1  0.27370000  0.59170000  0.15850000  1.0 0.1310798837
H  H80  1  0.40830000  0.72630000  0.65850000  1.0 0.1310798837
H  H81  1  0.88650000  0.15670000  0.73740000  1.0 0.1201761991
H  H82  1  0.84330000  0.11350000  0.23740000  1.0 0.1201761991
H  H83  1  0.11350000  0.84330000  0.26260000  1.0 0.1201761991
H  H84  1  0.15670000  0.88650000  0.76260000  1.0 0.1201761991
H  H85  1  0.97650000  0.01350000  0.84210000  1.0 0.0910134676
H  H86  1  0.98650000  0.02350000  0.34210000  1.0 0.0910134676
H  H87  1  0.02350000  0.98650000  0.15790000  1.0 0.0910134676
H  H88  1  0.01350000  0.97650000  0.65790000  1.0 0.0910134676
H  H89  1  0.65730000  0.45390000  0.70690000  1.0 0.1097353441
H  H90  1  0.54610000  0.34270000  0.20690000  1.0 0.1097353441
H  H91  1  0.34270000  0.54610000  0.29310000  1.0 0.1097353441
H  H92  1  0.45390000  0.65730000  0.79310000  1.0 0.1097353441
H  H93  1  0.75380000  0.36720000  0.67030000  1.0 0.0988873342
H  H94  1  0.63280000  0.24620000  0.17030000  1.0 0.0988873342
H  H95  1  0.24620000  0.63280000  0.32970000  1.0 0.0988873342
H  H96  1  0.36720000  0.75380000  0.82970000  1.0 0.0988873342
H  H97  1  0.44160000  0.95080000  0.36310000  1.0 0.0490707216
H  H98  1  0.04920000  0.55840000  0.86310000  1.0 0.0490707216
H  H99  1  0.55840000  0.04920000  0.63690000  1.0 0.0490707216
H  H100  1  0.95080000  0.44160000  0.13690000  1.0 0.0490707216
H  H101  1  0.53080000  0.89160000  0.27200000  1.0 0.0910134676
H  H102  1  0.10840000  0.46920000  0.77200000  1.0 0.0910134676
H  H103  1  0.46920000  0.10840000  0.72800000  1.0 0.0910134676
H  H104  1  0.89160000  0.53080000  0.22800000  1.0 0.0910134676
H  H105  1  0.83340000  0.85360000  0.37590000  1.0 0.0910134676
H  H106  1  0.14640000  0.16660000  0.87590000  1.0 0.0910134676
H  H107  1  0.16660000  0.14640000  0.62410000  1.0 0.0910134676
H  H108  1  0.85360000  0.83340000  0.12410000  1.0 0.0910134676
H  H109  1  0.74420000  0.91280000  0.46700000  1.0 0.0490707216
H  H110  1  0.08720000  0.25580000  0.96700000  1.0 0.0490707216
H  H111  1  0.25580000  0.08720000  0.53300000  1.0 0.0490707216
H  H112  1  0.91280000  0.74420000  0.03300000  1.0 0.0490707216
H  H113  1  0.73070000  0.90930000  0.22450000  1.0 0.0648998884
H  H114  1  0.09070000  0.26930000  0.72450000  1.0 0.0674898504
H  H115  1  0.26930000  0.09070000  0.77550000  1.0 0.0674898504
H  H116  1  0.90930000  0.73070000  0.27550000  1.0 0.0674898504
H  H117  1  0.66080000  0.84420000  0.21700000  1.0 0.0910134676
H  H118  1  0.15580000  0.33920000  0.71700000  1.0 0.0910134676
H  H119  1  0.33920000  0.15580000  0.78300000  1.0 0.0910134676
H  H120  1  0.84420000  0.66080000  0.28300000  1.0 0.0910134676
C  C1  1  0.57040000  0.85560000  0.39140000  1.0 0.0910134676
C  C2  1  0.14440000  0.42960000  0.89140000  1.0 0.0910134676
C  C3  1  0.42960000  0.14440000  0.60860000  1.0 0.0910134676
C  C4  1  0.85560000  0.57040000  0.10860000  1.0 0.0910134676
C  C5  1  0.64180000  0.79800000  0.34840000  1.0 -0.124927077
C  C6  1  0.20200000  0.35820000  0.84840000  1.0 -0.125185396
C  C7  1  0.35820000  0.20200000  0.65160000  1.0 -0.125185396
C  C8  1  0.79800000  0.64180000  0.15160000  1.0 -0.125185396
C  C9  1  0.73030000  0.81790000  0.33670000  1.0 0.0811685328
C  C10  1  0.18210000  0.26970000  0.83670000  1.0 0.0811685328
C  C11  1  0.26970000  0.18210000  0.66330000  1.0 0.0811685328
C  C12  1  0.81790000  0.73030000  0.16330000  1.0 0.0811685328
C  C13  1  0.74720000  0.89540000  0.36800000  1.0 -0.2905017692
C  C14  1  0.10460000  0.25280000  0.86800000  1.0 -0.2905017692
C  C15  1  0.25280000  0.10460000  0.63200000  1.0 -0.2905017692
C  C16  1  0.89540000  0.74720000  0.13200000  1.0 -0.2905017692
C  C17  1  0.67580000  0.95300000  0.41110000  1.0 0.0910134676
C  C18  1  0.04700000  0.32420000  0.91110000  1.0 0.0910134676
C  C19  1  0.32420000  0.04700000  0.58890000  1.0 0.0910134676
C  C20  1  0.95300000  0.67580000  0.08890000  1.0 0.0910134676
C  C21  1  0.80700000  0.75260000  0.28870000  1.0 -0.10876039
C  C22  1  0.24740000  0.19300000  0.78870000  1.0 -0.10876039
C  C23  1  0.19300000  0.24740000  0.71130000  1.0 -0.10876039
C  C24  1  0.75260000  0.80700000  0.21130000  1.0 -0.10876039
C  C25  1  0.79870000  0.97350000  0.95700000  1.0 0.0490707216
C  C26  1  0.02650000  0.20130000  0.45700000  1.0 0.0490707216
C  C27  1  0.20130000  0.02650000  0.04300000  1.0 0.0490707216
C  C28  1  0.97350000  0.79870000  0.54300000  1.0 0.0490707216
C  C29  1  0.69010000  0.98170000  0.95330000  1.0 -0.20305765
C  C30  1  0.01830000  0.30990000  0.45330000  1.0 -0.20305765
C  C31  1  0.30990000  0.01830000  0.04670000  1.0 -0.20305765
C  C32  1  0.98170000  0.69010000  0.54670000  1.0 -0.20305765
C  C33  1  0.61630000  0.04350000  0.99500000  1.0 0.1481410084
C  C34  1  0.95650000  0.38370000  0.49500000  1.0 0.1481410084
C  C35  1  0.38370000  0.95650000  0.00500000  1.0 0.1481410084
C  C36  1  0.04350000  0.61630000  0.50500000  1.0 0.1481410084
C  C37  1  0.65740000  0.09180000  0.03920000  1.0 -0.220949668
C  C38  1  0.90820000  0.34260000  0.53920000  1.0 -0.220949668
C  C39  1  0.34260000  0.90820000  0.96080000  1.0 -0.220949668
C  C40  1  0.09180000  0.65740000  0.46080000  1.0 -0.220949668
C  C41  1  0.76810000  0.07850000  0.04190000  1.0 0.0304380865
C  C42  1  0.92150000  0.23190000  0.54190000  1.0 0.0304380865
C  C43  1  0.23190000  0.92150000  0.95810000  1.0 0.0304380865
C  C44  1  0.07850000  0.76810000  0.45810000  1.0 0.0304380865
C  C45  1  0.49359000  0.05999000  0.99070000  1.0 -0.2602468046
C  C46  1  0.94001000  0.50641000  0.49070000  1.0 -0.2543699178
C  C47  1  0.50641000  0.94001000  0.00930000  1.0 -0.2543699178
C  C48  1  0.05999000  0.49359000  0.50930000  1.0 -0.2543699178
C  C49  1  0.68860000  0.79680000  0.61700000  1.0 0.0142565915
C  C50  1  0.20320000  0.31140000  0.11700000  1.0 0.0142565915
C  C51  1  0.31140000  0.20320000  0.38300000  1.0 0.0142565915
C  C52  1  0.79680000  0.68860000  0.88300000  1.0 0.0142565915
C  C53  1  0.75460000  0.68480000  0.66360000  1.0 -0.2393282766
C  C54  1  0.31520000  0.24540000  0.16360000  1.0 -0.2393282766
C  C55  1  0.24540000  0.31520000  0.33640000  1.0 -0.2393282766
C  C56  1  0.68480000  0.75460000  0.83640000  1.0 -0.2393282766
C  C57  1  0.72810000  0.59790000  0.65600000  1.0 0.1481410084
C  C58  1  0.40210000  0.27190000  0.15600000  1.0 0.1396044013
C  C59  1  0.27190000  0.40210000  0.34400000  1.0 0.1396044013
C  C60  1  0.59790000  0.72810000  0.84400000  1.0 0.1396044013
C  C61  1  0.63780000  0.62940000  0.59860000  1.0 -0.20305765
C  C62  1  0.37060000  0.36220000  0.09860000  1.0 -0.20305765
C  C63  1  0.36220000  0.37060000  0.40140000  1.0 -0.20305765
C  C64  1  0.62940000  0.63780000  0.90140000  1.0 -0.20305765
C  C65  1  0.57530000  0.74430000  0.55380000  1.0 0.0221590367
C  C66  1  0.25570000  0.42470000  0.05380000  1.0 0.0221590367
C  C67  1  0.42470000  0.25570000  0.44620000  1.0 0.0221590367
C  C68  1  0.74430000  0.57530000  0.94620000  1.0 0.0221590367
C  C69  1  0.79730000  0.47690000  0.70940000  1.0 -0.2602468046
C  C70  1  0.52310000  0.20270000  0.20940000  1.0 -0.2602468046
C  C71  1  0.20270000  0.52310000  0.29060000  1.0 -0.2602468046
C  C72  1  0.47690000  0.79730000  0.79060000  1.0 -0.2602468046
C  C73  1  0.84050000  0.23990000  0.90110000  1.0 0.0304380865
C  C74  1  0.76010000  0.15950000  0.40110000  1.0 0.0304380865
C  C75  1  0.15950000  0.76010000  0.09890000  1.0 0.0304380865
C  C76  1  0.23990000  0.84050000  0.59890000  1.0 0.0304380865
C  C77  1  0.78150000  0.32870000  0.84030000  1.0 -0.20305765
C  C78  1  0.67130000  0.21850000  0.34030000  1.0 -0.20305765
C  C79  1  0.21850000  0.67130000  0.15970000  1.0 -0.20305765
C  C80  1  0.32870000  0.78150000  0.65970000  1.0 -0.20305765
C  C81  1  0.80280000  0.30180000  0.77670000  1.0 0.1481410084
C  C82  1  0.69820000  0.19720000  0.27670000  1.0 0.1481410084
C  C83  1  0.19720000  0.69820000  0.22330000  1.0 0.1481410084
C  C84  1  0.30180000  0.80280000  0.72330000  1.0 0.1481410084
C  C85  1  0.87430000  0.18130000  0.77860000  1.0 -0.2393282766
C  C86  1  0.81870000  0.12570000  0.27860000  1.0 -0.2393282766
C  C87  1  0.12570000  0.81870000  0.22140000  1.0 -0.2393282766
C  C88  1  0.18130000  0.87430000  0.72140000  1.0 -0.2393282766
C  C89  1  0.92910000  0.09490000  0.84240000  1.0 0.0398472608
C  C90  1  0.90510000  0.07090000  0.34240000  1.0 0.0398472608
C  C91  1  0.07090000  0.90510000  0.15760000  1.0 0.0398472608
C  C92  1  0.09490000  0.92910000  0.65760000  1.0 0.0398472608
C  C93  1  0.74350000  0.40230000  0.71030000  1.0 -0.2393282766
C  C94  1  0.59770000  0.25650000  0.21030000  1.0 -0.2393282766
C  C95  1  0.25650000  0.59770000  0.28970000  1.0 -0.2393282766
C  C96  1  0.40230000  0.74350000  0.78970000  1.0 -0.2393282766
C  C97  1  0.52040000  0.93120000  0.36560000  1.0 0.0674898504
C  C98  1  0.06880000  0.47960000  0.86560000  1.0 0.0674898504
C  C99  1  0.47960000  0.06880000  0.63440000  1.0 0.0674898504
C  C100  1  0.93120000  0.52040000  0.13440000  1.0 0.0674898504
C  C101  1  0.57370000  0.89590000  0.31120000  1.0 -0.0878571342
C  C102  1  0.10410000  0.42630000  0.81120000  1.0 -0.0878571342
C  C103  1  0.42630000  0.10410000  0.68880000  1.0 -0.0878571342
C  C104  1  0.89590000  0.57370000  0.18880000  1.0 -0.0878571342
C  C105  1  0.69080000  0.86680000  0.31500000  1.0 0.0988873342
C  C106  1  0.13320000  0.30920000  0.81500000  1.0 0.0988873342
C  C107  1  0.30920000  0.13320000  0.68500000  1.0 0.0988873342
C  C108  1  0.86680000  0.69080000  0.18500000  1.0 0.0988873342
C  C109  1  0.75460000  0.87320000  0.37330000  1.0 -0.2393282766
C  C110  1  0.12680000  0.24540000  0.87330000  1.0 -0.2393282766
C  C111  1  0.24540000  0.12680000  0.62670000  1.0 -0.2393282766
C  C112  1  0.87320000  0.75460000  0.12670000  1.0 -0.2393282766
C  C113  1  0.70120000  0.90860000  0.42770000  1.0 0.0910134676
C  C114  1  0.09140000  0.29880000  0.92770000  1.0 0.0910134676
C  C115  1  0.29880000  0.09140000  0.57230000  1.0 0.0910134676
C  C116  1  0.90860000  0.70120000  0.07230000  1.0 0.0910134676
C  C117  1  0.72550000  0.84310000  0.24710000  1.0 -0.10876039
C  C118  1  0.15690000  0.27450000  0.74710000  1.0 -0.10876039
C  C119  1  0.27450000  0.15690000  0.75290000  1.0 -0.10876039
C  C120  1  0.84310000  0.72550000  0.25290000  1.0 -0.10876039
N  N1  1  0.58750000  0.93310000  0.42280000  1.0 -0.2804368171
N  N2  1  0.06690000  0.41250000  0.92280000  1.0 -0.2804368171
N  N3  1  0.41250000  0.06690000  0.57720000  1.0 -0.2804368171
N  N4  1  0.93310000  0.58750000  0.07720000  1.0 -0.2804368171
N  N5  1  0.84027000  0.01707000  0.00200000  1.0 -0.2108003902
N  N6  1  0.98293000  0.15973000  0.50200000  1.0 -0.2108003902
N  N7  1  0.15973000  0.98293000  0.99800000  1.0 -0.2108003902
N  N8  1  0.01707000  0.84027000  0.49800000  1.0 -0.2108003902
N  N9  1  0.59875000  0.82855000  0.56346000  1.0 -0.2393282766
N  N10  1  0.17145000  0.40125000  0.06346000  1.0 -0.2393282766
N  N11  1  0.40125000  0.17145000  0.43654000  1.0 -0.2393282766
N  N12  1  0.82855000  0.59875000  0.93654000  1.0 -0.2393282766
N  N13  1  0.91728000  0.12248000  0.90311000  1.0 -0.2108003902
N  N14  1  0.87752000  0.08272000  0.40311000  1.0 -0.2108003902
N  N15  1  0.08272000  0.87752000  0.09689000  1.0 -0.2108003902
N  N16  1  0.12248000  0.91728000  0.59689000  1.0 -0.2108003902
N  N17  1  0.58420000  0.93760000  0.42390000  1.0 -0.2905017692
N  N18  1  0.06240000  0.41580000  0.92390000  1.0 -0.2905017692
N  N19  1  0.41580000  0.06240000  0.57610000  1.0 -0.2905017692
N  N20  1  0.93760000  0.58420000  0.07610000  1.0 -0.2905017692
