# DDEC6 charges by PACMAN v1.1 (https://github.com/mtap-research/PACMAN-charge/)
data_XAVDEF_FSR_pacman
_symmetry_space_group_name_H-M   'P 1'
_cell_length_a   14.44470000
_cell_length_b   15.66090000
_cell_length_c   20.45630000
_cell_angle_alpha   90.00000000
_cell_angle_beta   90.00000000
_cell_angle_gamma   90.00000000
_symmetry_Int_Tables_number   1
_chemical_formula_structural   VC8O5
_chemical_formula_sum   'V12 C96 O60'
_cell_volume   4627.56286272
_cell_formula_units_Z   12
loop_
 _symmetry_equiv_pos_site_id
 _symmetry_equiv_pos_as_xyz
  1  'x, y, z'
loop_
 _atom_site_type_symbol
 _atom_site_label
 _atom_site_symmetry_multiplicity
 _atom_site_fract_x
 _atom_site_fract_y
 _atom_site_fract_z
 _atom_site_occupancy
 _atom_site_charge
V  V1  1  0.23600000  0.74200000  0.27950000  1.0 1.7965605301
V  V2  1  0.73600000  0.24200000  0.22050000  1.0 1.7965605301
V  V3  1  0.76400000  0.24200000  0.72050000  1.0 1.7965605301
V  V4  1  0.26400000  0.74200000  0.77950000  1.0 1.7965605301
V  V5  1  0.73000000  0.24600000  0.39550000  1.0 1.7663418096
V  V6  1  0.23000000  0.74600000  0.10450000  1.0 1.7625291389
V  V7  1  0.27000000  0.74600000  0.60450000  1.0 1.7663418096
V  V8  1  0.77000000  0.24600000  0.89550000  1.0 1.7663418096
V  V9  1  0.23500000  0.74400000  0.43200000  1.0 1.5175621551
V  V10  1  0.73500000  0.24400000  0.06800000  1.0 1.5175621551
V  V11  1  0.76500000  0.24400000  0.56800000  1.0 1.5175621551
V  V12  1  0.26500000  0.74400000  0.93200000  1.0 1.5175621551
C  C1  1  0.43570000  0.56400000  0.49490000  1.0 -0.0402252197
C  C2  1  0.93570000  0.06400000  0.00510000  1.0 -0.0402252197
C  C3  1  0.56430000  0.06400000  0.50510000  1.0 -0.0402252197
C  C4  1  0.06430000  0.56400000  0.99490000  1.0 -0.0402252197
C  C5  1  0.46360000  0.53620000  0.55530000  1.0 -0.021102577
C  C6  1  0.96360000  0.03620000  0.94470000  1.0 -0.021102577
C  C7  1  0.53640000  0.03620000  0.44470000  1.0 -0.021102577
C  C8  1  0.03640000  0.53620000  0.05530000  1.0 -0.021102577
C  C9  1  0.52790000  0.47220000  0.56040000  1.0 -0.0106562166
C  C10  1  0.02790000  0.97220000  0.93960000  1.0 -0.0106562166
C  C11  1  0.47210000  0.97220000  0.43960000  1.0 -0.0106562166
C  C12  1  0.97210000  0.47220000  0.06040000  1.0 -0.0106562166
C  C13  1  0.47210000  0.52780000  0.43960000  1.0 -0.0402252197
C  C14  1  0.97210000  0.02780000  0.06040000  1.0 -0.0402252197
C  C15  1  0.52790000  0.02780000  0.56040000  1.0 -0.0402252197
C  C16  1  0.02790000  0.52780000  0.93960000  1.0 -0.0402252197
C  C17  1  0.53640000  0.46380000  0.44470000  1.0 -0.021102577
C  C18  1  0.03640000  0.96380000  0.05530000  1.0 -0.021102577
C  C19  1  0.46360000  0.96380000  0.55530000  1.0 -0.021102577
C  C20  1  0.96360000  0.46380000  0.94470000  1.0 -0.021102577
C  C21  1  0.56430000  0.43600000  0.50510000  1.0 -0.0402252197
C  C22  1  0.06430000  0.93600000  0.99490000  1.0 -0.0402252197
C  C23  1  0.43570000  0.93600000  0.49490000  1.0 -0.0402252197
C  C24  1  0.93570000  0.43600000  0.00510000  1.0 -0.0402252197
C  C25  1  0.36530000  0.63400000  0.48940000  1.0 0.618380819
C  C26  1  0.86530000  0.13400000  0.01060000  1.0 0.618380819
C  C27  1  0.63470000  0.13400000  0.51060000  1.0 0.618380819
C  C28  1  0.13470000  0.63400000  0.98940000  1.0 0.618380819
C  C29  1  0.63470000  0.36600000  0.51060000  1.0 0.6272121709
C  C30  1  0.13470000  0.86600000  0.98940000  1.0 0.6272121709
C  C31  1  0.36530000  0.86600000  0.48940000  1.0 0.6272121709
C  C32  1  0.86530000  0.36600000  0.01060000  1.0 0.6272121709
C  C33  1  0.06360000  0.56400000  0.33600000  1.0 -0.001285732
C  C34  1  0.56360000  0.06400000  0.16400000  1.0 -0.001285732
C  C35  1  0.93640000  0.06400000  0.66400000  1.0 -0.001285732
C  C36  1  0.43640000  0.56400000  0.83600000  1.0 -0.001285732
C  C37  1  0.02490000  0.52510000  0.39000000  1.0 -0.0106562166
C  C38  1  0.52490000  0.02510000  0.11000000  1.0 -0.0106562166
C  C39  1  0.97510000  0.02510000  0.61000000  1.0 -0.0106562166
C  C40  1  0.47510000  0.52510000  0.89000000  1.0 -0.0106562166
C  C41  1  0.96130000  0.46110000  0.38200000  1.0 -0.0308444601
C  C42  1  0.46130000  0.96110000  0.11800000  1.0 -0.0308444601
C  C43  1  0.03870000  0.96110000  0.61800000  1.0 -0.0308444601
C  C44  1  0.53870000  0.46110000  0.88200000  1.0 -0.0308444601
C  C45  1  0.03870000  0.53890000  0.27500000  1.0 -0.0477634783
C  C46  1  0.53870000  0.03890000  0.22500000  1.0 -0.0477634783
C  C47  1  0.96130000  0.03890000  0.72500000  1.0 -0.0477634783
C  C48  1  0.46130000  0.53890000  0.77500000  1.0 -0.0477634783
C  C49  1  0.97510000  0.47490000  0.26700000  1.0 0.0105446507
C  C50  1  0.47510000  0.97490000  0.23300000  1.0 0.0105446507
C  C51  1  0.02490000  0.97490000  0.73300000  1.0 0.0105446507
C  C52  1  0.52490000  0.47490000  0.76700000  1.0 0.0105446507
C  C53  1  0.93640000  0.43600000  0.32000000  1.0 -0.0402252197
C  C54  1  0.43640000  0.93600000  0.18000000  1.0 -0.0402252197
C  C55  1  0.06360000  0.93600000  0.68000000  1.0 -0.0477634783
C  C56  1  0.56360000  0.43600000  0.82000000  1.0 -0.0402252197
C  C57  1  0.13320000  0.63410000  0.34600000  1.0 0.3478085738
C  C58  1  0.63320000  0.13410000  0.15400000  1.0 0.3393878531
C  C59  1  0.86680000  0.13410000  0.65400000  1.0 0.3393878531
C  C60  1  0.36680000  0.63410000  0.84600000  1.0 0.3478085738
C  C61  1  0.86680000  0.36590000  0.31100000  1.0 0.6712006032
C  C62  1  0.36680000  0.86590000  0.18900000  1.0 0.6712006032
C  C63  1  0.13320000  0.86590000  0.68900000  1.0 0.6712006032
C  C64  1  0.63320000  0.36590000  0.81100000  1.0 0.6758141559
C  C65  1  0.43540000  0.56400000  0.16400000  1.0 -0.0402252197
C  C66  1  0.93540000  0.06400000  0.33600000  1.0 -0.0402252197
C  C67  1  0.56460000  0.06400000  0.83600000  1.0 -0.0402252197
C  C68  1  0.06460000  0.56400000  0.66400000  1.0 -0.0402252197
C  C69  1  0.46760000  0.53220000  0.22200000  1.0 -0.001285732
C  C70  1  0.96760000  0.03220000  0.27800000  1.0 -0.001285732
C  C71  1  0.53240000  0.03220000  0.77800000  1.0 -0.001285732
C  C72  1  0.03240000  0.53220000  0.72200000  1.0 -0.001285732
C  C73  1  0.53220000  0.46810000  0.22200000  1.0 -0.021102577
C  C74  1  0.03220000  0.96810000  0.27800000  1.0 -0.0308444601
C  C75  1  0.46780000  0.96810000  0.77800000  1.0 -0.0308444601
C  C76  1  0.96780000  0.46810000  0.72200000  1.0 -0.021102577
C  C77  1  0.46780000  0.53190000  0.10600000  1.0 -0.0402252197
C  C78  1  0.96780000  0.03190000  0.39400000  1.0 -0.0402252197
C  C79  1  0.53220000  0.03190000  0.89400000  1.0 -0.0402252197
C  C80  1  0.03220000  0.53190000  0.60600000  1.0 -0.0402252197
C  C81  1  0.53240000  0.46780000  0.10600000  1.0 -0.0106562166
C  C82  1  0.03240000  0.96780000  0.39400000  1.0 -0.0106562166
C  C83  1  0.46760000  0.96780000  0.89400000  1.0 -0.0106562166
C  C84  1  0.96760000  0.46780000  0.60600000  1.0 -0.0106562166
C  C85  1  0.56460000  0.43600000  0.16400000  1.0 -0.021102577
C  C86  1  0.06460000  0.93600000  0.33600000  1.0 -0.021102577
C  C87  1  0.43540000  0.93600000  0.83600000  1.0 -0.021102577
C  C88  1  0.93540000  0.43600000  0.66400000  1.0 -0.021102577
C  C89  1  0.36460000  0.63410000  0.16400000  1.0 0.6712006032
C  C90  1  0.86460000  0.13410000  0.33600000  1.0 0.6712006032
C  C91  1  0.63540000  0.13410000  0.83600000  1.0 0.6712006032
C  C92  1  0.13540000  0.63410000  0.66400000  1.0 0.6712006032
C  C93  1  0.63540000  0.36590000  0.16400000  1.0 0.6391251427
C  C94  1  0.13540000  0.86590000  0.33600000  1.0 0.6391251427
C  C95  1  0.36460000  0.86590000  0.83600000  1.0 0.6391251427
C  C96  1  0.86460000  0.36590000  0.66400000  1.0 0.6391251427
O  O1  1  0.31000000  0.72900000  0.35500000  1.0 -0.7069784212
O  O2  1  0.81000000  0.22900000  0.14500000  1.0 -0.7069784212
O  O3  1  0.69000000  0.22900000  0.64500000  1.0 -0.7069784212
O  O4  1  0.19000000  0.72900000  0.85500000  1.0 -0.7069784212
O  O5  1  0.76422000  0.25813000  0.46104000  1.0 -0.3690427128
O  O6  1  0.26422000  0.75813000  0.03896000  1.0 -0.3690427128
O  O7  1  0.23578000  0.75813000  0.53896000  1.0 -0.3690427128
O  O8  1  0.73578000  0.25813000  0.96104000  1.0 -0.3690427128
O  O9  1  0.20300000  0.75814000  0.19173000  1.0 -0.9041455942
O  O10  1  0.70300000  0.25814000  0.30827000  1.0 -0.9054423728
O  O11  1  0.79700000  0.25814000  0.80827000  1.0 -0.9054423728
O  O12  1  0.29700000  0.75814000  0.69173000  1.0 -0.9054423728
O  O13  1  0.33880000  0.66040000  0.43200000  1.0 -0.3690427128
O  O14  1  0.83880000  0.16040000  0.06800000  1.0 -0.3690427128
O  O15  1  0.66120000  0.16040000  0.56800000  1.0 -0.3690427128
O  O16  1  0.16120000  0.66040000  0.93200000  1.0 -0.3690427128
O  O17  1  0.66920000  0.33170000  0.45800000  1.0 -0.4598717126
O  O18  1  0.16920000  0.83170000  0.04200000  1.0 -0.4598717126
O  O19  1  0.33080000  0.83170000  0.54200000  1.0 -0.4598717126
O  O20  1  0.83080000  0.33170000  0.95800000  1.0 -0.4598717126
O  O21  1  0.33080000  0.66830000  0.54200000  1.0 -0.5425015944
O  O22  1  0.83080000  0.16830000  0.95800000  1.0 -0.5425015944
O  O23  1  0.66920000  0.16830000  0.45800000  1.0 -0.5425015944
O  O24  1  0.16920000  0.66830000  0.04200000  1.0 -0.5425015944
O  O25  1  0.66120000  0.33960000  0.56800000  1.0 -0.5109356302
O  O26  1  0.16120000  0.83960000  0.93200000  1.0 -0.5109356302
O  O27  1  0.33880000  0.83960000  0.43200000  1.0 -0.5109356302
O  O28  1  0.83880000  0.33960000  0.06800000  1.0 -0.5109356302
O  O29  1  0.16990000  0.67100000  0.29500000  1.0 -0.3626531023
O  O30  1  0.66990000  0.17100000  0.20500000  1.0 -0.3626531023
O  O31  1  0.83010000  0.17100000  0.70500000  1.0 -0.3626531023
O  O32  1  0.33010000  0.67100000  0.79500000  1.0 -0.3626531023
O  O33  1  0.84310000  0.34210000  0.25200000  1.0 -0.580902617
O  O34  1  0.34310000  0.84210000  0.24800000  1.0 -0.580902617
O  O35  1  0.15690000  0.84210000  0.74800000  1.0 -0.580902617
O  O36  1  0.65690000  0.34210000  0.75200000  1.0 -0.580902617
O  O37  1  0.15690000  0.65790000  0.40400000  1.0 -0.5548288631
O  O38  1  0.65690000  0.15790000  0.09600000  1.0 -0.5548288631
O  O39  1  0.84310000  0.15790000  0.59600000  1.0 -0.5548288631
O  O40  1  0.34310000  0.65790000  0.90400000  1.0 -0.5548288631
O  O41  1  0.83010000  0.32900000  0.36200000  1.0 -0.5716441381
O  O42  1  0.33010000  0.82900000  0.13800000  1.0 -0.5716441381
O  O43  1  0.16990000  0.82900000  0.63800000  1.0 -0.5716441381
O  O44  1  0.66990000  0.32900000  0.86200000  1.0 -0.5716441381
O  O45  1  0.33410000  0.66440000  0.10900000  1.0 -0.580902617
O  O46  1  0.83410000  0.16440000  0.39100000  1.0 -0.580902617
O  O47  1  0.66590000  0.16440000  0.89100000  1.0 -0.580902617
O  O48  1  0.16590000  0.66440000  0.60900000  1.0 -0.580902617
O  O49  1  0.66620000  0.33540000  0.10900000  1.0 -0.6401918638
O  O50  1  0.16620000  0.83540000  0.39100000  1.0 -0.6401918638
O  O51  1  0.33380000  0.83540000  0.89100000  1.0 -0.6401918638
O  O52  1  0.83380000  0.33540000  0.60900000  1.0 -0.6401918638
O  O53  1  0.33380000  0.66460000  0.21900000  1.0 -0.5902574468
O  O54  1  0.83380000  0.16460000  0.28100000  1.0 -0.5902574468
O  O55  1  0.66620000  0.16460000  0.78100000  1.0 -0.5902574468
O  O56  1  0.16620000  0.66460000  0.71900000  1.0 -0.5902574468
O  O57  1  0.66590000  0.33560000  0.22000000  1.0 -0.471390124
O  O58  1  0.16590000  0.83560000  0.28000000  1.0 -0.471390124
O  O59  1  0.33410000  0.83560000  0.78000000  1.0 -0.471390124
O  O60  1  0.83410000  0.33560000  0.72000000  1.0 -0.471390124
