# DDEC6 charges by PACMAN v1.1 (https://github.com/mtap-research/PACMAN-charge/)
data_XECQUV_FSR_pacman
_symmetry_space_group_name_H-M   'P 1'
_cell_length_a   18.16100000
_cell_length_b   21.41900000
_cell_length_c   20.08100000
_cell_angle_alpha   90.00000000
_cell_angle_beta   100.68500000
_cell_angle_gamma   90.00000000
_symmetry_Int_Tables_number   1
_chemical_formula_structural   NaZn3H72(C32O13)2
_chemical_formula_sum   'Na4 Zn12 H288 C256 O104'
_cell_volume   7675.87986700
_cell_formula_units_Z   4
loop_
 _symmetry_equiv_pos_site_id
 _symmetry_equiv_pos_as_xyz
  1  'x, y, z'
loop_
 _atom_site_type_symbol
 _atom_site_label
 _atom_site_symmetry_multiplicity
 _atom_site_fract_x
 _atom_site_fract_y
 _atom_site_fract_z
 _atom_site_occupancy
 _atom_site_charge
Na  Na1  1  0.76320000  0.78850000  0.61290000  1.0 0.8473065321
Na  Na2  1  0.73680000  0.28850000  0.38710000  1.0 0.8473065321
Na  Na3  1  0.23680000  0.21150000  0.38710000  1.0 0.8473065321
Na  Na4  1  0.26320000  0.71150000  0.61290000  1.0 0.8473065321
Zn  Zn1  1  0.91450000  0.84644000  0.52518000  1.0 0.9332715993
Zn  Zn2  1  0.63636000  0.00643000  0.65740000  1.0 0.9332715993
Zn  Zn3  1  0.04365000  0.83172000  0.44470000  1.0 0.9786065494
Zn  Zn4  1  0.58550000  0.34644000  0.47482000  1.0 0.9332715993
Zn  Zn5  1  0.86364000  0.50643000  0.34260000  1.0 0.9332715993
Zn  Zn6  1  0.45635000  0.33172000  0.55530000  1.0 0.9786065494
Zn  Zn7  1  0.08550000  0.15356000  0.47482000  1.0 0.9332715993
Zn  Zn8  1  0.36364000  0.99357000  0.34260000  1.0 0.9353781466
Zn  Zn9  1  0.95635000  0.16828000  0.55530000  1.0 0.9786065494
Zn  Zn10  1  0.41450000  0.65356000  0.52518000  1.0 0.9332715993
Zn  Zn11  1  0.13636000  0.49357000  0.65740000  1.0 0.9332715993
Zn  Zn12  1  0.54365000  0.66828000  0.44470000  1.0 0.9786065494
H  H1  1  0.11520000  0.86720000  0.12440000  1.0 0.1390596131
H  H2  1  0.14780000  0.93410000  0.11740000  1.0 0.1297842431
H  H3  1  0.17950000  0.87690000  0.08310000  1.0 0.1093877886
H  H4  1  0.06010000  0.86540000  0.01270000  1.0 0.1002654858
H  H5  1  0.03520000  0.92730000  0.04350000  1.0 0.0926201446
H  H6  1  0.08590000  0.98310000  0.98400000  1.0 0.1002654858
H  H7  1  0.15840000  0.94370000  0.99520000  1.0 0.1093877886
H  H8  1  0.04740000  0.94550000  0.88830000  1.0 0.1093877886
H  H9  1  0.10480000  0.89020000  0.90020000  1.0 0.1093877886
H  H10  1  0.15180000  0.01500000  0.89620000  1.0 0.1002654858
H  H11  1  0.20320000  0.95600000  0.89610000  1.0 0.1002654858
H  H12  1  0.08030000  0.97810000  0.79030000  1.0 0.1093877886
H  H13  1  0.25310000  0.04730000  0.84720000  1.0 0.1201094331
H  H14  1  0.17910000  0.06600000  0.61570000  1.0 0.1390596131
H  H15  1  0.03320000  0.96230000  0.58220000  1.0 0.1596237992
H  H16  1  0.11620000  0.97860000  0.57790000  1.0 0.1390596131
H  H17  1  0.30820000  0.08120000  0.59490000  1.0 0.1201094331
H  H18  1  0.34700000  0.14550000  0.58930000  1.0 0.145906986
H  H19  1  0.32650000  0.18190000  0.78690000  1.0 0.1002654858
H  H20  1  0.35060000  0.10000000  0.89970000  1.0 0.0926201446
H  H21  1  0.29140000  0.15420000  0.89010000  1.0 0.1093877886
H  H22  1  0.39520000  0.22830000  0.89300000  1.0 0.1093877886
H  H23  1  0.45100000  0.17220000  0.91300000  1.0 0.1002654858
H  H24  1  0.34260000  0.21150000  0.99590000  1.0 0.1002654858
H  H25  1  0.39450000  0.15370000  0.01500000  1.0 0.1002654858
H  H26  1  0.49560000  0.21560000  0.05160000  1.0 0.0926201446
H  H27  1  0.45130000  0.27580000  0.02170000  1.0 0.0926201446
H  H28  1  0.44060000  0.27120000  0.12800000  1.0 0.1201094331
H  H29  1  0.41990000  0.20010000  0.12210000  1.0 0.1201094331
H  H30  1  0.36310000  0.25010000  0.08600000  1.0 0.1201094331
H  H31  1  0.56310000  0.17560000  0.75220000  1.0 0.1708967586
H  H32  1  0.40280000  0.02910000  0.80500000  1.0 0.1297842431
H  H33  1  0.37420000  0.28840000  0.74140000  1.0 0.1390596131
H  H34  1  0.36320000  0.22340000  0.70550000  1.0 0.1297842431
H  H35  1  0.68050000  0.13810000  0.78850000  1.0 0.1390596131
H  H36  1  0.70950000  0.07690000  0.82730000  1.0 0.1390596131
H  H37  1  0.57130000  0.96420000  0.77720000  1.0 0.1093877886
H  H38  1  0.50840000  0.97120000  0.89540000  1.0 0.1002654858
H  H39  1  0.55430000  0.91250000  0.88090000  1.0 0.1002654858
H  H40  1  0.62130000  0.03160000  0.88940000  1.0 0.1002654858
H  H41  1  0.66320000  0.96690000  0.89560000  1.0 0.1093877886
H  H42  1  0.58250000  0.96460000  0.99220000  1.0 0.1002654858
H  H43  1  0.67000000  0.97120000  0.00410000  1.0 0.1002654858
H  H44  1  0.63390000  0.05210000  0.05660000  1.0 0.0832027041
H  H45  1  0.56420000  0.06400000  0.00060000  1.0 0.0926201446
H  H46  1  0.64330000  0.14670000  0.01290000  1.0 0.1093877886
H  H47  1  0.63450000  0.11970000  0.93930000  1.0 0.1297842431
H  H48  1  0.70690000  0.10530000  0.99280000  1.0 0.1297842431
H  H49  1  0.38250000  0.90450000  0.59830000  1.0 0.1596237992
H  H50  1  0.43400000  0.88060000  0.82740000  1.0 0.1201094331
H  H51  1  0.40690000  0.02250000  0.60300000  1.0 0.1093877886
H  H52  1  0.44040000  0.97350000  0.55850000  1.0 0.1201094331
H  H53  1  0.25160000  0.90110000  0.57870000  1.0 0.1390596131
H  H54  1  0.20770000  0.88410000  0.63660000  1.0 0.1297842431
H  H55  1  0.32010000  0.76470000  0.74610000  1.0 0.1002654858
H  H56  1  0.40540000  0.77150000  0.84870000  1.0 0.1093877886
H  H57  1  0.35600000  0.82260000  0.87470000  1.0 0.1002654858
H  H58  1  0.32400000  0.74170000  0.92610000  1.0 0.1002654858
H  H59  1  0.26080000  0.74170000  0.86130000  1.0 0.1002654858
H  H60  1  0.32240000  0.66590000  0.81190000  1.0 0.1002654858
H  H61  1  0.39060000  0.66840000  0.87290000  1.0 0.0926201446
H  H62  1  0.24200000  0.63030000  0.89140000  1.0 0.0926201446
H  H63  1  0.31450000  0.62670000  0.94900000  1.0 0.0832027041
H  H64  1  0.29530000  0.52690000  0.88700000  1.0 0.1201094331
H  H65  1  0.37280000  0.55640000  0.88080000  1.0 0.1201094331
H  H66  1  0.30440000  0.56250000  0.82080000  1.0 0.1297842431
H  H67  1  0.06760000  0.77730000  0.71350000  1.0 0.145906986
H  H68  1  0.25910000  0.91020000  0.80040000  1.0 0.1297842431
H  H69  1  0.09890000  0.68450000  0.69060000  1.0 0.1390596131
H  H70  1  0.14040000  0.67480000  0.76610000  1.0 0.1297842431
H  H71  1  0.91500000  0.86140000  0.74910000  1.0 0.1390596131
H  H72  1  0.96850000  0.80370000  0.75460000  1.0 0.1201094331
H  H73  1  0.38480000  0.36720000  0.87560000  1.0 0.1390596131
H  H74  1  0.35220000  0.43410000  0.88260000  1.0 0.1297842431
H  H75  1  0.32050000  0.37690000  0.91690000  1.0 0.1093877886
H  H76  1  0.43990000  0.36540000  0.98730000  1.0 0.1002654858
H  H77  1  0.46480000  0.42730000  0.95650000  1.0 0.0926201446
H  H78  1  0.41410000  0.48310000  0.01600000  1.0 0.1002654858
H  H79  1  0.34160000  0.44370000  0.00480000  1.0 0.1093877886
H  H80  1  0.45260000  0.44550000  0.11170000  1.0 0.1093877886
H  H81  1  0.39520000  0.39020000  0.09980000  1.0 0.1093877886
H  H82  1  0.34820000  0.51500000  0.10380000  1.0 0.1002654858
H  H83  1  0.29680000  0.45600000  0.10390000  1.0 0.1002654858
H  H84  1  0.41970000  0.47810000  0.20970000  1.0 0.1093877886
H  H85  1  0.24690000  0.54730000  0.15280000  1.0 0.1201094331
H  H86  1  0.32090000  0.56600000  0.38430000  1.0 0.1390596131
H  H87  1  0.46680000  0.46230000  0.41780000  1.0 0.1596237992
H  H88  1  0.38380000  0.47860000  0.42210000  1.0 0.1390596131
H  H89  1  0.19180000  0.58120000  0.40510000  1.0 0.1201094331
H  H90  1  0.15300000  0.64550000  0.41070000  1.0 0.145906986
H  H91  1  0.17350000  0.68190000  0.21310000  1.0 0.1002654858
H  H92  1  0.14940000  0.60000000  0.10030000  1.0 0.0926201446
H  H93  1  0.20860000  0.65420000  0.10990000  1.0 0.1093877886
H  H94  1  0.10480000  0.72830000  0.10700000  1.0 0.1093877886
H  H95  1  0.04900000  0.67220000  0.08700000  1.0 0.1002654858
H  H96  1  0.15740000  0.71150000  0.00410000  1.0 0.1002654858
H  H97  1  0.10550000  0.65370000  0.98500000  1.0 0.1002654858
H  H98  1  0.00440000  0.71560000  0.94840000  1.0 0.0926201446
H  H99  1  0.04870000  0.77580000  0.97830000  1.0 0.0926201446
H  H100  1  0.05940000  0.77120000  0.87200000  1.0 0.1201094331
H  H101  1  0.08010000  0.70010000  0.87790000  1.0 0.1201094331
H  H102  1  0.13690000  0.75010000  0.91400000  1.0 0.1201094331
H  H103  1  0.93690000  0.67560000  0.24780000  1.0 0.1708967586
H  H104  1  0.09720000  0.52910000  0.19500000  1.0 0.1297842431
H  H105  1  0.12580000  0.78840000  0.25860000  1.0 0.1390596131
H  H106  1  0.13680000  0.72340000  0.29450000  1.0 0.1297842431
H  H107  1  0.81950000  0.63810000  0.21150000  1.0 0.1390596131
H  H108  1  0.79050000  0.57690000  0.17270000  1.0 0.1390596131
H  H109  1  0.92870000  0.46420000  0.22280000  1.0 0.1093877886
H  H110  1  0.99160000  0.47120000  0.10460000  1.0 0.1002654858
H  H111  1  0.94570000  0.41250000  0.11910000  1.0 0.1002654858
H  H112  1  0.87870000  0.53160000  0.11060000  1.0 0.1002654858
H  H113  1  0.83680000  0.46690000  0.10440000  1.0 0.1093877886
H  H114  1  0.91750000  0.46460000  0.00780000  1.0 0.1002654858
H  H115  1  0.83000000  0.47120000  0.99590000  1.0 0.1002654858
H  H116  1  0.86610000  0.55210000  0.94340000  1.0 0.0832027041
H  H117  1  0.93580000  0.56400000  0.99940000  1.0 0.0926201446
H  H118  1  0.85670000  0.64670000  0.98710000  1.0 0.1093877886
H  H119  1  0.86550000  0.61970000  0.06070000  1.0 0.1297842431
H  H120  1  0.79310000  0.60530000  0.00720000  1.0 0.1297842431
H  H121  1  0.11750000  0.40450000  0.40170000  1.0 0.1596237992
H  H122  1  0.06600000  0.38060000  0.17260000  1.0 0.1201094331
H  H123  1  0.09310000  0.52250000  0.39700000  1.0 0.1093877886
H  H124  1  0.05960000  0.47350000  0.44150000  1.0 0.1201094331
H  H125  1  0.24840000  0.40110000  0.42130000  1.0 0.1390596131
H  H126  1  0.29230000  0.38410000  0.36340000  1.0 0.1297842431
H  H127  1  0.17990000  0.26470000  0.25390000  1.0 0.1002654858
H  H128  1  0.09460000  0.27150000  0.15130000  1.0 0.1093877886
H  H129  1  0.14400000  0.32260000  0.12530000  1.0 0.1002654858
H  H130  1  0.17600000  0.24170000  0.07390000  1.0 0.1002654858
H  H131  1  0.23920000  0.24170000  0.13870000  1.0 0.1002654858
H  H132  1  0.17760000  0.16590000  0.18810000  1.0 0.1002654858
H  H133  1  0.10940000  0.16840000  0.12710000  1.0 0.0926201446
H  H134  1  0.25800000  0.13030000  0.10860000  1.0 0.0926201446
H  H135  1  0.18550000  0.12670000  0.05100000  1.0 0.0832027041
H  H136  1  0.20470000  0.02690000  0.11300000  1.0 0.1201094331
H  H137  1  0.12720000  0.05640000  0.11920000  1.0 0.1201094331
H  H138  1  0.19560000  0.06250000  0.17920000  1.0 0.1297842431
H  H139  1  0.43240000  0.27730000  0.28650000  1.0 0.145906986
H  H140  1  0.24090000  0.41020000  0.19960000  1.0 0.1297842431
H  H141  1  0.40110000  0.18450000  0.30940000  1.0 0.1390596131
H  H142  1  0.35960000  0.17480000  0.23390000  1.0 0.1297842431
H  H143  1  0.58500000  0.36140000  0.25090000  1.0 0.1390596131
H  H144  1  0.53150000  0.30370000  0.24540000  1.0 0.1201094331
H  H145  1  0.88480000  0.13280000  0.87560000  1.0 0.1390596131
H  H146  1  0.85220000  0.06590000  0.88260000  1.0 0.1297842431
H  H147  1  0.82050000  0.12310000  0.91690000  1.0 0.1093877886
H  H148  1  0.93990000  0.13460000  0.98730000  1.0 0.1002654858
H  H149  1  0.96480000  0.07270000  0.95650000  1.0 0.0926201446
H  H150  1  0.91410000  0.01690000  0.01600000  1.0 0.1002654858
H  H151  1  0.84160000  0.05630000  0.00480000  1.0 0.1093877886
H  H152  1  0.95260000  0.05450000  0.11170000  1.0 0.1093877886
H  H153  1  0.89520000  0.10980000  0.09980000  1.0 0.1093877886
H  H154  1  0.84820000  0.98500000  0.10380000  1.0 0.1002654858
H  H155  1  0.79680000  0.04400000  0.10390000  1.0 0.1002654858
H  H156  1  0.91970000  0.02190000  0.20970000  1.0 0.1093877886
H  H157  1  0.74690000  0.95270000  0.15280000  1.0 0.1201094331
H  H158  1  0.82090000  0.93400000  0.38430000  1.0 0.1390596131
H  H159  1  0.96680000  0.03770000  0.41780000  1.0 0.1596237992
H  H160  1  0.88380000  0.02140000  0.42210000  1.0 0.1390596131
H  H161  1  0.69180000  0.91880000  0.40510000  1.0 0.1201094331
H  H162  1  0.65300000  0.85450000  0.41070000  1.0 0.145906986
H  H163  1  0.67350000  0.81810000  0.21310000  1.0 0.1002654858
H  H164  1  0.64940000  0.90000000  0.10030000  1.0 0.0926201446
H  H165  1  0.70860000  0.84580000  0.10990000  1.0 0.1093877886
H  H166  1  0.60480000  0.77170000  0.10700000  1.0 0.1093877886
H  H167  1  0.54900000  0.82780000  0.08700000  1.0 0.1002654858
H  H168  1  0.65740000  0.78850000  0.00410000  1.0 0.1002654858
H  H169  1  0.60550000  0.84630000  0.98500000  1.0 0.1002654858
H  H170  1  0.50440000  0.78440000  0.94840000  1.0 0.0926201446
H  H171  1  0.54870000  0.72420000  0.97830000  1.0 0.0926201446
H  H172  1  0.55940000  0.72880000  0.87200000  1.0 0.1201094331
H  H173  1  0.58010000  0.79990000  0.87790000  1.0 0.1201094331
H  H174  1  0.63690000  0.74990000  0.91400000  1.0 0.1201094331
H  H175  1  0.43690000  0.82440000  0.24780000  1.0 0.1708967586
H  H176  1  0.59720000  0.97090000  0.19500000  1.0 0.1297842431
H  H177  1  0.62580000  0.71160000  0.25860000  1.0 0.1390596131
H  H178  1  0.63680000  0.77660000  0.29450000  1.0 0.1201094331
H  H179  1  0.31950000  0.86190000  0.21150000  1.0 0.1390596131
H  H180  1  0.29050000  0.92310000  0.17270000  1.0 0.1390596131
H  H181  1  0.42870000  0.03580000  0.22280000  1.0 0.1093877886
H  H182  1  0.49160000  0.02880000  0.10460000  1.0 0.1002654858
H  H183  1  0.44570000  0.08750000  0.11910000  1.0 0.1002654858
H  H184  1  0.37870000  0.96840000  0.11060000  1.0 0.1002654858
H  H185  1  0.33680000  0.03310000  0.10440000  1.0 0.1093877886
H  H186  1  0.41750000  0.03540000  0.00780000  1.0 0.1002654858
H  H187  1  0.33000000  0.02880000  0.99590000  1.0 0.1002654858
H  H188  1  0.36610000  0.94790000  0.94340000  1.0 0.0832027041
H  H189  1  0.43580000  0.93600000  0.99940000  1.0 0.0926201446
H  H190  1  0.35670000  0.85330000  0.98710000  1.0 0.1093877886
H  H191  1  0.36550000  0.88030000  0.06070000  1.0 0.1297842431
H  H192  1  0.29310000  0.89470000  0.00720000  1.0 0.1297842431
H  H193  1  0.61750000  0.09550000  0.40170000  1.0 0.1596237992
H  H194  1  0.56600000  0.11940000  0.17260000  1.0 0.1201094331
H  H195  1  0.59310000  0.97750000  0.39700000  1.0 0.1093877886
H  H196  1  0.55960000  0.02650000  0.44150000  1.0 0.1201094331
H  H197  1  0.74840000  0.09890000  0.42130000  1.0 0.1390596131
H  H198  1  0.79230000  0.11590000  0.36340000  1.0 0.1297842431
H  H199  1  0.67990000  0.23530000  0.25390000  1.0 0.1002654858
H  H200  1  0.59460000  0.22850000  0.15130000  1.0 0.1093877886
H  H201  1  0.64400000  0.17740000  0.12530000  1.0 0.1002654858
H  H202  1  0.67600000  0.25830000  0.07390000  1.0 0.1002654858
H  H203  1  0.73920000  0.25830000  0.13870000  1.0 0.1002654858
H  H204  1  0.67760000  0.33410000  0.18810000  1.0 0.1002654858
H  H205  1  0.60940000  0.33160000  0.12710000  1.0 0.0926201446
H  H206  1  0.75800000  0.36970000  0.10860000  1.0 0.0926201446
H  H207  1  0.68550000  0.37330000  0.05100000  1.0 0.0832027041
H  H208  1  0.70470000  0.47310000  0.11300000  1.0 0.1201094331
H  H209  1  0.62720000  0.44360000  0.11920000  1.0 0.1201094331
H  H210  1  0.69560000  0.43750000  0.17920000  1.0 0.1297842431
H  H211  1  0.93240000  0.22270000  0.28650000  1.0 0.145906986
H  H212  1  0.74090000  0.08980000  0.19960000  1.0 0.1297842431
H  H213  1  0.90110000  0.31550000  0.30940000  1.0 0.1390596131
H  H214  1  0.85960000  0.32520000  0.23390000  1.0 0.1297842431
H  H215  1  0.08500000  0.13860000  0.25090000  1.0 0.1390596131
H  H216  1  0.03150000  0.19630000  0.24540000  1.0 0.1201094331
H  H217  1  0.61520000  0.63280000  0.12440000  1.0 0.1390596131
H  H218  1  0.64780000  0.56590000  0.11740000  1.0 0.1297842431
H  H219  1  0.67950000  0.62310000  0.08310000  1.0 0.1093877886
H  H220  1  0.56010000  0.63460000  0.01270000  1.0 0.1002654858
H  H221  1  0.53520000  0.57270000  0.04350000  1.0 0.0926201446
H  H222  1  0.58590000  0.51690000  0.98400000  1.0 0.1002654858
H  H223  1  0.65840000  0.55630000  0.99520000  1.0 0.1093877886
H  H224  1  0.54740000  0.55450000  0.88830000  1.0 0.1093877886
H  H225  1  0.60480000  0.60980000  0.90020000  1.0 0.1093877886
H  H226  1  0.65180000  0.48500000  0.89620000  1.0 0.1002654858
H  H227  1  0.70320000  0.54400000  0.89610000  1.0 0.1002654858
H  H228  1  0.58030000  0.52190000  0.79030000  1.0 0.1093877886
H  H229  1  0.75310000  0.45270000  0.84720000  1.0 0.1201094331
H  H230  1  0.67910000  0.43400000  0.61570000  1.0 0.1390596131
H  H231  1  0.53320000  0.53770000  0.58220000  1.0 0.1596237992
H  H232  1  0.61620000  0.52140000  0.57790000  1.0 0.1390596131
H  H233  1  0.80820000  0.41880000  0.59490000  1.0 0.1201094331
H  H234  1  0.84700000  0.35450000  0.58930000  1.0 0.145906986
H  H235  1  0.82650000  0.31810000  0.78690000  1.0 0.1002654858
H  H236  1  0.85060000  0.40000000  0.89970000  1.0 0.0926201446
H  H237  1  0.79140000  0.34580000  0.89010000  1.0 0.1093877886
H  H238  1  0.89520000  0.27170000  0.89300000  1.0 0.1093877886
H  H239  1  0.95100000  0.32780000  0.91300000  1.0 0.1002654858
H  H240  1  0.84260000  0.28850000  0.99590000  1.0 0.1002654858
H  H241  1  0.89450000  0.34630000  0.01500000  1.0 0.1002654858
H  H242  1  0.99560000  0.28440000  0.05160000  1.0 0.0926201446
H  H243  1  0.95130000  0.22420000  0.02170000  1.0 0.0926201446
H  H244  1  0.94060000  0.22880000  0.12800000  1.0 0.1201094331
H  H245  1  0.91990000  0.29990000  0.12210000  1.0 0.1201094331
H  H246  1  0.86310000  0.24990000  0.08600000  1.0 0.1201094331
H  H247  1  0.06310000  0.32440000  0.75220000  1.0 0.1708967586
H  H248  1  0.90280000  0.47090000  0.80500000  1.0 0.1297842431
H  H249  1  0.87420000  0.21160000  0.74140000  1.0 0.1390596131
H  H250  1  0.86320000  0.27660000  0.70550000  1.0 0.1297842431
H  H251  1  0.18050000  0.36190000  0.78850000  1.0 0.1390596131
H  H252  1  0.20950000  0.42310000  0.82730000  1.0 0.1390596131
H  H253  1  0.07130000  0.53580000  0.77720000  1.0 0.1093877886
H  H254  1  0.00840000  0.52880000  0.89540000  1.0 0.1002654858
H  H255  1  0.05430000  0.58750000  0.88090000  1.0 0.1002654858
H  H256  1  0.12130000  0.46840000  0.88940000  1.0 0.1002654858
H  H257  1  0.16320000  0.53310000  0.89560000  1.0 0.1093877886
H  H258  1  0.08250000  0.53540000  0.99220000  1.0 0.1002654858
H  H259  1  0.17000000  0.52880000  0.00410000  1.0 0.1002654858
H  H260  1  0.13390000  0.44790000  0.05660000  1.0 0.0832027041
H  H261  1  0.06420000  0.43600000  0.00060000  1.0 0.0926201446
H  H262  1  0.14330000  0.35330000  0.01290000  1.0 0.1093877886
H  H263  1  0.13450000  0.38030000  0.93930000  1.0 0.1297842431
H  H264  1  0.20690000  0.39470000  0.99280000  1.0 0.1297842431
H  H265  1  0.88250000  0.59550000  0.59830000  1.0 0.1596237992
H  H266  1  0.93400000  0.61940000  0.82740000  1.0 0.1201094331
H  H267  1  0.90690000  0.47750000  0.60300000  1.0 0.1093877886
H  H268  1  0.94040000  0.52650000  0.55850000  1.0 0.1201094331
H  H269  1  0.75160000  0.59890000  0.57870000  1.0 0.1390596131
H  H270  1  0.70770000  0.61590000  0.63660000  1.0 0.1297842431
H  H271  1  0.82010000  0.73530000  0.74610000  1.0 0.1002654858
H  H272  1  0.90540000  0.72850000  0.84870000  1.0 0.1093877886
H  H273  1  0.85600000  0.67740000  0.87470000  1.0 0.1002654858
H  H274  1  0.82400000  0.75830000  0.92610000  1.0 0.1002654858
H  H275  1  0.76080000  0.75830000  0.86130000  1.0 0.1002654858
H  H276  1  0.82240000  0.83410000  0.81190000  1.0 0.1002654858
H  H277  1  0.89060000  0.83160000  0.87290000  1.0 0.0926201446
H  H278  1  0.74200000  0.86970000  0.89140000  1.0 0.0926201446
H  H279  1  0.81450000  0.87330000  0.94900000  1.0 0.0832027041
H  H280  1  0.79530000  0.97310000  0.88700000  1.0 0.1201094331
H  H281  1  0.87280000  0.94360000  0.88080000  1.0 0.1201094331
H  H282  1  0.80440000  0.93750000  0.82080000  1.0 0.1297842431
H  H283  1  0.56760000  0.72270000  0.71350000  1.0 0.145906986
H  H284  1  0.75910000  0.58980000  0.80040000  1.0 0.1297842431
H  H285  1  0.59890000  0.81550000  0.69060000  1.0 0.1390596131
H  H286  1  0.64040000  0.82520000  0.76610000  1.0 0.1297842431
H  H287  1  0.41500000  0.63860000  0.74910000  1.0 0.1390596131
H  H288  1  0.46850000  0.69630000  0.75460000  1.0 0.1201094331
C  C1  1  0.13500000  0.89500000  0.09480000  1.0 -0.3896631028
C  C2  1  0.07770000  0.90560000  0.03140000  1.0 -0.119558846
C  C3  1  0.10500000  0.94130000  0.97910000  1.0 -0.1890673315
C  C4  1  0.09780000  0.93390000  0.91000000  1.0 -0.1714538421
C  C5  1  0.15300000  0.97220000  0.88070000  1.0 -0.2216577536
C  C6  1  0.13410000  0.97020000  0.80440000  1.0 -0.0317735544
C  C7  1  0.17830000  0.01940000  0.76840000  1.0 0.0008751703
C  C8  1  0.23710000  0.05350000  0.80090000  1.0 -0.211203523
C  C9  1  0.27530000  0.09810000  0.76800000  1.0 -0.0383304397
C  C10  1  0.25460000  0.10020000  0.69940000  1.0 0.2217220043
C  C11  1  0.19260000  0.06340000  0.66260000  1.0 -0.3495503093
C  C12  1  0.15500000  0.02530000  0.69850000  1.0 0.2123618678
C  C13  1  0.07320000  0.99220000  0.59640000  1.0 -0.1714538421
C  C14  1  0.04830000  0.05500000  0.56620000  1.0 0.6130781298
C  C15  1  0.30080000  0.12600000  0.59610000  1.0 -0.1714538421
C  C16  1  0.23900000  0.14360000  0.53580000  1.0 0.5901004796
C  C17  1  0.33660000  0.13940000  0.80430000  1.0 -0.0476282727
C  C18  1  0.33980000  0.14140000  0.88090000  1.0 -0.211203523
C  C19  1  0.40150000  0.18800000  0.91550000  1.0 -0.160961702
C  C20  1  0.39240000  0.19530000  0.99550000  1.0 -0.2020248349
C  C21  1  0.44660000  0.23500000  0.04150000  1.0 -0.1058719873
C  C22  1  0.41500000  0.23950000  0.09870000  1.0 -0.4201944123
C  C23  1  0.41330000  0.12070000  0.79130000  1.0 -0.0201264324
C  C24  1  0.46460000  0.16420000  0.77680000  1.0 0.1937747945
C  C25  1  0.53050000  0.14600000  0.76430000  1.0 -0.2761717017
C  C26  1  0.55190000  0.08300000  0.76900000  1.0 0.2006595855
C  C27  1  0.50230000  0.03830000  0.78370000  1.0 -0.0118619436
C  C28  1  0.43630000  0.05870000  0.79450000  1.0 -0.1787069279
C  C29  1  0.40040000  0.25430000  0.72410000  1.0 -0.1429194833
C  C30  1  0.43610000  0.27920000  0.66720000  1.0 0.5768772786
C  C31  1  0.69070000  0.09420000  0.78270000  1.0 -0.2660505946
C  C32  1  0.74660000  0.08880000  0.74350000  1.0 0.5601888423
C  C33  1  0.52520000  0.96900000  0.79550000  1.0 -0.0383304397
C  C34  1  0.54850000  0.95710000  0.87330000  1.0 -0.211203523
C  C35  1  0.62030000  0.98920000  0.90620000  1.0 -0.1519772324
C  C36  1  0.62300000  0.98970000  0.98160000  1.0 -0.1890673315
C  C37  1  0.61700000  0.05480000  0.00790000  1.0 -0.119558846
C  C38  1  0.65400000  0.11170000  0.98630000  1.0 -0.3896631028
C  C39  1  0.46940000  0.92960000  0.75270000  1.0 -0.0476282727
C  C40  1  0.45190000  0.93420000  0.68360000  1.0 0.2217220043
C  C41  1  0.39320000  0.89940000  0.64510000  1.0 -0.3079146843
C  C42  1  0.35250000  0.85910000  0.67420000  1.0 0.1937747945
C  C43  1  0.36880000  0.85040000  0.74330000  1.0 -0.0201264324
C  C44  1  0.42460000  0.88570000  0.78060000  1.0 -0.211203523
C  C45  1  0.45300000  0.00430000  0.59420000  1.0 -0.1787069279
C  C46  1  0.50350000  0.05610000  0.57160000  1.0 0.5768772786
C  C47  1  0.23160000  0.86670000  0.60130000  1.0 -0.1714538421
C  C48  1  0.17430000  0.83280000  0.55120000  1.0 0.6130781298
C  C49  1  0.32040000  0.80300000  0.77290000  1.0 -0.0317735544
C  C50  1  0.35420000  0.78530000  0.84700000  1.0 -0.231770544
C  C51  1  0.31420000  0.73670000  0.87720000  1.0 -0.1714538421
C  C52  1  0.33670000  0.67310000  0.86020000  1.0 -0.1714538421
C  C53  1  0.29600000  0.62450000  0.90050000  1.0 -0.100231054
C  C54  1  0.31940000  0.56140000  0.86920000  1.0 -0.3896631028
C  C55  1  0.24170000  0.82430000  0.76410000  1.0 -0.0476282727
C  C56  1  0.18250000  0.78670000  0.73550000  1.0 0.2123618678
C  C57  1  0.10630000  0.80440000  0.73120000  1.0 -0.3896631028
C  C58  1  0.09100000  0.86450000  0.75460000  1.0 0.235732199
C  C59  1  0.15090000  0.90440000  0.78070000  1.0 -0.0118619436
C  C60  1  0.22040000  0.88280000  0.78350000  1.0 -0.1714538421
C  C61  1  0.14730000  0.67800000  0.71940000  1.0 -0.1714538421
C  C62  1  0.18560000  0.61700000  0.69770000  1.0 0.5527188007
C  C63  1  0.95790000  0.84410000  0.73300000  1.0 -0.1714538421
C  C64  1  0.93630000  0.83400000  0.65880000  1.0 0.5960940991
C  C65  1  0.36500000  0.39500000  0.90520000  1.0 -0.3896631028
C  C66  1  0.42230000  0.40560000  0.96860000  1.0 -0.119558846
C  C67  1  0.39500000  0.44130000  0.02090000  1.0 -0.1890673315
C  C68  1  0.40220000  0.43390000  0.09000000  1.0 -0.1714538421
C  C69  1  0.34700000  0.47220000  0.11930000  1.0 -0.2216577536
C  C70  1  0.36590000  0.47020000  0.19560000  1.0 -0.0317735544
C  C71  1  0.32170000  0.51940000  0.23160000  1.0 0.0008751703
C  C72  1  0.26290000  0.55350000  0.19910000  1.0 -0.211203523
C  C73  1  0.22470000  0.59810000  0.23200000  1.0 -0.0383304397
C  C74  1  0.24540000  0.60020000  0.30060000  1.0 0.2217220043
C  C75  1  0.30740000  0.56340000  0.33740000  1.0 -0.3495503093
C  C76  1  0.34500000  0.52530000  0.30150000  1.0 0.2123618678
C  C77  1  0.42680000  0.49220000  0.40360000  1.0 -0.1714538421
C  C78  1  0.45170000  0.55500000  0.43380000  1.0 0.6130781298
C  C79  1  0.19920000  0.62600000  0.40390000  1.0 -0.1714538421
C  C80  1  0.26100000  0.64360000  0.46420000  1.0 0.5901004796
C  C81  1  0.16340000  0.63940000  0.19570000  1.0 -0.0476282727
C  C82  1  0.16020000  0.64140000  0.11910000  1.0 -0.211203523
C  C83  1  0.09850000  0.68800000  0.08450000  1.0 -0.160961702
C  C84  1  0.10760000  0.69530000  0.00450000  1.0 -0.2020248349
C  C85  1  0.05340000  0.73500000  0.95850000  1.0 -0.1058719873
C  C86  1  0.08500000  0.73950000  0.90130000  1.0 -0.4201944123
C  C87  1  0.08670000  0.62070000  0.20870000  1.0 -0.0201264324
C  C88  1  0.03540000  0.66420000  0.22320000  1.0 0.1937747945
C  C89  1  0.96950000  0.64600000  0.23570000  1.0 -0.2761717017
C  C90  1  0.94810000  0.58300000  0.23100000  1.0 0.2006595855
C  C91  1  0.99770000  0.53830000  0.21630000  1.0 -0.0118619436
C  C92  1  0.06370000  0.55870000  0.20550000  1.0 -0.1787069279
C  C93  1  0.09960000  0.75430000  0.27590000  1.0 -0.1429194833
C  C94  1  0.06390000  0.77920000  0.33280000  1.0 0.5768772786
C  C95  1  0.80930000  0.59420000  0.21730000  1.0 -0.2660505946
C  C96  1  0.75340000  0.58880000  0.25650000  1.0 0.5601888423
C  C97  1  0.97480000  0.46900000  0.20450000  1.0 -0.0383304397
C  C98  1  0.95150000  0.45710000  0.12670000  1.0 -0.211203523
C  C99  1  0.87970000  0.48920000  0.09380000  1.0 -0.1519772324
C  C100  1  0.87700000  0.48970000  0.01840000  1.0 -0.1890673315
C  C101  1  0.88300000  0.55480000  0.99210000  1.0 -0.119558846
C  C102  1  0.84600000  0.61170000  0.01370000  1.0 -0.3896631028
C  C103  1  0.03060000  0.42960000  0.24730000  1.0 -0.0476282727
C  C104  1  0.04810000  0.43420000  0.31640000  1.0 0.2217220043
C  C105  1  0.10680000  0.39940000  0.35490000  1.0 -0.3079146843
C  C106  1  0.14750000  0.35910000  0.32580000  1.0 0.1937747945
C  C107  1  0.13120000  0.35040000  0.25670000  1.0 -0.0201264324
C  C108  1  0.07540000  0.38570000  0.21940000  1.0 -0.211203523
C  C109  1  0.04700000  0.50430000  0.40580000  1.0 -0.1787069279
C  C110  1  0.99650000  0.55610000  0.42840000  1.0 0.5768772786
C  C111  1  0.26840000  0.36670000  0.39870000  1.0 -0.1714538421
C  C112  1  0.32570000  0.33280000  0.44880000  1.0 0.6130781298
C  C113  1  0.17960000  0.30300000  0.22710000  1.0 -0.0317735544
C  C114  1  0.14580000  0.28530000  0.15300000  1.0 -0.231770544
C  C115  1  0.18580000  0.23670000  0.12280000  1.0 -0.1714538421
C  C116  1  0.16330000  0.17310000  0.13980000  1.0 -0.1714538421
C  C117  1  0.20400000  0.12450000  0.09950000  1.0 -0.100231054
C  C118  1  0.18060000  0.06140000  0.13080000  1.0 -0.3896631028
C  C119  1  0.25830000  0.32430000  0.23590000  1.0 -0.0476282727
C  C120  1  0.31750000  0.28670000  0.26450000  1.0 0.2123618678
C  C121  1  0.39370000  0.30440000  0.26880000  1.0 -0.3896631028
C  C122  1  0.40900000  0.36450000  0.24540000  1.0 0.235732199
C  C123  1  0.34910000  0.40440000  0.21930000  1.0 -0.0118619436
C  C124  1  0.27960000  0.38280000  0.21650000  1.0 -0.1714538421
C  C125  1  0.35270000  0.17800000  0.28060000  1.0 -0.1714538421
C  C126  1  0.31440000  0.11700000  0.30230000  1.0 0.5527188007
C  C127  1  0.54210000  0.34410000  0.26700000  1.0 -0.1714538421
C  C128  1  0.56370000  0.33400000  0.34120000  1.0 0.5960940991
C  C129  1  0.86500000  0.10500000  0.90520000  1.0 -0.3896631028
C  C130  1  0.92230000  0.09440000  0.96860000  1.0 -0.119558846
C  C131  1  0.89500000  0.05870000  0.02090000  1.0 -0.1890673315
C  C132  1  0.90220000  0.06610000  0.09000000  1.0 -0.1714538421
C  C133  1  0.84700000  0.02780000  0.11930000  1.0 -0.2216577536
C  C134  1  0.86590000  0.02980000  0.19560000  1.0 -0.0317735544
C  C135  1  0.82170000  0.98060000  0.23160000  1.0 0.0008751703
C  C136  1  0.76290000  0.94650000  0.19910000  1.0 -0.211203523
C  C137  1  0.72470000  0.90190000  0.23200000  1.0 -0.0383304397
C  C138  1  0.74540000  0.89980000  0.30060000  1.0 0.2217220043
C  C139  1  0.80740000  0.93660000  0.33740000  1.0 -0.3495503093
C  C140  1  0.84500000  0.97470000  0.30150000  1.0 0.2123618678
C  C141  1  0.92680000  0.00780000  0.40360000  1.0 -0.1714538421
C  C142  1  0.95170000  0.94500000  0.43380000  1.0 0.6130781298
C  C143  1  0.69920000  0.87400000  0.40390000  1.0 -0.1714538421
C  C144  1  0.76100000  0.85640000  0.46420000  1.0 0.5901004796
C  C145  1  0.66340000  0.86060000  0.19570000  1.0 -0.0476282727
C  C146  1  0.66020000  0.85860000  0.11910000  1.0 -0.211203523
C  C147  1  0.59850000  0.81200000  0.08450000  1.0 -0.160961702
C  C148  1  0.60760000  0.80470000  0.00450000  1.0 -0.2020248349
C  C149  1  0.55340000  0.76500000  0.95850000  1.0 -0.1058719873
C  C150  1  0.58500000  0.76050000  0.90130000  1.0 -0.4201944123
C  C151  1  0.58670000  0.87930000  0.20870000  1.0 -0.0201264324
C  C152  1  0.53540000  0.83580000  0.22320000  1.0 0.1937747945
C  C153  1  0.46950000  0.85400000  0.23570000  1.0 -0.2761717017
C  C154  1  0.44810000  0.91700000  0.23100000  1.0 0.2006595855
C  C155  1  0.49770000  0.96170000  0.21630000  1.0 -0.0118619436
C  C156  1  0.56370000  0.94130000  0.20550000  1.0 -0.1787069279
C  C157  1  0.59960000  0.74570000  0.27590000  1.0 -0.1429194833
C  C158  1  0.56390000  0.72080000  0.33280000  1.0 0.5768772786
C  C159  1  0.30930000  0.90580000  0.21730000  1.0 -0.2660505946
C  C160  1  0.25340000  0.91120000  0.25650000  1.0 0.5601888423
C  C161  1  0.47480000  0.03100000  0.20450000  1.0 -0.0383304397
C  C162  1  0.45150000  0.04290000  0.12670000  1.0 -0.211203523
C  C163  1  0.37970000  0.01080000  0.09380000  1.0 -0.1519772324
C  C164  1  0.37700000  0.01030000  0.01840000  1.0 -0.1890673315
C  C165  1  0.38300000  0.94520000  0.99210000  1.0 -0.119558846
C  C166  1  0.34600000  0.88830000  0.01370000  1.0 -0.3896631028
C  C167  1  0.53060000  0.07040000  0.24730000  1.0 -0.0476282727
C  C168  1  0.54810000  0.06580000  0.31640000  1.0 0.2217220043
C  C169  1  0.60680000  0.10060000  0.35490000  1.0 -0.3079146843
C  C170  1  0.64750000  0.14090000  0.32580000  1.0 0.1937747945
C  C171  1  0.63120000  0.14960000  0.25670000  1.0 -0.0201264324
C  C172  1  0.57540000  0.11430000  0.21940000  1.0 -0.211203523
C  C173  1  0.54700000  0.99570000  0.40580000  1.0 -0.1787069279
C  C174  1  0.49650000  0.94390000  0.42840000  1.0 0.5768772786
C  C175  1  0.76840000  0.13330000  0.39870000  1.0 -0.1714538421
C  C176  1  0.82570000  0.16720000  0.44880000  1.0 0.6130781298
C  C177  1  0.67960000  0.19700000  0.22710000  1.0 -0.0317735544
C  C178  1  0.64580000  0.21470000  0.15300000  1.0 -0.231770544
C  C179  1  0.68580000  0.26330000  0.12280000  1.0 -0.160961702
C  C180  1  0.66330000  0.32690000  0.13980000  1.0 -0.1714538421
C  C181  1  0.70400000  0.37550000  0.09950000  1.0 -0.100231054
C  C182  1  0.68060000  0.43860000  0.13080000  1.0 -0.3896631028
C  C183  1  0.75830000  0.17570000  0.23590000  1.0 -0.0476282727
C  C184  1  0.81750000  0.21330000  0.26450000  1.0 0.2123618678
C  C185  1  0.89370000  0.19560000  0.26880000  1.0 -0.3896631028
C  C186  1  0.90900000  0.13550000  0.24540000  1.0 0.235732199
C  C187  1  0.84910000  0.09560000  0.21930000  1.0 -0.0118619436
C  C188  1  0.77960000  0.11720000  0.21650000  1.0 -0.1714538421
C  C189  1  0.85270000  0.32200000  0.28060000  1.0 -0.1714538421
C  C190  1  0.81440000  0.38300000  0.30230000  1.0 0.5527188007
C  C191  1  0.04210000  0.15590000  0.26700000  1.0 -0.1714538421
C  C192  1  0.06370000  0.16600000  0.34120000  1.0 0.5960940991
C  C193  1  0.63500000  0.60500000  0.09480000  1.0 -0.3896631028
C  C194  1  0.57770000  0.59440000  0.03140000  1.0 -0.119558846
C  C195  1  0.60500000  0.55870000  0.97910000  1.0 -0.1890673315
C  C196  1  0.59780000  0.56610000  0.91000000  1.0 -0.1714538421
C  C197  1  0.65300000  0.52780000  0.88070000  1.0 -0.2216577536
C  C198  1  0.63410000  0.52980000  0.80440000  1.0 -0.0317735544
C  C199  1  0.67830000  0.48060000  0.76840000  1.0 -4.79038e-05
C  C200  1  0.73710000  0.44650000  0.80090000  1.0 -0.211203523
C  C201  1  0.77530000  0.40190000  0.76800000  1.0 -0.0383304397
C  C202  1  0.75460000  0.39980000  0.69940000  1.0 0.2217220043
C  C203  1  0.69260000  0.43660000  0.66260000  1.0 -0.3495503093
C  C204  1  0.65500000  0.47470000  0.69850000  1.0 0.2123618678
C  C205  1  0.57320000  0.50780000  0.59640000  1.0 -0.1714538421
C  C206  1  0.54830000  0.44500000  0.56620000  1.0 0.6130781298
C  C207  1  0.80080000  0.37400000  0.59610000  1.0 -0.1714538421
C  C208  1  0.73900000  0.35640000  0.53580000  1.0 0.5901004796
C  C209  1  0.83660000  0.36060000  0.80430000  1.0 -0.0476282727
C  C210  1  0.83980000  0.35860000  0.88090000  1.0 -0.211203523
C  C211  1  0.90150000  0.31200000  0.91550000  1.0 -0.160961702
C  C212  1  0.89240000  0.30470000  0.99550000  1.0 -0.2020248349
C  C213  1  0.94660000  0.26500000  0.04150000  1.0 -0.1058719873
C  C214  1  0.91500000  0.26050000  0.09870000  1.0 -0.4201944123
C  C215  1  0.91330000  0.37930000  0.79130000  1.0 -0.0201264324
C  C216  1  0.96460000  0.33580000  0.77680000  1.0 0.1937747945
C  C217  1  0.03050000  0.35400000  0.76430000  1.0 -0.2761717017
C  C218  1  0.05190000  0.41700000  0.76900000  1.0 0.2006595855
C  C219  1  0.00230000  0.46170000  0.78370000  1.0 -0.0118619436
C  C220  1  0.93630000  0.44130000  0.79450000  1.0 -0.1787069279
C  C221  1  0.90040000  0.24570000  0.72410000  1.0 -0.1429194833
C  C222  1  0.93610000  0.22080000  0.66720000  1.0 0.5768772786
C  C223  1  0.19070000  0.40580000  0.78270000  1.0 -0.2660505946
C  C224  1  0.24660000  0.41120000  0.74350000  1.0 0.5601888423
C  C225  1  0.02520000  0.53100000  0.79550000  1.0 -0.0383304397
C  C226  1  0.04850000  0.54290000  0.87330000  1.0 -0.211203523
C  C227  1  0.12030000  0.51080000  0.90620000  1.0 -0.1519772324
C  C228  1  0.12300000  0.51030000  0.98160000  1.0 -0.1890673315
C  C229  1  0.11700000  0.44520000  0.00790000  1.0 -0.119558846
C  C230  1  0.15400000  0.38830000  0.98630000  1.0 -0.3896631028
C  C231  1  0.96940000  0.57040000  0.75270000  1.0 -0.0476282727
C  C232  1  0.95190000  0.56580000  0.68360000  1.0 0.2217220043
C  C233  1  0.89320000  0.60060000  0.64510000  1.0 -0.3079146843
C  C234  1  0.85250000  0.64090000  0.67420000  1.0 0.1937747945
C  C235  1  0.86880000  0.64960000  0.74330000  1.0 -0.0201264324
C  C236  1  0.92460000  0.61430000  0.78060000  1.0 -0.211203523
C  C237  1  0.95300000  0.49570000  0.59420000  1.0 -0.1787069279
C  C238  1  0.00350000  0.44390000  0.57160000  1.0 0.5768772786
C  C239  1  0.73160000  0.63330000  0.60130000  1.0 -0.1714538421
C  C240  1  0.67430000  0.66720000  0.55120000  1.0 0.6130781298
C  C241  1  0.82040000  0.69700000  0.77290000  1.0 -0.0317735544
C  C242  1  0.85420000  0.71470000  0.84700000  1.0 -0.231770544
C  C243  1  0.81420000  0.76330000  0.87720000  1.0 -0.1714538421
C  C244  1  0.83670000  0.82690000  0.86020000  1.0 -0.1714538421
C  C245  1  0.79600000  0.87550000  0.90050000  1.0 -0.100231054
C  C246  1  0.81940000  0.93860000  0.86920000  1.0 -0.3896631028
C  C247  1  0.74170000  0.67570000  0.76410000  1.0 -0.0476282727
C  C248  1  0.68250000  0.71330000  0.73550000  1.0 0.2123618678
C  C249  1  0.60630000  0.69560000  0.73120000  1.0 -0.3896631028
C  C250  1  0.59100000  0.63550000  0.75460000  1.0 0.235732199
C  C251  1  0.65090000  0.59560000  0.78070000  1.0 -0.0118619436
C  C252  1  0.72040000  0.61720000  0.78350000  1.0 -0.1714538421
C  C253  1  0.64730000  0.82200000  0.71940000  1.0 -0.1714538421
C  C254  1  0.68560000  0.88300000  0.69770000  1.0 0.5527188007
C  C255  1  0.45790000  0.65590000  0.73300000  1.0 -0.1714538421
C  C256  1  0.43630000  0.66600000  0.65880000  1.0 0.5960940991
O  O1  1  0.09240000  0.99110000  0.66800000  1.0 -0.1787069279
O  O2  1  0.28920000  0.14230000  0.66290000  1.0 -0.1787069279
O  O3  1  0.00710000  0.08900000  0.59720000  1.0 -0.4979685819
O  O4  1  0.06450000  0.06930000  0.51100000  1.0 -0.5327957049
O  O5  1  0.18050000  0.16400000  0.54390000  1.0 -0.4282309364
O  O6  1  0.25860000  0.13260000  0.48010000  1.0 -0.5582542147
O  O7  1  0.44920000  0.22740000  0.77820000  1.0 -0.1519772324
O  O8  1  0.61870000  0.06190000  0.75310000  1.0 -0.211203523
O  O9  1  0.39700000  0.31330000  0.62470000  1.0 -0.4979685819
O  O10  1  0.49810000  0.26040000  0.66010000  1.0 -0.4570250835
O  O11  1  0.80940000  0.10750000  0.76400000  1.0 -0.4905209343
O  O12  1  0.72520000  0.05650000  0.68410000  1.0 -0.5771010394
O  O13  1  0.49250000  0.97520000  0.65400000  1.0 -0.1890673315
O  O14  1  0.29030000  0.82780000  0.63090000  1.0 -0.2216577536
O  O15  1  0.56570000  0.06720000  0.60200000  1.0 -0.4905209343
O  O16  1  0.46680000  0.08440000  0.52050000  1.0 -0.4979685819
O  O17  1  0.17740000  0.77560000  0.54670000  1.0 -0.5582542147
O  O18  1  0.12550000  0.86710000  0.51510000  1.0 -0.5327957049
O  O19  1  0.19740000  0.72830000  0.71200000  1.0 -0.211203523
O  O20  1  0.01950000  0.88310000  0.75470000  1.0 -0.119558846
O  O21  1  0.14690000  0.56970000  0.70650000  1.0 -0.5327957049
O  O22  1  0.23010000  0.61910000  0.66680000  1.0 -0.3896631028
O  O23  1  0.88800000  0.79180000  0.63850000  1.0 -0.6479214902
O  O24  1  0.95980000  0.87170000  0.61890000  1.0 -0.4905209343
O  O25  1  0.97590000  0.78740000  0.48960000  1.0 -0.5916727658
O  O26  1  0.65780000  0.96770000  0.56580000  1.0 0.0476057225
O  O27  1  0.40760000  0.49110000  0.33200000  1.0 -0.1787069279
O  O28  1  0.21080000  0.64230000  0.33710000  1.0 -0.1787069279
O  O29  1  0.49290000  0.58900000  0.40280000  1.0 -0.4979685819
O  O30  1  0.43550000  0.56930000  0.48900000  1.0 -0.5327957049
O  O31  1  0.31950000  0.66400000  0.45610000  1.0 -0.4282309364
O  O32  1  0.24140000  0.63260000  0.51990000  1.0 -0.5582542147
O  O33  1  0.05080000  0.72740000  0.22180000  1.0 -0.1519772324
O  O34  1  0.88130000  0.56190000  0.24690000  1.0 -0.211203523
O  O35  1  0.10300000  0.81330000  0.37530000  1.0 -0.4979685819
O  O36  1  0.00190000  0.76040000  0.33990000  1.0 -0.4570250835
O  O37  1  0.69060000  0.60750000  0.23600000  1.0 -0.4905209343
O  O38  1  0.77480000  0.55650000  0.31590000  1.0 -0.5771010394
O  O39  1  0.00750000  0.47520000  0.34600000  1.0 -0.1890673315
O  O40  1  0.20970000  0.32780000  0.36910000  1.0 -0.2216577536
O  O41  1  0.93430000  0.56720000  0.39800000  1.0 -0.4905209343
O  O42  1  0.03320000  0.58440000  0.47950000  1.0 -0.4979685819
O  O43  1  0.32260000  0.27560000  0.45330000  1.0 -0.5582542147
O  O44  1  0.37450000  0.36710000  0.48490000  1.0 -0.5327957049
O  O45  1  0.30260000  0.22830000  0.28800000  1.0 -0.211203523
O  O46  1  0.48050000  0.38310000  0.24530000  1.0 -0.119558846
O  O47  1  0.35310000  0.06970000  0.29350000  1.0 -0.5327957049
O  O48  1  0.26990000  0.11910000  0.33320000  1.0 -0.3896631028
O  O49  1  0.61200000  0.29180000  0.36150000  1.0 -0.6479214902
O  O50  1  0.54020000  0.37170000  0.38110000  1.0 -0.4905209343
O  O51  1  0.52410000  0.28740000  0.51040000  1.0 -0.6010984357
O  O52  1  0.84220000  0.46770000  0.43420000  1.0 0.0476057225
O  O53  1  0.90760000  0.00890000  0.33200000  1.0 -0.1787069279
O  O54  1  0.71080000  0.85770000  0.33710000  1.0 -0.1787069279
O  O55  1  0.99290000  0.91100000  0.40280000  1.0 -0.4979685819
O  O56  1  0.93550000  0.93070000  0.48900000  1.0 -0.5327957049
O  O57  1  0.81950000  0.83600000  0.45610000  1.0 -0.4282309364
O  O58  1  0.74140000  0.86740000  0.51990000  1.0 -0.5582542147
O  O59  1  0.55080000  0.77260000  0.22180000  1.0 -0.1519772324
O  O60  1  0.38130000  0.93810000  0.24690000  1.0 -0.211203523
O  O61  1  0.60300000  0.68670000  0.37530000  1.0 -0.4979685819
O  O62  1  0.50190000  0.73960000  0.33990000  1.0 -0.4570250835
O  O63  1  0.19060000  0.89250000  0.23600000  1.0 -0.4905209343
O  O64  1  0.27480000  0.94350000  0.31590000  1.0 -0.5771010394
O  O65  1  0.50750000  0.02480000  0.34600000  1.0 -0.1890673315
O  O66  1  0.70970000  0.17220000  0.36910000  1.0 -0.2216577536
O  O67  1  0.43430000  0.93280000  0.39800000  1.0 -0.4905209343
O  O68  1  0.53320000  0.91560000  0.47950000  1.0 -0.4979685819
O  O69  1  0.82260000  0.22440000  0.45330000  1.0 -0.5582542147
O  O70  1  0.87450000  0.13290000  0.48490000  1.0 -0.5327957049
O  O71  1  0.80260000  0.27170000  0.28800000  1.0 -0.211203523
O  O72  1  0.98050000  0.11690000  0.24530000  1.0 -0.119558846
O  O73  1  0.85310000  0.43030000  0.29350000  1.0 -0.5327957049
O  O74  1  0.76990000  0.38090000  0.33320000  1.0 -0.3896631028
O  O75  1  0.11200000  0.20820000  0.36150000  1.0 -0.6479214902
O  O76  1  0.04020000  0.12830000  0.38110000  1.0 -0.4905209343
O  O77  1  0.02410000  0.21260000  0.51040000  1.0 -0.6010984357
O  O78  1  0.34220000  0.03230000  0.43420000  1.0 0.0415477821
O  O79  1  0.59240000  0.50890000  0.66800000  1.0 -0.1787069279
O  O80  1  0.78920000  0.35770000  0.66290000  1.0 -0.1787069279
O  O81  1  0.50710000  0.41100000  0.59720000  1.0 -0.4979685819
O  O82  1  0.56450000  0.43070000  0.51100000  1.0 -0.5327957049
O  O83  1  0.68050000  0.33600000  0.54390000  1.0 -0.4282309364
O  O84  1  0.75860000  0.36740000  0.48010000  1.0 -0.5582542147
O  O85  1  0.94920000  0.27260000  0.77820000  1.0 -0.1519772324
O  O86  1  0.11870000  0.43810000  0.75310000  1.0 -0.211203523
O  O87  1  0.89700000  0.18670000  0.62470000  1.0 -0.4979685819
O  O88  1  0.99810000  0.23960000  0.66010000  1.0 -0.4570250835
O  O89  1  0.30940000  0.39250000  0.76400000  1.0 -0.4905209343
O  O90  1  0.22520000  0.44350000  0.68410000  1.0 -0.5771010394
O  O91  1  0.99250000  0.52480000  0.65400000  1.0 -0.1890673315
O  O92  1  0.79030000  0.67220000  0.63090000  1.0 -0.2216577536
O  O93  1  0.06570000  0.43280000  0.60200000  1.0 -0.4905209343
O  O94  1  0.96680000  0.41560000  0.52050000  1.0 -0.4979685819
O  O95  1  0.67740000  0.72440000  0.54670000  1.0 -0.5582542147
O  O96  1  0.62550000  0.63290000  0.51510000  1.0 -0.5327957049
O  O97  1  0.69740000  0.77170000  0.71200000  1.0 -0.211203523
O  O98  1  0.51950000  0.61690000  0.75470000  1.0 -0.119558846
O  O99  1  0.64690000  0.93030000  0.70650000  1.0 -0.5327957049
O  O100  1  0.73010000  0.88090000  0.66680000  1.0 -0.3896631028
O  O101  1  0.38800000  0.70820000  0.63850000  1.0 -0.6479214902
O  O102  1  0.45980000  0.62830000  0.61890000  1.0 -0.4905209343
O  O103  1  0.47590000  0.71260000  0.48960000  1.0 -0.5916727658
O  O104  1  0.15780000  0.53230000  0.56580000  1.0 0.0415477821
