# DDEC6 charges by PACMAN v1.1 (https://github.com/mtap-research/PACMAN-charge/)
data_XECZOY_FSR_pacman
_symmetry_space_group_name_H-M   'P 1'
_cell_length_a   22.45600000
_cell_length_b   20.59220000
_cell_length_c   33.97900000
_cell_angle_alpha   90.00000000
_cell_angle_beta   108.75100000
_cell_angle_gamma   90.00000000
_symmetry_Int_Tables_number   1
_chemical_formula_structural   Ni6H90C162O43
_chemical_formula_sum   'Ni24 H360 C648 O172'
_cell_volume   14878.56692486
_cell_formula_units_Z   4
loop_
 _symmetry_equiv_pos_site_id
 _symmetry_equiv_pos_as_xyz
  1  'x, y, z'
loop_
 _atom_site_type_symbol
 _atom_site_label
 _atom_site_symmetry_multiplicity
 _atom_site_fract_x
 _atom_site_fract_y
 _atom_site_fract_z
 _atom_site_occupancy
 _atom_site_charge
Ni  Ni1  1  0.92222000  0.86033000  0.58074000  1.0 1.1184798309
Ni  Ni2  1  0.65451000  0.13822000  0.08268000  1.0 1.1338217982
Ni  Ni3  1  0.55879000  0.99204000  0.04464000  1.0 1.0309646725
Ni  Ni4  1  0.98277000  0.00645000  0.54394000  1.0 1.0309646725
Ni  Ni5  1  0.54520000  0.09487000  0.10490000  1.0 1.0531763264
Ni  Ni6  1  0.05435000  0.90380000  0.60446000  1.0 1.0910600253
Ni  Ni7  1  0.57778000  0.36033000  0.41926000  1.0 1.1184798309
Ni  Ni8  1  0.84549000  0.63822000  0.91732000  1.0 1.1338217982
Ni  Ni9  1  0.94121000  0.49204000  0.95536000  1.0 1.0309646725
Ni  Ni10  1  0.51723000  0.50645000  0.45606000  1.0 1.0309646725
Ni  Ni11  1  0.95480000  0.59487000  0.89510000  1.0 1.0531763264
Ni  Ni12  1  0.44565000  0.40380000  0.39554000  1.0 1.0910600253
Ni  Ni13  1  0.07778000  0.13967000  0.41926000  1.0 1.1184798309
Ni  Ni14  1  0.34549000  0.86178000  0.91732000  1.0 1.1338217982
Ni  Ni15  1  0.44121000  0.00796000  0.95536000  1.0 1.0309646725
Ni  Ni16  1  0.01723000  0.99355000  0.45606000  1.0 1.0309646725
Ni  Ni17  1  0.45480000  0.90513000  0.89510000  1.0 1.0531763264
Ni  Ni18  1  0.94565000  0.09620000  0.39554000  1.0 1.0910600253
Ni  Ni19  1  0.42222000  0.63967000  0.58074000  1.0 1.1184798309
Ni  Ni20  1  0.15451000  0.36178000  0.08268000  1.0 1.1338217982
Ni  Ni21  1  0.05879000  0.50796000  0.04464000  1.0 1.03506772
Ni  Ni22  1  0.48277000  0.49355000  0.54394000  1.0 1.0309646725
Ni  Ni23  1  0.04520000  0.40513000  0.10490000  1.0 1.0531763264
Ni  Ni24  1  0.55435000  0.59620000  0.60446000  1.0 1.0910600253
H  H1  1  0.69949000  0.06842000  0.84837000  1.0 0.1398157644
H  H2  1  0.71298000  0.14323000  0.74259000  1.0 0.1291435073
H  H3  1  0.72073000  0.25991000  0.83907000  1.0 0.1291435073
H  H4  1  0.78220000  0.23832000  0.91291000  1.0 0.1291435073
H  H5  1  0.78524000  0.24565000  0.98133000  1.0 0.1291435073
H  H6  1  0.63375000  0.12971000  0.95516000  1.0 0.1200939068
H  H7  1  0.63402000  0.11804000  0.88797000  1.0 0.1291435073
H  H8  1  0.76348000  0.04106000  0.74286000  1.0 0.1200939068
H  H9  1  0.75884000  0.93562000  0.71787000  1.0 0.1291435073
H  H10  1  0.63696000  0.88651000  0.77427000  1.0 0.1398157644
H  H11  1  0.64318000  0.98845000  0.80326000  1.0 0.1200939068
H  H12  1  0.77325000  0.23761000  0.73026000  1.0 0.1200939068
H  H13  1  0.77689000  0.33263000  0.69487000  1.0 0.1200939068
H  H14  1  0.65545000  0.41568000  0.74432000  1.0 0.1291435073
H  H15  1  0.65562000  0.32249000  0.78222000  1.0 0.1200939068
H  H16  1  0.85359000  0.05883000  0.01790000  1.0 0.1200939068
H  H17  1  0.85188000  0.86593000  0.00206000  1.0 0.1200939068
H  H18  1  0.01406000  0.95832000  0.05625000  1.0 0.1200939068
H  H19  1  0.89812000  0.12392000  0.06740000  1.0 0.1291435073
H  H20  1  0.94337000  0.22561000  0.08419000  1.0 0.1398157644
H  H21  1  0.10430000  0.15638000  0.07177000  1.0 0.1200939068
H  H22  1  0.05842000  0.05606000  0.05418000  1.0 0.1200939068
H  H23  1  0.75651000  0.87744000  0.96212000  1.0 0.1398157644
H  H24  1  0.64926000  0.87544000  0.94380000  1.0 0.1505553224
H  H25  1  0.65277000  0.04571000  0.00296000  1.0 0.1291435073
H  H26  1  0.76084000  0.04819000  0.02035000  1.0 0.1200939068
H  H27  1  0.11040000  0.77646000  0.04413000  1.0 0.1200939068
H  H28  1  0.94753000  0.68257000  0.02472000  1.0 0.1398157644
H  H29  1  0.89708000  0.77966000  0.02202000  1.0 0.1200939068
H  H30  1  0.12173000  0.84199000  0.15539000  1.0 0.1291435073
H  H31  1  0.94153000  0.79199000  0.13897000  1.0 0.1200939068
H  H32  1  0.98920000  0.97934000  0.13745000  1.0 0.1291435073
H  H33  1  0.90639000  0.99528000  0.15803000  1.0 0.1398157644
H  H34  1  0.80732000  0.03624000  0.13742000  1.0 0.1398157644
H  H35  1  0.74332000  0.87258000  0.07400000  1.0 0.1398157644
H  H36  1  0.84409000  0.83238000  0.09453000  1.0 0.1200939068
H  H37  1  0.07802000  0.03349000  0.18430000  1.0 0.1200939068
H  H38  1  0.14201000  0.12105000  0.18079000  1.0 0.1398157644
H  H39  1  0.21824000  0.01493000  0.10972000  1.0 0.1200939068
H  H40  1  0.15434000  0.92760000  0.11262000  1.0 0.1200939068
H  H41  1  0.14218000  0.74124000  0.18631000  1.0 0.1200939068
H  H42  1  0.16901000  0.63415000  0.18018000  1.0 0.1291435073
H  H43  1  0.99238000  0.59740000  0.10868000  1.0 0.1291435073
H  H44  1  0.96543000  0.70368000  0.11439000  1.0 0.1200939068
H  H45  1  0.63937000  0.69374000  0.34907000  1.0 0.1291435073
H  H46  1  0.62404000  0.88716000  0.33600000  1.0 0.1505553224
H  H47  1  0.53801000  0.76897000  0.24002000  1.0 0.1200939068
H  H48  1  0.48426000  0.67101000  0.23845000  1.0 0.1200939068
H  H49  1  0.45782000  0.56333000  0.22192000  1.0 0.1200939068
H  H50  1  0.63121000  0.50898000  0.28780000  1.0 0.1291435073
H  H51  1  0.65698000  0.61473000  0.30531000  1.0 0.1200939068
H  H52  1  0.62598000  0.95410000  0.27893000  1.0 0.1291435073
H  H53  1  0.58965000  0.03869000  0.23221000  1.0 0.1398157644
H  H54  1  0.42919000  0.94160000  0.17968000  1.0 0.1200939068
H  H55  1  0.46532000  0.85668000  0.22585000  1.0 0.1200939068
H  H56  1  0.63278000  0.73608000  0.41776000  1.0 0.1291435073
H  H57  1  0.69615000  0.74502000  0.48601000  1.0 0.1291435073
H  H58  1  0.81078000  0.86546000  0.45056000  1.0 0.1200939068
H  H59  1  0.74298000  0.86239000  0.38291000  1.0 0.1398157644
H  H60  1  0.16502000  0.55688000  0.51925000  1.0 0.1200939068
H  H61  1  0.03874000  0.45695000  0.55525000  1.0 0.1200939068
H  H62  1  0.14828000  0.36481000  0.49998000  1.0 0.1200939068
H  H63  1  0.16491000  0.62284000  0.56649000  1.0 0.1291435073
H  H64  1  0.13445000  0.72459000  0.58336000  1.0 0.1398157644
H  H65  1  0.96350000  0.65374000  0.57192000  1.0 0.1291435073
H  H66  1  0.99399000  0.55221000  0.55565000  1.0 0.1140454511
H  H67  1  0.21183000  0.37146000  0.46737000  1.0 0.1291435073
H  H68  1  0.30167000  0.37026000  0.44884000  1.0 0.1398157644
H  H69  1  0.34523000  0.54903000  0.49633000  1.0 0.1398157644
H  H70  1  0.25426000  0.55148000  0.51356000  1.0 0.1200939068
H  H71  1  0.12453000  0.27822000  0.52278000  1.0 0.1200939068
H  H72  1  0.07659000  0.18032000  0.52601000  1.0 0.1398157644
H  H73  1  0.92924000  0.27559000  0.54039000  1.0 0.1200939068
H  H74  1  0.97636000  0.37259000  0.53735000  1.0 0.1200939068
H  H75  1  0.52434000  0.16140000  0.65314000  1.0 0.1291435073
H  H76  1  0.68928000  0.20581000  0.63756000  1.0 0.1291435073
H  H77  1  0.63884000  0.01949000  0.64032000  1.0 0.1200939068
H  H78  1  0.44827000  0.07430000  0.61282000  1.0 0.1200939068
H  H79  1  0.38156000  0.98613000  0.61024000  1.0 0.1291435073
H  H80  1  0.52648000  0.88230000  0.68148000  1.0 0.1398157644
H  H81  1  0.59329000  0.96952000  0.68751000  1.0 0.1200939068
H  H82  1  0.52569000  0.25918000  0.67714000  1.0 0.1200939068
H  H83  1  0.49851000  0.36765000  0.67407000  1.0 0.1200939068
H  H84  1  0.61378000  0.40485000  0.60855000  1.0 0.1398157644
H  H85  1  0.64543000  0.29792000  0.61407000  1.0 0.1140454511
H  H86  1  0.74101000  0.16477000  0.59186000  1.0 0.1200939068
H  H87  1  0.82208000  0.12297000  0.57180000  1.0 0.1398157644
H  H88  1  0.81448000  0.95663000  0.63088000  1.0 0.1291435073
H  H89  1  0.73602000  0.99866000  0.65311000  1.0 0.1291435073
H  H90  1  0.05958000  0.87515000  0.03907000  1.0 0.1200939068
H  H91  1  0.80051000  0.56842000  0.15163000  1.0 0.1398157644
H  H92  1  0.78702000  0.64323000  0.25741000  1.0 0.1291435073
H  H93  1  0.77927000  0.75991000  0.16093000  1.0 0.1291435073
H  H94  1  0.71780000  0.73832000  0.08709000  1.0 0.1291435073
H  H95  1  0.71476000  0.74565000  0.01867000  1.0 0.1291435073
H  H96  1  0.86625000  0.62971000  0.04484000  1.0 0.1200939068
H  H97  1  0.86598000  0.61804000  0.11203000  1.0 0.1291435073
H  H98  1  0.73652000  0.54106000  0.25714000  1.0 0.1200939068
H  H99  1  0.74116000  0.43562000  0.28213000  1.0 0.1291435073
H  H100  1  0.86304000  0.38651000  0.22573000  1.0 0.1398157644
H  H101  1  0.85682000  0.48845000  0.19674000  1.0 0.1200939068
H  H102  1  0.72675000  0.73761000  0.26974000  1.0 0.1200939068
H  H103  1  0.72311000  0.83263000  0.30513000  1.0 0.1200939068
H  H104  1  0.84455000  0.91568000  0.25568000  1.0 0.1291435073
H  H105  1  0.84438000  0.82249000  0.21778000  1.0 0.1200939068
H  H106  1  0.64641000  0.55883000  0.98210000  1.0 0.1200939068
H  H107  1  0.64812000  0.36593000  0.99794000  1.0 0.1200939068
H  H108  1  0.48594000  0.45832000  0.94375000  1.0 0.1200939068
H  H109  1  0.60188000  0.62392000  0.93260000  1.0 0.1291435073
H  H110  1  0.55663000  0.72561000  0.91581000  1.0 0.1398157644
H  H111  1  0.39570000  0.65638000  0.92823000  1.0 0.1200939068
H  H112  1  0.44158000  0.55606000  0.94582000  1.0 0.1200939068
H  H113  1  0.74349000  0.37744000  0.03788000  1.0 0.1398157644
H  H114  1  0.85074000  0.37544000  0.05620000  1.0 0.1505553224
H  H115  1  0.84723000  0.54571000  0.99704000  1.0 0.1291435073
H  H116  1  0.73916000  0.54819000  0.97965000  1.0 0.1200939068
H  H117  1  0.38960000  0.27646000  0.95587000  1.0 0.1200939068
H  H118  1  0.55247000  0.18257000  0.97528000  1.0 0.1398157644
H  H119  1  0.60292000  0.27966000  0.97798000  1.0 0.1200939068
H  H120  1  0.37827000  0.34199000  0.84461000  1.0 0.1291435073
H  H121  1  0.55847000  0.29199000  0.86103000  1.0 0.1200939068
H  H122  1  0.51080000  0.47934000  0.86255000  1.0 0.1291435073
H  H123  1  0.59361000  0.49528000  0.84197000  1.0 0.1398157644
H  H124  1  0.69268000  0.53624000  0.86258000  1.0 0.1398157644
H  H125  1  0.75668000  0.37258000  0.92600000  1.0 0.1398157644
H  H126  1  0.65591000  0.33238000  0.90547000  1.0 0.1200939068
H  H127  1  0.42198000  0.53349000  0.81570000  1.0 0.1200939068
H  H128  1  0.35799000  0.62105000  0.81921000  1.0 0.1398157644
H  H129  1  0.28176000  0.51493000  0.89028000  1.0 0.1200939068
H  H130  1  0.34566000  0.42760000  0.88738000  1.0 0.1200939068
H  H131  1  0.35782000  0.24124000  0.81369000  1.0 0.1200939068
H  H132  1  0.33099000  0.13415000  0.81982000  1.0 0.1291435073
H  H133  1  0.50762000  0.09740000  0.89132000  1.0 0.1291435073
H  H134  1  0.53457000  0.20368000  0.88561000  1.0 0.1200939068
H  H135  1  0.86063000  0.19374000  0.65093000  1.0 0.1291435073
H  H136  1  0.87596000  0.38716000  0.66400000  1.0 0.1505553224
H  H137  1  0.96199000  0.26897000  0.75998000  1.0 0.1200939068
H  H138  1  0.01574000  0.17101000  0.76155000  1.0 0.1200939068
H  H139  1  0.04218000  0.06333000  0.77808000  1.0 0.1200939068
H  H140  1  0.86879000  0.00898000  0.71220000  1.0 0.1291435073
H  H141  1  0.84302000  0.11473000  0.69469000  1.0 0.1200939068
H  H142  1  0.87402000  0.45410000  0.72107000  1.0 0.1291435073
H  H143  1  0.91035000  0.53869000  0.76779000  1.0 0.1398157644
H  H144  1  0.07081000  0.44160000  0.82032000  1.0 0.1200939068
H  H145  1  0.03468000  0.35668000  0.77415000  1.0 0.1200939068
H  H146  1  0.86722000  0.23608000  0.58224000  1.0 0.1291435073
H  H147  1  0.80385000  0.24502000  0.51399000  1.0 0.1291435073
H  H148  1  0.68922000  0.36546000  0.54944000  1.0 0.1200939068
H  H149  1  0.75702000  0.36239000  0.61709000  1.0 0.1398157644
H  H150  1  0.33498000  0.05688000  0.48075000  1.0 0.1200939068
H  H151  1  0.46126000  0.95695000  0.44475000  1.0 0.1200939068
H  H152  1  0.35172000  0.86481000  0.50002000  1.0 0.1200939068
H  H153  1  0.33509000  0.12284000  0.43351000  1.0 0.1291435073
H  H154  1  0.36555000  0.22459000  0.41664000  1.0 0.1398157644
H  H155  1  0.53650000  0.15374000  0.42808000  1.0 0.1291435073
H  H156  1  0.50601000  0.05221000  0.44435000  1.0 0.1140454511
H  H157  1  0.28817000  0.87146000  0.53263000  1.0 0.1291435073
H  H158  1  0.19833000  0.87026000  0.55116000  1.0 0.1505553224
H  H159  1  0.15477000  0.04903000  0.50367000  1.0 0.1398157644
H  H160  1  0.24574000  0.05148000  0.48644000  1.0 0.1200939068
H  H161  1  0.37547000  0.77822000  0.47722000  1.0 0.1200939068
H  H162  1  0.42341000  0.68032000  0.47399000  1.0 0.1398157644
H  H163  1  0.57076000  0.77559000  0.45961000  1.0 0.1200939068
H  H164  1  0.52364000  0.87259000  0.46265000  1.0 0.1200939068
H  H165  1  0.97566000  0.66140000  0.34686000  1.0 0.1291435073
H  H166  1  0.81072000  0.70581000  0.36244000  1.0 0.1291435073
H  H167  1  0.86116000  0.51949000  0.35968000  1.0 0.1200939068
H  H168  1  0.05173000  0.57430000  0.38718000  1.0 0.1200939068
H  H169  1  0.11844000  0.48613000  0.38976000  1.0 0.1200939068
H  H170  1  0.97352000  0.38230000  0.31852000  1.0 0.1291435073
H  H171  1  0.90671000  0.46952000  0.31249000  1.0 0.1200939068
H  H172  1  0.97431000  0.75918000  0.32286000  1.0 0.1200939068
H  H173  1  0.00149000  0.86765000  0.32593000  1.0 0.1200939068
H  H174  1  0.88622000  0.90485000  0.39145000  1.0 0.1398157644
H  H175  1  0.85457000  0.79792000  0.38593000  1.0 0.1140454511
H  H176  1  0.75899000  0.66477000  0.40814000  1.0 0.1200939068
H  H177  1  0.67792000  0.62297000  0.42820000  1.0 0.1398157644
H  H178  1  0.68552000  0.45663000  0.36912000  1.0 0.1291435073
H  H179  1  0.76398000  0.49866000  0.34689000  1.0 0.1291435073
H  H180  1  0.44042000  0.37515000  0.96093000  1.0 0.1200939068
H  H181  1  0.30051000  0.93158000  0.15163000  1.0 0.1398157644
H  H182  1  0.28702000  0.85677000  0.25741000  1.0 0.1291435073
H  H183  1  0.27927000  0.74009000  0.16093000  1.0 0.1291435073
H  H184  1  0.21780000  0.76168000  0.08709000  1.0 0.1291435073
H  H185  1  0.21476000  0.75435000  0.01867000  1.0 0.1291435073
H  H186  1  0.36625000  0.87029000  0.04484000  1.0 0.1200939068
H  H187  1  0.36598000  0.88196000  0.11203000  1.0 0.1291435073
H  H188  1  0.23652000  0.95894000  0.25714000  1.0 0.1200939068
H  H189  1  0.24116000  0.06438000  0.28213000  1.0 0.1291435073
H  H190  1  0.36304000  0.11349000  0.22573000  1.0 0.1398157644
H  H191  1  0.35682000  0.01155000  0.19674000  1.0 0.1200939068
H  H192  1  0.22675000  0.76239000  0.26974000  1.0 0.1200939068
H  H193  1  0.22311000  0.66737000  0.30513000  1.0 0.1200939068
H  H194  1  0.34455000  0.58432000  0.25568000  1.0 0.1291435073
H  H195  1  0.34438000  0.67751000  0.21778000  1.0 0.1200939068
H  H196  1  0.14641000  0.94117000  0.98210000  1.0 0.1200939068
H  H197  1  0.14812000  0.13407000  0.99794000  1.0 0.1200939068
H  H198  1  0.98594000  0.04168000  0.94375000  1.0 0.1200939068
H  H199  1  0.10188000  0.87608000  0.93260000  1.0 0.1291435073
H  H200  1  0.05663000  0.77439000  0.91581000  1.0 0.1398157644
H  H201  1  0.89570000  0.84362000  0.92823000  1.0 0.1200939068
H  H202  1  0.94158000  0.94394000  0.94582000  1.0 0.1200939068
H  H203  1  0.24349000  0.12256000  0.03788000  1.0 0.1398157644
H  H204  1  0.35074000  0.12456000  0.05620000  1.0 0.1505553224
H  H205  1  0.34723000  0.95429000  0.99704000  1.0 0.1291435073
H  H206  1  0.23916000  0.95181000  0.97965000  1.0 0.1200939068
H  H207  1  0.88960000  0.22354000  0.95587000  1.0 0.1200939068
H  H208  1  0.05247000  0.31743000  0.97528000  1.0 0.1398157644
H  H209  1  0.10292000  0.22034000  0.97798000  1.0 0.1200939068
H  H210  1  0.87827000  0.15801000  0.84461000  1.0 0.1291435073
H  H211  1  0.05847000  0.20801000  0.86103000  1.0 0.1200939068
H  H212  1  0.01080000  0.02066000  0.86255000  1.0 0.1291435073
H  H213  1  0.09361000  0.00472000  0.84197000  1.0 0.1398157644
H  H214  1  0.19268000  0.96376000  0.86258000  1.0 0.1398157644
H  H215  1  0.25668000  0.12742000  0.92600000  1.0 0.1398157644
H  H216  1  0.15591000  0.16762000  0.90547000  1.0 0.1200939068
H  H217  1  0.92198000  0.96651000  0.81570000  1.0 0.1200939068
H  H218  1  0.85799000  0.87895000  0.81921000  1.0 0.1398157644
H  H219  1  0.78176000  0.98507000  0.89028000  1.0 0.1200939068
H  H220  1  0.84566000  0.07240000  0.88738000  1.0 0.1200939068
H  H221  1  0.85782000  0.25876000  0.81369000  1.0 0.1200939068
H  H222  1  0.83099000  0.36585000  0.81982000  1.0 0.1291435073
H  H223  1  0.00762000  0.40260000  0.89132000  1.0 0.1291435073
H  H224  1  0.03457000  0.29632000  0.88561000  1.0 0.1200939068
H  H225  1  0.36063000  0.30626000  0.65093000  1.0 0.1291435073
H  H226  1  0.37596000  0.11284000  0.66400000  1.0 0.1505553224
H  H227  1  0.46199000  0.23103000  0.75998000  1.0 0.1200939068
H  H228  1  0.51574000  0.32899000  0.76155000  1.0 0.1200939068
H  H229  1  0.54218000  0.43667000  0.77808000  1.0 0.1200939068
H  H230  1  0.36879000  0.49102000  0.71220000  1.0 0.1291435073
H  H231  1  0.34302000  0.38527000  0.69469000  1.0 0.1200939068
H  H232  1  0.37402000  0.04590000  0.72107000  1.0 0.1291435073
H  H233  1  0.41035000  0.96131000  0.76779000  1.0 0.1398157644
H  H234  1  0.57081000  0.05840000  0.82032000  1.0 0.1200939068
H  H235  1  0.53468000  0.14332000  0.77415000  1.0 0.1200939068
H  H236  1  0.36722000  0.26392000  0.58224000  1.0 0.1291435073
H  H237  1  0.30385000  0.25498000  0.51399000  1.0 0.1291435073
H  H238  1  0.18922000  0.13454000  0.54944000  1.0 0.1200939068
H  H239  1  0.25702000  0.13761000  0.61709000  1.0 0.1398157644
H  H240  1  0.83498000  0.44312000  0.48075000  1.0 0.1200939068
H  H241  1  0.96126000  0.54305000  0.44475000  1.0 0.1200939068
H  H242  1  0.85172000  0.63519000  0.50002000  1.0 0.1200939068
H  H243  1  0.83509000  0.37716000  0.43351000  1.0 0.1291435073
H  H244  1  0.86555000  0.27541000  0.41664000  1.0 0.1398157644
H  H245  1  0.03650000  0.34626000  0.42808000  1.0 0.1291435073
H  H246  1  0.00601000  0.44779000  0.44435000  1.0 0.1140454511
H  H247  1  0.78817000  0.62854000  0.53263000  1.0 0.1291435073
H  H248  1  0.69833000  0.62974000  0.55116000  1.0 0.1398157644
H  H249  1  0.65477000  0.45097000  0.50367000  1.0 0.1398157644
H  H250  1  0.74574000  0.44852000  0.48644000  1.0 0.1200939068
H  H251  1  0.87547000  0.72178000  0.47722000  1.0 0.1200939068
H  H252  1  0.92341000  0.81968000  0.47399000  1.0 0.1398157644
H  H253  1  0.07076000  0.72441000  0.45961000  1.0 0.1200939068
H  H254  1  0.02364000  0.62741000  0.46265000  1.0 0.1200939068
H  H255  1  0.47566000  0.83860000  0.34686000  1.0 0.1291435073
H  H256  1  0.31072000  0.79419000  0.36244000  1.0 0.1291435073
H  H257  1  0.36116000  0.98051000  0.35968000  1.0 0.1200939068
H  H258  1  0.55173000  0.92570000  0.38718000  1.0 0.1200939068
H  H259  1  0.61844000  0.01387000  0.38976000  1.0 0.1200939068
H  H260  1  0.47352000  0.11770000  0.31852000  1.0 0.1291435073
H  H261  1  0.40671000  0.03048000  0.31249000  1.0 0.1200939068
H  H262  1  0.47431000  0.74082000  0.32286000  1.0 0.1200939068
H  H263  1  0.50149000  0.63235000  0.32593000  1.0 0.1200939068
H  H264  1  0.38622000  0.59515000  0.39145000  1.0 0.1398157644
H  H265  1  0.35457000  0.70208000  0.38593000  1.0 0.1140454511
H  H266  1  0.25899000  0.83523000  0.40814000  1.0 0.1200939068
H  H267  1  0.17792000  0.87703000  0.42820000  1.0 0.1398157644
H  H268  1  0.18552000  0.04337000  0.36912000  1.0 0.1291435073
H  H269  1  0.26398000  0.00134000  0.34689000  1.0 0.1291435073
H  H270  1  0.94042000  0.12485000  0.96093000  1.0 0.1200939068
H  H271  1  0.19949000  0.43158000  0.84837000  1.0 0.1398157644
H  H272  1  0.21298000  0.35677000  0.74259000  1.0 0.1291435073
H  H273  1  0.22073000  0.24009000  0.83907000  1.0 0.1291435073
H  H274  1  0.28220000  0.26168000  0.91291000  1.0 0.1291435073
H  H275  1  0.28524000  0.25435000  0.98133000  1.0 0.1291435073
H  H276  1  0.13375000  0.37029000  0.95516000  1.0 0.1200939068
H  H277  1  0.13402000  0.38196000  0.88797000  1.0 0.1291435073
H  H278  1  0.26348000  0.45894000  0.74286000  1.0 0.1200939068
H  H279  1  0.25884000  0.56438000  0.71787000  1.0 0.1291435073
H  H280  1  0.13696000  0.61349000  0.77427000  1.0 0.1398157644
H  H281  1  0.14318000  0.51155000  0.80326000  1.0 0.1200939068
H  H282  1  0.27325000  0.26239000  0.73026000  1.0 0.1200939068
H  H283  1  0.27689000  0.16737000  0.69487000  1.0 0.1200939068
H  H284  1  0.15545000  0.08432000  0.74432000  1.0 0.1291435073
H  H285  1  0.15562000  0.17751000  0.78222000  1.0 0.1200939068
H  H286  1  0.35359000  0.44117000  0.01790000  1.0 0.1200939068
H  H287  1  0.35188000  0.63407000  0.00206000  1.0 0.1291435073
H  H288  1  0.51406000  0.54168000  0.05625000  1.0 0.1200939068
H  H289  1  0.39812000  0.37608000  0.06740000  1.0 0.1291435073
H  H290  1  0.44337000  0.27439000  0.08419000  1.0 0.1398157644
H  H291  1  0.60430000  0.34362000  0.07177000  1.0 0.1200939068
H  H292  1  0.55842000  0.44394000  0.05418000  1.0 0.1200939068
H  H293  1  0.25651000  0.62256000  0.96212000  1.0 0.1398157644
H  H294  1  0.14926000  0.62456000  0.94380000  1.0 0.1615944185
H  H295  1  0.15277000  0.45429000  0.00296000  1.0 0.1291435073
H  H296  1  0.26084000  0.45181000  0.02035000  1.0 0.1200939068
H  H297  1  0.61040000  0.72354000  0.04413000  1.0 0.1200939068
H  H298  1  0.44753000  0.81743000  0.02472000  1.0 0.1398157644
H  H299  1  0.39708000  0.72034000  0.02202000  1.0 0.1200939068
H  H300  1  0.62173000  0.65801000  0.15539000  1.0 0.1291435073
H  H301  1  0.44153000  0.70801000  0.13897000  1.0 0.1200939068
H  H302  1  0.48920000  0.52066000  0.13745000  1.0 0.1291435073
H  H303  1  0.40639000  0.50472000  0.15803000  1.0 0.1398157644
H  H304  1  0.30732000  0.46376000  0.13742000  1.0 0.1398157644
H  H305  1  0.24332000  0.62742000  0.07400000  1.0 0.1398157644
H  H306  1  0.34409000  0.66762000  0.09453000  1.0 0.1200939068
H  H307  1  0.57802000  0.46651000  0.18430000  1.0 0.1200939068
H  H308  1  0.64201000  0.37895000  0.18079000  1.0 0.1398157644
H  H309  1  0.71824000  0.48507000  0.10972000  1.0 0.1200939068
H  H310  1  0.65434000  0.57240000  0.11262000  1.0 0.1200939068
H  H311  1  0.64218000  0.75876000  0.18631000  1.0 0.1200939068
H  H312  1  0.66901000  0.86585000  0.18018000  1.0 0.1291435073
H  H313  1  0.49238000  0.90260000  0.10868000  1.0 0.1291435073
H  H314  1  0.46543000  0.79632000  0.11439000  1.0 0.1200939068
H  H315  1  0.13937000  0.80626000  0.34907000  1.0 0.1291435073
H  H316  1  0.12404000  0.61284000  0.33600000  1.0 0.1505553224
H  H317  1  0.03801000  0.73103000  0.24002000  1.0 0.1200939068
H  H318  1  0.98426000  0.82899000  0.23845000  1.0 0.1200939068
H  H319  1  0.95782000  0.93667000  0.22192000  1.0 0.1200939068
H  H320  1  0.13121000  0.99102000  0.28780000  1.0 0.1291435073
H  H321  1  0.15698000  0.88527000  0.30531000  1.0 0.1200939068
H  H322  1  0.12598000  0.54590000  0.27893000  1.0 0.1291435073
H  H323  1  0.08965000  0.46131000  0.23221000  1.0 0.1398157644
H  H324  1  0.92919000  0.55840000  0.17968000  1.0 0.1200939068
H  H325  1  0.96532000  0.64332000  0.22585000  1.0 0.1200939068
H  H326  1  0.13278000  0.76392000  0.41776000  1.0 0.1291435073
H  H327  1  0.19615000  0.75498000  0.48601000  1.0 0.1291435073
H  H328  1  0.31078000  0.63454000  0.45056000  1.0 0.1200939068
H  H329  1  0.24298000  0.63761000  0.38291000  1.0 0.1398157644
H  H330  1  0.66502000  0.94312000  0.51925000  1.0 0.1200939068
H  H331  1  0.53874000  0.04305000  0.55525000  1.0 0.1200939068
H  H332  1  0.64828000  0.13519000  0.49998000  1.0 0.1200939068
H  H333  1  0.66491000  0.87716000  0.56649000  1.0 0.1291435073
H  H334  1  0.63445000  0.77541000  0.58336000  1.0 0.1398157644
H  H335  1  0.46350000  0.84626000  0.57192000  1.0 0.1291435073
H  H336  1  0.49399000  0.94779000  0.55565000  1.0 0.1140454511
H  H337  1  0.71183000  0.12854000  0.46737000  1.0 0.1291435073
H  H338  1  0.80167000  0.12974000  0.44884000  1.0 0.1398157644
H  H339  1  0.84523000  0.95097000  0.49633000  1.0 0.1398157644
H  H340  1  0.75426000  0.94852000  0.51356000  1.0 0.1200939068
H  H341  1  0.62453000  0.22178000  0.52278000  1.0 0.1200939068
H  H342  1  0.57659000  0.31968000  0.52601000  1.0 0.1398157644
H  H343  1  0.42924000  0.22441000  0.54039000  1.0 0.1200939068
H  H344  1  0.47636000  0.12741000  0.53735000  1.0 0.1200939068
H  H345  1  0.02434000  0.33860000  0.65314000  1.0 0.1291435073
H  H346  1  0.18928000  0.29419000  0.63756000  1.0 0.1291435073
H  H347  1  0.13884000  0.48051000  0.64032000  1.0 0.1200939068
H  H348  1  0.94827000  0.42570000  0.61282000  1.0 0.1200939068
H  H349  1  0.88156000  0.51387000  0.61024000  1.0 0.1200939068
H  H350  1  0.02648000  0.61770000  0.68148000  1.0 0.1398157644
H  H351  1  0.09329000  0.53048000  0.68751000  1.0 0.1200939068
H  H352  1  0.02569000  0.24082000  0.67714000  1.0 0.1200939068
H  H353  1  0.99851000  0.13235000  0.67407000  1.0 0.1200939068
H  H354  1  0.11378000  0.09515000  0.60855000  1.0 0.1398157644
H  H355  1  0.14543000  0.20208000  0.61407000  1.0 0.1140454511
H  H356  1  0.24101000  0.33523000  0.59186000  1.0 0.1200939068
H  H357  1  0.32208000  0.37703000  0.57180000  1.0 0.1398157644
H  H358  1  0.31448000  0.54337000  0.63088000  1.0 0.1291435073
H  H359  1  0.23602000  0.50134000  0.65311000  1.0 0.1291435073
H  H360  1  0.55958000  0.62485000  0.03907000  1.0 0.1200939068
C  C1  1  0.70850000  0.16550000  0.84990000  1.0 0.0820449577
C  C2  1  0.70380000  0.10390000  0.83260000  1.0 -0.1801522186
C  C3  1  0.70510000  0.09310000  0.79200000  1.0 0.0895593158
C  C4  1  0.71090000  0.14860000  0.76930000  1.0 -0.1801522186
C  C5  1  0.71360000  0.21110000  0.78530000  1.0 0.0820449577
C  C6  1  0.71520000  0.21880000  0.82700000  1.0 -0.189713674
C  C7  1  0.70910000  0.17510000  0.89350000  1.0 0.069761103
C  C8  1  0.75340000  0.21500000  0.92180000  1.0 -0.1390860144
C  C9  1  0.75480000  0.22010000  0.96270000  1.0 -0.0897974965
C  C10  1  0.71050000  0.18700000  0.97600000  1.0 -0.0308743087
C  C11  1  0.66480000  0.15020000  0.94700000  1.0 -0.0992357473
C  C12  1  0.66440000  0.14370000  0.90650000  1.0 -0.1390860144
C  C13  1  0.71290000  0.18690000  0.02050000  1.0 0.5391766126
C  C14  1  0.70250000  0.02780000  0.77520000  1.0 0.069761103
C  C15  1  0.73770000  0.01060000  0.74950000  1.0 -0.1390860144
C  C16  1  0.73400000  0.94740000  0.73400000  1.0 -0.0897974965
C  C17  1  0.69390000  0.90210000  0.74220000  1.0 -0.0179361679
C  C18  1  0.66220000  0.91780000  0.76780000  1.0 -0.0792619427
C  C19  1  0.66550000  0.97930000  0.78510000  1.0 -0.0992357473
C  C20  1  0.68280000  0.83550000  0.72150000  1.0 0.5491176598
C  C21  1  0.71590000  0.26930000  0.76100000  1.0 0.069761103
C  C22  1  0.75050000  0.27360000  0.73390000  1.0 -0.1489507441
C  C23  1  0.75220000  0.33020000  0.71220000  1.0 -0.0897974965
C  C24  1  0.71710000  0.38260000  0.71640000  1.0 -0.0179361679
C  C25  1  0.67980000  0.38020000  0.74220000  1.0 -0.0897974965
C  C26  1  0.67980000  0.32420000  0.76450000  1.0 -0.1390860144
C  C27  1  0.71560000  0.44420000  0.69300000  1.0 0.5308801199
C  C28  1  0.93890000  0.01820000  0.04040000  1.0 0.0820449577
C  C29  1  0.87450000  0.01920000  0.02180000  1.0 -0.189713674
C  C30  1  0.83960000  0.96180000  0.00860000  1.0 0.0958963164
C  C31  1  0.87370000  0.90420000  0.01170000  1.0 -0.1711226407
C  C32  1  0.93870000  0.90180000  0.02860000  1.0 0.0895593158
C  C33  1  0.97070000  0.95930000  0.04370000  1.0 -0.1801522186
C  C34  1  0.97230000  0.07980000  0.05620000  1.0 0.069761103
C  C35  1  0.93900000  0.13100000  0.06730000  1.0 -0.1309142037
C  C36  1  0.96640000  0.19180000  0.07810000  1.0 -0.0792619427
C  C37  1  0.02870000  0.20190000  0.07970000  1.0 -0.0308743087
C  C38  1  0.06270000  0.15020000  0.07050000  1.0 -0.0792619427
C  C39  1  0.03490000  0.09010000  0.05950000  1.0 -0.1390860144
C  C40  1  0.05630000  0.26760000  0.08770000  1.0 0.5727774628
C  C41  1  0.77050000  0.96230000  0.99370000  1.0 0.069761103
C  C42  1  0.73570000  0.91130000  0.97030000  1.0 -0.1070613949
C  C43  1  0.67160000  0.91010000  0.95920000  1.0 -0.0625437836
C  C44  1  0.63940000  0.96120000  0.97100000  1.0 -0.0117186905
C  C45  1  0.67360000  0.01220000  0.99450000  1.0 -0.0897974965
C  C46  1  0.73840000  0.01340000  0.00530000  1.0 -0.1390860144
C  C47  1  0.56980000  0.95930000  0.95790000  1.0 0.6096368336
C  C48  1  0.97240000  0.83820000  0.03080000  1.0 0.0820449577
C  C49  1  0.06720000  0.77740000  0.03910000  1.0 -0.0897974965
C  C50  1  0.03450000  0.72000000  0.03430000  1.0 -0.0397862249
C  C51  1  0.97010000  0.72120000  0.02790000  1.0 -0.0716997239
C  C52  1  0.94010000  0.77930000  0.02620000  1.0 -0.1390860144
C  C53  1  0.06630000  0.65640000  0.04030000  1.0 0.5896841639
C  C54  1  0.06240000  0.91900000  0.14730000  1.0 0.0895593158
C  C55  1  0.08000000  0.85340000  0.15080000  1.0 -0.1801522186
C  C56  1  0.03460000  0.80510000  0.14750000  1.0 0.0895593158
C  C57  1  0.97170000  0.82380000  0.14080000  1.0 -0.189713674
C  C58  1  0.95400000  0.88840000  0.13700000  1.0 0.0895593158
C  C59  1  0.00050000  0.93570000  0.14020000  1.0 -0.1711226407
C  C60  1  0.88770000  0.91070000  0.12680000  1.0 0.069761103
C  C61  1  0.87390000  0.97090000  0.14020000  1.0 -0.1309142037
C  C62  1  0.81440000  0.99540000  0.12810000  1.0 -0.0897974965
C  C63  1  0.76450000  0.96070000  0.10240000  1.0 -0.0117186905
C  C64  1  0.77630000  0.89790000  0.09030000  1.0 -0.0792619427
C  C65  1  0.83690000  0.87400000  0.10260000  1.0 -0.1489507441
C  C66  1  0.70230000  0.99480000  0.08610000  1.0 0.595574958
C  C67  1  0.10880000  0.97190000  0.14770000  1.0 0.069761103
C  C68  1  0.10560000  0.03010000  0.16910000  1.0 -0.0992357473
C  C69  1  0.14430000  0.08250000  0.16710000  1.0 -0.0792619427
C  C70  1  0.18600000  0.07690000  0.14490000  1.0 -0.0117186905
C  C71  1  0.18990000  0.01860000  0.12440000  1.0 -0.0897974965
C  C72  1  0.15140000  0.96630000  0.12600000  1.0 -0.1634212978
C  C73  1  0.22540000  0.13340000  0.14050000  1.0 0.5308801199
C  C74  1  0.05130000  0.73530000  0.14850000  1.0 0.069761103
C  C75  1  0.11230000  0.71280000  0.16990000  1.0 -0.1390860144
C  C76  1  0.12820000  0.64810000  0.16650000  1.0 -0.0716997239
C  C77  1  0.08380000  0.60400000  0.14280000  1.0 -0.0117186905
C  C78  1  0.02300000  0.62630000  0.12390000  1.0 -0.0792619427
C  C79  1  0.00680000  0.69050000  0.12700000  1.0 -0.1390860144
C  C80  1  0.10070000  0.53480000  0.13830000  1.0 0.580498118
C  C81  1  0.58730000  0.72030000  0.29120000  1.0 0.0895593158
C  C82  1  0.62420000  0.72990000  0.33240000  1.0 -0.1801522186
C  C83  1  0.63920000  0.79140000  0.34960000  1.0 0.0895593158
C  C84  1  0.61500000  0.84560000  0.32490000  1.0 -0.1801522186
C  C85  1  0.57690000  0.83750000  0.28300000  1.0 0.0895593158
C  C86  1  0.56360000  0.77460000  0.26740000  1.0 -0.189713674
C  C87  1  0.57210000  0.65340000  0.27500000  1.0 0.069761103
C  C88  1  0.51360000  0.63840000  0.24930000  1.0 -0.1390860144
C  C89  1  0.49800000  0.57380000  0.23920000  1.0 -0.0792619427
C  C90  1  0.54150000  0.52480000  0.25470000  1.0 -0.0117186905
C  C91  1  0.60090000  0.54120000  0.27850000  1.0 -0.0897974965
C  C92  1  0.61630000  0.60430000  0.28880000  1.0 -0.1390860144
C  C93  1  0.52450000  0.45460000  0.24570000  1.0 0.5491176598
C  C94  1  0.55090000  0.89450000  0.25660000  1.0 0.069761103
C  C95  1  0.58690000  0.95070000  0.25860000  1.0 -0.0992357473
C  C96  1  0.56520000  0.00170000  0.23060000  1.0 -0.0716997239
C  C97  1  0.50720000  0.99640000  0.20060000  1.0 -0.0308743087
C  C98  1  0.46920000  0.94340000  0.19920000  1.0 -0.0992357473
C  C99  1  0.49100000  0.89250000  0.22700000  1.0 -0.1489507441
C  C100  1  0.48900000  0.04670000  0.16780000  1.0 0.5727774628
C  C101  1  0.68050000  0.79910000  0.39310000  1.0 0.069761103
C  C102  1  0.66770000  0.76320000  0.42450000  1.0 -0.1309142037
C  C103  1  0.70660000  0.76750000  0.46540000  1.0 -0.0992357473
C  C104  1  0.76140000  0.80540000  0.47610000  1.0 -0.0397862249
C  C105  1  0.77450000  0.84030000  0.44420000  1.0 -0.0897974965
C  C106  1  0.73410000  0.83800000  0.40340000  1.0 -0.1309142037
C  C107  1  0.80360000  0.81040000  0.51960000  1.0 0.5391766126
C  C108  1  0.14640000  0.51740000  0.52180000  1.0 -0.189713674
C  C109  1  0.09870000  0.51640000  0.53970000  1.0 0.0820449577
C  C110  1  0.07020000  0.45800000  0.54290000  1.0 -0.1801522186
C  C111  1  0.08800000  0.40030000  0.52780000  1.0 0.0895593158
C  C112  1  0.13630000  0.40280000  0.51020000  1.0 -0.1801522186
C  C113  1  0.16720000  0.46100000  0.50740000  1.0 0.0895593158
C  C114  1  0.08170000  0.57810000  0.55620000  1.0 0.069761103
C  C115  1  0.12400000  0.62910000  0.56660000  1.0 -0.1217105429
C  C116  1  0.10590000  0.69040000  0.57750000  1.0 -0.0716997239
C  C117  1  0.04640000  0.69970000  0.57950000  1.0 -0.0117186905
C  C118  1  0.00390000  0.64770000  0.57070000  1.0 -0.0792619427
C  C119  1  0.02180000  0.58700000  0.56010000  1.0 -0.1390860144
C  C120  1  0.02460000  0.76630000  0.58650000  1.0 0.5727774628
C  C121  1  0.22200000  0.46130000  0.49260000  1.0 0.069761103
C  C122  1  0.23820000  0.40750000  0.47310000  1.0 -0.1070613949
C  C123  1  0.29230000  0.40650000  0.46210000  1.0 -0.0716997239
C  C124  1  0.33230000  0.45870000  0.47070000  1.0 -0.0117186905
C  C125  1  0.31810000  0.51360000  0.49040000  1.0 -0.0792619427
C  C126  1  0.26380000  0.51470000  0.50080000  1.0 -0.1390860144
C  C127  1  0.38930000  0.45820000  0.45690000  1.0 0.6096368336
C  C128  1  0.05650000  0.33780000  0.53000000  1.0 0.069761103
C  C129  1  0.08530000  0.27800000  0.52650000  1.0 -0.1217105429
C  C130  1  0.05670000  0.21900000  0.52860000  1.0 -0.0716997239
C  C131  1  0.99870000  0.21780000  0.53450000  1.0 -0.0308743087
C  C132  1  0.96880000  0.27620000  0.53720000  1.0 -0.0992357473
C  C133  1  0.99710000  0.33430000  0.53520000  1.0 -0.1489507441
C  C134  1  0.97200000  0.15380000  0.54020000  1.0 0.580498118
C  C135  1  0.57430000  0.08210000  0.64740000  1.0 0.0895593158
C  C136  1  0.56180000  0.14840000  0.64940000  1.0 -0.1801522186
C  C137  1  0.60510000  0.19540000  0.64600000  1.0 0.0895593158
C  C138  1  0.66020000  0.17490000  0.63960000  1.0 -0.1801522186
C  C139  1  0.67330000  0.10890000  0.63610000  1.0 0.0895593158
C  C140  1  0.63000000  0.06350000  0.64120000  1.0 -0.1801522186
C  C141  1  0.52880000  0.03050000  0.64890000  1.0 0.0820449577
C  C142  1  0.46430000  0.03590000  0.62650000  1.0 -0.1634212978
C  C143  1  0.42420000  0.98260000  0.62490000  1.0 -0.0897974965
C  C144  1  0.44790000  0.92490000  0.64520000  1.0 -0.0397862249
C  C145  1  0.51080000  0.92090000  0.66790000  1.0 -0.0625437836
C  C146  1  0.55140000  0.97280000  0.67100000  1.0 -0.1309142037
C  C147  1  0.40570000  0.86790000  0.63860000  1.0 0.5391766126
C  C148  1  0.58870000  0.26580000  0.64670000  1.0 0.0820449577
C  C149  1  0.54440000  0.28830000  0.66380000  1.0 -0.1390860144
C  C150  1  0.52720000  0.35330000  0.66140000  1.0 -0.0792619427
C  C151  1  0.55250000  0.39630000  0.64030000  1.0 -0.0117186905
C  C152  1  0.59660000  0.37540000  0.62270000  1.0 -0.0792619427
C  C153  1  0.61530000  0.31140000  0.62580000  1.0 -0.1390860144
C  C154  1  0.53190000  0.46670000  0.63680000  1.0 0.580498118
C  C155  1  0.72860000  0.08570000  0.62470000  1.0 0.069761103
C  C156  1  0.75570000  0.12300000  0.60000000  1.0 -0.1390860144
C  C157  1  0.80430000  0.09750000  0.58770000  1.0 -0.0897974965
C  C158  1  0.82710000  0.03540000  0.59860000  1.0 -0.0179361679
C  C159  1  0.80010000  0.99860000  0.62320000  1.0 -0.0897974965
C  C160  1  0.75240000  0.02370000  0.63630000  1.0 -0.1489507441
C  C161  1  0.87570000  0.00190000  0.58370000  1.0 0.5896841639
C  C162  1  0.03700000  0.83670000  0.03670000  1.0 -0.1489507441
C  C163  1  0.79150000  0.66550000  0.15010000  1.0 0.0820449577
C  C164  1  0.79620000  0.60390000  0.16740000  1.0 -0.1801522186
C  C165  1  0.79490000  0.59310000  0.20800000  1.0 0.0895593158
C  C166  1  0.78910000  0.64860000  0.23070000  1.0 -0.1801522186
C  C167  1  0.78640000  0.71110000  0.21470000  1.0 0.0820449577
C  C168  1  0.78480000  0.71880000  0.17300000  1.0 -0.189713674
C  C169  1  0.79090000  0.67510000  0.10650000  1.0 0.069761103
C  C170  1  0.74660000  0.71500000  0.07820000  1.0 -0.1390860144
C  C171  1  0.74520000  0.72010000  0.03730000  1.0 -0.0992357473
C  C172  1  0.78950000  0.68700000  0.02400000  1.0 -0.0308743087
C  C173  1  0.83520000  0.65020000  0.05300000  1.0 -0.0992357473
C  C174  1  0.83560000  0.64370000  0.09350000  1.0 -0.1390860144
C  C175  1  0.78710000  0.68690000  0.97950000  1.0 0.5391766126
C  C176  1  0.79750000  0.52780000  0.22480000  1.0 0.069761103
C  C177  1  0.76230000  0.51060000  0.25050000  1.0 -0.1390860144
C  C178  1  0.76600000  0.44740000  0.26600000  1.0 -0.0792619427
C  C179  1  0.80610000  0.40210000  0.25780000  1.0 -0.0179361679
C  C180  1  0.83780000  0.41780000  0.23220000  1.0 -0.0792619427
C  C181  1  0.83450000  0.47930000  0.21490000  1.0 -0.0992357473
C  C182  1  0.81720000  0.33550000  0.27850000  1.0 0.5491176598
C  C183  1  0.78410000  0.76930000  0.23900000  1.0 0.069761103
C  C184  1  0.74950000  0.77360000  0.26610000  1.0 -0.1489507441
C  C185  1  0.74780000  0.83020000  0.28780000  1.0 -0.0897974965
C  C186  1  0.78290000  0.88260000  0.28360000  1.0 -0.0179361679
C  C187  1  0.82020000  0.88020000  0.25780000  1.0 -0.0897974965
C  C188  1  0.82020000  0.82420000  0.23550000  1.0 -0.1390860144
C  C189  1  0.78440000  0.94420000  0.30700000  1.0 0.5308801199
C  C190  1  0.56110000  0.51820000  0.95960000  1.0 0.0820449577
C  C191  1  0.62550000  0.51920000  0.97820000  1.0 -0.189713674
C  C192  1  0.66040000  0.46180000  0.99140000  1.0 0.0958963164
C  C193  1  0.62630000  0.40420000  0.98830000  1.0 -0.1711226407
C  C194  1  0.56130000  0.40180000  0.97140000  1.0 0.0895593158
C  C195  1  0.52930000  0.45930000  0.95630000  1.0 -0.1801522186
C  C196  1  0.52770000  0.57980000  0.94380000  1.0 0.069761103
C  C197  1  0.56100000  0.63100000  0.93270000  1.0 -0.1309142037
C  C198  1  0.53360000  0.69180000  0.92190000  1.0 -0.0792619427
C  C199  1  0.47130000  0.70190000  0.92030000  1.0 -0.0308743087
C  C200  1  0.43730000  0.65020000  0.92950000  1.0 -0.0792619427
C  C201  1  0.46510000  0.59010000  0.94050000  1.0 -0.1390860144
C  C202  1  0.44370000  0.76760000  0.91230000  1.0 0.5727774628
C  C203  1  0.72950000  0.46230000  0.00630000  1.0 0.069761103
C  C204  1  0.76430000  0.41130000  0.02970000  1.0 -0.1070613949
C  C205  1  0.82840000  0.41010000  0.04080000  1.0 -0.0625437836
C  C206  1  0.86060000  0.46120000  0.02900000  1.0 -0.0117186905
C  C207  1  0.82640000  0.51220000  0.00550000  1.0 -0.0897974965
C  C208  1  0.76160000  0.51340000  0.99470000  1.0 -0.1390860144
C  C209  1  0.93020000  0.45930000  0.04210000  1.0 0.6096368336
C  C210  1  0.52760000  0.33820000  0.96920000  1.0 0.0820449577
C  C211  1  0.43280000  0.27740000  0.96090000  1.0 -0.0897974965
C  C212  1  0.46550000  0.22000000  0.96570000  1.0 -0.0397862249
C  C213  1  0.52990000  0.22120000  0.97210000  1.0 -0.0716997239
C  C214  1  0.55990000  0.27930000  0.97380000  1.0 -0.1390860144
C  C215  1  0.43370000  0.15640000  0.95970000  1.0 0.5896841639
C  C216  1  0.43760000  0.41900000  0.85270000  1.0 0.0895593158
C  C217  1  0.42000000  0.35340000  0.84920000  1.0 -0.1801522186
C  C218  1  0.46540000  0.30510000  0.85250000  1.0 0.0895593158
C  C219  1  0.52830000  0.32380000  0.85920000  1.0 -0.189713674
C  C220  1  0.54600000  0.38840000  0.86300000  1.0 0.0895593158
C  C221  1  0.49950000  0.43570000  0.85980000  1.0 -0.1711226407
C  C222  1  0.61230000  0.41070000  0.87320000  1.0 0.069761103
C  C223  1  0.62610000  0.47090000  0.85980000  1.0 -0.1309142037
C  C224  1  0.68560000  0.49540000  0.87190000  1.0 -0.0897974965
C  C225  1  0.73550000  0.46070000  0.89760000  1.0 -0.0117186905
C  C226  1  0.72370000  0.39790000  0.90970000  1.0 -0.0792619427
C  C227  1  0.66310000  0.37400000  0.89740000  1.0 -0.1489507441
C  C228  1  0.79770000  0.49480000  0.91390000  1.0 0.595574958
C  C229  1  0.39120000  0.47190000  0.85230000  1.0 0.069761103
C  C230  1  0.39440000  0.53010000  0.83090000  1.0 -0.0992357473
C  C231  1  0.35570000  0.58250000  0.83290000  1.0 -0.0792619427
C  C232  1  0.31400000  0.57690000  0.85510000  1.0 -0.0117186905
C  C233  1  0.31010000  0.51860000  0.87560000  1.0 -0.0897974965
C  C234  1  0.34860000  0.46630000  0.87400000  1.0 -0.1634212978
C  C235  1  0.27460000  0.63340000  0.85950000  1.0 0.5308801199
C  C236  1  0.44870000  0.23530000  0.85150000  1.0 0.069761103
C  C237  1  0.38770000  0.21280000  0.83010000  1.0 -0.1390860144
C  C238  1  0.37180000  0.14810000  0.83350000  1.0 -0.0716997239
C  C239  1  0.41620000  0.10400000  0.85720000  1.0 -0.0117186905
C  C240  1  0.47700000  0.12630000  0.87610000  1.0 -0.0792619427
C  C241  1  0.49320000  0.19050000  0.87300000  1.0 -0.1390860144
C  C242  1  0.39930000  0.03480000  0.86170000  1.0 0.580498118
C  C243  1  0.91270000  0.22030000  0.70880000  1.0 0.0895593158
C  C244  1  0.87580000  0.22990000  0.66760000  1.0 -0.1801522186
C  C245  1  0.86080000  0.29140000  0.65040000  1.0 0.0895593158
C  C246  1  0.88500000  0.34560000  0.67510000  1.0 -0.1801522186
C  C247  1  0.92310000  0.33750000  0.71700000  1.0 0.0895593158
C  C248  1  0.93640000  0.27460000  0.73260000  1.0 -0.189713674
C  C249  1  0.92790000  0.15340000  0.72500000  1.0 0.069761103
C  C250  1  0.98640000  0.13840000  0.75070000  1.0 -0.1390860144
C  C251  1  0.00200000  0.07380000  0.76080000  1.0 -0.0792619427
C  C252  1  0.95850000  0.02480000  0.74530000  1.0 -0.0117186905
C  C253  1  0.89910000  0.04120000  0.72150000  1.0 -0.0897974965
C  C254  1  0.88370000  0.10430000  0.71120000  1.0 -0.1390860144
C  C255  1  0.97550000  0.95460000  0.75430000  1.0 0.5491176598
C  C256  1  0.94910000  0.39450000  0.74340000  1.0 0.069761103
C  C257  1  0.91310000  0.45070000  0.74140000  1.0 -0.0992357473
C  C258  1  0.93480000  0.50170000  0.76940000  1.0 -0.0716997239
C  C259  1  0.99280000  0.49640000  0.79940000  1.0 -0.0397862249
C  C260  1  0.03080000  0.44340000  0.80080000  1.0 -0.0992357473
C  C261  1  0.00900000  0.39250000  0.77300000  1.0 -0.1489507441
C  C262  1  0.01100000  0.54670000  0.83220000  1.0 0.5727774628
C  C263  1  0.81950000  0.29910000  0.60690000  1.0 0.069761103
C  C264  1  0.83230000  0.26320000  0.57550000  1.0 -0.1309142037
C  C265  1  0.79340000  0.26750000  0.53460000  1.0 -0.0992357473
C  C266  1  0.73860000  0.30540000  0.52390000  1.0 -0.0397862249
C  C267  1  0.72550000  0.34030000  0.55580000  1.0 -0.0897974965
C  C268  1  0.76590000  0.33800000  0.59660000  1.0 -0.1309142037
C  C269  1  0.69640000  0.31040000  0.48040000  1.0 0.5391766126
C  C270  1  0.35360000  0.01740000  0.47820000  1.0 -0.189713674
C  C271  1  0.40130000  0.01640000  0.46030000  1.0 0.0820449577
C  C272  1  0.42980000  0.95800000  0.45710000  1.0 -0.1801522186
C  C273  1  0.41200000  0.90030000  0.47220000  1.0 0.0895593158
C  C274  1  0.36370000  0.90280000  0.48980000  1.0 -0.1801522186
C  C275  1  0.33280000  0.96100000  0.49260000  1.0 0.0895593158
C  C276  1  0.41830000  0.07810000  0.44380000  1.0 0.069761103
C  C277  1  0.37600000  0.12910000  0.43340000  1.0 -0.1217105429
C  C278  1  0.39410000  0.19040000  0.42250000  1.0 -0.0716997239
C  C279  1  0.45360000  0.19970000  0.42050000  1.0 -0.0117186905
C  C280  1  0.49610000  0.14770000  0.42930000  1.0 -0.0792619427
C  C281  1  0.47820000  0.08700000  0.43990000  1.0 -0.1390860144
C  C282  1  0.47540000  0.26630000  0.41350000  1.0 0.5727774628
C  C283  1  0.27800000  0.96130000  0.50740000  1.0 0.069761103
C  C284  1  0.26180000  0.90750000  0.52690000  1.0 -0.1070613949
C  C285  1  0.20770000  0.90650000  0.53790000  1.0 -0.0716997239
C  C286  1  0.16770000  0.95870000  0.52930000  1.0 -0.0117186905
C  C287  1  0.18190000  0.01360000  0.50960000  1.0 -0.0792619427
C  C288  1  0.23620000  0.01470000  0.49920000  1.0 -0.1390860144
C  C289  1  0.11070000  0.95820000  0.54310000  1.0 0.6096368336
C  C290  1  0.44350000  0.83780000  0.47000000  1.0 0.069761103
C  C291  1  0.41470000  0.77800000  0.47350000  1.0 -0.1217105429
C  C292  1  0.44330000  0.71900000  0.47140000  1.0 -0.0716997239
C  C293  1  0.50130000  0.71780000  0.46550000  1.0 -0.0308743087
C  C294  1  0.53120000  0.77620000  0.46280000  1.0 -0.0992357473
C  C295  1  0.50290000  0.83430000  0.46480000  1.0 -0.1489507441
C  C296  1  0.52800000  0.65380000  0.45980000  1.0 0.580498118
C  C297  1  0.92570000  0.58210000  0.35260000  1.0 0.0895593158
C  C298  1  0.93820000  0.64840000  0.35060000  1.0 -0.1801522186
C  C299  1  0.89490000  0.69540000  0.35400000  1.0 0.0895593158
C  C300  1  0.83980000  0.67490000  0.36040000  1.0 -0.1801522186
C  C301  1  0.82670000  0.60890000  0.36390000  1.0 0.0895593158
C  C302  1  0.87000000  0.56350000  0.35880000  1.0 -0.1801522186
C  C303  1  0.97120000  0.53050000  0.35110000  1.0 0.0820449577
C  C304  1  0.03570000  0.53590000  0.37350000  1.0 -0.1634212978
C  C305  1  0.07580000  0.48260000  0.37510000  1.0 -0.0897974965
C  C306  1  0.05210000  0.42490000  0.35480000  1.0 -0.0397862249
C  C307  1  0.98920000  0.42090000  0.33210000  1.0 -0.0625437836
C  C308  1  0.94860000  0.47280000  0.32900000  1.0 -0.1309142037
C  C309  1  0.09430000  0.36790000  0.36140000  1.0 0.5308801199
C  C310  1  0.91130000  0.76580000  0.35330000  1.0 0.0820449577
C  C311  1  0.95560000  0.78830000  0.33620000  1.0 -0.1390860144
C  C312  1  0.97280000  0.85330000  0.33860000  1.0 -0.0792619427
C  C313  1  0.94750000  0.89630000  0.35970000  1.0 -0.0117186905
C  C314  1  0.90340000  0.87540000  0.37730000  1.0 -0.0792619427
C  C315  1  0.88470000  0.81140000  0.37420000  1.0 -0.1390860144
C  C316  1  0.96810000  0.96670000  0.36320000  1.0 0.580498118
C  C317  1  0.77140000  0.58570000  0.37530000  1.0 0.069761103
C  C318  1  0.74430000  0.62300000  0.40000000  1.0 -0.1390860144
C  C319  1  0.69570000  0.59750000  0.41230000  1.0 -0.0897974965
C  C320  1  0.67290000  0.53540000  0.40140000  1.0 -0.0179361679
C  C321  1  0.69990000  0.49860000  0.37680000  1.0 -0.0897974965
C  C322  1  0.74760000  0.52370000  0.36370000  1.0 -0.1489507441
C  C323  1  0.62430000  0.50190000  0.41630000  1.0 0.5896841639
C  C324  1  0.46300000  0.33670000  0.96330000  1.0 -0.1489507441
C  C325  1  0.29150000  0.83450000  0.15010000  1.0 0.0820449577
C  C326  1  0.29620000  0.89610000  0.16740000  1.0 -0.1801522186
C  C327  1  0.29490000  0.90690000  0.20800000  1.0 0.0895593158
C  C328  1  0.28910000  0.85140000  0.23070000  1.0 -0.1801522186
C  C329  1  0.28640000  0.78890000  0.21470000  1.0 0.0820449577
C  C330  1  0.28480000  0.78120000  0.17300000  1.0 -0.189713674
C  C331  1  0.29090000  0.82490000  0.10650000  1.0 0.069761103
C  C332  1  0.24660000  0.78500000  0.07820000  1.0 -0.1390860144
C  C333  1  0.24520000  0.77990000  0.03730000  1.0 -0.0992357473
C  C334  1  0.28950000  0.81300000  0.02400000  1.0 -0.0308743087
C  C335  1  0.33520000  0.84980000  0.05300000  1.0 -0.0992357473
C  C336  1  0.33560000  0.85630000  0.09350000  1.0 -0.1390860144
C  C337  1  0.28710000  0.81310000  0.97950000  1.0 0.5391766126
C  C338  1  0.29750000  0.97220000  0.22480000  1.0 0.069761103
C  C339  1  0.26230000  0.98940000  0.25050000  1.0 -0.1390860144
C  C340  1  0.26600000  0.05260000  0.26600000  1.0 -0.0792619427
C  C341  1  0.30610000  0.09790000  0.25780000  1.0 -0.0179361679
C  C342  1  0.33780000  0.08220000  0.23220000  1.0 -0.0792619427
C  C343  1  0.33450000  0.02070000  0.21490000  1.0 -0.0992357473
C  C344  1  0.31720000  0.16450000  0.27850000  1.0 0.5491176598
C  C345  1  0.28410000  0.73070000  0.23900000  1.0 0.069761103
C  C346  1  0.24950000  0.72640000  0.26610000  1.0 -0.1489507441
C  C347  1  0.24780000  0.66980000  0.28780000  1.0 -0.0897974965
C  C348  1  0.28290000  0.61740000  0.28360000  1.0 -0.0179361679
C  C349  1  0.32020000  0.61980000  0.25780000  1.0 -0.0897974965
C  C350  1  0.32020000  0.67580000  0.23550000  1.0 -0.1390860144
C  C351  1  0.28440000  0.55580000  0.30700000  1.0 0.5308801199
C  C352  1  0.06110000  0.98180000  0.95960000  1.0 0.0820449577
C  C353  1  0.12550000  0.98080000  0.97820000  1.0 -0.189713674
C  C354  1  0.16040000  0.03820000  0.99140000  1.0 0.0958963164
C  C355  1  0.12630000  0.09580000  0.98830000  1.0 -0.1711226407
C  C356  1  0.06130000  0.09820000  0.97140000  1.0 0.0895593158
C  C357  1  0.02930000  0.04070000  0.95630000  1.0 -0.1801522186
C  C358  1  0.02770000  0.92020000  0.94380000  1.0 0.069761103
C  C359  1  0.06100000  0.86900000  0.93270000  1.0 -0.1309142037
C  C360  1  0.03360000  0.80820000  0.92190000  1.0 -0.0792619427
C  C361  1  0.97130000  0.79810000  0.92030000  1.0 -0.0308743087
C  C362  1  0.93730000  0.84980000  0.92950000  1.0 -0.0792619427
C  C363  1  0.96510000  0.90990000  0.94050000  1.0 -0.1390860144
C  C364  1  0.94370000  0.73240000  0.91230000  1.0 0.5727774628
C  C365  1  0.22950000  0.03770000  0.00630000  1.0 0.069761103
C  C366  1  0.26430000  0.08870000  0.02970000  1.0 -0.1070613949
C  C367  1  0.32840000  0.08990000  0.04080000  1.0 -0.0625437836
C  C368  1  0.36060000  0.03880000  0.02900000  1.0 -0.0117186905
C  C369  1  0.32640000  0.98780000  0.00550000  1.0 -0.0897974965
C  C370  1  0.26160000  0.98660000  0.99470000  1.0 -0.1390860144
C  C371  1  0.43020000  0.04070000  0.04210000  1.0 0.6096368336
C  C372  1  0.02760000  0.16180000  0.96920000  1.0 0.0820449577
C  C373  1  0.93280000  0.22260000  0.96090000  1.0 -0.0897974965
C  C374  1  0.96550000  0.28000000  0.96570000  1.0 -0.0397862249
C  C375  1  0.02990000  0.27880000  0.97210000  1.0 -0.0716997239
C  C376  1  0.05990000  0.22070000  0.97380000  1.0 -0.1390860144
C  C377  1  0.93370000  0.34360000  0.95970000  1.0 0.5896841639
C  C378  1  0.93760000  0.08100000  0.85270000  1.0 0.0895593158
C  C379  1  0.92000000  0.14660000  0.84920000  1.0 -0.1801522186
C  C380  1  0.96540000  0.19490000  0.85250000  1.0 0.0895593158
C  C381  1  0.02830000  0.17620000  0.85920000  1.0 -0.189713674
C  C382  1  0.04600000  0.11160000  0.86300000  1.0 0.0895593158
C  C383  1  0.99950000  0.06430000  0.85980000  1.0 -0.1711226407
C  C384  1  0.11230000  0.08930000  0.87320000  1.0 0.069761103
C  C385  1  0.12610000  0.02910000  0.85980000  1.0 -0.1309142037
C  C386  1  0.18560000  0.00460000  0.87190000  1.0 -0.0897974965
C  C387  1  0.23550000  0.03930000  0.89760000  1.0 -0.0117186905
C  C388  1  0.22370000  0.10210000  0.90970000  1.0 -0.0792619427
C  C389  1  0.16310000  0.12600000  0.89740000  1.0 -0.1489507441
C  C390  1  0.29770000  0.00520000  0.91390000  1.0 0.595574958
C  C391  1  0.89120000  0.02810000  0.85230000  1.0 0.069761103
C  C392  1  0.89440000  0.96990000  0.83090000  1.0 -0.1070613949
C  C393  1  0.85570000  0.91750000  0.83290000  1.0 -0.0792619427
C  C394  1  0.81400000  0.92310000  0.85510000  1.0 -0.0179361679
C  C395  1  0.81010000  0.98140000  0.87560000  1.0 -0.0897974965
C  C396  1  0.84860000  0.03370000  0.87400000  1.0 -0.1634212978
C  C397  1  0.77460000  0.86660000  0.85950000  1.0 0.5308801199
C  C398  1  0.94870000  0.26470000  0.85150000  1.0 0.069761103
C  C399  1  0.88770000  0.28720000  0.83010000  1.0 -0.1390860144
C  C400  1  0.87180000  0.35190000  0.83350000  1.0 -0.0716997239
C  C401  1  0.91620000  0.39600000  0.85720000  1.0 -0.0117186905
C  C402  1  0.97700000  0.37370000  0.87610000  1.0 -0.0792619427
C  C403  1  0.99320000  0.30950000  0.87300000  1.0 -0.1390860144
C  C404  1  0.89930000  0.46520000  0.86170000  1.0 0.5727774628
C  C405  1  0.41270000  0.27970000  0.70880000  1.0 0.0895593158
C  C406  1  0.37580000  0.27010000  0.66760000  1.0 -0.1801522186
C  C407  1  0.36080000  0.20860000  0.65040000  1.0 0.0895593158
C  C408  1  0.38500000  0.15440000  0.67510000  1.0 -0.1801522186
C  C409  1  0.42310000  0.16250000  0.71700000  1.0 0.0895593158
C  C410  1  0.43640000  0.22540000  0.73260000  1.0 -0.189713674
C  C411  1  0.42790000  0.34660000  0.72500000  1.0 0.069761103
C  C412  1  0.48640000  0.36160000  0.75070000  1.0 -0.1390860144
C  C413  1  0.50200000  0.42620000  0.76080000  1.0 -0.0792619427
C  C414  1  0.45850000  0.47520000  0.74530000  1.0 -0.0117186905
C  C415  1  0.39910000  0.45880000  0.72150000  1.0 -0.0897974965
C  C416  1  0.38370000  0.39570000  0.71120000  1.0 -0.1390860144
C  C417  1  0.47550000  0.54540000  0.75430000  1.0 0.5491176598
C  C418  1  0.44910000  0.10550000  0.74340000  1.0 0.069761103
C  C419  1  0.41310000  0.04930000  0.74140000  1.0 -0.0992357473
C  C420  1  0.43480000  0.99830000  0.76940000  1.0 -0.0716997239
C  C421  1  0.49280000  0.00360000  0.79940000  1.0 -0.0397862249
C  C422  1  0.53080000  0.05660000  0.80080000  1.0 -0.0992357473
C  C423  1  0.50900000  0.10750000  0.77300000  1.0 -0.1489507441
C  C424  1  0.51100000  0.95330000  0.83220000  1.0 0.5727774628
C  C425  1  0.31950000  0.20090000  0.60690000  1.0 0.069761103
C  C426  1  0.33230000  0.23680000  0.57550000  1.0 -0.1309142037
C  C427  1  0.29340000  0.23250000  0.53460000  1.0 -0.0992357473
C  C428  1  0.23860000  0.19460000  0.52390000  1.0 -0.0397862249
C  C429  1  0.22550000  0.15970000  0.55580000  1.0 -0.0897974965
C  C430  1  0.26590000  0.16200000  0.59660000  1.0 -0.1309142037
C  C431  1  0.19640000  0.18960000  0.48040000  1.0 0.5391766126
C  C432  1  0.85360000  0.48260000  0.47820000  1.0 -0.189713674
C  C433  1  0.90130000  0.48360000  0.46030000  1.0 0.0820449577
C  C434  1  0.92980000  0.54200000  0.45710000  1.0 -0.1801522186
C  C435  1  0.91200000  0.59970000  0.47220000  1.0 0.0895593158
C  C436  1  0.86370000  0.59720000  0.48980000  1.0 -0.1801522186
C  C437  1  0.83280000  0.53900000  0.49260000  1.0 0.0895593158
C  C438  1  0.91830000  0.42190000  0.44380000  1.0 0.069761103
C  C439  1  0.87600000  0.37090000  0.43340000  1.0 -0.1217105429
C  C440  1  0.89410000  0.30960000  0.42250000  1.0 -0.0716997239
C  C441  1  0.95360000  0.30030000  0.42050000  1.0 -0.0117186905
C  C442  1  0.99610000  0.35230000  0.42930000  1.0 -0.0792619427
C  C443  1  0.97820000  0.41300000  0.43990000  1.0 -0.1390860144
C  C444  1  0.97540000  0.23370000  0.41350000  1.0 0.5727774628
C  C445  1  0.77800000  0.53870000  0.50740000  1.0 0.069761103
C  C446  1  0.76180000  0.59250000  0.52690000  1.0 -0.1070613949
C  C447  1  0.70770000  0.59350000  0.53790000  1.0 -0.0716997239
C  C448  1  0.66770000  0.54130000  0.52930000  1.0 -0.0117186905
C  C449  1  0.68190000  0.48640000  0.50960000  1.0 -0.0792619427
C  C450  1  0.73620000  0.48530000  0.49920000  1.0 -0.1390860144
C  C451  1  0.61070000  0.54180000  0.54310000  1.0 0.6096368336
C  C452  1  0.94350000  0.66220000  0.47000000  1.0 0.069761103
C  C453  1  0.91470000  0.72200000  0.47350000  1.0 -0.1217105429
C  C454  1  0.94330000  0.78100000  0.47140000  1.0 -0.0716997239
C  C455  1  0.00130000  0.78220000  0.46550000  1.0 -0.0308743087
C  C456  1  0.03120000  0.72380000  0.46280000  1.0 -0.0992357473
C  C457  1  0.00290000  0.66570000  0.46480000  1.0 -0.1489507441
C  C458  1  0.02800000  0.84620000  0.45980000  1.0 0.580498118
C  C459  1  0.42570000  0.91790000  0.35260000  1.0 0.0895593158
C  C460  1  0.43820000  0.85160000  0.35060000  1.0 -0.1801522186
C  C461  1  0.39490000  0.80460000  0.35400000  1.0 0.0895593158
C  C462  1  0.33980000  0.82510000  0.36040000  1.0 -0.1801522186
C  C463  1  0.32670000  0.89110000  0.36390000  1.0 0.0895593158
C  C464  1  0.37000000  0.93650000  0.35880000  1.0 -0.1801522186
C  C465  1  0.47120000  0.96950000  0.35110000  1.0 0.0820449577
C  C466  1  0.53570000  0.96410000  0.37350000  1.0 -0.1634212978
C  C467  1  0.57580000  0.01740000  0.37510000  1.0 -0.0897974965
C  C468  1  0.55210000  0.07510000  0.35480000  1.0 -0.0397862249
C  C469  1  0.48920000  0.07910000  0.33210000  1.0 -0.0625437836
C  C470  1  0.44860000  0.02720000  0.32900000  1.0 -0.1309142037
C  C471  1  0.59430000  0.13210000  0.36140000  1.0 0.5308801199
C  C472  1  0.41130000  0.73420000  0.35330000  1.0 0.0820449577
C  C473  1  0.45560000  0.71170000  0.33620000  1.0 -0.1390860144
C  C474  1  0.47280000  0.64670000  0.33860000  1.0 -0.0792619427
C  C475  1  0.44750000  0.60370000  0.35970000  1.0 -0.0117186905
C  C476  1  0.40340000  0.62460000  0.37730000  1.0 -0.0792619427
C  C477  1  0.38470000  0.68860000  0.37420000  1.0 -0.1390860144
C  C478  1  0.46810000  0.53330000  0.36320000  1.0 0.580498118
C  C479  1  0.27140000  0.91430000  0.37530000  1.0 0.069761103
C  C480  1  0.24430000  0.87700000  0.40000000  1.0 -0.1390860144
C  C481  1  0.19570000  0.90250000  0.41230000  1.0 -0.0897974965
C  C482  1  0.17290000  0.96460000  0.40140000  1.0 -0.0179361679
C  C483  1  0.19990000  0.00140000  0.37680000  1.0 -0.0897974965
C  C484  1  0.24760000  0.97630000  0.36370000  1.0 -0.1489507441
C  C485  1  0.12430000  0.99810000  0.41630000  1.0 0.5896841639
C  C486  1  0.96300000  0.16330000  0.96330000  1.0 -0.1489507441
C  C487  1  0.20850000  0.33450000  0.84990000  1.0 0.0820449577
C  C488  1  0.20380000  0.39610000  0.83260000  1.0 -0.1801522186
C  C489  1  0.20510000  0.40690000  0.79200000  1.0 0.0895593158
C  C490  1  0.21090000  0.35140000  0.76930000  1.0 -0.1801522186
C  C491  1  0.21360000  0.28890000  0.78530000  1.0 0.0820449577
C  C492  1  0.21520000  0.28120000  0.82700000  1.0 -0.189713674
C  C493  1  0.20910000  0.32490000  0.89350000  1.0 0.069761103
C  C494  1  0.25340000  0.28500000  0.92180000  1.0 -0.1390860144
C  C495  1  0.25480000  0.27990000  0.96270000  1.0 -0.0897974965
C  C496  1  0.21050000  0.31300000  0.97600000  1.0 -0.0308743087
C  C497  1  0.16480000  0.34980000  0.94700000  1.0 -0.0897974965
C  C498  1  0.16440000  0.35630000  0.90650000  1.0 -0.1390860144
C  C499  1  0.21290000  0.31310000  0.02050000  1.0 0.5391766126
C  C500  1  0.20250000  0.47220000  0.77520000  1.0 0.069761103
C  C501  1  0.23770000  0.48940000  0.74950000  1.0 -0.1390860144
C  C502  1  0.23400000  0.55260000  0.73400000  1.0 -0.0792619427
C  C503  1  0.19390000  0.59790000  0.74220000  1.0 -0.0179361679
C  C504  1  0.16220000  0.58220000  0.76780000  1.0 -0.0792619427
C  C505  1  0.16550000  0.52070000  0.78510000  1.0 -0.0992357473
C  C506  1  0.18280000  0.66450000  0.72150000  1.0 0.5491176598
C  C507  1  0.21590000  0.23070000  0.76100000  1.0 0.069761103
C  C508  1  0.25050000  0.22640000  0.73390000  1.0 -0.1489507441
C  C509  1  0.25220000  0.16980000  0.71220000  1.0 -0.0897974965
C  C510  1  0.21710000  0.11740000  0.71640000  1.0 -0.0179361679
C  C511  1  0.17980000  0.11980000  0.74220000  1.0 -0.0897974965
C  C512  1  0.17980000  0.17580000  0.76450000  1.0 -0.1390860144
C  C513  1  0.21560000  0.05580000  0.69300000  1.0 0.5308801199
C  C514  1  0.43890000  0.48180000  0.04040000  1.0 0.0820449577
C  C515  1  0.37450000  0.48080000  0.02180000  1.0 -0.189713674
C  C516  1  0.33960000  0.53820000  0.00860000  1.0 0.0958963164
C  C517  1  0.37370000  0.59580000  0.01170000  1.0 -0.1711226407
C  C518  1  0.43870000  0.59820000  0.02860000  1.0 0.0895593158
C  C519  1  0.47070000  0.54070000  0.04370000  1.0 -0.1801522186
C  C520  1  0.47230000  0.42020000  0.05620000  1.0 0.069761103
C  C521  1  0.43900000  0.36900000  0.06730000  1.0 -0.1309142037
C  C522  1  0.46640000  0.30820000  0.07810000  1.0 -0.0792619427
C  C523  1  0.52870000  0.29810000  0.07970000  1.0 -0.0308743087
C  C524  1  0.56270000  0.34980000  0.07050000  1.0 -0.0792619427
C  C525  1  0.53490000  0.40990000  0.05950000  1.0 -0.1390860144
C  C526  1  0.55630000  0.23240000  0.08770000  1.0 0.5727774628
C  C527  1  0.27050000  0.53770000  0.99370000  1.0 0.069761103
C  C528  1  0.23570000  0.58870000  0.97030000  1.0 -0.1070613949
C  C529  1  0.17160000  0.58990000  0.95920000  1.0 -0.0625437836
C  C530  1  0.13940000  0.53880000  0.97100000  1.0 -0.0117186905
C  C531  1  0.17360000  0.48780000  0.99450000  1.0 -0.0897974965
C  C532  1  0.23840000  0.48660000  0.00530000  1.0 -0.1390860144
C  C533  1  0.06980000  0.54070000  0.95790000  1.0 0.6096368336
C  C534  1  0.47240000  0.66180000  0.03080000  1.0 0.0820449577
C  C535  1  0.56720000  0.72260000  0.03910000  1.0 -0.0897974965
C  C536  1  0.53450000  0.78000000  0.03430000  1.0 -0.0397862249
C  C537  1  0.47010000  0.77880000  0.02790000  1.0 -0.0716997239
C  C538  1  0.44010000  0.72070000  0.02620000  1.0 -0.1390860144
C  C539  1  0.56630000  0.84360000  0.04030000  1.0 0.5896841639
C  C540  1  0.56240000  0.58100000  0.14730000  1.0 0.0895593158
C  C541  1  0.58000000  0.64660000  0.15080000  1.0 -0.1801522186
C  C542  1  0.53460000  0.69490000  0.14750000  1.0 0.0895593158
C  C543  1  0.47170000  0.67620000  0.14080000  1.0 -0.189713674
C  C544  1  0.45400000  0.61160000  0.13700000  1.0 0.0895593158
C  C545  1  0.50050000  0.56430000  0.14020000  1.0 -0.1711226407
C  C546  1  0.38770000  0.58930000  0.12680000  1.0 0.069761103
C  C547  1  0.37390000  0.52910000  0.14020000  1.0 -0.1309142037
C  C548  1  0.31440000  0.50460000  0.12810000  1.0 -0.0897974965
C  C549  1  0.26450000  0.53930000  0.10240000  1.0 -0.0117186905
C  C550  1  0.27630000  0.60210000  0.09030000  1.0 -0.0792619427
C  C551  1  0.33690000  0.62600000  0.10260000  1.0 -0.1489507441
C  C552  1  0.20230000  0.50520000  0.08610000  1.0 0.595574958
C  C553  1  0.60880000  0.52810000  0.14770000  1.0 0.069761103
C  C554  1  0.60560000  0.46990000  0.16910000  1.0 -0.0992357473
C  C555  1  0.64430000  0.41750000  0.16710000  1.0 -0.0792619427
C  C556  1  0.68600000  0.42310000  0.14490000  1.0 -0.0117186905
C  C557  1  0.68990000  0.48140000  0.12440000  1.0 -0.0897974965
C  C558  1  0.65140000  0.53370000  0.12600000  1.0 -0.1634212978
C  C559  1  0.72540000  0.36660000  0.14050000  1.0 0.5308801199
C  C560  1  0.55130000  0.76470000  0.14850000  1.0 0.069761103
C  C561  1  0.61230000  0.78720000  0.16990000  1.0 -0.1390860144
C  C562  1  0.62820000  0.85190000  0.16650000  1.0 -0.0716997239
C  C563  1  0.58380000  0.89600000  0.14280000  1.0 -0.0117186905
C  C564  1  0.52300000  0.87370000  0.12390000  1.0 -0.0792619427
C  C565  1  0.50680000  0.80950000  0.12700000  1.0 -0.1390860144
C  C566  1  0.60070000  0.96520000  0.13830000  1.0 0.5727774628
C  C567  1  0.08730000  0.77970000  0.29120000  1.0 0.0895593158
C  C568  1  0.12420000  0.77010000  0.33240000  1.0 -0.1801522186
C  C569  1  0.13920000  0.70860000  0.34960000  1.0 0.0895593158
C  C570  1  0.11500000  0.65440000  0.32490000  1.0 -0.1801522186
C  C571  1  0.07690000  0.66250000  0.28300000  1.0 0.0895593158
C  C572  1  0.06360000  0.72540000  0.26740000  1.0 -0.189713674
C  C573  1  0.07210000  0.84660000  0.27500000  1.0 0.069761103
C  C574  1  0.01360000  0.86160000  0.24930000  1.0 -0.1390860144
C  C575  1  0.99800000  0.92620000  0.23920000  1.0 -0.0792619427
C  C576  1  0.04150000  0.97520000  0.25470000  1.0 -0.0117186905
C  C577  1  0.10090000  0.95880000  0.27850000  1.0 -0.0897974965
C  C578  1  0.11630000  0.89570000  0.28880000  1.0 -0.1390860144
C  C579  1  0.02450000  0.04540000  0.24570000  1.0 0.5491176598
C  C580  1  0.05090000  0.60550000  0.25660000  1.0 0.069761103
C  C581  1  0.08690000  0.54930000  0.25860000  1.0 -0.0992357473
C  C582  1  0.06520000  0.49830000  0.23060000  1.0 -0.0716997239
C  C583  1  0.00720000  0.50360000  0.20060000  1.0 -0.0308743087
C  C584  1  0.96920000  0.55660000  0.19920000  1.0 -0.0992357473
C  C585  1  0.99100000  0.60750000  0.22700000  1.0 -0.1489507441
C  C586  1  0.98900000  0.45330000  0.16780000  1.0 0.5727774628
C  C587  1  0.18050000  0.70090000  0.39310000  1.0 0.069761103
C  C588  1  0.16770000  0.73680000  0.42450000  1.0 -0.1309142037
C  C589  1  0.20660000  0.73250000  0.46540000  1.0 -0.0992357473
C  C590  1  0.26140000  0.69460000  0.47610000  1.0 -0.0397862249
C  C591  1  0.27450000  0.65970000  0.44420000  1.0 -0.0897974965
C  C592  1  0.23410000  0.66200000  0.40340000  1.0 -0.1309142037
C  C593  1  0.30360000  0.68960000  0.51960000  1.0 0.5391766126
C  C594  1  0.64640000  0.98260000  0.52180000  1.0 -0.189713674
C  C595  1  0.59870000  0.98360000  0.53970000  1.0 0.0820449577
C  C596  1  0.57020000  0.04200000  0.54290000  1.0 -0.1801522186
C  C597  1  0.58800000  0.09970000  0.52780000  1.0 0.0895593158
C  C598  1  0.63630000  0.09720000  0.51020000  1.0 -0.1801522186
C  C599  1  0.66720000  0.03900000  0.50740000  1.0 0.0895593158
C  C600  1  0.58170000  0.92190000  0.55620000  1.0 0.069761103
C  C601  1  0.62400000  0.87090000  0.56660000  1.0 -0.1217105429
C  C602  1  0.60590000  0.80960000  0.57750000  1.0 -0.0716997239
C  C603  1  0.54640000  0.80030000  0.57950000  1.0 -0.0117186905
C  C604  1  0.50390000  0.85230000  0.57070000  1.0 -0.0792619427
C  C605  1  0.52180000  0.91300000  0.56010000  1.0 -0.1390860144
C  C606  1  0.52460000  0.73370000  0.58650000  1.0 0.5727774628
C  C607  1  0.72200000  0.03870000  0.49260000  1.0 0.069761103
C  C608  1  0.73820000  0.09250000  0.47310000  1.0 -0.1070613949
C  C609  1  0.79230000  0.09350000  0.46210000  1.0 -0.0716997239
C  C610  1  0.83230000  0.04130000  0.47070000  1.0 -0.0117186905
C  C611  1  0.81810000  0.98640000  0.49040000  1.0 -0.0792619427
C  C612  1  0.76380000  0.98530000  0.50080000  1.0 -0.1390860144
C  C613  1  0.88930000  0.04180000  0.45690000  1.0 0.6096368336
C  C614  1  0.55650000  0.16220000  0.53000000  1.0 0.069761103
C  C615  1  0.58530000  0.22200000  0.52650000  1.0 -0.1217105429
C  C616  1  0.55670000  0.28100000  0.52860000  1.0 -0.0716997239
C  C617  1  0.49870000  0.28220000  0.53450000  1.0 -0.0308743087
C  C618  1  0.46880000  0.22380000  0.53720000  1.0 -0.0992357473
C  C619  1  0.49710000  0.16570000  0.53520000  1.0 -0.1489507441
C  C620  1  0.47200000  0.34620000  0.54020000  1.0 0.580498118
C  C621  1  0.07430000  0.41790000  0.64740000  1.0 0.0895593158
C  C622  1  0.06180000  0.35160000  0.64940000  1.0 -0.1801522186
C  C623  1  0.10510000  0.30460000  0.64600000  1.0 0.0895593158
C  C624  1  0.16020000  0.32510000  0.63960000  1.0 -0.1801522186
C  C625  1  0.17330000  0.39110000  0.63610000  1.0 0.0895593158
C  C626  1  0.13000000  0.43650000  0.64120000  1.0 -0.1801522186
C  C627  1  0.02880000  0.46950000  0.64890000  1.0 0.0820449577
C  C628  1  0.96430000  0.46410000  0.62650000  1.0 -0.1634212978
C  C629  1  0.92420000  0.51740000  0.62490000  1.0 -0.0897974965
C  C630  1  0.94790000  0.57510000  0.64520000  1.0 -0.0397862249
C  C631  1  0.01080000  0.57910000  0.66790000  1.0 -0.0625437836
C  C632  1  0.05140000  0.52720000  0.67100000  1.0 -0.1309142037
C  C633  1  0.90570000  0.63210000  0.63860000  1.0 0.5308801199
C  C634  1  0.08870000  0.23420000  0.64670000  1.0 0.0820449577
C  C635  1  0.04440000  0.21170000  0.66380000  1.0 -0.1390860144
C  C636  1  0.02720000  0.14670000  0.66140000  1.0 -0.0792619427
C  C637  1  0.05250000  0.10370000  0.64030000  1.0 -0.0117186905
C  C638  1  0.09660000  0.12460000  0.62270000  1.0 -0.0792619427
C  C639  1  0.11530000  0.18860000  0.62580000  1.0 -0.1390860144
C  C640  1  0.03190000  0.03330000  0.63680000  1.0 0.580498118
C  C641  1  0.22860000  0.41430000  0.62470000  1.0 0.069761103
C  C642  1  0.25570000  0.37700000  0.60000000  1.0 -0.1390860144
C  C643  1  0.30430000  0.40250000  0.58770000  1.0 -0.0897974965
C  C644  1  0.32710000  0.46460000  0.59860000  1.0 -0.0179361679
C  C645  1  0.30010000  0.50140000  0.62320000  1.0 -0.0897974965
C  C646  1  0.25240000  0.47630000  0.63630000  1.0 -0.1489507441
C  C647  1  0.37570000  0.49810000  0.58370000  1.0 0.5896841639
C  C648  1  0.53700000  0.66330000  0.03670000  1.0 -0.1489507441
O  O1  1  0.66870000  0.15840000  0.02832000  1.0 -0.550242424
O  O2  1  0.76070000  0.21270000  0.04780000  1.0 -0.5001481282
O  O3  1  0.64140000  0.79990000  0.72420000  1.0 -0.4196366242
O  O4  1  0.71920000  0.82400000  0.69830000  1.0 -0.4705728463
O  O5  1  0.74910000  0.44390000  0.66750000  1.0 -0.5598653278
O  O6  1  0.68460000  0.49080000  0.69720000  1.0 -0.4050245456
O  O7  1  0.54420000  0.92510000  0.92672000  1.0 -0.4705728463
O  O8  1  0.54000000  0.99150000  0.97800000  1.0 -0.5204420856
O  O9  1  0.03520000  0.60420000  0.03464000  1.0 -0.4803112228
O  O10  1  0.12780000  0.65630000  0.05350000  1.0 -0.5107869768
O  O11  1  0.02540000  0.31060000  0.10090000  1.0 -0.5001481282
O  O12  1  0.10720000  0.27780000  0.08082000  1.0 -0.5107869768
O  O13  1  0.14890000  0.51030000  0.16170000  1.0 -0.3809004075
O  O14  1  0.06050000  0.50400000  0.10707000  1.0 -0.5795280508
O  O15  1  0.21670000  0.18870000  0.15310000  1.0 -0.4380415476
O  O16  1  0.26890000  0.12040000  0.12510000  1.0 -0.4898110461
O  O17  1  0.65180000  0.96270000  0.06840000  1.0 -0.5001481282
O  O18  1  0.70420000  0.05450000  0.09169000  1.0 -0.5107869768
O  O19  1  0.52630000  0.08590000  0.16174000  1.0 -0.4705728463
O  O20  1  0.42970000  0.04190000  0.14270000  1.0 -0.4803112228
O  O21  1  0.85530000  0.83940000  0.52623000  1.0 -0.550242424
O  O22  1  0.78440000  0.78640000  0.54750000  1.0 -0.4803112228
O  O23  1  0.56070000  0.41030000  0.25970000  1.0 -0.4196366242
O  O24  1  0.46980000  0.44600000  0.22100000  1.0 -0.4898110461
O  O25  1  0.99830000  0.10300000  0.53471000  1.0 -0.4705728463
O  O26  1  0.92200000  0.15440000  0.55150000  1.0 -0.5204420856
O  O27  1  0.96770000  0.77660000  0.57880000  1.0 -0.4898110461
O  O28  1  0.06850000  0.80800000  0.60030000  1.0 -0.5282919152
O  O29  1  0.43890000  0.49110000  0.47770000  1.0 -0.5282919152
O  O30  1  0.38440000  0.42440000  0.42591000  1.0 -0.5001481282
O  O31  1  0.87860000  0.94240000  0.58820000  1.0 -0.5001481282
O  O32  1  0.90980000  0.03600000  0.56712000  1.0 -0.5001481282
O  O33  1  0.54180000  0.49800000  0.60534000  1.0 -0.5996771923
O  O34  1  0.50760000  0.49040000  0.66060000  1.0 -0.3546602897
O  O35  1  0.34780000  0.87400000  0.62260000  1.0 -0.4705728463
O  O36  1  0.43220000  0.81110000  0.64910000  1.0 -0.4380415476
O  O37  1  0.73500000  0.18980000  0.11613000  1.0 0.1615944185
O  O38  1  0.57420000  0.08760000  0.05391000  1.0 -0.7158127151
O  O39  1  0.63760000  0.11440000  0.13895000  1.0 -0.4898110461
O  O40  1  0.12630000  0.90210000  0.66070000  1.0 0.1996986621
O  O41  1  0.97640000  0.91020000  0.55275000  1.0 -0.7470580659
O  O42  1  0.87600000  0.80730000  0.61570000  1.0 0.1996986621
O  O43  1  0.99130000  0.88670000  0.63723000  1.0 -0.5001481282
O  O44  1  0.83130000  0.65840000  0.97168000  1.0 -0.550242424
O  O45  1  0.73930000  0.71270000  0.95220000  1.0 -0.5001481282
O  O46  1  0.85860000  0.29990000  0.27580000  1.0 -0.4196366242
O  O47  1  0.78080000  0.32400000  0.30170000  1.0 -0.4705728463
O  O48  1  0.75090000  0.94390000  0.33250000  1.0 -0.5598653278
O  O49  1  0.81540000  0.99080000  0.30280000  1.0 -0.4041716478
O  O50  1  0.95580000  0.42510000  0.07328000  1.0 -0.4705728463
O  O51  1  0.96000000  0.49150000  0.02200000  1.0 -0.5204420856
O  O52  1  0.46480000  0.10420000  0.96536000  1.0 -0.4803112228
O  O53  1  0.37220000  0.15630000  0.94650000  1.0 -0.5107869768
O  O54  1  0.47460000  0.81060000  0.89910000  1.0 -0.5001481282
O  O55  1  0.39280000  0.77780000  0.91918000  1.0 -0.5001481282
O  O56  1  0.35110000  0.01030000  0.83830000  1.0 -0.3809004075
O  O57  1  0.43950000  0.00400000  0.89293000  1.0 -0.5795280508
O  O58  1  0.28330000  0.68870000  0.84690000  1.0 -0.4380415476
O  O59  1  0.23110000  0.62040000  0.87490000  1.0 -0.4898110461
O  O60  1  0.84820000  0.46270000  0.93160000  1.0 -0.5001481282
O  O61  1  0.79580000  0.55450000  0.90831000  1.0 -0.5107869768
O  O62  1  0.97370000  0.58590000  0.83826000  1.0 -0.4705728463
O  O63  1  0.07030000  0.54190000  0.85730000  1.0 -0.4803112228
O  O64  1  0.64470000  0.33940000  0.47377000  1.0 -0.550242424
O  O65  1  0.71560000  0.28640000  0.45250000  1.0 -0.4803112228
O  O66  1  0.93930000  0.91030000  0.74030000  1.0 -0.4196366242
O  O67  1  0.03020000  0.94600000  0.77900000  1.0 -0.4898110461
O  O68  1  0.50170000  0.60300000  0.46529000  1.0 -0.4705728463
O  O69  1  0.57800000  0.65440000  0.44850000  1.0 -0.5107869768
O  O70  1  0.53230000  0.27660000  0.42120000  1.0 -0.4898110461
O  O71  1  0.43150000  0.30800000  0.39970000  1.0 -0.5282919152
O  O72  1  0.06110000  0.99110000  0.52230000  1.0 -0.5282919152
O  O73  1  0.11560000  0.92440000  0.57409000  1.0 -0.5001481282
O  O74  1  0.62140000  0.44240000  0.41180000  1.0 -0.5001481282
O  O75  1  0.59020000  0.53600000  0.43288000  1.0 -0.5001481282
O  O76  1  0.95820000  0.99800000  0.39466000  1.0 -0.5996771923
O  O77  1  0.99240000  0.99040000  0.33940000  1.0 -0.3546602897
O  O78  1  0.15220000  0.37400000  0.37740000  1.0 -0.4705728463
O  O79  1  0.06780000  0.31110000  0.35090000  1.0 -0.4380415476
O  O80  1  0.76500000  0.68980000  0.88387000  1.0 0.1505553224
O  O81  1  0.92580000  0.58760000  0.94609000  1.0 -0.7158127151
O  O82  1  0.86240000  0.61440000  0.86105000  1.0 -0.4898110461
O  O83  1  0.37370000  0.40210000  0.33930000  1.0 0.1807400712
O  O84  1  0.52360000  0.41020000  0.44725000  1.0 -0.7470580659
O  O85  1  0.62400000  0.30730000  0.38430000  1.0 0.1907138058
O  O86  1  0.50870000  0.38670000  0.36277000  1.0 -0.5001481282
O  O87  1  0.33130000  0.84160000  0.97168000  1.0 -0.5445569924
O  O88  1  0.23930000  0.78730000  0.95220000  1.0 -0.5001481282
O  O89  1  0.35860000  0.20010000  0.27580000  1.0 -0.4196366242
O  O90  1  0.28080000  0.17600000  0.30170000  1.0 -0.4705728463
O  O91  1  0.25090000  0.55610000  0.33250000  1.0 -0.5598653278
O  O92  1  0.31540000  0.50920000  0.30280000  1.0 -0.4050245456
O  O93  1  0.45580000  0.07490000  0.07328000  1.0 -0.4705728463
O  O94  1  0.46000000  0.00850000  0.02200000  1.0 -0.5204420856
O  O95  1  0.96480000  0.39580000  0.96536000  1.0 -0.4803112228
O  O96  1  0.87220000  0.34370000  0.94650000  1.0 -0.5107869768
O  O97  1  0.97460000  0.68940000  0.89910000  1.0 -0.5001481282
O  O98  1  0.89280000  0.72220000  0.91918000  1.0 -0.5107869768
O  O99  1  0.85110000  0.48970000  0.83830000  1.0 -0.3809004075
O  O100  1  0.93950000  0.49600000  0.89293000  1.0 -0.5795280508
O  O101  1  0.78330000  0.81130000  0.84690000  1.0 -0.4380415476
O  O102  1  0.73110000  0.87960000  0.87490000  1.0 -0.4803112228
O  O103  1  0.34820000  0.03730000  0.93160000  1.0 -0.5001481282
O  O104  1  0.29580000  0.94550000  0.90831000  1.0 -0.5107869768
O  O105  1  0.47370000  0.91410000  0.83826000  1.0 -0.4705728463
O  O106  1  0.57030000  0.95810000  0.85730000  1.0 -0.4803112228
O  O107  1  0.14470000  0.16060000  0.47377000  1.0 -0.550242424
O  O108  1  0.21560000  0.21360000  0.45250000  1.0 -0.4803112228
O  O109  1  0.43930000  0.58970000  0.74030000  1.0 -0.4196366242
O  O110  1  0.53020000  0.55400000  0.77900000  1.0 -0.4898110461
O  O111  1  0.00170000  0.89700000  0.46529000  1.0 -0.4705728463
O  O112  1  0.07800000  0.84560000  0.44850000  1.0 -0.5107869768
O  O113  1  0.03230000  0.22340000  0.42120000  1.0 -0.4898110461
O  O114  1  0.93150000  0.19200000  0.39970000  1.0 -0.5204420856
O  O115  1  0.56110000  0.50890000  0.52230000  1.0 -0.5282919152
O  O116  1  0.61560000  0.57560000  0.57409000  1.0 -0.5001481282
O  O117  1  0.12140000  0.05760000  0.41180000  1.0 -0.5001481282
O  O118  1  0.09020000  0.96400000  0.43288000  1.0 -0.5001481282
O  O119  1  0.45820000  0.50200000  0.39466000  1.0 -0.5996771923
O  O120  1  0.49240000  0.50960000  0.33940000  1.0 -0.3558461241
O  O121  1  0.65220000  0.12600000  0.37740000  1.0 -0.4705728463
O  O122  1  0.56780000  0.18890000  0.35090000  1.0 -0.4380415476
O  O123  1  0.26500000  0.81020000  0.88387000  1.0 0.1505553224
O  O124  1  0.42580000  0.91240000  0.94609000  1.0 -0.7158127151
O  O125  1  0.36240000  0.88560000  0.86105000  1.0 -0.4898110461
O  O126  1  0.87370000  0.09790000  0.33930000  1.0 0.1807400712
O  O127  1  0.02360000  0.08980000  0.44725000  1.0 -0.7470580659
O  O128  1  0.12400000  0.19270000  0.38430000  1.0 0.1996986621
O  O129  1  0.00870000  0.11330000  0.36277000  1.0 -0.5001481282
O  O130  1  0.16870000  0.34160000  0.02832000  1.0 -0.550242424
O  O131  1  0.26070000  0.28730000  0.04780000  1.0 -0.5001481282
O  O132  1  0.14140000  0.70010000  0.72420000  1.0 -0.4196366242
O  O133  1  0.21920000  0.67600000  0.69830000  1.0 -0.4705728463
O  O134  1  0.24910000  0.05610000  0.66750000  1.0 -0.5598653278
O  O135  1  0.18460000  0.00920000  0.69720000  1.0 -0.4041716478
O  O136  1  0.04420000  0.57490000  0.92672000  1.0 -0.4705728463
O  O137  1  0.04000000  0.50850000  0.97800000  1.0 -0.5204420856
O  O138  1  0.53520000  0.89580000  0.03464000  1.0 -0.4803112228
O  O139  1  0.62780000  0.84370000  0.05350000  1.0 -0.5107869768
O  O140  1  0.52540000  0.18940000  0.10090000  1.0 -0.5107869768
O  O141  1  0.60720000  0.22220000  0.08082000  1.0 -0.5107869768
O  O142  1  0.64890000  0.98970000  0.16170000  1.0 -0.3809004075
O  O143  1  0.56050000  0.99600000  0.10707000  1.0 -0.5795280508
O  O144  1  0.71670000  0.31130000  0.15310000  1.0 -0.4380415476
O  O145  1  0.76890000  0.37960000  0.12510000  1.0 -0.4898110461
O  O146  1  0.15180000  0.53730000  0.06840000  1.0 -0.5001481282
O  O147  1  0.20420000  0.44550000  0.09169000  1.0 -0.5204420856
O  O148  1  0.02630000  0.41410000  0.16174000  1.0 -0.4705728463
O  O149  1  0.92970000  0.45810000  0.14270000  1.0 -0.4803112228
O  O150  1  0.35530000  0.66060000  0.52623000  1.0 -0.550242424
O  O151  1  0.28440000  0.71360000  0.54750000  1.0 -0.4803112228
O  O152  1  0.06070000  0.08970000  0.25970000  1.0 -0.4196366242
O  O153  1  0.96980000  0.05400000  0.22100000  1.0 -0.4898110461
O  O154  1  0.49830000  0.39700000  0.53471000  1.0 -0.4705728463
O  O155  1  0.42200000  0.34560000  0.55150000  1.0 -0.5204420856
O  O156  1  0.46770000  0.72340000  0.57880000  1.0 -0.4898110461
O  O157  1  0.56850000  0.69200000  0.60030000  1.0 -0.5282919152
O  O158  1  0.93890000  0.00890000  0.47770000  1.0 -0.5282919152
O  O159  1  0.88440000  0.07560000  0.42591000  1.0 -0.5001481282
O  O160  1  0.37860000  0.55760000  0.58820000  1.0 -0.5001481282
O  O161  1  0.40980000  0.46400000  0.56712000  1.0 -0.5001481282
O  O162  1  0.04180000  0.00200000  0.60534000  1.0 -0.5996771923
O  O163  1  0.00760000  0.00960000  0.66060000  1.0 -0.3546602897
O  O164  1  0.84780000  0.62600000  0.62260000  1.0 -0.4705728463
O  O165  1  0.93220000  0.68890000  0.64910000  1.0 -0.4380415476
O  O166  1  0.23500000  0.31020000  0.11613000  1.0 0.1615944185
O  O167  1  0.07420000  0.41240000  0.05391000  1.0 -0.7158127151
O  O168  1  0.13760000  0.38560000  0.13895000  1.0 -0.4898110461
O  O169  1  0.62630000  0.59790000  0.66070000  1.0 0.1907138058
O  O170  1  0.47640000  0.58980000  0.55275000  1.0 -0.7470580659
O  O171  1  0.37600000  0.69270000  0.61570000  1.0 0.1996986621
O  O172  1  0.49130000  0.61330000  0.63723000  1.0 -0.5001481282
