# DDEC6 charges by PACMAN v1.1 (https://github.com/mtap-research/PACMAN-charge/)
data_XEDGIY_ASR_pacman
_symmetry_space_group_name_H-M   'P 1'
_cell_length_a   14.30600000
_cell_length_b   19.50900000
_cell_length_c   36.48200000
_cell_angle_alpha   90.00000000
_cell_angle_beta   99.62900000
_cell_angle_gamma   90.00000000
_symmetry_Int_Tables_number   1
_chemical_formula_structural   CdH14(C13O2)2
_chemical_formula_sum   'Cd12 H168 C312 O48'
_cell_volume   10038.52261037
_cell_formula_units_Z   12
loop_
 _symmetry_equiv_pos_site_id
 _symmetry_equiv_pos_as_xyz
  1  'x, y, z'
loop_
 _atom_site_type_symbol
 _atom_site_label
 _atom_site_symmetry_multiplicity
 _atom_site_fract_x
 _atom_site_fract_y
 _atom_site_fract_z
 _atom_site_occupancy
 _atom_site_charge
Cd  Cd1  1  0.31783000  0.48032000  0.80493000  1.0 0.9980133073
Cd  Cd2  1  0.31783000  0.01968000  0.30493000  1.0 0.9980133073
Cd  Cd3  1  0.55313000  0.50011000  0.83733000  1.0 1.0279908077
Cd  Cd4  1  0.55313000  0.99989000  0.33733000  1.0 1.0279908077
Cd  Cd5  1  0.81873000  0.94562000  0.33655000  1.0 1.095468481
Cd  Cd6  1  0.81873000  0.55438000  0.83655000  1.0 1.095468481
Cd  Cd7  1  0.68217000  0.98032000  0.69507000  1.0 0.9980133073
Cd  Cd8  1  0.68217000  0.51968000  0.19507000  1.0 0.9980133073
Cd  Cd9  1  0.44687000  0.00011000  0.66267000  1.0 1.0279908077
Cd  Cd10  1  0.44687000  0.49989000  0.16267000  1.0 1.0279908077
Cd  Cd11  1  0.18127000  0.44562000  0.16345000  1.0 1.0947882728
Cd  Cd12  1  0.18127000  0.05438000  0.66345000  1.0 1.095468481
H  H1  1  0.30440000  0.62690000  0.91120000  1.0 0.1268786212
H  H2  1  0.30440000  0.87310000  0.41120000  1.0 0.1268786212
H  H3  1  0.49380000  0.80140000  0.87490000  1.0 0.1197366664
H  H4  1  0.49380000  0.69860000  0.37490000  1.0 0.1197366664
H  H5  1  0.47600000  0.70010000  0.84320000  1.0 0.1268786212
H  H6  1  0.47600000  0.79990000  0.34320000  1.0 0.1268786212
H  H7  1  0.44450000  0.87800000  0.92350000  1.0 0.1197366664
H  H8  1  0.44450000  0.62200000  0.42350000  1.0 0.1197366664
H  H9  1  0.28590000  0.80070000  0.99600000  1.0 0.1123434958
H  H10  1  0.28590000  0.69930000  0.49600000  1.0 0.1123434958
H  H11  1  0.27360000  0.69770000  0.96480000  1.0 0.1197366664
H  H12  1  0.27360000  0.80230000  0.46480000  1.0 0.1197366664
H  H13  1  0.51280000  0.36550000  0.93280000  1.0 0.1197366664
H  H14  1  0.51280000  0.13450000  0.43280000  1.0 0.1197366664
H  H15  1  0.51260000  0.27860000  0.97480000  1.0 0.1197366664
H  H16  1  0.51260000  0.22140000  0.47480000  1.0 0.1197366664
H  H17  1  0.30820000  0.27300000  0.85960000  1.0 0.1197366664
H  H18  1  0.30820000  0.22700000  0.35960000  1.0 0.1268786212
H  H19  1  0.44890000  0.16430000  0.99090000  1.0 0.1197366664
H  H20  1  0.44890000  0.33570000  0.49090000  1.0 0.1197366664
H  H21  1  0.24780000  0.06960000  0.91670000  1.0 0.1123434958
H  H22  1  0.24780000  0.43040000  0.41670000  1.0 0.1123434958
H  H23  1  0.24320000  0.15940000  0.87640000  1.0 0.1197366664
H  H24  1  0.24320000  0.34060000  0.37640000  1.0 0.1197366664
H  H25  1  0.53550000  0.93860000  0.21070000  1.0 0.1268786212
H  H26  1  0.53550000  0.56140000  0.71070000  1.0 0.1268786212
H  H27  1  0.34160000  0.11510000  0.15330000  1.0 0.1197366664
H  H28  1  0.34160000  0.38490000  0.65330000  1.0 0.1197366664
H  H29  1  0.38020000  0.10800000  0.21810000  1.0 0.1268786212
H  H30  1  0.38020000  0.39200000  0.71810000  1.0 0.1268786212
H  H31  1  0.54540000  0.89120000  0.14840000  1.0 0.1197366664
H  H32  1  0.54540000  0.60880000  0.64840000  1.0 0.1197366664
H  H33  1  0.50460000  0.89660000  0.08430000  1.0 0.1006323939
H  H34  1  0.50460000  0.60340000  0.58430000  1.0 0.1006323939
H  H35  1  0.35440000  0.07090000  0.09050000  1.0 0.1123434958
H  H36  1  0.35440000  0.42910000  0.59050000  1.0 0.1123434958
H  H37  1  0.34300000  0.97730000  0.93580000  1.0 0.1123434958
H  H38  1  0.34300000  0.52270000  0.43580000  1.0 0.1123434958
H  H39  1  0.39450000  0.08650000  0.03130000  1.0 0.1123434958
H  H40  1  0.39450000  0.41350000  0.53130000  1.0 0.1123434958
H  H41  1  0.39250000  0.87900000  0.03450000  1.0 0.1123434958
H  H42  1  0.39250000  0.62100000  0.53450000  1.0 0.1123434958
H  H43  1  0.61940000  0.86400000  0.44700000  1.0 0.1197366664
H  H44  1  0.61940000  0.63600000  0.94700000  1.0 0.1197366664
H  H45  1  0.67180000  0.77070000  0.48500000  1.0 0.1197366664
H  H46  1  0.67180000  0.72930000  0.98500000  1.0 0.1197366664
H  H47  1  0.74750000  0.78960000  0.36490000  1.0 0.1197366664
H  H48  1  0.74750000  0.71040000  0.86490000  1.0 0.1197366664
H  H49  1  0.83640000  0.67930000  0.37450000  1.0 0.1197366664
H  H50  1  0.83640000  0.82070000  0.87450000  1.0 0.1197366664
H  H51  1  0.88580000  0.58570000  0.41150000  1.0 0.1123434958
H  H52  1  0.88580000  0.91430000  0.91150000  1.0 0.1123434958
H  H53  1  0.76360000  0.66220000  0.49410000  1.0 0.1123434958
H  H54  1  0.76360000  0.83780000  0.99410000  1.0 0.1123434958
H  H55  1  0.87180000  0.13340000  0.41200000  1.0 0.1197366664
H  H56  1  0.87180000  0.36660000  0.91200000  1.0 0.1197366664
H  H57  1  0.64080000  0.30100000  0.37790000  1.0 0.1197366664
H  H58  1  0.64080000  0.19900000  0.87790000  1.0 0.1197366664
H  H59  1  0.62590000  0.19460000  0.34980000  1.0 0.1268786212
H  H60  1  0.62590000  0.30540000  0.84980000  1.0 0.1268786212
H  H61  1  0.95890000  0.21030000  0.45960000  1.0 0.1197366664
H  H62  1  0.95890000  0.28970000  0.95960000  1.0 0.1197366664
H  H63  1  0.97020000  0.31390000  0.49070000  1.0 0.1197366664
H  H64  1  0.97020000  0.18610000  0.99070000  1.0 0.1197366664
H  H65  1  0.73200000  0.38120000  0.42430000  1.0 0.1197366664
H  H66  1  0.73200000  0.11880000  0.92430000  1.0 0.1197366664
H  H67  1  0.21980000  0.60120000  0.69020000  1.0 0.1197366664
H  H68  1  0.21980000  0.89880000  0.19020000  1.0 0.1197366664
H  H69  1  0.13560000  0.61830000  0.63120000  1.0 0.1123434958
H  H70  1  0.13560000  0.88170000  0.13120000  1.0 0.1123434958
H  H71  1  0.06300000  0.43130000  0.70300000  1.0 0.1197366664
H  H72  1  0.06300000  0.06870000  0.20300000  1.0 0.1197366664
H  H73  1  0.01050000  0.57840000  0.57910000  1.0 0.1123434958
H  H74  1  0.01050000  0.92160000  0.07910000  1.0 0.1123434958
H  H75  1  0.86490000  0.40520000  0.59070000  1.0 0.1197366664
H  H76  1  0.86490000  0.09480000  0.09070000  1.0 0.1197366664
H  H77  1  0.93920000  0.39520000  0.65190000  1.0 0.1197366664
H  H78  1  0.93920000  0.10480000  0.15190000  1.0 0.1197366664
H  H79  1  0.82270000  0.48660000  0.43430000  1.0 0.1197366664
H  H80  1  0.82270000  0.01340000  0.93430000  1.0 0.1197366664
H  H81  1  0.90450000  0.38890000  0.53180000  1.0 0.1123434958
H  H82  1  0.90450000  0.11110000  0.03180000  1.0 0.1123434958
H  H83  1  0.88640000  0.59450000  0.52920000  1.0 0.1123434958
H  H84  1  0.88640000  0.90550000  0.02920000  1.0 0.1123434958
H  H85  1  0.69560000  0.12690000  0.58880000  1.0 0.1268786212
H  H86  1  0.69560000  0.37310000  0.08880000  1.0 0.1268786212
H  H87  1  0.50620000  0.30140000  0.62510000  1.0 0.1197366664
H  H88  1  0.50620000  0.19860000  0.12510000  1.0 0.1197366664
H  H89  1  0.52400000  0.20010000  0.65680000  1.0 0.1268786212
H  H90  1  0.52400000  0.29990000  0.15680000  1.0 0.1268786212
H  H91  1  0.55550000  0.37800000  0.57650000  1.0 0.1197366664
H  H92  1  0.55550000  0.12200000  0.07650000  1.0 0.1197366664
H  H93  1  0.71410000  0.30070000  0.50400000  1.0 0.1123434958
H  H94  1  0.71410000  0.19930000  0.00400000  1.0 0.1123434958
H  H95  1  0.72640000  0.19770000  0.53520000  1.0 0.1197366664
H  H96  1  0.72640000  0.30230000  0.03520000  1.0 0.1197366664
H  H97  1  0.48720000  0.86550000  0.56720000  1.0 0.1197366664
H  H98  1  0.48720000  0.63450000  0.06720000  1.0 0.1197366664
H  H99  1  0.48740000  0.77860000  0.52520000  1.0 0.1197366664
H  H100  1  0.48740000  0.72140000  0.02520000  1.0 0.1197366664
H  H101  1  0.69180000  0.77300000  0.64040000  1.0 0.1268786212
H  H102  1  0.69180000  0.72700000  0.14040000  1.0 0.1268786212
H  H103  1  0.55110000  0.66430000  0.50910000  1.0 0.1197366664
H  H104  1  0.55110000  0.83570000  0.00910000  1.0 0.1197366664
H  H105  1  0.75220000  0.56960000  0.58330000  1.0 0.1123434958
H  H106  1  0.75220000  0.93040000  0.08330000  1.0 0.1123434958
H  H107  1  0.75680000  0.65940000  0.62360000  1.0 0.1197366664
H  H108  1  0.75680000  0.84060000  0.12360000  1.0 0.1197366664
H  H109  1  0.46450000  0.43860000  0.28930000  1.0 0.1268786212
H  H110  1  0.46450000  0.06140000  0.78930000  1.0 0.1268786212
H  H111  1  0.65840000  0.61510000  0.34670000  1.0 0.1197366664
H  H112  1  0.65840000  0.88490000  0.84670000  1.0 0.1197366664
H  H113  1  0.61980000  0.60800000  0.28190000  1.0 0.1268786212
H  H114  1  0.61980000  0.89200000  0.78190000  1.0 0.1268786212
H  H115  1  0.45460000  0.39120000  0.35160000  1.0 0.1197366664
H  H116  1  0.45460000  0.10880000  0.85160000  1.0 0.1197366664
H  H117  1  0.49540000  0.39660000  0.41570000  1.0 0.1006323939
H  H118  1  0.49540000  0.10340000  0.91570000  1.0 0.1006323939
H  H119  1  0.64560000  0.57090000  0.40950000  1.0 0.1123434958
H  H120  1  0.64560000  0.92910000  0.90950000  1.0 0.1123434958
H  H121  1  0.65700000  0.47730000  0.56420000  1.0 0.1123434958
H  H122  1  0.65700000  0.02270000  0.06420000  1.0 0.1123434958
H  H123  1  0.60550000  0.58650000  0.46870000  1.0 0.1123434958
H  H124  1  0.60550000  0.91350000  0.96870000  1.0 0.1123434958
H  H125  1  0.60750000  0.37900000  0.46550000  1.0 0.1123434958
H  H126  1  0.60750000  0.12100000  0.96550000  1.0 0.1123434958
H  H127  1  0.38060000  0.36400000  0.05300000  1.0 0.1197366664
H  H128  1  0.38060000  0.13600000  0.55300000  1.0 0.1197366664
H  H129  1  0.32820000  0.27070000  0.01500000  1.0 0.1197366664
H  H130  1  0.32820000  0.22930000  0.51500000  1.0 0.1197366664
H  H131  1  0.25250000  0.28960000  0.13510000  1.0 0.1197366664
H  H132  1  0.25250000  0.21040000  0.63510000  1.0 0.1197366664
H  H133  1  0.16360000  0.17930000  0.12550000  1.0 0.1197366664
H  H134  1  0.16360000  0.32070000  0.62550000  1.0 0.1197366664
H  H135  1  0.11420000  0.08570000  0.08850000  1.0 0.1123434958
H  H136  1  0.11420000  0.41430000  0.58850000  1.0 0.1123434958
H  H137  1  0.23640000  0.16220000  0.00590000  1.0 0.1123434958
H  H138  1  0.23640000  0.33780000  0.50590000  1.0 0.1123434958
H  H139  1  0.12820000  0.63340000  0.08800000  1.0 0.1197366664
H  H140  1  0.12820000  0.86660000  0.58800000  1.0 0.1197366664
H  H141  1  0.35920000  0.80100000  0.12210000  1.0 0.1197366664
H  H142  1  0.35920000  0.69900000  0.62210000  1.0 0.1197366664
H  H143  1  0.37410000  0.69460000  0.15020000  1.0 0.1268786212
H  H144  1  0.37410000  0.80540000  0.65020000  1.0 0.1268786212
H  H145  1  0.04110000  0.71030000  0.04040000  1.0 0.1197366664
H  H146  1  0.04110000  0.78970000  0.54040000  1.0 0.1197366664
H  H147  1  0.02980000  0.81390000  0.00930000  1.0 0.1197366664
H  H148  1  0.02980000  0.68610000  0.50930000  1.0 0.1197366664
H  H149  1  0.26800000  0.88120000  0.07570000  1.0 0.1197366664
H  H150  1  0.26800000  0.61880000  0.57570000  1.0 0.1197366664
H  H151  1  0.78020000  0.10120000  0.80980000  1.0 0.1197366664
H  H152  1  0.78020000  0.39880000  0.30980000  1.0 0.1197366664
H  H153  1  0.86440000  0.11830000  0.86880000  1.0 0.1123434958
H  H154  1  0.86440000  0.38170000  0.36880000  1.0 0.1123434958
H  H155  1  0.93700000  0.93130000  0.79700000  1.0 0.1197366664
H  H156  1  0.93700000  0.56870000  0.29700000  1.0 0.1197366664
H  H157  1  0.98950000  0.07840000  0.92090000  1.0 0.1123434958
H  H158  1  0.98950000  0.42160000  0.42090000  1.0 0.1123434958
H  H159  1  0.13510000  0.90520000  0.90930000  1.0 0.1197366664
H  H160  1  0.13510000  0.59480000  0.40930000  1.0 0.1197366664
H  H161  1  0.06080000  0.89520000  0.84810000  1.0 0.1197366664
H  H162  1  0.06080000  0.60480000  0.34810000  1.0 0.1197366664
H  H163  1  0.17730000  0.98660000  0.06570000  1.0 0.1197366664
H  H164  1  0.17730000  0.51340000  0.56570000  1.0 0.1197366664
H  H165  1  0.09550000  0.88890000  0.96820000  1.0 0.1123434958
H  H166  1  0.09550000  0.61110000  0.46820000  1.0 0.1123434958
H  H167  1  0.11360000  0.09450000  0.97080000  1.0 0.1123434958
H  H168  1  0.11360000  0.40550000  0.47080000  1.0 0.1123434958
C  C1  1  0.36640000  0.59060000  0.84990000  1.0 0.5855544404
C  C2  1  0.36640000  0.90940000  0.34990000  1.0 0.5855544404
C  C3  1  0.38400000  0.65400000  0.87364000  1.0 -0.0021633473
C  C4  1  0.38400000  0.84600000  0.37364000  1.0 -0.0021633473
C  C5  1  0.34140000  0.66320000  0.90381000  1.0 -0.1411143063
C  C6  1  0.34140000  0.83680000  0.40381000  1.0 -0.1411143063
C  C7  1  0.34990000  0.72490000  0.92470000  1.0 0.0625169286
C  C8  1  0.34990000  0.77510000  0.42470000  1.0 0.0625169286
C  C9  1  0.40420000  0.77850000  0.91312000  1.0 0.0814263314
C  C10  1  0.40420000  0.72150000  0.41312000  1.0 0.0814263314
C  C11  1  0.45380000  0.76680000  0.88212000  1.0 -0.150600447
C  C12  1  0.45380000  0.73320000  0.38212000  1.0 -0.150600447
C  C13  1  0.44330000  0.70710000  0.86351000  1.0 -0.0987236255
C  C14  1  0.44330000  0.79290000  0.36351000  1.0 -0.0987236255
C  C15  1  0.40960000  0.84140000  0.93180000  1.0 -0.2001423902
C  C16  1  0.40960000  0.65860000  0.43180000  1.0 -0.2001423902
C  C17  1  0.36490000  0.85110000  0.96208000  1.0 0.0685797128
C  C18  1  0.36490000  0.64890000  0.46208000  1.0 0.0685797128
C  C19  1  0.31490000  0.79540000  0.97452000  1.0 -0.1607024321
C  C20  1  0.31490000  0.70460000  0.47452000  1.0 -0.1607024321
C  C21  1  0.30780000  0.73430000  0.95613000  1.0 -0.1411143063
C  C22  1  0.30780000  0.76570000  0.45613000  1.0 -0.1411143063
C  C23  1  0.40790000  0.38640000  0.86491000  1.0 0.5980690316
C  C24  1  0.40790000  0.11360000  0.36491000  1.0 0.5980690316
C  C25  1  0.40920000  0.32790000  0.89131000  1.0 -0.024821167
C  C26  1  0.40920000  0.17210000  0.39131000  1.0 -0.024821167
C  C27  1  0.47070000  0.32810000  0.92669000  1.0 -0.0987236255
C  C28  1  0.47070000  0.17190000  0.42669000  1.0 -0.0987236255
C  C29  1  0.47070000  0.27680000  0.95172000  1.0 -0.1607024321
C  C30  1  0.47070000  0.22320000  0.45172000  1.0 -0.1607024321
C  C31  1  0.40840000  0.22050000  0.94345000  1.0 0.0814263314
C  C32  1  0.40840000  0.27950000  0.44345000  1.0 0.0814263314
C  C33  1  0.34630000  0.21830000  0.90827000  1.0 0.0685797128
C  C34  1  0.34630000  0.28170000  0.40827000  1.0 0.0685797128
C  C35  1  0.34930000  0.27380000  0.88297000  1.0 -0.150600447
C  C36  1  0.34930000  0.22620000  0.38297000  1.0 -0.150600447
C  C37  1  0.40900000  0.16340000  0.96731000  1.0 -0.2001423902
C  C38  1  0.40900000  0.33660000  0.46731000  1.0 -0.2001423902
C  C39  1  0.35390000  0.10640000  0.95749000  1.0 0.0625169286
C  C40  1  0.35390000  0.39360000  0.45749000  1.0 0.0625169286
C  C41  1  0.28930000  0.10730000  0.92298000  1.0 -0.150600447
C  C42  1  0.28930000  0.39270000  0.42298000  1.0 -0.150600447
C  C43  1  0.28600000  0.16040000  0.89932000  1.0 -0.1411143063
C  C44  1  0.28600000  0.33960000  0.39932000  1.0 -0.1411143063
C  C45  1  0.48860000  0.01820000  0.26191000  1.0 0.5855544404
C  C46  1  0.48860000  0.48180000  0.76191000  1.0 0.5855544404
C  C47  1  0.46330000  0.02300000  0.21928000  1.0 -0.0021633473
C  C48  1  0.46330000  0.47700000  0.71928000  1.0 -0.0021633473
C  C49  1  0.49670000  0.97420000  0.19878000  1.0 -0.1343263193
C  C50  1  0.49670000  0.52580000  0.69878000  1.0 -0.1343263193
C  C51  1  0.47380000  0.97570000  0.15897000  1.0 0.0685797128
C  C52  1  0.47380000  0.52430000  0.65897000  1.0 0.0685797128
C  C53  1  0.41540000  0.03010000  0.14271000  1.0 0.1006323939
C  C54  1  0.41540000  0.46990000  0.64271000  1.0 0.1006323939
C  C55  1  0.38100000  0.07910000  0.16454000  1.0 -0.1607024321
C  C56  1  0.38100000  0.42090000  0.66454000  1.0 -0.1607024321
C  C57  1  0.40440000  0.07510000  0.20294000  1.0 -0.0905002105
C  C58  1  0.40440000  0.42490000  0.70294000  1.0 -0.0905002105
C  C59  1  0.50610000  0.92740000  0.13730000  1.0 -0.1411143063
C  C60  1  0.50610000  0.57260000  0.63730000  1.0 -0.1411143063
C  C61  1  0.48150000  0.93090000  0.09899000  1.0 -0.150600447
C  C62  1  0.48150000  0.56910000  0.59899000  1.0 -0.150600447
C  C63  1  0.42390000  0.98310000  0.08102000  1.0 0.0685797128
C  C64  1  0.42390000  0.51690000  0.58102000  1.0 0.0685797128
C  C65  1  0.39150000  0.03410000  0.10208000  1.0 -0.2058049395
C  C66  1  0.39150000  0.46590000  0.60208000  1.0 -0.2058049395
C  C67  1  0.36980000  0.91910000  0.98177000  1.0 0.0814263314
C  C68  1  0.36980000  0.58090000  0.48177000  1.0 0.0814263314
C  C69  1  0.35740000  0.97910000  0.96215000  1.0 -0.2001423902
C  C70  1  0.35740000  0.52090000  0.46215000  1.0 -0.2001423902
C  C71  1  0.36550000  0.04340000  0.97998000  1.0 0.0814263314
C  C72  1  0.36550000  0.45660000  0.47998000  1.0 0.0814263314
C  C73  1  0.38750000  0.04370000  0.01864000  1.0 -0.2001423902
C  C74  1  0.38750000  0.45630000  0.51864000  1.0 -0.2001423902
C  C75  1  0.39970000  0.98310000  0.03963000  1.0 0.0908989788
C  C76  1  0.39970000  0.51690000  0.53963000  1.0 0.0908989788
C  C77  1  0.38810000  0.92070000  0.02086000  1.0 -0.2001423902
C  C78  1  0.38810000  0.57930000  0.52086000  1.0 -0.2001423902
C  C79  1  0.64910000  0.89790000  0.37961000  1.0 0.5749608473
C  C80  1  0.64910000  0.60210000  0.87961000  1.0 0.5754097299
C  C81  1  0.68230000  0.83620000  0.40236000  1.0 -0.024821167
C  C82  1  0.68230000  0.66380000  0.90236000  1.0 -0.026505313
C  C83  1  0.65750000  0.82970000  0.43832000  1.0 -0.0987236255
C  C84  1  0.65750000  0.67030000  0.93832000  1.0 -0.0987236255
C  C85  1  0.68800000  0.77420000  0.46085000  1.0 -0.1607024321
C  C86  1  0.68800000  0.72580000  0.96085000  1.0 -0.1607024321
C  C87  1  0.74350000  0.72280000  0.44761000  1.0 0.0814263314
C  C88  1  0.74350000  0.77720000  0.94761000  1.0 0.0814263314
C  C89  1  0.76420000  0.72810000  0.41122000  1.0 0.0685797128
C  C90  1  0.76420000  0.77190000  0.91122000  1.0 0.0685797128
C  C91  1  0.73280000  0.78590000  0.38931000  1.0 -0.150600447
C  C92  1  0.73280000  0.71410000  0.88931000  1.0 -0.150600447
C  C93  1  0.81960000  0.67590000  0.39857000  1.0 -0.150600447
C  C94  1  0.81960000  0.82410000  0.89857000  1.0 -0.150600447
C  C95  1  0.84950000  0.62050000  0.42065000  1.0 -0.150600447
C  C96  1  0.84950000  0.87950000  0.92065000  1.0 -0.150600447
C  C97  1  0.82740000  0.61440000  0.45632000  1.0 0.0685797128
C  C98  1  0.82740000  0.88560000  0.95632000  1.0 0.0685797128
C  C99  1  0.77670000  0.66540000  0.46950000  1.0 -0.2001423902
C  C100  1  0.77670000  0.83460000  0.96950000  1.0 -0.2001423902
C  C101  1  0.74320000  0.08660000  0.35795000  1.0 0.61056294
C  C102  1  0.74320000  0.41340000  0.85795000  1.0 0.61056294
C  C103  1  0.74900000  0.15410000  0.37750000  1.0 -0.026505313
C  C104  1  0.74900000  0.34590000  0.87750000  1.0 -0.026505313
C  C105  1  0.82520000  0.16790000  0.40537000  1.0 -0.1411143063
C  C106  1  0.82520000  0.33210000  0.90537000  1.0 -0.1411143063
C  C107  1  0.83580000  0.23060000  0.42406000  1.0 0.0625169286
C  C108  1  0.83580000  0.26940000  0.92406000  1.0 0.0625169286
C  C109  1  0.76730000  0.28180000  0.41360000  1.0 0.0814263314
C  C110  1  0.76730000  0.21820000  0.91360000  1.0 0.0814263314
C  C111  1  0.68790000  0.26700000  0.38509000  1.0 -0.1607024321
C  C112  1  0.68790000  0.23300000  0.88509000  1.0 -0.1607024321
C  C113  1  0.67970000  0.20420000  0.36819000  1.0 -0.0905002105
C  C114  1  0.67970000  0.29580000  0.86819000  1.0 -0.0905002105
C  C115  1  0.91180000  0.24430000  0.45265000  1.0 -0.150600447
C  C116  1  0.91180000  0.25570000  0.95265000  1.0 -0.150600447
C  C117  1  0.91910000  0.30640000  0.47081000  1.0 -0.1670211359
C  C118  1  0.91910000  0.19360000  0.97081000  1.0 -0.1670211359
C  C119  1  0.85180000  0.35950000  0.46052000  1.0 0.0625169286
C  C120  1  0.85180000  0.14050000  0.96052000  1.0 0.0625169286
C  C121  1  0.77740000  0.34630000  0.43192000  1.0 -0.2001423902
C  C122  1  0.77740000  0.15370000  0.93192000  1.0 -0.2001423902
C  C123  1  0.20890000  0.50550000  0.74048000  1.0 0.5396172599
C  C124  1  0.20890000  0.99450000  0.24048000  1.0 0.5396172599
C  C125  1  0.15090000  0.51490000  0.70283000  1.0 -0.0088282108
C  C126  1  0.15090000  0.98510000  0.20283000  1.0 -0.0088282108
C  C127  1  0.17070000  0.57010000  0.68064000  1.0 -0.1086417689
C  C128  1  0.17070000  0.92990000  0.18064000  1.0 -0.1086417689
C  C129  1  0.12110000  0.58030000  0.64547000  1.0 -0.1607024321
C  C130  1  0.12110000  0.91970000  0.14547000  1.0 -0.1607024321
C  C131  1  0.04760000  0.53360000  0.63042000  1.0 0.0814263314
C  C132  1  0.04760000  0.96640000  0.13042000  1.0 0.0814263314
C  C133  1  0.02600000  0.47790000  0.65280000  1.0 0.0625169286
C  C134  1  0.02600000  0.02210000  0.15280000  1.0 0.0625169286
C  C135  1  0.07730000  0.46880000  0.68831000  1.0 -0.1607024321
C  C136  1  0.07730000  0.03120000  0.18831000  1.0 -0.1607024321
C  C137  1  0.99870000  0.53980000  0.59344000  1.0 -0.2001423902
C  C138  1  0.99870000  0.96020000  0.09344000  1.0 -0.2001423902
C  C139  1  0.93540000  0.49190000  0.57812000  1.0 0.0625169286
C  C140  1  0.93540000  0.00810000  0.07812000  1.0 0.0625169286
C  C141  1  0.91180000  0.43770000  0.60071000  1.0 -0.1670211359
C  C142  1  0.91180000  0.06230000  0.10071000  1.0 -0.1670211359
C  C143  1  0.95640000  0.43170000  0.63711000  1.0 -0.150600447
C  C144  1  0.95640000  0.06830000  0.13711000  1.0 -0.150600447
C  C145  1  0.85120000  0.55010000  0.47851000  1.0 0.0908989788
C  C146  1  0.85120000  0.94990000  0.97851000  1.0 0.0908989788
C  C147  1  0.84210000  0.48770000  0.46052000  1.0 -0.1906651511
C  C148  1  0.84210000  0.01230000  0.96052000  1.0 -0.1906651511
C  C149  1  0.86090000  0.42610000  0.47981000  1.0 0.0814263314
C  C150  1  0.86090000  0.07390000  0.97981000  1.0 0.0814263314
C  C151  1  0.89050000  0.43020000  0.51818000  1.0 -0.2001423902
C  C152  1  0.89050000  0.06980000  0.01818000  1.0 -0.2001423902
C  C153  1  0.90040000  0.49210000  0.53737000  1.0 0.0814263314
C  C154  1  0.90040000  0.00790000  0.03737000  1.0 0.0814263314
C  C155  1  0.88030000  0.55150000  0.51681000  1.0 -0.2001423902
C  C156  1  0.88030000  0.94850000  0.01681000  1.0 -0.2001423902
C  C157  1  0.63360000  0.09060000  0.65010000  1.0 0.5855544404
C  C158  1  0.63360000  0.40940000  0.15010000  1.0 0.5855544404
C  C159  1  0.61600000  0.15400000  0.62636000  1.0 -0.0021633473
C  C160  1  0.61600000  0.34600000  0.12636000  1.0 -0.0021633473
C  C161  1  0.65860000  0.16320000  0.59619000  1.0 -0.1411143063
C  C162  1  0.65860000  0.33680000  0.09619000  1.0 -0.1411143063
C  C163  1  0.65010000  0.22490000  0.57530000  1.0 0.0625169286
C  C164  1  0.65010000  0.27510000  0.07530000  1.0 0.0625169286
C  C165  1  0.59580000  0.27850000  0.58688000  1.0 0.0814263314
C  C166  1  0.59580000  0.22150000  0.08688000  1.0 0.0814263314
C  C167  1  0.54620000  0.26680000  0.61788000  1.0 -0.150600447
C  C168  1  0.54620000  0.23320000  0.11788000  1.0 -0.150600447
C  C169  1  0.55670000  0.20710000  0.63649000  1.0 -0.0987236255
C  C170  1  0.55670000  0.29290000  0.13649000  1.0 -0.0987236255
C  C171  1  0.59040000  0.34140000  0.56820000  1.0 -0.2001423902
C  C172  1  0.59040000  0.15860000  0.06820000  1.0 -0.2001423902
C  C173  1  0.63510000  0.35110000  0.53792000  1.0 0.0685797128
C  C174  1  0.63510000  0.14890000  0.03792000  1.0 0.0685797128
C  C175  1  0.68510000  0.29540000  0.52548000  1.0 -0.1607024321
C  C176  1  0.68510000  0.20460000  0.02548000  1.0 -0.1607024321
C  C177  1  0.69220000  0.23430000  0.54387000  1.0 -0.1411143063
C  C178  1  0.69220000  0.26570000  0.04387000  1.0 -0.1411143063
C  C179  1  0.59210000  0.88640000  0.63509000  1.0 0.5980690316
C  C180  1  0.59210000  0.61360000  0.13509000  1.0 0.5980690316
C  C181  1  0.59080000  0.82790000  0.60869000  1.0 -0.024821167
C  C182  1  0.59080000  0.67210000  0.10869000  1.0 -0.024821167
C  C183  1  0.52930000  0.82810000  0.57331000  1.0 -0.0987236255
C  C184  1  0.52930000  0.67190000  0.07331000  1.0 -0.0987236255
C  C185  1  0.52930000  0.77680000  0.54828000  1.0 -0.1607024321
C  C186  1  0.52930000  0.72320000  0.04828000  1.0 -0.1607024321
C  C187  1  0.59160000  0.72050000  0.55655000  1.0 0.0814263314
C  C188  1  0.59160000  0.77950000  0.05655000  1.0 0.0814263314
C  C189  1  0.65370000  0.71830000  0.59173000  1.0 0.0685797128
C  C190  1  0.65370000  0.78170000  0.09173000  1.0 0.0685797128
C  C191  1  0.65070000  0.77380000  0.61703000  1.0 -0.150600447
C  C192  1  0.65070000  0.72620000  0.11703000  1.0 -0.150600447
C  C193  1  0.59100000  0.66340000  0.53269000  1.0 -0.2001423902
C  C194  1  0.59100000  0.83660000  0.03269000  1.0 -0.2001423902
C  C195  1  0.64610000  0.60640000  0.54251000  1.0 0.0625169286
C  C196  1  0.64610000  0.89360000  0.04251000  1.0 0.0625169286
C  C197  1  0.71070000  0.60730000  0.57702000  1.0 -0.150600447
C  C198  1  0.71070000  0.89270000  0.07702000  1.0 -0.150600447
C  C199  1  0.71400000  0.66040000  0.60068000  1.0 -0.1411143063
C  C200  1  0.71400000  0.83960000  0.10068000  1.0 -0.1411143063
C  C201  1  0.51140000  0.51820000  0.23809000  1.0 0.5855544404
C  C202  1  0.51140000  0.98180000  0.73809000  1.0 0.5855544404
C  C203  1  0.53670000  0.52300000  0.28072000  1.0 -0.0021633473
C  C204  1  0.53670000  0.97700000  0.78072000  1.0 -0.0021633473
C  C205  1  0.50330000  0.47420000  0.30122000  1.0 -0.1343263193
C  C206  1  0.50330000  0.02580000  0.80122000  1.0 -0.1343263193
C  C207  1  0.52620000  0.47570000  0.34103000  1.0 0.0685797128
C  C208  1  0.52620000  0.02430000  0.84103000  1.0 0.0685797128
C  C209  1  0.58460000  0.53010000  0.35729000  1.0 0.0908989788
C  C210  1  0.58460000  0.96990000  0.85729000  1.0 0.0908989788
C  C211  1  0.61900000  0.57910000  0.33546000  1.0 -0.1607024321
C  C212  1  0.61900000  0.92090000  0.83546000  1.0 -0.1607024321
C  C213  1  0.59560000  0.57510000  0.29706000  1.0 -0.0905002105
C  C214  1  0.59560000  0.92490000  0.79706000  1.0 -0.0905002105
C  C215  1  0.49390000  0.42740000  0.36270000  1.0 -0.1411143063
C  C216  1  0.49390000  0.07260000  0.86270000  1.0 -0.1411143063
C  C217  1  0.51850000  0.43090000  0.40101000  1.0 -0.150600447
C  C218  1  0.51850000  0.06910000  0.90101000  1.0 -0.150600447
C  C219  1  0.57610000  0.48310000  0.41898000  1.0 0.0685797128
C  C220  1  0.57610000  0.01690000  0.91898000  1.0 0.0685797128
C  C221  1  0.60850000  0.53410000  0.39792000  1.0 -0.2058049395
C  C222  1  0.60850000  0.96590000  0.89792000  1.0 -0.2058049395
C  C223  1  0.63020000  0.41910000  0.51823000  1.0 0.0814263314
C  C224  1  0.63020000  0.08090000  0.01823000  1.0 0.0814263314
C  C225  1  0.64260000  0.47910000  0.53785000  1.0 -0.2001423902
C  C226  1  0.64260000  0.02090000  0.03785000  1.0 -0.2001423902
C  C227  1  0.63450000  0.54340000  0.52002000  1.0 0.0814263314
C  C228  1  0.63450000  0.95660000  0.02002000  1.0 0.0814263314
C  C229  1  0.61250000  0.54370000  0.48136000  1.0 -0.2001423902
C  C230  1  0.61250000  0.95630000  0.98136000  1.0 -0.2001423902
C  C231  1  0.60030000  0.48310000  0.46037000  1.0 0.0908989788
C  C232  1  0.60030000  0.01690000  0.96037000  1.0 0.0908989788
C  C233  1  0.61190000  0.42070000  0.47914000  1.0 -0.2001423902
C  C234  1  0.61190000  0.07930000  0.97914000  1.0 -0.2001423902
C  C235  1  0.35090000  0.39790000  0.12039000  1.0 0.5749608473
C  C236  1  0.35090000  0.10210000  0.62039000  1.0 0.5754097299
C  C237  1  0.31770000  0.33620000  0.09764000  1.0 -0.026505313
C  C238  1  0.31770000  0.16380000  0.59764000  1.0 -0.026505313
C  C239  1  0.34250000  0.32970000  0.06168000  1.0 -0.0987236255
C  C240  1  0.34250000  0.17030000  0.56168000  1.0 -0.0987236255
C  C241  1  0.31200000  0.27420000  0.03915000  1.0 -0.1607024321
C  C242  1  0.31200000  0.22580000  0.53915000  1.0 -0.1607024321
C  C243  1  0.25650000  0.22280000  0.05239000  1.0 0.0814263314
C  C244  1  0.25650000  0.27720000  0.55239000  1.0 0.0814263314
C  C245  1  0.23580000  0.22810000  0.08878000  1.0 0.0685797128
C  C246  1  0.23580000  0.27190000  0.58878000  1.0 0.0685797128
C  C247  1  0.26720000  0.28590000  0.11069000  1.0 -0.150600447
C  C248  1  0.26720000  0.21410000  0.61069000  1.0 -0.150600447
C  C249  1  0.18040000  0.17590000  0.10143000  1.0 -0.150600447
C  C250  1  0.18040000  0.32410000  0.60143000  1.0 -0.150600447
C  C251  1  0.15050000  0.12050000  0.07935000  1.0 -0.150600447
C  C252  1  0.15050000  0.37950000  0.57935000  1.0 -0.150600447
C  C253  1  0.17260000  0.11440000  0.04368000  1.0 0.0685797128
C  C254  1  0.17260000  0.38560000  0.54368000  1.0 0.0685797128
C  C255  1  0.22330000  0.16540000  0.03050000  1.0 -0.2001423902
C  C256  1  0.22330000  0.33460000  0.53050000  1.0 -0.2001423902
C  C257  1  0.25680000  0.58660000  0.14205000  1.0 0.61056294
C  C258  1  0.25680000  0.91340000  0.64205000  1.0 0.61056294
C  C259  1  0.25100000  0.65410000  0.12250000  1.0 -0.026505313
C  C260  1  0.25100000  0.84590000  0.62250000  1.0 -0.026505313
C  C261  1  0.17480000  0.66790000  0.09463000  1.0 -0.1411143063
C  C262  1  0.17480000  0.83210000  0.59463000  1.0 -0.1411143063
C  C263  1  0.16420000  0.73060000  0.07594000  1.0 0.0625169286
C  C264  1  0.16420000  0.76940000  0.57594000  1.0 0.0625169286
C  C265  1  0.23270000  0.78180000  0.08640000  1.0 0.0814263314
C  C266  1  0.23270000  0.71820000  0.58640000  1.0 0.0814263314
C  C267  1  0.31210000  0.76700000  0.11491000  1.0 -0.1607024321
C  C268  1  0.31210000  0.73300000  0.61491000  1.0 -0.1607024321
C  C269  1  0.32030000  0.70420000  0.13181000  1.0 -0.0905002105
C  C270  1  0.32030000  0.79580000  0.63181000  1.0 -0.0905002105
C  C271  1  0.08820000  0.74430000  0.04735000  1.0 -0.150600447
C  C272  1  0.08820000  0.75570000  0.54735000  1.0 -0.150600447
C  C273  1  0.08090000  0.80640000  0.02919000  1.0 -0.1670211359
C  C274  1  0.08090000  0.69360000  0.52919000  1.0 -0.1670211359
C  C275  1  0.14820000  0.85950000  0.03948000  1.0 0.0625169286
C  C276  1  0.14820000  0.64050000  0.53948000  1.0 0.0625169286
C  C277  1  0.22260000  0.84630000  0.06808000  1.0 -0.2001423902
C  C278  1  0.22260000  0.65370000  0.56808000  1.0 -0.2001423902
C  C279  1  0.79110000  0.00550000  0.75952000  1.0 0.5396172599
C  C280  1  0.79110000  0.49450000  0.25952000  1.0 0.5396172599
C  C281  1  0.84910000  0.01490000  0.79717000  1.0 -0.0088282108
C  C282  1  0.84910000  0.48510000  0.29717000  1.0 -0.0088282108
C  C283  1  0.82930000  0.07010000  0.81936000  1.0 -0.1086417689
C  C284  1  0.82930000  0.42990000  0.31936000  1.0 -0.1086417689
C  C285  1  0.87890000  0.08030000  0.85453000  1.0 -0.1607024321
C  C286  1  0.87890000  0.41970000  0.35453000  1.0 -0.1607024321
C  C287  1  0.95240000  0.03360000  0.86958000  1.0 0.0814263314
C  C288  1  0.95240000  0.46640000  0.36958000  1.0 0.0814263314
C  C289  1  0.97400000  0.97790000  0.84720000  1.0 0.0625169286
C  C290  1  0.97400000  0.52210000  0.34720000  1.0 0.0625169286
C  C291  1  0.92270000  0.96880000  0.81169000  1.0 -0.1607024321
C  C292  1  0.92270000  0.53120000  0.31169000  1.0 -0.1607024321
C  C293  1  0.00130000  0.03980000  0.90656000  1.0 -0.2001423902
C  C294  1  0.00130000  0.46020000  0.40656000  1.0 -0.2001423902
C  C295  1  0.06460000  0.99190000  0.92188000  1.0 0.0625169286
C  C296  1  0.06460000  0.50810000  0.42188000  1.0 0.0625169286
C  C297  1  0.08820000  0.93770000  0.89929000  1.0 -0.1670211359
C  C298  1  0.08820000  0.56230000  0.39929000  1.0 -0.1670211359
C  C299  1  0.04360000  0.93170000  0.86289000  1.0 -0.150600447
C  C300  1  0.04360000  0.56830000  0.36289000  1.0 -0.150600447
C  C301  1  0.14880000  0.05010000  0.02149000  1.0 0.0908989788
C  C302  1  0.14880000  0.44990000  0.52149000  1.0 0.0908989788
C  C303  1  0.15790000  0.98770000  0.03948000  1.0 -0.1906651511
C  C304  1  0.15790000  0.51230000  0.53948000  1.0 -0.1906651511
C  C305  1  0.13910000  0.92610000  0.02019000  1.0 0.0814263314
C  C306  1  0.13910000  0.57390000  0.52019000  1.0 0.0814263314
C  C307  1  0.10950000  0.93020000  0.98182000  1.0 -0.2001423902
C  C308  1  0.10950000  0.56980000  0.48182000  1.0 -0.2001423902
C  C309  1  0.09960000  0.99210000  0.96263000  1.0 0.0814263314
C  C310  1  0.09960000  0.50790000  0.46263000  1.0 0.0814263314
C  C311  1  0.11970000  0.05150000  0.98319000  1.0 -0.2001423902
C  C312  1  0.11970000  0.44850000  0.48319000  1.0 -0.2001423902
O  O1  1  0.42240000  0.57580000  0.82807000  1.0 -0.5763852104
O  O2  1  0.42240000  0.92420000  0.32807000  1.0 -0.5763852104
O  O3  1  0.29280000  0.55500000  0.85180000  1.0 -0.5375545948
O  O4  1  0.29280000  0.94500000  0.35180000  1.0 -0.5375545948
O  O5  1  0.33640000  0.38810000  0.83884000  1.0 -0.5375545948
O  O6  1  0.33640000  0.11190000  0.33884000  1.0 -0.5375545948
O  O7  1  0.47380000  0.42920000  0.87010000  1.0 -0.5495980187
O  O8  1  0.47380000  0.07080000  0.37010000  1.0 -0.5495980187
O  O9  1  0.44680000  0.05640000  0.28135000  1.0 -0.5616003676
O  O10  1  0.44680000  0.44360000  0.78135000  1.0 -0.5616003676
O  O11  1  0.55340000  0.97570000  0.27564000  1.0 -0.5310217543
O  O12  1  0.55340000  0.52430000  0.77564000  1.0 -0.5310217543
O  O13  1  0.67440000  0.90605000  0.34826000  1.0 -0.6088164105
O  O14  1  0.67440000  0.59395000  0.84826000  1.0 -0.6088164105
O  O15  1  0.59490000  0.93971000  0.39185000  1.0 -0.5007427289
O  O16  1  0.59490000  0.56029000  0.89185000  1.0 -0.5007427289
O  O17  1  0.66666667  0.07710000  0.33428000  1.0 -0.5763852104
O  O18  1  0.66666667  0.42290000  0.83428000  1.0 -0.5763852104
O  O19  1  0.80990000  0.04480000  0.36476000  1.0 -0.5856392785
O  O20  1  0.80990000  0.45520000  0.86476000  1.0 -0.5856392785
O  O21  1  0.19050000  0.45330000  0.76019000  1.0 -0.5616003676
O  O22  1  0.19050000  0.04670000  0.26019000  1.0 -0.5616003676
O  O23  1  0.27210000  0.54700000  0.75181000  1.0 -0.519577901
O  O24  1  0.27210000  0.95300000  0.25181000  1.0 -0.519577901
O  O25  1  0.57760000  0.07580000  0.67193000  1.0 -0.5763852104
O  O26  1  0.57760000  0.42420000  0.17193000  1.0 -0.5763852104
O  O27  1  0.70720000  0.05500000  0.64820000  1.0 -0.5375545948
O  O28  1  0.70720000  0.44500000  0.14820000  1.0 -0.5375545948
O  O29  1  0.66360000  0.88810000  0.66116000  1.0 -0.5375545948
O  O30  1  0.66360000  0.61190000  0.16116000  1.0 -0.5375545948
O  O31  1  0.52620000  0.92920000  0.62990000  1.0 -0.5495980187
O  O32  1  0.52620000  0.57080000  0.12990000  1.0 -0.5495980187
O  O33  1  0.55320000  0.55640000  0.21865000  1.0 -0.5616003676
O  O34  1  0.55320000  0.94360000  0.71865000  1.0 -0.5616003676
O  O35  1  0.44660000  0.47570000  0.22436000  1.0 -0.5310217543
O  O36  1  0.44660000  0.02430000  0.72436000  1.0 -0.5310217543
O  O37  1  0.32560000  0.40605000  0.15174000  1.0 -0.6088164105
O  O38  1  0.32560000  0.09395000  0.65174000  1.0 -0.6088164105
O  O39  1  0.40510000  0.43971000  0.10815000  1.0 -0.5007427289
O  O40  1  0.40510000  0.06029000  0.60815000  1.0 -0.5007427289
O  O41  1  0.33333333  0.57710000  0.16572000  1.0 -0.5763852104
O  O42  1  0.33333333  0.92290000  0.66572000  1.0 -0.5763852104
O  O43  1  0.19010000  0.54480000  0.13524000  1.0 -0.5856392785
O  O44  1  0.19010000  0.95520000  0.63524000  1.0 -0.5856392785
O  O45  1  0.80950000  0.95330000  0.73981000  1.0 -0.5616003676
O  O46  1  0.80950000  0.54670000  0.23981000  1.0 -0.5616003676
O  O47  1  0.72790000  0.04700000  0.74819000  1.0 -0.519577901
O  O48  1  0.72790000  0.45300000  0.24819000  1.0 -0.519577901
