# DDEC6 charges by PACMAN v1.1 (https://github.com/mtap-research/PACMAN-charge/)
data_XEDPUT_FSR_pacman
_symmetry_space_group_name_H-M   'P 1'
_cell_length_a   25.15280000
_cell_length_b   25.15280000
_cell_length_c   25.15280000
_cell_angle_alpha   109.47100000
_cell_angle_beta   109.47100000
_cell_angle_gamma   109.47100000
_symmetry_Int_Tables_number   1
_chemical_formula_structural   Zn12H42C75(N24O13)2
_chemical_formula_sum   'Zn48 H168 C300 N192 O104'
_cell_volume   12250.12921215
_cell_formula_units_Z   4
loop_
 _symmetry_equiv_pos_site_id
 _symmetry_equiv_pos_as_xyz
  1  'x, y, z'
loop_
 _atom_site_type_symbol
 _atom_site_label
 _atom_site_symmetry_multiplicity
 _atom_site_fract_x
 _atom_site_fract_y
 _atom_site_fract_z
 _atom_site_occupancy
 _atom_site_charge
Zn  Zn1  1  0.50000000  0.35398000  0.64602000  1.0 0.6746211869
Zn  Zn2  1  0.50000000  0.14602000  0.85398000  1.0 0.6746211869
Zn  Zn3  1  0.70796000  0.85398000  0.35398000  1.0 0.6746211869
Zn  Zn4  1  0.29204000  0.64602000  0.14602000  1.0 0.6746211869
Zn  Zn5  1  0.35398000  0.70796000  0.85398000  1.0 0.6746211869
Zn  Zn6  1  0.14602000  0.29204000  0.64602000  1.0 0.6746211869
Zn  Zn7  1  0.85398000  0.50000000  0.14602000  1.0 0.6746211869
Zn  Zn8  1  0.64602000  0.50000000  0.35398000  1.0 0.6746211869
Zn  Zn9  1  0.35398000  0.64602000  0.50000000  1.0 0.6746211869
Zn  Zn10  1  0.14602000  0.85398000  0.50000000  1.0 0.6746211869
Zn  Zn11  1  0.64602000  0.14602000  0.29204000  1.0 0.6746211869
Zn  Zn12  1  0.85398000  0.35398000  0.70796000  1.0 0.6746211869
Zn  Zn13  1  0.50000000  0.64602000  0.35398000  1.0 0.6746211869
Zn  Zn14  1  0.50000000  0.85398000  0.14602000  1.0 0.6746211869
Zn  Zn15  1  0.29204000  0.14602000  0.64602000  1.0 0.6746211869
Zn  Zn16  1  0.70796000  0.35398000  0.85398000  1.0 0.6746211869
Zn  Zn17  1  0.64602000  0.29204000  0.14602000  1.0 0.6746211869
Zn  Zn18  1  0.85398000  0.70796000  0.35398000  1.0 0.6746211869
Zn  Zn19  1  0.14602000  0.50000000  0.85398000  1.0 0.6746211869
Zn  Zn20  1  0.35398000  0.50000000  0.64602000  1.0 0.6746211869
Zn  Zn21  1  0.64602000  0.35398000  0.50000000  1.0 0.6746211869
Zn  Zn22  1  0.85398000  0.14602000  0.50000000  1.0 0.6746211869
Zn  Zn23  1  0.35398000  0.85398000  0.70796000  1.0 0.6746211869
Zn  Zn24  1  0.14602000  0.64602000  0.29204000  1.0 0.6746211869
Zn  Zn25  1  0.70740000  0.62224000  0.70740000  1.0 0.1123908665
Zn  Zn26  1  0.29260000  0.00000000  0.91484000  1.0 0.1123908665
Zn  Zn27  1  0.91484000  0.00000000  0.29260000  1.0 0.1123908665
Zn  Zn28  1  0.08516000  0.37776000  0.08516000  1.0 0.1123908665
Zn  Zn29  1  0.62224000  0.91484000  0.91484000  1.0 0.1123908665
Zn  Zn30  1  0.00000000  0.08516000  0.70740000  1.0 0.1123908665
Zn  Zn31  1  0.00000000  0.70740000  0.08516000  1.0 0.1123908665
Zn  Zn32  1  0.37776000  0.29260000  0.29260000  1.0 0.1123908665
Zn  Zn33  1  0.62224000  0.70740000  0.70740000  1.0 0.1123908665
Zn  Zn34  1  0.00000000  0.91484000  0.29260000  1.0 0.1123908665
Zn  Zn35  1  0.37776000  0.08516000  0.08516000  1.0 0.1123908665
Zn  Zn36  1  0.00000000  0.29260000  0.91484000  1.0 0.1123908665
Zn  Zn37  1  0.70740000  0.00000000  0.08516000  1.0 0.1123908665
Zn  Zn38  1  0.29260000  0.37776000  0.29260000  1.0 0.1123908665
Zn  Zn39  1  0.91484000  0.62224000  0.91484000  1.0 0.1123908665
Zn  Zn40  1  0.08516000  0.00000000  0.70740000  1.0 0.1123908665
Zn  Zn41  1  0.70740000  0.70740000  0.62224000  1.0 0.1123908665
Zn  Zn42  1  0.91484000  0.29260000  0.00000000  1.0 0.1123908665
Zn  Zn43  1  0.08516000  0.08516000  0.37776000  1.0 0.1123908665
Zn  Zn44  1  0.29260000  0.91484000  0.00000000  1.0 0.1123908665
Zn  Zn45  1  0.29260000  0.29260000  0.37776000  1.0 0.1123908665
Zn  Zn46  1  0.70740000  0.08516000  0.00000000  1.0 0.1123908665
Zn  Zn47  1  0.08516000  0.70740000  0.00000000  1.0 0.1123908665
Zn  Zn48  1  0.91484000  0.91484000  0.62224000  1.0 0.1123908665
H  H1  1  0.40340000  0.20690000  0.52570000  1.0 0.1218601687
H  H2  1  0.59660000  0.12230000  0.80350000  1.0 0.1218601687
H  H3  1  0.68120000  0.87770000  0.47430000  1.0 0.1218601687
H  H4  1  0.31880000  0.79310000  0.19650000  1.0 0.1218601687
H  H5  1  0.20690000  0.68120000  0.80350000  1.0 0.1218601687
H  H6  1  0.12230000  0.31880000  0.52570000  1.0 0.1218601687
H  H7  1  0.87770000  0.40340000  0.19650000  1.0 0.1218601687
H  H8  1  0.79310000  0.59660000  0.47430000  1.0 0.1218601687
H  H9  1  0.20690000  0.52570000  0.40340000  1.0 0.1218601687
H  H10  1  0.12230000  0.80350000  0.59660000  1.0 0.1218601687
H  H11  1  0.79310000  0.19650000  0.31880000  1.0 0.1218601687
H  H12  1  0.87770000  0.47430000  0.68120000  1.0 0.1218601687
H  H13  1  0.52570000  0.12230000  0.31880000  1.0 0.1218601687
H  H14  1  0.47430000  0.79310000  0.59660000  1.0 0.1218601687
H  H15  1  0.80350000  0.20690000  0.68120000  1.0 0.1218601687
H  H16  1  0.19650000  0.87770000  0.40340000  1.0 0.1218601687
H  H17  1  0.52570000  0.40340000  0.20690000  1.0 0.1218601687
H  H18  1  0.80350000  0.59660000  0.12230000  1.0 0.1218601687
H  H19  1  0.19650000  0.31880000  0.79310000  1.0 0.1218601687
H  H20  1  0.47430000  0.68120000  0.87770000  1.0 0.1218601687
H  H21  1  0.59660000  0.47430000  0.79310000  1.0 0.1218601687
H  H22  1  0.40340000  0.19650000  0.87770000  1.0 0.1218601687
H  H23  1  0.31880000  0.52570000  0.12230000  1.0 0.1218601687
H  H24  1  0.68120000  0.80350000  0.20690000  1.0 0.1218601687
H  H25  1  0.59660000  0.79310000  0.47430000  1.0 0.1218601687
H  H26  1  0.40340000  0.87770000  0.19650000  1.0 0.1218601687
H  H27  1  0.31880000  0.12230000  0.52570000  1.0 0.1218601687
H  H28  1  0.68120000  0.20690000  0.80350000  1.0 0.1218601687
H  H29  1  0.79310000  0.31880000  0.19650000  1.0 0.1218601687
H  H30  1  0.87770000  0.68120000  0.47430000  1.0 0.1218601687
H  H31  1  0.12230000  0.59660000  0.80350000  1.0 0.1218601687
H  H32  1  0.20690000  0.40340000  0.52570000  1.0 0.1218601687
H  H33  1  0.79310000  0.47430000  0.59660000  1.0 0.1218601687
H  H34  1  0.87770000  0.19650000  0.40340000  1.0 0.1218601687
H  H35  1  0.20690000  0.80350000  0.68120000  1.0 0.1218601687
H  H36  1  0.12230000  0.52570000  0.31880000  1.0 0.1218601687
H  H37  1  0.47430000  0.87770000  0.68120000  1.0 0.1218601687
H  H38  1  0.52570000  0.20690000  0.40340000  1.0 0.1218601687
H  H39  1  0.19650000  0.79310000  0.31880000  1.0 0.1218601687
H  H40  1  0.80350000  0.12230000  0.59660000  1.0 0.1218601687
H  H41  1  0.47430000  0.59660000  0.79310000  1.0 0.1218601687
H  H42  1  0.19650000  0.40340000  0.87770000  1.0 0.1218601687
H  H43  1  0.80350000  0.68120000  0.20690000  1.0 0.1218601687
H  H44  1  0.52570000  0.31880000  0.12230000  1.0 0.1218601687
H  H45  1  0.40340000  0.52570000  0.20690000  1.0 0.1218601687
H  H46  1  0.59660000  0.80350000  0.12230000  1.0 0.1218601687
H  H47  1  0.68120000  0.47430000  0.87770000  1.0 0.1218601687
H  H48  1  0.31880000  0.19650000  0.79310000  1.0 0.1218601687
H  H49  1  0.39630000  0.39630000  0.65180000  1.0 0.0974509499
H  H50  1  0.60370000  0.25550000  0.00000000  1.0 0.0974509499
H  H51  1  0.74450000  0.74450000  0.34820000  1.0 0.0974509499
H  H52  1  0.25550000  0.60370000  0.00000000  1.0 0.0974509499
H  H53  1  0.39630000  0.74450000  0.00000000  1.0 0.0974509499
H  H54  1  0.25550000  0.25550000  0.65180000  1.0 0.0974509499
H  H55  1  0.74450000  0.39630000  0.00000000  1.0 0.0974509499
H  H56  1  0.60370000  0.60370000  0.34820000  1.0 0.0974509499
H  H57  1  0.39630000  0.65180000  0.39630000  1.0 0.0974509499
H  H58  1  0.25550000  0.00000000  0.60370000  1.0 0.0974509499
H  H59  1  0.60370000  0.00000000  0.25550000  1.0 0.0974509499
H  H60  1  0.74450000  0.34820000  0.74450000  1.0 0.0974509499
H  H61  1  0.65180000  0.25550000  0.25550000  1.0 0.0974509499
H  H62  1  0.34820000  0.60370000  0.60370000  1.0 0.0974509499
H  H63  1  0.00000000  0.39630000  0.74450000  1.0 0.0974509499
H  H64  1  0.00000000  0.74450000  0.39630000  1.0 0.0974509499
H  H65  1  0.65180000  0.39630000  0.39630000  1.0 0.0974509499
H  H66  1  0.00000000  0.60370000  0.25550000  1.0 0.0974509499
H  H67  1  0.00000000  0.25550000  0.60370000  1.0 0.0974509499
H  H68  1  0.34820000  0.74450000  0.74450000  1.0 0.0974509499
H  H69  1  0.60370000  0.34820000  0.60370000  1.0 0.0974509499
H  H70  1  0.39630000  0.00000000  0.74450000  1.0 0.0974509499
H  H71  1  0.25550000  0.65180000  0.25550000  1.0 0.0974509499
H  H72  1  0.74450000  0.00000000  0.39630000  1.0 0.0974509499
H  H73  1  0.60730000  0.49480000  0.68290000  1.0 0.1123908665
H  H74  1  0.39270000  0.07560000  0.88750000  1.0 0.1123908665
H  H75  1  0.81190000  0.92440000  0.31710000  1.0 0.1123908665
H  H76  1  0.18810000  0.50520000  0.11250000  1.0 0.1123908665
H  H77  1  0.49480000  0.81190000  0.88750000  1.0 0.1123908665
H  H78  1  0.07560000  0.18810000  0.68290000  1.0 0.1123908665
H  H79  1  0.92440000  0.60730000  0.11250000  1.0 0.1123908665
H  H80  1  0.50520000  0.39270000  0.31710000  1.0 0.1123908665
H  H81  1  0.49480000  0.68290000  0.60730000  1.0 0.1123908665
H  H82  1  0.07560000  0.88750000  0.39270000  1.0 0.1123908665
H  H83  1  0.50520000  0.11250000  0.18810000  1.0 0.1123908665
H  H84  1  0.92440000  0.31710000  0.81190000  1.0 0.1123908665
H  H85  1  0.68290000  0.07560000  0.18810000  1.0 0.1123908665
H  H86  1  0.31710000  0.50520000  0.39270000  1.0 0.1123908665
H  H87  1  0.88750000  0.49480000  0.81190000  1.0 0.1123908665
H  H88  1  0.11250000  0.92440000  0.60730000  1.0 0.1123908665
H  H89  1  0.68290000  0.60730000  0.49480000  1.0 0.1123908665
H  H90  1  0.88750000  0.39270000  0.07560000  1.0 0.1123908665
H  H91  1  0.11250000  0.18810000  0.50520000  1.0 0.1123908665
H  H92  1  0.31710000  0.81190000  0.92440000  1.0 0.1123908665
H  H93  1  0.39270000  0.31710000  0.50520000  1.0 0.1123908665
H  H94  1  0.60730000  0.11250000  0.92440000  1.0 0.1123908665
H  H95  1  0.18810000  0.68290000  0.07560000  1.0 0.1123908665
H  H96  1  0.81190000  0.88750000  0.49480000  1.0 0.1123908665
H  H97  1  0.39270000  0.50520000  0.31710000  1.0 0.1123908665
H  H98  1  0.60730000  0.92440000  0.11250000  1.0 0.1123908665
H  H99  1  0.18810000  0.07560000  0.68290000  1.0 0.1123908665
H  H100  1  0.81190000  0.49480000  0.88750000  1.0 0.1123908665
H  H101  1  0.50520000  0.18810000  0.11250000  1.0 0.1123908665
H  H102  1  0.92440000  0.81190000  0.31710000  1.0 0.1123908665
H  H103  1  0.07560000  0.39270000  0.88750000  1.0 0.1123908665
H  H104  1  0.49480000  0.60730000  0.68290000  1.0 0.1123908665
H  H105  1  0.50520000  0.31710000  0.39270000  1.0 0.1123908665
H  H106  1  0.92440000  0.11250000  0.60730000  1.0 0.1123908665
H  H107  1  0.49480000  0.88750000  0.81190000  1.0 0.1123908665
H  H108  1  0.07560000  0.68290000  0.18810000  1.0 0.1123908665
H  H109  1  0.31710000  0.92440000  0.81190000  1.0 0.1123908665
H  H110  1  0.68290000  0.49480000  0.60730000  1.0 0.1123908665
H  H111  1  0.11250000  0.50520000  0.18810000  1.0 0.1123908665
H  H112  1  0.88750000  0.07560000  0.39270000  1.0 0.1123908665
H  H113  1  0.31710000  0.39270000  0.50520000  1.0 0.1123908665
H  H114  1  0.11250000  0.60730000  0.92440000  1.0 0.1123908665
H  H115  1  0.88750000  0.81190000  0.49480000  1.0 0.1123908665
H  H116  1  0.68290000  0.18810000  0.07560000  1.0 0.1123908665
H  H117  1  0.60730000  0.68290000  0.49480000  1.0 0.1123908665
H  H118  1  0.39270000  0.88750000  0.07560000  1.0 0.1123908665
H  H119  1  0.81190000  0.31710000  0.92440000  1.0 0.1123908665
H  H120  1  0.18810000  0.11250000  0.50520000  1.0 0.1123908665
H  H121  1  0.65210000  0.59620000  0.69870000  1.0 0.066242384
H  H122  1  0.34790000  0.04660000  0.94410000  1.0 0.066242384
H  H123  1  0.89750000  0.95340000  0.30130000  1.0 0.066242384
H  H124  1  0.10250000  0.40380000  0.05590000  1.0 0.066242384
H  H125  1  0.59620000  0.89750000  0.94410000  1.0 0.066242384
H  H126  1  0.04660000  0.10250000  0.69870000  1.0 0.066242384
H  H127  1  0.95340000  0.65210000  0.05590000  1.0 0.066242384
H  H128  1  0.40380000  0.34790000  0.30130000  1.0 0.066242384
H  H129  1  0.59620000  0.69870000  0.65210000  1.0 0.066242384
H  H130  1  0.04660000  0.94410000  0.34790000  1.0 0.066242384
H  H131  1  0.40380000  0.05590000  0.10250000  1.0 0.066242384
H  H132  1  0.95340000  0.30130000  0.89750000  1.0 0.066242384
H  H133  1  0.69870000  0.04660000  0.10250000  1.0 0.066242384
H  H134  1  0.30130000  0.40380000  0.34790000  1.0 0.066242384
H  H135  1  0.94410000  0.59620000  0.89750000  1.0 0.066242384
H  H136  1  0.05590000  0.95340000  0.65210000  1.0 0.066242384
H  H137  1  0.69870000  0.65210000  0.59620000  1.0 0.066242384
H  H138  1  0.94410000  0.34790000  0.04660000  1.0 0.066242384
H  H139  1  0.05590000  0.10250000  0.40380000  1.0 0.066242384
H  H140  1  0.30130000  0.89750000  0.95340000  1.0 0.066242384
H  H141  1  0.34790000  0.30130000  0.40380000  1.0 0.066242384
H  H142  1  0.65210000  0.05590000  0.95340000  1.0 0.066242384
H  H143  1  0.10250000  0.69870000  0.04660000  1.0 0.066242384
H  H144  1  0.89750000  0.94410000  0.59620000  1.0 0.066242384
H  H145  1  0.34790000  0.40380000  0.30130000  1.0 0.066242384
H  H146  1  0.65210000  0.95340000  0.05590000  1.0 0.066242384
H  H147  1  0.10250000  0.04660000  0.69870000  1.0 0.066242384
H  H148  1  0.89750000  0.59620000  0.94410000  1.0 0.066242384
H  H149  1  0.40380000  0.10250000  0.05590000  1.0 0.066242384
H  H150  1  0.95340000  0.89750000  0.30130000  1.0 0.066242384
H  H151  1  0.04660000  0.34790000  0.94410000  1.0 0.066242384
H  H152  1  0.59620000  0.65210000  0.69870000  1.0 0.066242384
H  H153  1  0.40380000  0.30130000  0.34790000  1.0 0.066242384
H  H154  1  0.95340000  0.05590000  0.65210000  1.0 0.066242384
H  H155  1  0.59620000  0.94410000  0.89750000  1.0 0.066242384
H  H156  1  0.04660000  0.69870000  0.10250000  1.0 0.066242384
H  H157  1  0.30130000  0.95340000  0.89750000  1.0 0.066242384
H  H158  1  0.69870000  0.59620000  0.65210000  1.0 0.066242384
H  H159  1  0.05590000  0.40380000  0.10250000  1.0 0.066242384
H  H160  1  0.94410000  0.04660000  0.34790000  1.0 0.066242384
H  H161  1  0.30130000  0.34790000  0.40380000  1.0 0.066242384
H  H162  1  0.05590000  0.65210000  0.95340000  1.0 0.066242384
H  H163  1  0.94410000  0.89750000  0.59620000  1.0 0.066242384
H  H164  1  0.69870000  0.10250000  0.04660000  1.0 0.066242384
H  H165  1  0.65210000  0.69870000  0.59620000  1.0 0.066242384
H  H166  1  0.34790000  0.94410000  0.04660000  1.0 0.066242384
H  H167  1  0.89750000  0.30130000  0.95340000  1.0 0.066242384
H  H168  1  0.10250000  0.05590000  0.40380000  1.0 0.066242384
C  C1  1  0.39190000  0.25510000  0.64700000  1.0 0.2483050137
C  C2  1  0.60810000  0.25510000  0.86320000  1.0 0.2483050137
C  C3  1  0.60810000  0.74490000  0.35300000  1.0 0.2483050137
C  C4  1  0.39190000  0.74490000  0.13680000  1.0 0.2483050137
C  C5  1  0.25510000  0.60810000  0.86320000  1.0 0.2483050137
C  C6  1  0.25510000  0.39190000  0.64700000  1.0 0.2483050137
C  C7  1  0.74490000  0.39190000  0.13680000  1.0 0.2483050137
C  C8  1  0.74490000  0.60810000  0.35300000  1.0 0.2483050137
C  C9  1  0.25510000  0.64700000  0.39190000  1.0 0.2483050137
C  C10  1  0.25510000  0.86320000  0.60810000  1.0 0.2483050137
C  C11  1  0.74490000  0.13680000  0.39190000  1.0 0.2483050137
C  C12  1  0.74490000  0.35300000  0.60810000  1.0 0.2483050137
C  C13  1  0.64700000  0.25510000  0.39190000  1.0 0.2483050137
C  C14  1  0.35300000  0.74490000  0.60810000  1.0 0.2483050137
C  C15  1  0.86320000  0.25510000  0.60810000  1.0 0.2483050137
C  C16  1  0.13680000  0.74490000  0.39190000  1.0 0.2483050137
C  C17  1  0.64700000  0.39190000  0.25510000  1.0 0.2483050137
C  C18  1  0.86320000  0.60810000  0.25510000  1.0 0.2483050137
C  C19  1  0.13680000  0.39190000  0.74490000  1.0 0.2483050137
C  C20  1  0.35300000  0.60810000  0.74490000  1.0 0.2483050137
C  C21  1  0.60810000  0.35300000  0.74490000  1.0 0.2483050137
C  C22  1  0.39190000  0.13680000  0.74490000  1.0 0.2483050137
C  C23  1  0.39190000  0.64700000  0.25510000  1.0 0.2483050137
C  C24  1  0.60810000  0.86320000  0.25510000  1.0 0.2483050137
C  C25  1  0.39290000  0.21310000  0.55860000  1.0 -0.0212056949
C  C26  1  0.60710000  0.16570000  0.82020000  1.0 -0.0212056949
C  C27  1  0.65450000  0.83430000  0.44140000  1.0 -0.0212056949
C  C28  1  0.34550000  0.78690000  0.17980000  1.0 -0.0212056949
C  C29  1  0.21310000  0.65450000  0.82020000  1.0 -0.0212056949
C  C30  1  0.16570000  0.34550000  0.55860000  1.0 -0.0212056949
C  C31  1  0.83430000  0.39290000  0.17980000  1.0 -0.0212056949
C  C32  1  0.78690000  0.60710000  0.44140000  1.0 -0.0212056949
C  C33  1  0.21310000  0.55860000  0.39290000  1.0 -0.0212056949
C  C34  1  0.16570000  0.82020000  0.60710000  1.0 -0.0212056949
C  C35  1  0.78690000  0.17980000  0.34550000  1.0 -0.0212056949
C  C36  1  0.83430000  0.44140000  0.65450000  1.0 -0.0212056949
C  C37  1  0.55860000  0.16570000  0.34550000  1.0 -0.0212056949
C  C38  1  0.44140000  0.78690000  0.60710000  1.0 -0.0212056949
C  C39  1  0.82020000  0.21310000  0.65450000  1.0 -0.0212056949
C  C40  1  0.17980000  0.83430000  0.39290000  1.0 -0.0212056949
C  C41  1  0.55860000  0.39290000  0.21310000  1.0 -0.0212056949
C  C42  1  0.82020000  0.60710000  0.16570000  1.0 -0.0212056949
C  C43  1  0.17980000  0.34550000  0.78690000  1.0 -0.0212056949
C  C44  1  0.44140000  0.65450000  0.83430000  1.0 -0.0212056949
C  C45  1  0.60710000  0.44140000  0.78690000  1.0 -0.0212056949
C  C46  1  0.39290000  0.17980000  0.83430000  1.0 -0.0212056949
C  C47  1  0.34550000  0.55860000  0.16570000  1.0 -0.0212056949
C  C48  1  0.65450000  0.82020000  0.21310000  1.0 -0.0212056949
C  C49  1  0.60710000  0.78690000  0.44140000  1.0 -0.0212056949
C  C50  1  0.39290000  0.83430000  0.17980000  1.0 -0.0212056949
C  C51  1  0.34550000  0.16570000  0.55860000  1.0 -0.0212056949
C  C52  1  0.65450000  0.21310000  0.82020000  1.0 -0.0212056949
C  C53  1  0.78690000  0.34550000  0.17980000  1.0 -0.0212056949
C  C54  1  0.83430000  0.65450000  0.44140000  1.0 -0.0212056949
C  C55  1  0.16570000  0.60710000  0.82020000  1.0 -0.0212056949
C  C56  1  0.21310000  0.39290000  0.55860000  1.0 -0.0212056949
C  C57  1  0.78690000  0.44140000  0.60710000  1.0 -0.0212056949
C  C58  1  0.83430000  0.17980000  0.39290000  1.0 -0.0212056949
C  C59  1  0.21310000  0.82020000  0.65450000  1.0 -0.0212056949
C  C60  1  0.16570000  0.55860000  0.34550000  1.0 -0.0212056949
C  C61  1  0.44140000  0.83430000  0.65450000  1.0 -0.0212056949
C  C62  1  0.55860000  0.21310000  0.39290000  1.0 -0.0212056949
C  C63  1  0.17980000  0.78690000  0.34550000  1.0 -0.0212056949
C  C64  1  0.82020000  0.16570000  0.60710000  1.0 -0.0212056949
C  C65  1  0.44140000  0.60710000  0.78690000  1.0 -0.0212056949
C  C66  1  0.17980000  0.39290000  0.83430000  1.0 -0.0212056949
C  C67  1  0.82020000  0.65450000  0.21310000  1.0 -0.0212056949
C  C68  1  0.55860000  0.34550000  0.16570000  1.0 -0.0212056949
C  C69  1  0.39290000  0.55860000  0.21310000  1.0 -0.0212056949
C  C70  1  0.60710000  0.82020000  0.16570000  1.0 -0.0212056949
C  C71  1  0.65450000  0.44140000  0.83430000  1.0 -0.0212056949
C  C72  1  0.34550000  0.17980000  0.78690000  1.0 -0.0212056949
C  C73  1  0.43040000  0.43040000  0.65620000  1.0 0.153577623
C  C74  1  0.56960000  0.22580000  0.00000000  1.0 0.153577623
C  C75  1  0.77420000  0.77420000  0.34380000  1.0 0.153577623
C  C76  1  0.22580000  0.56960000  0.00000000  1.0 0.153577623
C  C77  1  0.43040000  0.77420000  0.00000000  1.0 0.153577623
C  C78  1  0.22580000  0.22580000  0.65620000  1.0 0.153577623
C  C79  1  0.77420000  0.43040000  0.00000000  1.0 0.153577623
C  C80  1  0.56960000  0.56960000  0.34380000  1.0 0.153577623
C  C81  1  0.43040000  0.65620000  0.43040000  1.0 0.153577623
C  C82  1  0.22580000  0.00000000  0.56960000  1.0 0.153577623
C  C83  1  0.56960000  0.00000000  0.22580000  1.0 0.153577623
C  C84  1  0.77420000  0.34380000  0.77420000  1.0 0.153577623
C  C85  1  0.65620000  0.22580000  0.22580000  1.0 0.153577623
C  C86  1  0.34380000  0.56960000  0.56960000  1.0 0.153577623
C  C87  1  0.00000000  0.43040000  0.77420000  1.0 0.153577623
C  C88  1  0.00000000  0.77420000  0.43040000  1.0 0.153577623
C  C89  1  0.65620000  0.43040000  0.43040000  1.0 0.153577623
C  C90  1  0.00000000  0.56960000  0.22580000  1.0 0.153577623
C  C91  1  0.00000000  0.22580000  0.56960000  1.0 0.153577623
C  C92  1  0.34380000  0.77420000  0.77420000  1.0 0.153577623
C  C93  1  0.56960000  0.34380000  0.56960000  1.0 0.153577623
C  C94  1  0.43040000  0.00000000  0.77420000  1.0 0.153577623
C  C95  1  0.22580000  0.65620000  0.22580000  1.0 0.153577623
C  C96  1  0.77420000  0.00000000  0.43040000  1.0 0.153577623
C  C97  1  0.52360000  0.49000000  0.67280000  1.0 0.1218601687
C  C98  1  0.47640000  0.14920000  0.96640000  1.0 0.1218601687
C  C99  1  0.81720000  0.85080000  0.32720000  1.0 0.1218601687
C  C100  1  0.18280000  0.51000000  0.03360000  1.0 0.1218601687
C  C101  1  0.49000000  0.81720000  0.96640000  1.0 0.1218601687
C  C102  1  0.14920000  0.18280000  0.67280000  1.0 0.1218601687
C  C103  1  0.85080000  0.52360000  0.03360000  1.0 0.1218601687
C  C104  1  0.51000000  0.47640000  0.32720000  1.0 0.1218601687
C  C105  1  0.49000000  0.67280000  0.52360000  1.0 0.1218601687
C  C106  1  0.14920000  0.96640000  0.47640000  1.0 0.1218601687
C  C107  1  0.51000000  0.03360000  0.18280000  1.0 0.1218601687
C  C108  1  0.85080000  0.32720000  0.81720000  1.0 0.1218601687
C  C109  1  0.67280000  0.14920000  0.18280000  1.0 0.1218601687
C  C110  1  0.32720000  0.51000000  0.47640000  1.0 0.1218601687
C  C111  1  0.96640000  0.49000000  0.81720000  1.0 0.1218601687
C  C112  1  0.03360000  0.85080000  0.52360000  1.0 0.1218601687
C  C113  1  0.67280000  0.52360000  0.49000000  1.0 0.1218601687
C  C114  1  0.96640000  0.47640000  0.14920000  1.0 0.1218601687
C  C115  1  0.03360000  0.18280000  0.51000000  1.0 0.1218601687
C  C116  1  0.32720000  0.81720000  0.85080000  1.0 0.1218601687
C  C117  1  0.47640000  0.32720000  0.51000000  1.0 0.1218601687
C  C118  1  0.52360000  0.03360000  0.85080000  1.0 0.1218601687
C  C119  1  0.18280000  0.67280000  0.14920000  1.0 0.1218601687
C  C120  1  0.81720000  0.96640000  0.49000000  1.0 0.1218601687
C  C121  1  0.47640000  0.51000000  0.32720000  1.0 0.1218601687
C  C122  1  0.52360000  0.85080000  0.03360000  1.0 0.1218601687
C  C123  1  0.18280000  0.14920000  0.67280000  1.0 0.1218601687
C  C124  1  0.81720000  0.49000000  0.96640000  1.0 0.1218601687
C  C125  1  0.51000000  0.18280000  0.03360000  1.0 0.1218601687
C  C126  1  0.85080000  0.81720000  0.32720000  1.0 0.1218601687
C  C127  1  0.14920000  0.47640000  0.96640000  1.0 0.1218601687
C  C128  1  0.49000000  0.52360000  0.67280000  1.0 0.1218601687
C  C129  1  0.51000000  0.32720000  0.47640000  1.0 0.1218601687
C  C130  1  0.85080000  0.03360000  0.52360000  1.0 0.1218601687
C  C131  1  0.49000000  0.96640000  0.81720000  1.0 0.1218601687
C  C132  1  0.14920000  0.67280000  0.18280000  1.0 0.1218601687
C  C133  1  0.32720000  0.85080000  0.81720000  1.0 0.1218601687
C  C134  1  0.67280000  0.49000000  0.52360000  1.0 0.1218601687
C  C135  1  0.03360000  0.51000000  0.18280000  1.0 0.1218601687
C  C136  1  0.96640000  0.14920000  0.47640000  1.0 0.1218601687
C  C137  1  0.32720000  0.47640000  0.51000000  1.0 0.1218601687
C  C138  1  0.03360000  0.52360000  0.85080000  1.0 0.1218601687
C  C139  1  0.96640000  0.81720000  0.49000000  1.0 0.1218601687
C  C140  1  0.67280000  0.18280000  0.14920000  1.0 0.1218601687
C  C141  1  0.52360000  0.67280000  0.49000000  1.0 0.1218601687
C  C142  1  0.47640000  0.96640000  0.14920000  1.0 0.1218601687
C  C143  1  0.81720000  0.32720000  0.85080000  1.0 0.1218601687
C  C144  1  0.18280000  0.03360000  0.51000000  1.0 0.1218601687
C  C145  1  0.58440000  0.51720000  0.68260000  1.0 -0.1667583963
C  C146  1  0.41560000  0.09820000  0.93280000  1.0 -0.1667583963
C  C147  1  0.83460000  0.90180000  0.31740000  1.0 -0.1667583963
C  C148  1  0.16540000  0.48280000  0.06720000  1.0 -0.1667583963
C  C149  1  0.51720000  0.83460000  0.93280000  1.0 -0.1667583963
C  C150  1  0.09820000  0.16540000  0.68260000  1.0 -0.1667583963
C  C151  1  0.90180000  0.58440000  0.06720000  1.0 -0.1667583963
C  C152  1  0.48280000  0.41560000  0.31740000  1.0 -0.1667583963
C  C153  1  0.51720000  0.68260000  0.58440000  1.0 -0.1667583963
C  C154  1  0.09820000  0.93280000  0.41560000  1.0 -0.1667583963
C  C155  1  0.48280000  0.06720000  0.16540000  1.0 -0.1667583963
C  C156  1  0.90180000  0.31740000  0.83460000  1.0 -0.1667583963
C  C157  1  0.68260000  0.09820000  0.16540000  1.0 -0.1667583963
C  C158  1  0.31740000  0.48280000  0.41560000  1.0 -0.1667583963
C  C159  1  0.93280000  0.51720000  0.83460000  1.0 -0.1667583963
C  C160  1  0.06720000  0.90180000  0.58440000  1.0 -0.1667583963
C  C161  1  0.68260000  0.58440000  0.51720000  1.0 -0.1667583963
C  C162  1  0.93280000  0.41560000  0.09820000  1.0 -0.1667583963
C  C163  1  0.06720000  0.16540000  0.48280000  1.0 -0.1667583963
C  C164  1  0.31740000  0.83460000  0.90180000  1.0 -0.1667583963
C  C165  1  0.41560000  0.31740000  0.48280000  1.0 -0.1667583963
C  C166  1  0.58440000  0.06720000  0.90180000  1.0 -0.1667583963
C  C167  1  0.16540000  0.68260000  0.09820000  1.0 -0.1667583963
C  C168  1  0.83460000  0.93280000  0.51720000  1.0 -0.1667583963
C  C169  1  0.41560000  0.48280000  0.31740000  1.0 -0.1667583963
C  C170  1  0.58440000  0.90180000  0.06720000  1.0 -0.1667583963
C  C171  1  0.16540000  0.09820000  0.68260000  1.0 -0.1667583963
C  C172  1  0.83460000  0.51720000  0.93280000  1.0 -0.1667583963
C  C173  1  0.48280000  0.16540000  0.06720000  1.0 -0.1667583963
C  C174  1  0.90180000  0.83460000  0.31740000  1.0 -0.1667583963
C  C175  1  0.09820000  0.41560000  0.93280000  1.0 -0.1667583963
C  C176  1  0.51720000  0.58440000  0.68260000  1.0 -0.1667583963
C  C177  1  0.48280000  0.31740000  0.41560000  1.0 -0.1667583963
C  C178  1  0.90180000  0.06720000  0.58440000  1.0 -0.1667583963
C  C179  1  0.51720000  0.93280000  0.83460000  1.0 -0.1667583963
C  C180  1  0.09820000  0.68260000  0.16540000  1.0 -0.1667583963
C  C181  1  0.31740000  0.90180000  0.83460000  1.0 -0.1667583963
C  C182  1  0.68260000  0.51720000  0.58440000  1.0 -0.1667583963
C  C183  1  0.06720000  0.48280000  0.16540000  1.0 -0.1667583963
C  C184  1  0.93280000  0.09820000  0.41560000  1.0 -0.1667583963
C  C185  1  0.31740000  0.41560000  0.48280000  1.0 -0.1667583963
C  C186  1  0.06720000  0.58440000  0.90180000  1.0 -0.1667583963
C  C187  1  0.93280000  0.83460000  0.51720000  1.0 -0.1667583963
C  C188  1  0.68260000  0.16540000  0.09820000  1.0 -0.1667583963
C  C189  1  0.58440000  0.68260000  0.51720000  1.0 -0.1667583963
C  C190  1  0.41560000  0.93280000  0.09820000  1.0 -0.1667583963
C  C191  1  0.83460000  0.31740000  0.90180000  1.0 -0.1667583963
C  C192  1  0.16540000  0.06720000  0.48280000  1.0 -0.1667583963
C  C193  1  0.61010000  0.57630000  0.69200000  1.0 -0.153589695
C  C194  1  0.38990000  0.08190000  0.96620000  1.0 -0.153589695
C  C195  1  0.88430000  0.91810000  0.30800000  1.0 -0.153589695
C  C196  1  0.11570000  0.42370000  0.03380000  1.0 -0.153589695
C  C197  1  0.57630000  0.88430000  0.96620000  1.0 -0.153589695
C  C198  1  0.08190000  0.11570000  0.69200000  1.0 -0.153589695
C  C199  1  0.91810000  0.61010000  0.03380000  1.0 -0.153589695
C  C200  1  0.42370000  0.38990000  0.30800000  1.0 -0.153589695
C  C201  1  0.57630000  0.69200000  0.61010000  1.0 -0.153589695
C  C202  1  0.08190000  0.96620000  0.38990000  1.0 -0.153589695
C  C203  1  0.42370000  0.03380000  0.11570000  1.0 -0.153589695
C  C204  1  0.91810000  0.30800000  0.88430000  1.0 -0.153589695
C  C205  1  0.69200000  0.08190000  0.11570000  1.0 -0.153589695
C  C206  1  0.30800000  0.42370000  0.38990000  1.0 -0.153589695
C  C207  1  0.96620000  0.57630000  0.88430000  1.0 -0.153589695
C  C208  1  0.03380000  0.91810000  0.61010000  1.0 -0.153589695
C  C209  1  0.69200000  0.61010000  0.57630000  1.0 -0.153589695
C  C210  1  0.96620000  0.38990000  0.08190000  1.0 -0.153589695
C  C211  1  0.03380000  0.11570000  0.42370000  1.0 -0.153589695
C  C212  1  0.30800000  0.88430000  0.91810000  1.0 -0.153589695
C  C213  1  0.38990000  0.30800000  0.42370000  1.0 -0.153589695
C  C214  1  0.61010000  0.03380000  0.91810000  1.0 -0.153589695
C  C215  1  0.11570000  0.69200000  0.08190000  1.0 -0.153589695
C  C216  1  0.88430000  0.96620000  0.57630000  1.0 -0.153589695
C  C217  1  0.38990000  0.42370000  0.30800000  1.0 -0.153589695
C  C218  1  0.61010000  0.91810000  0.03380000  1.0 -0.153589695
C  C219  1  0.11570000  0.08190000  0.69200000  1.0 -0.153589695
C  C220  1  0.88430000  0.57630000  0.96620000  1.0 -0.153589695
C  C221  1  0.42370000  0.11570000  0.03380000  1.0 -0.153589695
C  C222  1  0.91810000  0.88430000  0.30800000  1.0 -0.153589695
C  C223  1  0.08190000  0.38990000  0.96620000  1.0 -0.153589695
C  C224  1  0.57630000  0.61010000  0.69200000  1.0 -0.153589695
C  C225  1  0.42370000  0.30800000  0.38990000  1.0 -0.153589695
C  C226  1  0.91810000  0.03380000  0.61010000  1.0 -0.153589695
C  C227  1  0.57630000  0.96620000  0.88430000  1.0 -0.153589695
C  C228  1  0.08190000  0.69200000  0.11570000  1.0 -0.153589695
C  C229  1  0.30800000  0.91810000  0.88430000  1.0 -0.153589695
C  C230  1  0.69200000  0.57630000  0.61010000  1.0 -0.153589695
C  C231  1  0.03380000  0.42370000  0.11570000  1.0 -0.153589695
C  C232  1  0.96620000  0.08190000  0.38990000  1.0 -0.153589695
C  C233  1  0.30800000  0.38990000  0.42370000  1.0 -0.153589695
C  C234  1  0.03380000  0.61010000  0.91810000  1.0 -0.153589695
C  C235  1  0.96620000  0.88430000  0.57630000  1.0 -0.153589695
C  C236  1  0.69200000  0.11570000  0.08190000  1.0 -0.153589695
C  C237  1  0.61010000  0.69200000  0.57630000  1.0 -0.153589695
C  C238  1  0.38990000  0.96620000  0.08190000  1.0 -0.153589695
C  C239  1  0.88430000  0.30800000  0.91810000  1.0 -0.153589695
C  C240  1  0.11570000  0.03380000  0.42370000  1.0 -0.153589695
C  C241  1  0.18910000  0.18910000  0.37820000  1.0 0.0600146524
C  C242  1  0.81090000  0.18910000  0.00000000  1.0 0.0600146524
C  C243  1  0.81090000  0.81090000  0.62180000  1.0 0.0600146524
C  C244  1  0.18910000  0.81090000  0.00000000  1.0 0.0600146524
C  C245  1  0.18910000  0.37820000  0.18910000  1.0 0.0600146524
C  C246  1  0.18910000  0.00000000  0.81090000  1.0 0.0600146524
C  C247  1  0.81090000  0.00000000  0.18910000  1.0 0.0600146524
C  C248  1  0.81090000  0.62180000  0.81090000  1.0 0.0600146524
C  C249  1  0.37820000  0.18910000  0.18910000  1.0 0.0600146524
C  C250  1  0.62180000  0.81090000  0.81090000  1.0 0.0600146524
C  C251  1  0.00000000  0.18910000  0.81090000  1.0 0.0600146524
C  C252  1  0.00000000  0.81090000  0.18910000  1.0 0.0600146524
C  C253  1  0.26980000  0.17510000  0.39670000  1.0 0.153577623
C  C254  1  0.73020000  0.12690000  0.90530000  1.0 0.153577623
C  C255  1  0.77840000  0.87310000  0.60330000  1.0 0.153577623
C  C256  1  0.22160000  0.82490000  0.09470000  1.0 0.153577623
C  C257  1  0.17510000  0.77840000  0.90530000  1.0 0.153577623
C  C258  1  0.12690000  0.22160000  0.39670000  1.0 0.153577623
C  C259  1  0.87310000  0.26980000  0.09470000  1.0 0.153577623
C  C260  1  0.82490000  0.73020000  0.60330000  1.0 0.153577623
C  C261  1  0.17510000  0.39670000  0.26980000  1.0 0.153577623
C  C262  1  0.12690000  0.90530000  0.73020000  1.0 0.153577623
C  C263  1  0.82490000  0.09470000  0.22160000  1.0 0.16246651
C  C264  1  0.87310000  0.60330000  0.77840000  1.0 0.153577623
C  C265  1  0.39670000  0.12690000  0.22160000  1.0 0.153577623
C  C266  1  0.60330000  0.82490000  0.73020000  1.0 0.153577623
C  C267  1  0.90530000  0.17510000  0.77840000  1.0 0.153577623
C  C268  1  0.09470000  0.87310000  0.26980000  1.0 0.153577623
C  C269  1  0.39670000  0.26980000  0.17510000  1.0 0.153577623
C  C270  1  0.90530000  0.73020000  0.12690000  1.0 0.153577623
C  C271  1  0.09470000  0.22160000  0.82490000  1.0 0.16246651
C  C272  1  0.60330000  0.77840000  0.87310000  1.0 0.153577623
C  C273  1  0.73020000  0.60330000  0.82490000  1.0 0.16246651
C  C274  1  0.26980000  0.09470000  0.87310000  1.0 0.153577623
C  C275  1  0.22160000  0.39670000  0.12690000  1.0 0.153577623
C  C276  1  0.77840000  0.90530000  0.17510000  1.0 0.153577623
C  C277  1  0.73020000  0.82490000  0.60330000  1.0 0.153577623
C  C278  1  0.26980000  0.87310000  0.09470000  1.0 0.153577623
C  C279  1  0.22160000  0.12690000  0.39670000  1.0 0.153577623
C  C280  1  0.77840000  0.17510000  0.90530000  1.0 0.153577623
C  C281  1  0.82490000  0.22160000  0.09470000  1.0 0.153577623
C  C282  1  0.87310000  0.77840000  0.60330000  1.0 0.153577623
C  C283  1  0.12690000  0.73020000  0.90530000  1.0 0.153577623
C  C284  1  0.17510000  0.26980000  0.39670000  1.0 0.153577623
C  C285  1  0.82490000  0.60330000  0.73020000  1.0 0.153577623
C  C286  1  0.87310000  0.09470000  0.26980000  1.0 0.16246651
C  C287  1  0.17510000  0.90530000  0.77840000  1.0 0.153577623
C  C288  1  0.12690000  0.39670000  0.22160000  1.0 0.153577623
C  C289  1  0.60330000  0.87310000  0.77840000  1.0 0.153577623
C  C290  1  0.39670000  0.17510000  0.26980000  1.0 0.16246651
C  C291  1  0.09470000  0.82490000  0.22160000  1.0 0.153577623
C  C292  1  0.90530000  0.12690000  0.73020000  1.0 0.153577623
C  C293  1  0.60330000  0.73020000  0.82490000  1.0 0.153577623
C  C294  1  0.09470000  0.26980000  0.87310000  1.0 0.16246651
C  C295  1  0.90530000  0.77840000  0.17510000  1.0 0.153577623
C  C296  1  0.39670000  0.22160000  0.12690000  1.0 0.153577623
C  C297  1  0.26980000  0.39670000  0.17510000  1.0 0.153577623
C  C298  1  0.73020000  0.90530000  0.12690000  1.0 0.153577623
C  C299  1  0.77840000  0.60330000  0.87310000  1.0 0.153577623
C  C300  1  0.22160000  0.09470000  0.82490000  1.0 0.153577623
N  N1  1  0.42230000  0.27113000  0.61541000  1.0 -0.3387549597
N  N2  1  0.57770000  0.19311000  0.84883000  1.0 -0.3387549597
N  N3  1  0.65572000  0.80689000  0.38459000  1.0 -0.3387549597
N  N4  1  0.34428000  0.72887000  0.15117000  1.0 -0.3387549597
N  N5  1  0.27113000  0.65572000  0.84883000  1.0 -0.3387549597
N  N6  1  0.19311000  0.34428000  0.61541000  1.0 -0.3387549597
N  N7  1  0.80689000  0.42230000  0.15117000  1.0 -0.3387549597
N  N8  1  0.72887000  0.57770000  0.38459000  1.0 -0.3387549597
N  N9  1  0.27113000  0.61541000  0.42230000  1.0 -0.3387549597
N  N10  1  0.19311000  0.84883000  0.57770000  1.0 -0.3387549597
N  N11  1  0.72887000  0.15117000  0.34428000  1.0 -0.3387549597
N  N12  1  0.80689000  0.38459000  0.65572000  1.0 -0.3387549597
N  N13  1  0.61541000  0.19311000  0.34428000  1.0 -0.3387549597
N  N14  1  0.38459000  0.72887000  0.57770000  1.0 -0.3387549597
N  N15  1  0.84883000  0.27113000  0.65572000  1.0 -0.3387549597
N  N16  1  0.15117000  0.80689000  0.42230000  1.0 -0.3387549597
N  N17  1  0.61541000  0.42230000  0.27113000  1.0 -0.3387549597
N  N18  1  0.84883000  0.57770000  0.19311000  1.0 -0.3387549597
N  N19  1  0.15117000  0.34428000  0.72887000  1.0 -0.3387549597
N  N20  1  0.38459000  0.65572000  0.80689000  1.0 -0.3387549597
N  N21  1  0.57770000  0.38459000  0.72887000  1.0 -0.3387549597
N  N22  1  0.42230000  0.15117000  0.80689000  1.0 -0.3387549597
N  N23  1  0.34428000  0.61541000  0.19311000  1.0 -0.3387549597
N  N24  1  0.65572000  0.84883000  0.27113000  1.0 -0.3387549597
N  N25  1  0.57770000  0.72887000  0.38459000  1.0 -0.3387549597
N  N26  1  0.42230000  0.80689000  0.15117000  1.0 -0.3387549597
N  N27  1  0.34428000  0.19311000  0.61541000  1.0 -0.3387549597
N  N28  1  0.65572000  0.27113000  0.84883000  1.0 -0.3387549597
N  N29  1  0.72887000  0.34428000  0.15117000  1.0 -0.3387549597
N  N30  1  0.80689000  0.65572000  0.38459000  1.0 -0.3387549597
N  N31  1  0.19311000  0.57770000  0.84883000  1.0 -0.3387549597
N  N32  1  0.27113000  0.42230000  0.61541000  1.0 -0.3387549597
N  N33  1  0.72887000  0.38459000  0.57770000  1.0 -0.3387549597
N  N34  1  0.80689000  0.15117000  0.42230000  1.0 -0.3387549597
N  N35  1  0.27113000  0.84883000  0.65572000  1.0 -0.3387549597
N  N36  1  0.19311000  0.61541000  0.34428000  1.0 -0.3387549597
N  N37  1  0.38459000  0.80689000  0.65572000  1.0 -0.3387549597
N  N38  1  0.61541000  0.27113000  0.42230000  1.0 -0.3387549597
N  N39  1  0.15117000  0.72887000  0.34428000  1.0 -0.3387549597
N  N40  1  0.84883000  0.19311000  0.57770000  1.0 -0.3387549597
N  N41  1  0.38459000  0.57770000  0.72887000  1.0 -0.3387549597
N  N42  1  0.15117000  0.42230000  0.80689000  1.0 -0.3387549597
N  N43  1  0.84883000  0.65572000  0.27113000  1.0 -0.3387549597
N  N44  1  0.61541000  0.34428000  0.19311000  1.0 -0.3387549597
N  N45  1  0.42230000  0.61541000  0.27113000  1.0 -0.3387549597
N  N46  1  0.57770000  0.84883000  0.19311000  1.0 -0.3387549597
N  N47  1  0.65572000  0.38459000  0.80689000  1.0 -0.3387549597
N  N48  1  0.34428000  0.15117000  0.72887000  1.0 -0.3387549597
N  N49  1  0.40710000  0.30100000  0.70810000  1.0 0.4443929094
N  N50  1  0.59290000  0.30100000  0.89390000  1.0 0.4443929094
N  N51  1  0.59290000  0.69900000  0.29190000  1.0 0.4443929094
N  N52  1  0.40710000  0.69900000  0.10610000  1.0 0.4443929094
N  N53  1  0.30100000  0.59290000  0.89390000  1.0 0.4443929094
N  N54  1  0.30100000  0.40710000  0.70810000  1.0 0.4443929094
N  N55  1  0.69900000  0.40710000  0.10610000  1.0 0.4443929094
N  N56  1  0.69900000  0.59290000  0.29190000  1.0 0.4443929094
N  N57  1  0.30100000  0.70810000  0.40710000  1.0 0.4443929094
N  N58  1  0.30100000  0.89390000  0.59290000  1.0 0.4443929094
N  N59  1  0.69900000  0.10610000  0.40710000  1.0 0.4443929094
N  N60  1  0.69900000  0.29190000  0.59290000  1.0 0.4443929094
N  N61  1  0.70810000  0.30100000  0.40710000  1.0 0.4443929094
N  N62  1  0.29190000  0.69900000  0.59290000  1.0 0.4443929094
N  N63  1  0.89390000  0.30100000  0.59290000  1.0 0.4443929094
N  N64  1  0.10610000  0.69900000  0.40710000  1.0 0.4443929094
N  N65  1  0.70810000  0.40710000  0.30100000  1.0 0.4443929094
N  N66  1  0.89390000  0.59290000  0.30100000  1.0 0.4443929094
N  N67  1  0.10610000  0.40710000  0.69900000  1.0 0.4443929094
N  N68  1  0.29190000  0.59290000  0.69900000  1.0 0.4443929094
N  N69  1  0.59290000  0.29190000  0.69900000  1.0 0.4443929094
N  N70  1  0.40710000  0.10610000  0.69900000  1.0 0.4443929094
N  N71  1  0.40710000  0.70810000  0.30100000  1.0 0.4443929094
N  N72  1  0.59290000  0.89390000  0.30100000  1.0 0.4443929094
N  N73  1  0.48451000  0.42882000  0.65955000  1.0 -0.3578546541
N  N74  1  0.51549000  0.17504000  0.94431000  1.0 -0.3578546541
N  N75  1  0.76927000  0.82496000  0.34045000  1.0 -0.3578546541
N  N76  1  0.23073000  0.57118000  0.05569000  1.0 -0.3578546541
N  N77  1  0.42882000  0.76927000  0.94431000  1.0 -0.3578546541
N  N78  1  0.17504000  0.23073000  0.65955000  1.0 -0.3578546541
N  N79  1  0.82496000  0.48451000  0.05569000  1.0 -0.3578546541
N  N80  1  0.57118000  0.51549000  0.34045000  1.0 -0.3578546541
N  N81  1  0.42882000  0.65955000  0.48451000  1.0 -0.3578546541
N  N82  1  0.17504000  0.94431000  0.51549000  1.0 -0.3578546541
N  N83  1  0.57118000  0.05569000  0.23073000  1.0 -0.3578546541
N  N84  1  0.82496000  0.34045000  0.76927000  1.0 -0.3578546541
N  N85  1  0.65955000  0.17504000  0.23073000  1.0 -0.3578546541
N  N86  1  0.34045000  0.57118000  0.51549000  1.0 -0.3578546541
N  N87  1  0.94431000  0.42882000  0.76927000  1.0 -0.3578546541
N  N88  1  0.05569000  0.82496000  0.48451000  1.0 -0.3578546541
N  N89  1  0.65955000  0.48451000  0.42882000  1.0 -0.3578546541
N  N90  1  0.94431000  0.51549000  0.17504000  1.0 -0.3578546541
N  N91  1  0.05569000  0.23073000  0.57118000  1.0 -0.3578546541
N  N92  1  0.34045000  0.76927000  0.82496000  1.0 -0.3578546541
N  N93  1  0.51549000  0.34045000  0.57118000  1.0 -0.3578546541
N  N94  1  0.48451000  0.05569000  0.82496000  1.0 -0.3578546541
N  N95  1  0.23073000  0.65955000  0.17504000  1.0 -0.3578546541
N  N96  1  0.76927000  0.94431000  0.42882000  1.0 -0.3578546541
N  N97  1  0.51549000  0.57118000  0.34045000  1.0 -0.3578546541
N  N98  1  0.48451000  0.82496000  0.05569000  1.0 -0.3578546541
N  N99  1  0.23073000  0.17504000  0.65955000  1.0 -0.3578546541
N  N100  1  0.76927000  0.42882000  0.94431000  1.0 -0.3578546541
N  N101  1  0.57118000  0.23073000  0.05569000  1.0 -0.3578546541
N  N102  1  0.82496000  0.76927000  0.34045000  1.0 -0.3578546541
N  N103  1  0.17504000  0.51549000  0.94431000  1.0 -0.3578546541
N  N104  1  0.42882000  0.48451000  0.65955000  1.0 -0.3578546541
N  N105  1  0.57118000  0.34045000  0.51549000  1.0 -0.3578546541
N  N106  1  0.82496000  0.05569000  0.48451000  1.0 -0.3578546541
N  N107  1  0.42882000  0.94431000  0.76927000  1.0 -0.3578546541
N  N108  1  0.17504000  0.65955000  0.23073000  1.0 -0.3578546541
N  N109  1  0.34045000  0.82496000  0.76927000  1.0 -0.3578546541
N  N110  1  0.65955000  0.42882000  0.48451000  1.0 -0.3578546541
N  N111  1  0.05569000  0.57118000  0.23073000  1.0 -0.3578546541
N  N112  1  0.94431000  0.17504000  0.51549000  1.0 -0.3578546541
N  N113  1  0.34045000  0.51549000  0.57118000  1.0 -0.3578546541
N  N114  1  0.05569000  0.48451000  0.82496000  1.0 -0.3578546541
N  N115  1  0.94431000  0.76927000  0.42882000  1.0 -0.3578546541
N  N116  1  0.65955000  0.23073000  0.17504000  1.0 -0.3578546541
N  N117  1  0.48451000  0.65955000  0.42882000  1.0 -0.3578546541
N  N118  1  0.51549000  0.94431000  0.17504000  1.0 -0.3578546541
N  N119  1  0.76927000  0.34045000  0.82496000  1.0 -0.3578546541
N  N120  1  0.23073000  0.05569000  0.57118000  1.0 -0.3578546541
N  N121  1  0.77150000  0.61090000  0.83940000  1.0 0.1656275463
N  N122  1  0.22850000  0.06790000  0.83940000  1.0 0.16246651
N  N123  1  0.77150000  0.93210000  0.16060000  1.0 0.1656275463
N  N124  1  0.22850000  0.38910000  0.16060000  1.0 0.16246651
N  N125  1  0.61090000  0.77150000  0.83940000  1.0 0.16246651
N  N126  1  0.06790000  0.22850000  0.83940000  1.0 0.16246651
N  N127  1  0.93210000  0.77150000  0.16060000  1.0 0.16246651
N  N128  1  0.38910000  0.22850000  0.16060000  1.0 0.16246651
N  N129  1  0.61090000  0.83940000  0.77150000  1.0 0.16246651
N  N130  1  0.06790000  0.83940000  0.22850000  1.0 0.16246651
N  N131  1  0.38910000  0.16060000  0.22850000  1.0 0.16246651
N  N132  1  0.93210000  0.16060000  0.77150000  1.0 0.16246651
N  N133  1  0.83940000  0.06790000  0.22850000  1.0 0.16246651
N  N134  1  0.16060000  0.38910000  0.22850000  1.0 0.16246651
N  N135  1  0.83940000  0.61090000  0.77150000  1.0 0.1656275463
N  N136  1  0.16060000  0.93210000  0.77150000  1.0 0.16246651
N  N137  1  0.83940000  0.77150000  0.61090000  1.0 0.1656275463
N  N138  1  0.83940000  0.22850000  0.06790000  1.0 0.16246651
N  N139  1  0.16060000  0.22850000  0.38910000  1.0 0.16246651
N  N140  1  0.16060000  0.77150000  0.93210000  1.0 0.16246651
N  N141  1  0.22850000  0.16060000  0.38910000  1.0 0.16246651
N  N142  1  0.77150000  0.16060000  0.93210000  1.0 0.16246651
N  N143  1  0.22850000  0.83940000  0.06790000  1.0 0.16246651
N  N144  1  0.77150000  0.83940000  0.61090000  1.0 0.1656275463
N  N145  1  0.75670000  0.61890000  0.78680000  1.0 -0.105206085
N  N146  1  0.24330000  0.03010000  0.86220000  1.0 -0.105206085
N  N147  1  0.83210000  0.96990000  0.21320000  1.0 -0.105206085
N  N148  1  0.16790000  0.38110000  0.13780000  1.0 -0.104523741
N  N149  1  0.61890000  0.83210000  0.86220000  1.0 -0.105206085
N  N150  1  0.03010000  0.16790000  0.78680000  1.0 -0.104523741
N  N151  1  0.96990000  0.75670000  0.13780000  1.0 -0.105206085
N  N152  1  0.38110000  0.24330000  0.21320000  1.0 -0.105206085
N  N153  1  0.61890000  0.78680000  0.75670000  1.0 -0.105206085
N  N154  1  0.03010000  0.86220000  0.24330000  1.0 -0.105206085
N  N155  1  0.38110000  0.13780000  0.16790000  1.0 -0.105206085
N  N156  1  0.96990000  0.21320000  0.83210000  1.0 -0.105206085
N  N157  1  0.78680000  0.03010000  0.16790000  1.0 -0.105206085
N  N158  1  0.21320000  0.38110000  0.24330000  1.0 -0.105206085
N  N159  1  0.86220000  0.61890000  0.83210000  1.0 -0.105206085
N  N160  1  0.13780000  0.96990000  0.75670000  1.0 -0.105206085
N  N161  1  0.78680000  0.75670000  0.61890000  1.0 -0.105206085
N  N162  1  0.86220000  0.24330000  0.03010000  1.0 -0.105206085
N  N163  1  0.13780000  0.16790000  0.38110000  1.0 -0.104523741
N  N164  1  0.21320000  0.83210000  0.96990000  1.0 -0.105206085
N  N165  1  0.24330000  0.21320000  0.38110000  1.0 -0.104523741
N  N166  1  0.75670000  0.13780000  0.96990000  1.0 -0.105206085
N  N167  1  0.16790000  0.78680000  0.03010000  1.0 -0.105206085
N  N168  1  0.83210000  0.86220000  0.61890000  1.0 -0.105206085
N  N169  1  0.24330000  0.38110000  0.21320000  1.0 -0.105206085
N  N170  1  0.75670000  0.96990000  0.13780000  1.0 -0.105206085
N  N171  1  0.16790000  0.03010000  0.78680000  1.0 -0.105206085
N  N172  1  0.83210000  0.61890000  0.86220000  1.0 -0.105206085
N  N173  1  0.38110000  0.16790000  0.13780000  1.0 -0.105206085
N  N174  1  0.96990000  0.83210000  0.21320000  1.0 -0.105206085
N  N175  1  0.03010000  0.24330000  0.86220000  1.0 -0.105206085
N  N176  1  0.61890000  0.75670000  0.78680000  1.0 -0.105206085
N  N177  1  0.38110000  0.21320000  0.24330000  1.0 -0.104523741
N  N178  1  0.96990000  0.13780000  0.75670000  1.0 -0.105206085
N  N179  1  0.61890000  0.86220000  0.83210000  1.0 -0.105206085
N  N180  1  0.03010000  0.78680000  0.16790000  1.0 -0.105206085
N  N181  1  0.21320000  0.96990000  0.83210000  1.0 -0.105206085
N  N182  1  0.78680000  0.61890000  0.75670000  1.0 -0.105206085
N  N183  1  0.13780000  0.38110000  0.16790000  1.0 -0.105206085
N  N184  1  0.86220000  0.03010000  0.24330000  1.0 -0.105206085
N  N185  1  0.21320000  0.24330000  0.38110000  1.0 -0.105206085
N  N186  1  0.13780000  0.75670000  0.96990000  1.0 -0.105206085
N  N187  1  0.86220000  0.83210000  0.61890000  1.0 -0.105206085
N  N188  1  0.78680000  0.16790000  0.03010000  1.0 -0.105206085
N  N189  1  0.75670000  0.78680000  0.61890000  1.0 -0.105206085
N  N190  1  0.24330000  0.86220000  0.03010000  1.0 -0.105206085
N  N191  1  0.83210000  0.21320000  0.96990000  1.0 -0.105206085
N  N192  1  0.16790000  0.13780000  0.38110000  1.0 -0.104523741
O  O1  1  0.72480000  0.72480000  0.72480000  1.0 -0.1225284763
O  O2  1  0.27520000  0.00000000  0.00000000  1.0 -0.1225284763
O  O3  1  0.00000000  0.00000000  0.27520000  1.0 -0.1225284763
O  O4  1  0.00000000  0.27520000  0.00000000  1.0 -0.1263308006
O  O5  1  0.72480000  0.00000000  0.00000000  1.0 -0.1225284763
O  O6  1  0.00000000  0.00000000  0.72480000  1.0 -0.1225284763
O  O7  1  0.00000000  0.72480000  0.00000000  1.0 -0.1263308006
O  O8  1  0.27520000  0.27520000  0.27520000  1.0 -0.1225284763
O  O9  1  0.45153000  0.35812000  0.73399000  1.0 -0.3338638367
O  O10  1  0.54847000  0.28246000  0.90659000  1.0 -0.3338638367
O  O11  1  0.62413000  0.71754000  0.26601000  1.0 -0.3338638367
O  O12  1  0.37587000  0.64188000  0.09341000  1.0 -0.3338638367
O  O13  1  0.35812000  0.62413000  0.90659000  1.0 -0.3338638367
O  O14  1  0.28246000  0.37587000  0.73399000  1.0 -0.3338638367
O  O15  1  0.71754000  0.45153000  0.09341000  1.0 -0.3338638367
O  O16  1  0.64188000  0.54847000  0.26601000  1.0 -0.3338638367
O  O17  1  0.35812000  0.73399000  0.45153000  1.0 -0.3338638367
O  O18  1  0.28246000  0.90659000  0.54847000  1.0 -0.3338638367
O  O19  1  0.64188000  0.09341000  0.37587000  1.0 -0.3338638367
O  O20  1  0.71754000  0.26601000  0.62413000  1.0 -0.3338638367
O  O21  1  0.73399000  0.28246000  0.37587000  1.0 -0.3338638367
O  O22  1  0.26601000  0.64188000  0.54847000  1.0 -0.3338638367
O  O23  1  0.90659000  0.35812000  0.62413000  1.0 -0.3338638367
O  O24  1  0.09341000  0.71754000  0.45153000  1.0 -0.3338638367
O  O25  1  0.73399000  0.45153000  0.35812000  1.0 -0.3338638367
O  O26  1  0.90659000  0.54847000  0.28246000  1.0 -0.3338638367
O  O27  1  0.09341000  0.37587000  0.64188000  1.0 -0.3338638367
O  O28  1  0.26601000  0.62413000  0.71754000  1.0 -0.3338638367
O  O29  1  0.54847000  0.26601000  0.64188000  1.0 -0.3338638367
O  O30  1  0.45153000  0.09341000  0.71754000  1.0 -0.3338638367
O  O31  1  0.37587000  0.73399000  0.28246000  1.0 -0.3338638367
O  O32  1  0.62413000  0.90659000  0.35812000  1.0 -0.3338638367
O  O33  1  0.54847000  0.64188000  0.26601000  1.0 -0.3338638367
O  O34  1  0.45153000  0.71754000  0.09341000  1.0 -0.3338638367
O  O35  1  0.37587000  0.28246000  0.73399000  1.0 -0.3338638367
O  O36  1  0.62413000  0.35812000  0.90659000  1.0 -0.3338638367
O  O37  1  0.64188000  0.37587000  0.09341000  1.0 -0.3338638367
O  O38  1  0.71754000  0.62413000  0.26601000  1.0 -0.3338638367
O  O39  1  0.28246000  0.54847000  0.90659000  1.0 -0.3338638367
O  O40  1  0.35812000  0.45153000  0.73399000  1.0 -0.3338638367
O  O41  1  0.64188000  0.26601000  0.54847000  1.0 -0.3338638367
O  O42  1  0.71754000  0.09341000  0.45153000  1.0 -0.3338638367
O  O43  1  0.35812000  0.90659000  0.62413000  1.0 -0.3338638367
O  O44  1  0.28246000  0.73399000  0.37587000  1.0 -0.3338638367
O  O45  1  0.26601000  0.71754000  0.62413000  1.0 -0.3338638367
O  O46  1  0.73399000  0.35812000  0.45153000  1.0 -0.3338638367
O  O47  1  0.09341000  0.64188000  0.37587000  1.0 -0.3338638367
O  O48  1  0.90659000  0.28246000  0.54847000  1.0 -0.3338638367
O  O49  1  0.26601000  0.54847000  0.64188000  1.0 -0.3338638367
O  O50  1  0.09341000  0.45153000  0.71754000  1.0 -0.3338638367
O  O51  1  0.90659000  0.62413000  0.35812000  1.0 -0.3338638367
O  O52  1  0.73399000  0.37587000  0.28246000  1.0 -0.3338638367
O  O53  1  0.45153000  0.73399000  0.35812000  1.0 -0.3338638367
O  O54  1  0.54847000  0.90659000  0.28246000  1.0 -0.3338638367
O  O55  1  0.62413000  0.26601000  0.71754000  1.0 -0.3338638367
O  O56  1  0.37587000  0.09341000  0.64188000  1.0 -0.3338638367
O  O57  1  0.27430000  0.17630000  0.37600000  1.0 -0.0412499177
O  O58  1  0.72570000  0.10170000  0.90200000  1.0 -0.0412499177
O  O59  1  0.80030000  0.89830000  0.62400000  1.0 -0.0412499177
O  O60  1  0.19970000  0.82370000  0.09800000  1.0 -0.0412499177
O  O61  1  0.17630000  0.80030000  0.90200000  1.0 -0.0412499177
O  O62  1  0.10170000  0.19970000  0.37600000  1.0 -0.0412499177
O  O63  1  0.89830000  0.27430000  0.09800000  1.0 -0.0412499177
O  O64  1  0.82370000  0.72570000  0.62400000  1.0 -0.0412499177
O  O65  1  0.17630000  0.37600000  0.27430000  1.0 -0.0412499177
O  O66  1  0.10170000  0.90200000  0.72570000  1.0 -0.0412499177
O  O67  1  0.82370000  0.09800000  0.19970000  1.0 -0.0412499177
O  O68  1  0.89830000  0.62400000  0.80030000  1.0 -0.0412499177
O  O69  1  0.37600000  0.10170000  0.19970000  1.0 -0.0412499177
O  O70  1  0.62400000  0.82370000  0.72570000  1.0 -0.0412499177
O  O71  1  0.90200000  0.17630000  0.80030000  1.0 -0.0412499177
O  O72  1  0.09800000  0.89830000  0.27430000  1.0 -0.0412499177
O  O73  1  0.37600000  0.27430000  0.17630000  1.0 -0.0412499177
O  O74  1  0.90200000  0.72570000  0.10170000  1.0 -0.0412499177
O  O75  1  0.09800000  0.19970000  0.82370000  1.0 -0.0412499177
O  O76  1  0.62400000  0.80030000  0.89830000  1.0 -0.0412499177
O  O77  1  0.72570000  0.62400000  0.82370000  1.0 -0.0412499177
O  O78  1  0.27430000  0.09800000  0.89830000  1.0 -0.0412499177
O  O79  1  0.19970000  0.37600000  0.10170000  1.0 -0.0412499177
O  O80  1  0.80030000  0.90200000  0.17630000  1.0 -0.0412499177
O  O81  1  0.72570000  0.82370000  0.62400000  1.0 -0.0412499177
O  O82  1  0.27430000  0.89830000  0.09800000  1.0 -0.0412499177
O  O83  1  0.19970000  0.10170000  0.37600000  1.0 -0.0412499177
O  O84  1  0.80030000  0.17630000  0.90200000  1.0 -0.0412499177
O  O85  1  0.82370000  0.19970000  0.09800000  1.0 -0.0412499177
O  O86  1  0.89830000  0.80030000  0.62400000  1.0 -0.0412499177
O  O87  1  0.10170000  0.72570000  0.90200000  1.0 -0.0412499177
O  O88  1  0.17630000  0.27430000  0.37600000  1.0 -0.0412499177
O  O89  1  0.82370000  0.62400000  0.72570000  1.0 -0.0412499177
O  O90  1  0.89830000  0.09800000  0.27430000  1.0 -0.0412499177
O  O91  1  0.17630000  0.90200000  0.80030000  1.0 -0.0412499177
O  O92  1  0.10170000  0.37600000  0.19970000  1.0 -0.0412499177
O  O93  1  0.62400000  0.89830000  0.80030000  1.0 -0.0412499177
O  O94  1  0.37600000  0.17630000  0.27430000  1.0 -0.0412499177
O  O95  1  0.09800000  0.82370000  0.19970000  1.0 -0.0412499177
O  O96  1  0.90200000  0.10170000  0.72570000  1.0 -0.0412499177
O  O97  1  0.62400000  0.72570000  0.82370000  1.0 -0.0412499177
O  O98  1  0.09800000  0.27430000  0.89830000  1.0 -0.0412499177
O  O99  1  0.90200000  0.80030000  0.17630000  1.0 -0.0412499177
O  O100  1  0.37600000  0.19970000  0.10170000  1.0 -0.0412499177
O  O101  1  0.27430000  0.37600000  0.17630000  1.0 -0.0412499177
O  O102  1  0.72570000  0.90200000  0.10170000  1.0 -0.0412499177
O  O103  1  0.80030000  0.62400000  0.89830000  1.0 -0.0412499177
O  O104  1  0.19970000  0.09800000  0.82370000  1.0 -0.0412499177
