# DDEC6 charges by PACMAN v1.1 (https://github.com/mtap-research/PACMAN-charge/)
data_XEDYIS_FSR_pacman
_symmetry_space_group_name_H-M   'P 1'
_cell_length_a   24.94310000
_cell_length_b   24.94310000
_cell_length_c   20.28400000
_cell_angle_alpha   90.00000000
_cell_angle_beta   90.00000000
_cell_angle_gamma   116.38300000
_symmetry_Int_Tables_number   1
_chemical_formula_structural   Zr3H36C58(NO8)2
_chemical_formula_sum   'Zr6 H72 C116 N4 O32'
_cell_volume   11305.41933566
_cell_formula_units_Z   2
loop_
 _symmetry_equiv_pos_site_id
 _symmetry_equiv_pos_as_xyz
  1  'x, y, z'
loop_
 _atom_site_type_symbol
 _atom_site_label
 _atom_site_symmetry_multiplicity
 _atom_site_fract_x
 _atom_site_fract_y
 _atom_site_fract_z
 _atom_site_occupancy
 _atom_site_charge
Zr  Zr1  1  0.05801000  0.94199000  0.50000000  1.0 2.3773402582
Zr  Zr2  1  0.94199000  0.05801000  0.50000000  1.0 2.3773402582
Zr  Zr3  1  0.06720000  0.06720000  0.41289000  1.0 2.5302789222
Zr  Zr4  1  0.93280000  0.93280000  0.41289000  1.0 2.5302789222
Zr  Zr5  1  0.93280000  0.93280000  0.58711000  1.0 2.5302789222
Zr  Zr6  1  0.06720000  0.06720000  0.58711000  1.0 2.5302789222
H  H1  1  0.94024000  0.41274000  0.94204000  1.0 0.1467657026
H  H2  1  0.06559000  0.79121000  0.60426000  1.0 0.1467657026
H  H3  1  0.91965000  0.77115000  0.70025000  1.0 0.1467657026
H  H4  1  0.94000000  0.55940000  0.88347000  1.0 0.1467657026
H  H5  1  0.92423000  0.69579000  0.76101000  1.0 0.1301911441
H  H6  1  0.05464000  0.63254000  0.69788000  1.0 0.1301911441
H  H7  1  0.06737000  0.71379000  0.66514000  1.0 0.1301911441
H  H8  1  0.05528000  0.55302000  0.75697000  1.0 0.1467657026
H  H9  1  0.93699000  0.63873000  0.82571000  1.0 0.1361150538
H  H10  1  0.05976000  0.58726000  0.94204000  1.0 0.1467657026
H  H11  1  0.93441000  0.20879000  0.60426000  1.0 0.1467657026
H  H12  1  0.08035000  0.22885000  0.70025000  1.0 0.1467657026
H  H13  1  0.06000000  0.44060000  0.88347000  1.0 0.1467657026
H  H14  1  0.07577000  0.30421000  0.76101000  1.0 0.1301911441
H  H15  1  0.94536000  0.36746000  0.69788000  1.0 0.1301911441
H  H16  1  0.93263000  0.28621000  0.66514000  1.0 0.1301911441
H  H17  1  0.94472000  0.44698000  0.75697000  1.0 0.1467657026
H  H18  1  0.06301000  0.36127000  0.82571000  1.0 0.1361150538
H  H19  1  0.58726000  0.05976000  0.05796000  1.0 0.1467657026
H  H20  1  0.20879000  0.93441000  0.39574000  1.0 0.1467657026
H  H21  1  0.22885000  0.08035000  0.29975000  1.0 0.1467657026
H  H22  1  0.44060000  0.06000000  0.11653000  1.0 0.1467657026
H  H23  1  0.30421000  0.07577000  0.23899000  1.0 0.1301911441
H  H24  1  0.36746000  0.94536000  0.30212000  1.0 0.1301911441
H  H25  1  0.28621000  0.93263000  0.33486000  1.0 0.1301911441
H  H26  1  0.44698000  0.94472000  0.24303000  1.0 0.1467657026
H  H27  1  0.36127000  0.06301000  0.17429000  1.0 0.1361150538
H  H28  1  0.41274000  0.94024000  0.05796000  1.0 0.1467657026
H  H29  1  0.79121000  0.06559000  0.39574000  1.0 0.1467657026
H  H30  1  0.77115000  0.91965000  0.29975000  1.0 0.1467657026
H  H31  1  0.55940000  0.94000000  0.11653000  1.0 0.1467657026
H  H32  1  0.69579000  0.92423000  0.23899000  1.0 0.1301911441
H  H33  1  0.63254000  0.05464000  0.30212000  1.0 0.1301911441
H  H34  1  0.71379000  0.06737000  0.33486000  1.0 0.1301911441
H  H35  1  0.55302000  0.05528000  0.24303000  1.0 0.1467657026
H  H36  1  0.63873000  0.93699000  0.17429000  1.0 0.1361150538
H  H37  1  0.05976000  0.58726000  0.05796000  1.0 0.1467657026
H  H38  1  0.93441000  0.20879000  0.39574000  1.0 0.1467657026
H  H39  1  0.08035000  0.22885000  0.29975000  1.0 0.1467657026
H  H40  1  0.06000000  0.44060000  0.11653000  1.0 0.1467657026
H  H41  1  0.07577000  0.30421000  0.23899000  1.0 0.1301911441
H  H42  1  0.94536000  0.36746000  0.30212000  1.0 0.1301911441
H  H43  1  0.93263000  0.28621000  0.33486000  1.0 0.1301911441
H  H44  1  0.94472000  0.44698000  0.24303000  1.0 0.1467657026
H  H45  1  0.06301000  0.36127000  0.17429000  1.0 0.1361150538
H  H46  1  0.94024000  0.41274000  0.05796000  1.0 0.1467657026
H  H47  1  0.06559000  0.79121000  0.39574000  1.0 0.1467657026
H  H48  1  0.91965000  0.77115000  0.29975000  1.0 0.1467657026
H  H49  1  0.94000000  0.55940000  0.11653000  1.0 0.1467657026
H  H50  1  0.92423000  0.69579000  0.23899000  1.0 0.1301911441
H  H51  1  0.05464000  0.63254000  0.30212000  1.0 0.1301911441
H  H52  1  0.06737000  0.71379000  0.33486000  1.0 0.1301911441
H  H53  1  0.05528000  0.55302000  0.24303000  1.0 0.1467657026
H  H54  1  0.93699000  0.63873000  0.17429000  1.0 0.1361150538
H  H55  1  0.41274000  0.94024000  0.94204000  1.0 0.1467657026
H  H56  1  0.79121000  0.06559000  0.60426000  1.0 0.1467657026
H  H57  1  0.77115000  0.91965000  0.70025000  1.0 0.1467657026
H  H58  1  0.55940000  0.94000000  0.88347000  1.0 0.1467657026
H  H59  1  0.69579000  0.92423000  0.76101000  1.0 0.1301911441
H  H60  1  0.63254000  0.05464000  0.69788000  1.0 0.1301911441
H  H61  1  0.71379000  0.06737000  0.66514000  1.0 0.1301911441
H  H62  1  0.55302000  0.05528000  0.75697000  1.0 0.1467657026
H  H63  1  0.63873000  0.93699000  0.82571000  1.0 0.1361150538
H  H64  1  0.58726000  0.05976000  0.94204000  1.0 0.1467657026
H  H65  1  0.20879000  0.93441000  0.60426000  1.0 0.1467657026
H  H66  1  0.22885000  0.08035000  0.70025000  1.0 0.1467657026
H  H67  1  0.44060000  0.06000000  0.88347000  1.0 0.1467657026
H  H68  1  0.30421000  0.07577000  0.76101000  1.0 0.1301911441
H  H69  1  0.36746000  0.94536000  0.69788000  1.0 0.1301911441
H  H70  1  0.28621000  0.93263000  0.66514000  1.0 0.1301911441
H  H71  1  0.44698000  0.94472000  0.75697000  1.0 0.1467657026
H  H72  1  0.36127000  0.06301000  0.82571000  1.0 0.1361150538
C  C1  1  0.99387000  0.84261000  0.60940000  1.0 0.6513802048
C  C2  1  0.99265000  0.79103000  0.64725000  1.0 -0.0223977517
C  C3  1  0.99500000  0.69600000  0.71821000  1.0 0.09751282
C  C4  1  0.96455000  0.44825000  0.96550000  1.0 -0.1490832135
C  C5  1  0.99875000  0.54885000  0.82644000  1.0 0.167245173
C  C6  1  0.99574000  0.64466000  0.75597000  1.0 0.0823504116
C  C7  1  0.03576000  0.77204000  0.63680000  1.0 -0.0723589853
C  C8  1  0.95143000  0.76077000  0.69240000  1.0 -0.062135998
C  C9  1  0.96421000  0.57419000  0.84530000  1.0 -0.1856907744
C  C10  1  0.95361000  0.71479000  0.72800000  1.0 -0.144591439
C  C11  1  0.03052000  0.61848000  0.73620000  1.0 -0.1256949195
C  C12  1  0.03643000  0.72537000  0.67290000  1.0 -0.1490832135
C  C13  1  0.03075000  0.57065000  0.77220000  1.0 -0.1777655825
C  C14  1  0.96225000  0.62195000  0.81050000  1.0 -0.1226941291
C  C15  1  0.00613000  0.15739000  0.60940000  1.0 0.6513802048
C  C16  1  0.00735000  0.20897000  0.64725000  1.0 -0.0223977517
C  C17  1  0.00500000  0.30400000  0.71821000  1.0 0.09751282
C  C18  1  0.03545000  0.55175000  0.96550000  1.0 -0.1490832135
C  C19  1  0.00125000  0.45115000  0.82644000  1.0 0.167245173
C  C20  1  0.00426000  0.35534000  0.75597000  1.0 0.0823504116
C  C21  1  0.96424000  0.22796000  0.63680000  1.0 -0.0723589853
C  C22  1  0.04857000  0.23923000  0.69240000  1.0 -0.062135998
C  C23  1  0.03579000  0.42581000  0.84530000  1.0 -0.1856907744
C  C24  1  0.04639000  0.28521000  0.72800000  1.0 -0.144591439
C  C25  1  0.96948000  0.38152000  0.73620000  1.0 -0.1226941291
C  C26  1  0.96357000  0.27463000  0.67290000  1.0 -0.1490832135
C  C27  1  0.96925000  0.42935000  0.77220000  1.0 -0.1777655825
C  C28  1  0.03775000  0.37805000  0.81050000  1.0 -0.1226941291
C  C29  1  0.15739000  0.00613000  0.39060000  1.0 0.6513802048
C  C30  1  0.20897000  0.00735000  0.35275000  1.0 -0.0223977517
C  C31  1  0.30400000  0.00500000  0.28179000  1.0 0.09751282
C  C32  1  0.55175000  0.03545000  0.03450000  1.0 -0.1490832135
C  C33  1  0.45115000  0.00125000  0.17356000  1.0 0.164670394
C  C34  1  0.35534000  0.00426000  0.24403000  1.0 0.0823504116
C  C35  1  0.22796000  0.96424000  0.36320000  1.0 -0.0723589853
C  C36  1  0.23923000  0.04857000  0.30760000  1.0 -0.062135998
C  C37  1  0.42581000  0.03579000  0.15470000  1.0 -0.1856907744
C  C38  1  0.28521000  0.04639000  0.27200000  1.0 -0.1490832135
C  C39  1  0.38152000  0.96948000  0.26380000  1.0 -0.1226941291
C  C40  1  0.27463000  0.96357000  0.32710000  1.0 -0.1490832135
C  C41  1  0.42935000  0.96925000  0.22780000  1.0 -0.1777655825
C  C42  1  0.37805000  0.03775000  0.18950000  1.0 -0.1226941291
C  C43  1  0.84261000  0.99387000  0.39060000  1.0 0.6513802048
C  C44  1  0.79103000  0.99265000  0.35275000  1.0 -0.0223977517
C  C45  1  0.69600000  0.99500000  0.28179000  1.0 0.09751282
C  C46  1  0.44825000  0.96455000  0.03450000  1.0 -0.1490832135
C  C47  1  0.54885000  0.99875000  0.17356000  1.0 0.167245173
C  C48  1  0.64466000  0.99574000  0.24403000  1.0 0.0823504116
C  C49  1  0.77204000  0.03576000  0.36320000  1.0 -0.0723589853
C  C50  1  0.76077000  0.95143000  0.30760000  1.0 -0.062135998
C  C51  1  0.57419000  0.96421000  0.15470000  1.0 -0.1856907744
C  C52  1  0.71479000  0.95361000  0.27200000  1.0 -0.144591439
C  C53  1  0.61848000  0.03052000  0.26380000  1.0 -0.1256949195
C  C54  1  0.72537000  0.03643000  0.32710000  1.0 -0.1490832135
C  C55  1  0.57065000  0.03075000  0.22780000  1.0 -0.1777655825
C  C56  1  0.62195000  0.96225000  0.18950000  1.0 -0.1226941291
C  C57  1  0.00613000  0.15739000  0.39060000  1.0 0.6513802048
C  C58  1  0.00735000  0.20897000  0.35275000  1.0 -0.0223977517
C  C59  1  0.00500000  0.30400000  0.28179000  1.0 0.09751282
C  C60  1  0.03545000  0.55175000  0.03450000  1.0 -0.1490832135
C  C61  1  0.00125000  0.45115000  0.17356000  1.0 0.164670394
C  C62  1  0.00426000  0.35534000  0.24403000  1.0 0.0823504116
C  C63  1  0.96424000  0.22796000  0.36320000  1.0 -0.0723589853
C  C64  1  0.04857000  0.23923000  0.30760000  1.0 -0.062135998
C  C65  1  0.03579000  0.42581000  0.15470000  1.0 -0.1856907744
C  C66  1  0.04639000  0.28521000  0.27200000  1.0 -0.144591439
C  C67  1  0.96948000  0.38152000  0.26380000  1.0 -0.1226941291
C  C68  1  0.96357000  0.27463000  0.32710000  1.0 -0.1490832135
C  C69  1  0.96925000  0.42935000  0.22780000  1.0 -0.1777655825
C  C70  1  0.03775000  0.37805000  0.18950000  1.0 -0.1226941291
C  C71  1  0.99387000  0.84261000  0.39060000  1.0 0.6513802048
C  C72  1  0.99265000  0.79103000  0.35275000  1.0 -0.0223977517
C  C73  1  0.99500000  0.69600000  0.28179000  1.0 0.09751282
C  C74  1  0.96455000  0.44825000  0.03450000  1.0 -0.1490832135
C  C75  1  0.99875000  0.54885000  0.17356000  1.0 0.164670394
C  C76  1  0.99574000  0.64466000  0.24403000  1.0 0.0823504116
C  C77  1  0.03576000  0.77204000  0.36320000  1.0 -0.0723589853
C  C78  1  0.95143000  0.76077000  0.30760000  1.0 -0.062135998
C  C79  1  0.96421000  0.57419000  0.15470000  1.0 -0.1856907744
C  C80  1  0.95361000  0.71479000  0.27200000  1.0 -0.144591439
C  C81  1  0.03052000  0.61848000  0.26380000  1.0 -0.1256949195
C  C82  1  0.03643000  0.72537000  0.32710000  1.0 -0.1490832135
C  C83  1  0.03075000  0.57065000  0.22780000  1.0 -0.1777655825
C  C84  1  0.96225000  0.62195000  0.18950000  1.0 -0.1226941291
C  C85  1  0.84261000  0.99387000  0.60940000  1.0 0.6513802048
C  C86  1  0.79103000  0.99265000  0.64725000  1.0 -0.0223977517
C  C87  1  0.69600000  0.99500000  0.71821000  1.0 0.09751282
C  C88  1  0.44825000  0.96455000  0.96550000  1.0 -0.1490832135
C  C89  1  0.54885000  0.99875000  0.82644000  1.0 0.167245173
C  C90  1  0.64466000  0.99574000  0.75597000  1.0 0.0823504116
C  C91  1  0.77204000  0.03576000  0.63680000  1.0 -0.0723589853
C  C92  1  0.76077000  0.95143000  0.69240000  1.0 -0.062135998
C  C93  1  0.57419000  0.96421000  0.84530000  1.0 -0.1856907744
C  C94  1  0.71479000  0.95361000  0.72800000  1.0 -0.144591439
C  C95  1  0.61848000  0.03052000  0.73620000  1.0 -0.1226941291
C  C96  1  0.72537000  0.03643000  0.67290000  1.0 -0.1490832135
C  C97  1  0.57065000  0.03075000  0.77220000  1.0 -0.1777655825
C  C98  1  0.62195000  0.96225000  0.81050000  1.0 -0.1226941291
C  C99  1  0.15739000  0.00613000  0.60940000  1.0 0.6513802048
C  C100  1  0.20897000  0.00735000  0.64725000  1.0 -0.0223977517
C  C101  1  0.30400000  0.00500000  0.71821000  1.0 0.09751282
C  C102  1  0.55175000  0.03545000  0.96550000  1.0 -0.1490832135
C  C103  1  0.45115000  0.00125000  0.82644000  1.0 0.164670394
C  C104  1  0.35534000  0.00426000  0.75597000  1.0 0.0823504116
C  C105  1  0.22796000  0.96424000  0.63680000  1.0 -0.0723589853
C  C106  1  0.23923000  0.04857000  0.69240000  1.0 -0.062135998
C  C107  1  0.42581000  0.03579000  0.84530000  1.0 -0.1856907744
C  C108  1  0.28521000  0.04639000  0.72800000  1.0 -0.144591439
C  C109  1  0.38152000  0.96948000  0.73620000  1.0 -0.1226941291
C  C110  1  0.27463000  0.96357000  0.67290000  1.0 -0.1490832135
C  C111  1  0.42935000  0.96925000  0.77220000  1.0 -0.1777655825
C  C112  1  0.37805000  0.03775000  0.81050000  1.0 -0.1226941291
C  C113  1  0.00000000  0.50000000  0.93140000  1.0 0.167245173
C  C114  1  0.50000000  0.00000000  0.06860000  1.0 0.167245173
C  C115  1  0.00000000  0.50000000  0.06860000  1.0 0.167245173
C  C116  1  0.50000000  0.00000000  0.93140000  1.0 0.167245173
N  N1  1  0.00000000  0.50000000  0.86200000  1.0 -0.1565971624
N  N2  1  0.50000000  0.00000000  0.13800000  1.0 -0.1565971624
N  N3  1  0.00000000  0.50000000  0.13800000  1.0 -0.1565971624
N  N4  1  0.50000000  0.00000000  0.86200000  1.0 -0.1565971624
O  O1  1  0.03330000  0.86500000  0.56561000  1.0 -0.558958887
O  O2  1  0.95346000  0.85866000  0.62261000  1.0 -0.5704665471
O  O3  1  0.96670000  0.13500000  0.56561000  1.0 -0.558958887
O  O4  1  0.04654000  0.14134000  0.62261000  1.0 -0.5704665471
O  O5  1  0.13500000  0.96670000  0.43439000  1.0 -0.558958887
O  O6  1  0.14134000  0.04654000  0.37739000  1.0 -0.5704665471
O  O7  1  0.86500000  0.03330000  0.43439000  1.0 -0.558958887
O  O8  1  0.85866000  0.95346000  0.37739000  1.0 -0.5704665471
O  O9  1  0.96670000  0.13500000  0.43439000  1.0 -0.558958887
O  O10  1  0.04654000  0.14134000  0.37739000  1.0 -0.5704665471
O  O11  1  0.03330000  0.86500000  0.43439000  1.0 -0.558958887
O  O12  1  0.95346000  0.85866000  0.37739000  1.0 -0.5704665471
O  O13  1  0.86500000  0.03330000  0.56561000  1.0 -0.558958887
O  O14  1  0.85866000  0.95346000  0.62261000  1.0 -0.5704665471
O  O15  1  0.13500000  0.96670000  0.56561000  1.0 -0.558958887
O  O16  1  0.14134000  0.04654000  0.62261000  1.0 -0.5704665471
O  O17  1  0.06260000  0.06260000  0.30358000  1.0 -0.6606280197
O  O18  1  0.15103000  0.15103000  0.41796000  1.0 -0.6792141188
O  O19  1  0.93740000  0.93740000  0.30358000  1.0 -0.6606280197
O  O20  1  0.84897000  0.84897000  0.41796000  1.0 -0.6792141188
O  O21  1  0.93740000  0.93740000  0.69642000  1.0 -0.6606280197
O  O22  1  0.84897000  0.84897000  0.58204000  1.0 -0.6792141188
O  O23  1  0.06260000  0.06260000  0.69642000  1.0 -0.6606280197
O  O24  1  0.15103000  0.15103000  0.58204000  1.0 -0.6792141188
O  O25  1  0.09602000  0.04018000  0.50000000  1.0 -1.1078945983
O  O26  1  0.90398000  0.95982000  0.50000000  1.0 -1.1045345653
O  O27  1  0.95982000  0.90398000  0.50000000  1.0 -1.1078945983
O  O28  1  0.04018000  0.09602000  0.50000000  1.0 -1.1078945983
O  O29  1  0.02823000  0.97177000  0.41200000  1.0 -1.1189219345
O  O30  1  0.97177000  0.02823000  0.41200000  1.0 -1.1189219345
O  O31  1  0.02823000  0.97177000  0.58800000  1.0 -1.1189219345
O  O32  1  0.97177000  0.02823000  0.58800000  1.0 -1.1189219345
