# DDEC6 charges by PACMAN v1.1 (https://github.com/mtap-research/PACMAN-charge/)
data_XEFGEU03_ion_pacman
_symmetry_space_group_name_H-M   'P 1'
_cell_length_a   10.95700000
_cell_length_b   10.95700000
_cell_length_c   20.94500000
_cell_angle_alpha   90.00000000
_cell_angle_beta   90.00000000
_cell_angle_gamma   90.00000000
_symmetry_Int_Tables_number   1
_chemical_formula_structural   CuSiH20C20N8(OF3)2
_chemical_formula_sum   'Cu4 Si4 H80 C80 N32 O8 F24'
_cell_volume   2514.56975731
_cell_formula_units_Z   4
loop_
 _symmetry_equiv_pos_site_id
 _symmetry_equiv_pos_as_xyz
  1  'x, y, z'
loop_
 _atom_site_type_symbol
 _atom_site_label
 _atom_site_symmetry_multiplicity
 _atom_site_fract_x
 _atom_site_fract_y
 _atom_site_fract_z
 _atom_site_occupancy
 _atom_site_charge
Cu  Cu1  1  0.00000000  0.00000000  0.25000000  1.0 0.6740078927
Cu  Cu2  1  0.50000000  0.50000000  0.75000000  1.0 0.6740078927
Cu  Cu3  1  0.50000000  0.50000000  0.25000000  1.0 0.6740078927
Cu  Cu4  1  0.00000000  0.00000000  0.75000000  1.0 0.6740078927
Si  Si1  1  0.50000000  0.00000000  0.79376000  1.0 1.7188782693
Si  Si2  1  0.00000000  0.50000000  0.70624000  1.0 1.7188782693
Si  Si3  1  0.00000000  0.50000000  0.20624000  1.0 1.7188782693
Si  Si4  1  0.50000000  0.00000000  0.29376000  1.0 1.7188782693
H  H1  1  0.14800000  0.22030000  0.27760000  1.0 0.3787862659
H  H2  1  0.85200000  0.77970000  0.27760000  1.0 0.3787862659
H  H3  1  0.77970000  0.85200000  0.22240000  1.0 0.3787862659
H  H4  1  0.22030000  0.14800000  0.22240000  1.0 0.3787862659
H  H5  1  0.35200000  0.27970000  0.72240000  1.0 0.3787862659
H  H6  1  0.64800000  0.72030000  0.72240000  1.0 0.3787862659
H  H7  1  0.72030000  0.64800000  0.77760000  1.0 0.3787862659
H  H8  1  0.27970000  0.35200000  0.77760000  1.0 0.3787862659
H  H9  1  0.85890000  0.35860000  0.37480000  1.0 0.1487808825
H  H10  1  0.14110000  0.64140000  0.37480000  1.0 0.1487808825
H  H11  1  0.64140000  0.14110000  0.12520000  1.0 0.1487808825
H  H12  1  0.35860000  0.85890000  0.12520000  1.0 0.1487808825
H  H13  1  0.64110000  0.14140000  0.62520000  1.0 0.1487808825
H  H14  1  0.35890000  0.85860000  0.62520000  1.0 0.1487808825
H  H15  1  0.85860000  0.35890000  0.87480000  1.0 0.1487808825
H  H16  1  0.14140000  0.64110000  0.87480000  1.0 0.1487808825
H  H17  1  0.94260000  0.25380000  0.28950000  1.0 0.110596411
H  H18  1  0.05740000  0.74620000  0.28950000  1.0 0.110596411
H  H19  1  0.74620000  0.05740000  0.21050000  1.0 0.110596411
H  H20  1  0.25380000  0.94260000  0.21050000  1.0 0.110596411
H  H21  1  0.55740000  0.24620000  0.71050000  1.0 0.110596411
H  H22  1  0.44260000  0.75380000  0.71050000  1.0 0.110596411
H  H23  1  0.75380000  0.44260000  0.78950000  1.0 0.110596411
H  H24  1  0.24620000  0.55740000  0.78950000  1.0 0.110596411
H  H25  1  0.85200000  0.94070000  0.36570000  1.0 0.110596411
H  H26  1  0.14800000  0.05930000  0.36570000  1.0 0.110596411
H  H27  1  0.05930000  0.14800000  0.13430000  1.0 0.110596411
H  H28  1  0.94070000  0.85200000  0.13430000  1.0 0.110596411
H  H29  1  0.64800000  0.55930000  0.63430000  1.0 0.110596411
H  H30  1  0.35200000  0.44070000  0.63430000  1.0 0.110596411
H  H31  1  0.44070000  0.35200000  0.86570000  1.0 0.110596411
H  H32  1  0.55930000  0.64800000  0.86570000  1.0 0.110596411
H  H33  1  0.76520000  0.03680000  0.45270000  1.0 0.1391730906
H  H34  1  0.23480000  0.96320000  0.45270000  1.0 0.1391730906
H  H35  1  0.96320000  0.23480000  0.04730000  1.0 0.1391730906
H  H36  1  0.03680000  0.76520000  0.04730000  1.0 0.1391730906
H  H37  1  0.73480000  0.46320000  0.54730000  1.0 0.1391730906
H  H38  1  0.26520000  0.53680000  0.54730000  1.0 0.1391730906
H  H39  1  0.53680000  0.26520000  0.95270000  1.0 0.1391730906
H  H40  1  0.46320000  0.73480000  0.95270000  1.0 0.1391730906
H  H41  1  0.72030000  0.35200000  0.27760000  1.0 0.3787862659
H  H42  1  0.27970000  0.64800000  0.27760000  1.0 0.3787862659
H  H43  1  0.35200000  0.72030000  0.22240000  1.0 0.3787862659
H  H44  1  0.64800000  0.27970000  0.22240000  1.0 0.3787862659
H  H45  1  0.77970000  0.14800000  0.72240000  1.0 0.3787862659
H  H46  1  0.22030000  0.85200000  0.72240000  1.0 0.3787862659
H  H47  1  0.14800000  0.77970000  0.77760000  1.0 0.3787862659
H  H48  1  0.85200000  0.22030000  0.77760000  1.0 0.3787862659
H  H49  1  0.85860000  0.64110000  0.37480000  1.0 0.1487808825
H  H50  1  0.14140000  0.35890000  0.37480000  1.0 0.1487808825
H  H51  1  0.64110000  0.85860000  0.12520000  1.0 0.1487808825
H  H52  1  0.35890000  0.14140000  0.12520000  1.0 0.1487808825
H  H53  1  0.64140000  0.85890000  0.62520000  1.0 0.1487808825
H  H54  1  0.35860000  0.14110000  0.62520000  1.0 0.1487808825
H  H55  1  0.85890000  0.64140000  0.87480000  1.0 0.1487808825
H  H56  1  0.14110000  0.35860000  0.87480000  1.0 0.1487808825
H  H57  1  0.75380000  0.55740000  0.28950000  1.0 0.110596411
H  H58  1  0.24620000  0.44260000  0.28950000  1.0 0.110596411
H  H59  1  0.55740000  0.75380000  0.21050000  1.0 0.110596411
H  H60  1  0.44260000  0.24620000  0.21050000  1.0 0.110596411
H  H61  1  0.74620000  0.94260000  0.71050000  1.0 0.110596411
H  H62  1  0.25380000  0.05740000  0.71050000  1.0 0.110596411
H  H63  1  0.94260000  0.74620000  0.78950000  1.0 0.110596411
H  H64  1  0.05740000  0.25380000  0.78950000  1.0 0.110596411
H  H65  1  0.44070000  0.64800000  0.36570000  1.0 0.110596411
H  H66  1  0.55930000  0.35200000  0.36570000  1.0 0.110596411
H  H67  1  0.64800000  0.44070000  0.13430000  1.0 0.110596411
H  H68  1  0.35200000  0.55930000  0.13430000  1.0 0.110596411
H  H69  1  0.05930000  0.85200000  0.63430000  1.0 0.110596411
H  H70  1  0.94070000  0.14800000  0.63430000  1.0 0.110596411
H  H71  1  0.85200000  0.05930000  0.86570000  1.0 0.110596411
H  H72  1  0.14800000  0.94070000  0.86570000  1.0 0.110596411
H  H73  1  0.53680000  0.73480000  0.45270000  1.0 0.1391730906
H  H74  1  0.46320000  0.26520000  0.45270000  1.0 0.1391730906
H  H75  1  0.73480000  0.53680000  0.04730000  1.0 0.1391730906
H  H76  1  0.26520000  0.46320000  0.04730000  1.0 0.1391730906
H  H77  1  0.96320000  0.76520000  0.54730000  1.0 0.1391730906
H  H78  1  0.03680000  0.23480000  0.54730000  1.0 0.1391730906
H  H79  1  0.76520000  0.96320000  0.95270000  1.0 0.1391730906
H  H80  1  0.23480000  0.03680000  0.95270000  1.0 0.1391730906
C  C1  1  0.85720000  0.27370000  0.37382000  1.0 -0.1979456552
C  C2  1  0.14280000  0.72630000  0.37382000  1.0 -0.1979456552
C  C3  1  0.72630000  0.14280000  0.12618000  1.0 -0.1979456552
C  C4  1  0.27370000  0.85720000  0.12618000  1.0 -0.1979456552
C  C5  1  0.64280000  0.22630000  0.62618000  1.0 -0.1979456552
C  C6  1  0.35720000  0.77370000  0.62618000  1.0 -0.1979456552
C  C7  1  0.77370000  0.35720000  0.87382000  1.0 -0.1979456552
C  C8  1  0.22630000  0.64280000  0.87382000  1.0 -0.1979456552
C  C9  1  0.90710000  0.21018000  0.32276000  1.0 0.0881127343
C  C10  1  0.09290000  0.78982000  0.32276000  1.0 0.0881127343
C  C11  1  0.78982000  0.09290000  0.17724000  1.0 0.0881127343
C  C12  1  0.21018000  0.90710000  0.17724000  1.0 0.0881127343
C  C13  1  0.59290000  0.28982000  0.67724000  1.0 0.0881127343
C  C14  1  0.40710000  0.71018000  0.67724000  1.0 0.0881127343
C  C15  1  0.71018000  0.40710000  0.82276000  1.0 0.0881127343
C  C16  1  0.28982000  0.59290000  0.82276000  1.0 0.0881127343
C  C17  1  0.85330000  0.02540000  0.36787000  1.0 0.102495065
C  C18  1  0.14670000  0.97460000  0.36787000  1.0 0.102495065
C  C19  1  0.97460000  0.14670000  0.13213000  1.0 0.102495065
C  C20  1  0.02540000  0.85330000  0.13213000  1.0 0.102495065
C  C21  1  0.64670000  0.47460000  0.63213000  1.0 0.102495065
C  C22  1  0.35330000  0.52540000  0.63213000  1.0 0.102495065
C  C23  1  0.52540000  0.35330000  0.86787000  1.0 0.102495065
C  C24  1  0.47460000  0.64670000  0.86787000  1.0 0.102495065
C  C25  1  0.80150000  0.08220000  0.42029000  1.0 -0.1766200791
C  C26  1  0.19850000  0.91780000  0.42029000  1.0 -0.1766200791
C  C27  1  0.91780000  0.19850000  0.07971000  1.0 -0.1766200791
C  C28  1  0.08220000  0.80150000  0.07971000  1.0 -0.1766200791
C  C29  1  0.69850000  0.41780000  0.57971000  1.0 -0.1766200791
C  C30  1  0.30150000  0.58220000  0.57971000  1.0 -0.1766200791
C  C31  1  0.58220000  0.30150000  0.92029000  1.0 -0.1766200791
C  C32  1  0.41780000  0.69850000  0.92029000  1.0 -0.1766200791
C  C33  1  0.80510000  0.20840000  0.42326000  1.0 0.1940956973
C  C34  1  0.19490000  0.79160000  0.42326000  1.0 0.1940956973
C  C35  1  0.79160000  0.19490000  0.07674000  1.0 0.1940956973
C  C36  1  0.20840000  0.80510000  0.07674000  1.0 0.1940956973
C  C37  1  0.69490000  0.29160000  0.57674000  1.0 0.1940956973
C  C38  1  0.30510000  0.70840000  0.57674000  1.0 0.1940956973
C  C39  1  0.70840000  0.30510000  0.92326000  1.0 0.1940956973
C  C40  1  0.29160000  0.69490000  0.92326000  1.0 0.1940956973
C  C41  1  0.77370000  0.64280000  0.37382000  1.0 -0.1979456552
C  C42  1  0.22630000  0.35720000  0.37382000  1.0 -0.1979456552
C  C43  1  0.64280000  0.77370000  0.12618000  1.0 -0.1979456552
C  C44  1  0.35720000  0.22630000  0.12618000  1.0 -0.1979456552
C  C45  1  0.72630000  0.85720000  0.62618000  1.0 -0.1979456552
C  C46  1  0.27370000  0.14280000  0.62618000  1.0 -0.1979456552
C  C47  1  0.85720000  0.72630000  0.87382000  1.0 -0.1979456552
C  C48  1  0.14280000  0.27370000  0.87382000  1.0 -0.1979456552
C  C49  1  0.71018000  0.59290000  0.32276000  1.0 0.0881127343
C  C50  1  0.28982000  0.40710000  0.32276000  1.0 0.0881127343
C  C51  1  0.59290000  0.71018000  0.17724000  1.0 0.0881127343
C  C52  1  0.40710000  0.28982000  0.17724000  1.0 0.0881127343
C  C53  1  0.78982000  0.90710000  0.67724000  1.0 0.0881127343
C  C54  1  0.21018000  0.09290000  0.67724000  1.0 0.0881127343
C  C55  1  0.90710000  0.78982000  0.82276000  1.0 0.0881127343
C  C56  1  0.09290000  0.21018000  0.82276000  1.0 0.0881127343
C  C57  1  0.52540000  0.64670000  0.36787000  1.0 0.102495065
C  C58  1  0.47460000  0.35330000  0.36787000  1.0 0.102495065
C  C59  1  0.64670000  0.52540000  0.13213000  1.0 0.102495065
C  C60  1  0.35330000  0.47460000  0.13213000  1.0 0.102495065
C  C61  1  0.97460000  0.85330000  0.63213000  1.0 0.102495065
C  C62  1  0.02540000  0.14670000  0.63213000  1.0 0.102495065
C  C63  1  0.85330000  0.97460000  0.86787000  1.0 0.102495065
C  C64  1  0.14670000  0.02540000  0.86787000  1.0 0.102495065
C  C65  1  0.58220000  0.69850000  0.42029000  1.0 -0.1766200791
C  C66  1  0.41780000  0.30150000  0.42029000  1.0 -0.1766200791
C  C67  1  0.69850000  0.58220000  0.07971000  1.0 -0.1766200791
C  C68  1  0.30150000  0.41780000  0.07971000  1.0 -0.1766200791
C  C69  1  0.91780000  0.80150000  0.57971000  1.0 -0.1766200791
C  C70  1  0.08220000  0.19850000  0.57971000  1.0 -0.1766200791
C  C71  1  0.80150000  0.91780000  0.92029000  1.0 -0.1766200791
C  C72  1  0.19850000  0.08220000  0.92029000  1.0 -0.1766200791
C  C73  1  0.70840000  0.69490000  0.42326000  1.0 0.1940956973
C  C74  1  0.29160000  0.30510000  0.42326000  1.0 0.1940956973
C  C75  1  0.69490000  0.70840000  0.07674000  1.0 0.1940956973
C  C76  1  0.30510000  0.29160000  0.07674000  1.0 0.1940956973
C  C77  1  0.79160000  0.80510000  0.57674000  1.0 0.1940956973
C  C78  1  0.20840000  0.19490000  0.57674000  1.0 0.1940956973
C  C79  1  0.80510000  0.79160000  0.92326000  1.0 0.1940956973
C  C80  1  0.19490000  0.20840000  0.92326000  1.0 0.1940956973
N  N1  1  0.90562000  0.08845000  0.31991000  1.0 -0.2201023585
N  N2  1  0.09438000  0.91155000  0.31991000  1.0 -0.2201023585
N  N3  1  0.91155000  0.09438000  0.18009000  1.0 -0.2201023585
N  N4  1  0.08845000  0.90562000  0.18009000  1.0 -0.2201023585
N  N5  1  0.59438000  0.41155000  0.68009000  1.0 -0.2201023585
N  N6  1  0.40562000  0.58845000  0.68009000  1.0 -0.2201023585
N  N7  1  0.58845000  0.40562000  0.81991000  1.0 -0.2201023585
N  N8  1  0.41155000  0.59438000  0.81991000  1.0 -0.2201023585
N  N9  1  0.75350000  0.27800000  0.47495000  1.0 -0.1139601733
N  N10  1  0.24650000  0.72200000  0.47495000  1.0 -0.1139601733
N  N11  1  0.72200000  0.24650000  0.02505000  1.0 -0.1139601733
N  N12  1  0.27800000  0.75350000  0.02505000  1.0 -0.1139601733
N  N13  1  0.74650000  0.22200000  0.52505000  1.0 -0.1139601733
N  N14  1  0.25350000  0.77800000  0.52505000  1.0 -0.1139601733
N  N15  1  0.77800000  0.25350000  0.97495000  1.0 -0.1139601733
N  N16  1  0.22200000  0.74650000  0.97495000  1.0 -0.1139601733
N  N17  1  0.58845000  0.59438000  0.31991000  1.0 -0.2201023585
N  N18  1  0.41155000  0.40562000  0.31991000  1.0 -0.2201023585
N  N19  1  0.59438000  0.58845000  0.18009000  1.0 -0.2201023585
N  N20  1  0.40562000  0.41155000  0.18009000  1.0 -0.2201023585
N  N21  1  0.91155000  0.90562000  0.68009000  1.0 -0.2201023585
N  N22  1  0.08845000  0.09438000  0.68009000  1.0 -0.2201023585
N  N23  1  0.90562000  0.91155000  0.81991000  1.0 -0.2201023585
N  N24  1  0.09438000  0.08845000  0.81991000  1.0 -0.2201023585
N  N25  1  0.77800000  0.74650000  0.47495000  1.0 -0.1139601733
N  N26  1  0.22200000  0.25350000  0.47495000  1.0 -0.1139601733
N  N27  1  0.74650000  0.77800000  0.02505000  1.0 -0.1139601733
N  N28  1  0.25350000  0.22200000  0.02505000  1.0 -0.1139601733
N  N29  1  0.72200000  0.75350000  0.52505000  1.0 -0.1139601733
N  N30  1  0.27800000  0.24650000  0.52505000  1.0 -0.1139601733
N  N31  1  0.75350000  0.72200000  0.97495000  1.0 -0.1139601733
N  N32  1  0.24650000  0.27800000  0.97495000  1.0 -0.1139601733
O  O1  1  0.15415000  0.15415000  0.25000000  1.0 -0.7650826572
O  O2  1  0.84585000  0.84585000  0.25000000  1.0 -0.7644168734
O  O3  1  0.34585000  0.34585000  0.75000000  1.0 -0.7650826572
O  O4  1  0.65415000  0.65415000  0.75000000  1.0 -0.7650826572
O  O5  1  0.65415000  0.34585000  0.25000000  1.0 -0.7650826572
O  O6  1  0.34585000  0.65415000  0.25000000  1.0 -0.7650826572
O  O7  1  0.84585000  0.15415000  0.75000000  1.0 -0.7650826572
O  O8  1  0.15415000  0.84585000  0.75000000  1.0 -0.7650826572
F  F1  1  0.59549000  0.87930000  0.79317000  1.0 -0.517002914
F  F2  1  0.40451000  0.12070000  0.79317000  1.0 -0.517002914
F  F3  1  0.37930000  0.90451000  0.79317000  1.0 -0.517002914
F  F4  1  0.62070000  0.09549000  0.79317000  1.0 -0.517002914
F  F5  1  0.50000000  0.00000000  0.87355000  1.0 -0.5136443376
F  F6  1  0.50000000  0.00000000  0.71322000  1.0 -0.5372644662
F  F7  1  0.90451000  0.37930000  0.70683000  1.0 -0.517002914
F  F8  1  0.09549000  0.62070000  0.70683000  1.0 -0.517002914
F  F9  1  0.12070000  0.40451000  0.70683000  1.0 -0.517002914
F  F10  1  0.87930000  0.59549000  0.70683000  1.0 -0.517002914
F  F11  1  0.00000000  0.50000000  0.62645000  1.0 -0.5136443376
F  F12  1  0.00000000  0.50000000  0.78678000  1.0 -0.5372644662
F  F13  1  0.90451000  0.62070000  0.20683000  1.0 -0.517002914
F  F14  1  0.09549000  0.37930000  0.20683000  1.0 -0.517002914
F  F15  1  0.12070000  0.59549000  0.20683000  1.0 -0.517002914
F  F16  1  0.87930000  0.40451000  0.20683000  1.0 -0.517002914
F  F17  1  0.00000000  0.50000000  0.12645000  1.0 -0.5136443376
F  F18  1  0.00000000  0.50000000  0.28678000  1.0 -0.5372644662
F  F19  1  0.59549000  0.12070000  0.29317000  1.0 -0.517002914
F  F20  1  0.40451000  0.87930000  0.29317000  1.0 -0.517002914
F  F21  1  0.37930000  0.09549000  0.29317000  1.0 -0.517002914
F  F22  1  0.62070000  0.90451000  0.29317000  1.0 -0.517002914
F  F23  1  0.50000000  0.00000000  0.37355000  1.0 -0.5136443376
F  F24  1  0.50000000  0.00000000  0.21322000  1.0 -0.5372644662
