# DDEC6 charges by PACMAN v1.1 (https://github.com/mtap-research/PACMAN-charge/)
data_XEFGEU02_ion_pacman
_symmetry_space_group_name_H-M   'P 1'
_cell_length_a   10.94000000
_cell_length_b   10.94000000
_cell_length_c   20.92300000
_cell_angle_alpha   90.00000000
_cell_angle_beta   90.00000000
_cell_angle_gamma   90.00000000
_symmetry_Int_Tables_number   1
_chemical_formula_structural   CuSiH20C20N8(OF3)2
_chemical_formula_sum   'Cu4 Si4 H80 C80 N32 O8 F24'
_cell_volume   2504.13996280
_cell_formula_units_Z   4
loop_
 _symmetry_equiv_pos_site_id
 _symmetry_equiv_pos_as_xyz
  1  'x, y, z'
loop_
 _atom_site_type_symbol
 _atom_site_label
 _atom_site_symmetry_multiplicity
 _atom_site_fract_x
 _atom_site_fract_y
 _atom_site_fract_z
 _atom_site_occupancy
 _atom_site_charge
Cu  Cu1  1  0.50000000  0.50000000  0.75000000  1.0 0.6726137825
Cu  Cu2  1  0.00000000  0.00000000  0.25000000  1.0 0.6726137825
Cu  Cu3  1  0.00000000  0.00000000  0.75000000  1.0 0.6726137825
Cu  Cu4  1  0.50000000  0.50000000  0.25000000  1.0 0.6726137825
Si  Si1  1  0.00000000  0.50000000  0.20570000  1.0 1.7186859079
Si  Si2  1  0.50000000  0.00000000  0.29430000  1.0 1.7186859079
Si  Si3  1  0.50000000  0.00000000  0.79430000  1.0 1.7186859079
Si  Si4  1  0.00000000  0.50000000  0.70570000  1.0 1.7186859079
H  H1  1  0.27950000  0.35230000  0.77750000  1.0 0.3809078276
H  H2  1  0.72050000  0.64770000  0.77750000  1.0 0.3809078276
H  H3  1  0.64770000  0.72050000  0.72250000  1.0 0.3809078276
H  H4  1  0.35230000  0.27950000  0.72250000  1.0 0.3809078276
H  H5  1  0.22050000  0.14770000  0.22250000  1.0 0.3809078276
H  H6  1  0.77950000  0.85230000  0.22250000  1.0 0.3809078276
H  H7  1  0.85230000  0.77950000  0.27750000  1.0 0.3809078276
H  H8  1  0.14770000  0.22050000  0.27750000  1.0 0.3809078276
H  H9  1  0.24700000  0.55730000  0.79000000  1.0 0.1143218618
H  H10  1  0.75300000  0.44270000  0.79000000  1.0 0.1143218618
H  H11  1  0.44270000  0.75300000  0.71000000  1.0 0.1143218618
H  H12  1  0.55730000  0.24700000  0.71000000  1.0 0.1143218618
H  H13  1  0.25300000  0.94270000  0.21000000  1.0 0.1143218618
H  H14  1  0.74700000  0.05730000  0.21000000  1.0 0.1143218618
H  H15  1  0.05730000  0.74700000  0.29000000  1.0 0.1143218618
H  H16  1  0.94270000  0.25300000  0.29000000  1.0 0.1143218618
H  H17  1  0.55830000  0.64530000  0.86660000  1.0 0.1143218618
H  H18  1  0.44170000  0.35470000  0.86660000  1.0 0.1143218618
H  H19  1  0.35470000  0.44170000  0.63340000  1.0 0.1143218618
H  H20  1  0.64530000  0.55830000  0.63340000  1.0 0.1143218618
H  H21  1  0.94170000  0.85470000  0.13340000  1.0 0.1143218618
H  H22  1  0.05830000  0.14530000  0.13340000  1.0 0.1143218618
H  H23  1  0.14530000  0.05830000  0.36660000  1.0 0.1143218618
H  H24  1  0.85470000  0.94170000  0.36660000  1.0 0.1143218618
H  H25  1  0.46380000  0.73760000  0.95250000  1.0 0.1421457805
H  H26  1  0.53620000  0.26240000  0.95250000  1.0 0.1421457805
H  H27  1  0.26240000  0.53620000  0.54750000  1.0 0.1421457805
H  H28  1  0.73760000  0.46380000  0.54750000  1.0 0.1421457805
H  H29  1  0.03620000  0.76240000  0.04750000  1.0 0.1421457805
H  H30  1  0.96380000  0.23760000  0.04750000  1.0 0.1421457805
H  H31  1  0.23760000  0.96380000  0.45250000  1.0 0.1421457805
H  H32  1  0.76240000  0.03620000  0.45250000  1.0 0.1421457805
H  H33  1  0.13870000  0.63710000  0.87460000  1.0 0.1534694262
H  H34  1  0.86130000  0.36290000  0.87460000  1.0 0.1534694262
H  H35  1  0.36290000  0.86130000  0.62540000  1.0 0.1534694262
H  H36  1  0.63710000  0.13870000  0.62540000  1.0 0.1534694262
H  H37  1  0.36130000  0.86290000  0.12540000  1.0 0.1534694262
H  H38  1  0.63870000  0.13710000  0.12540000  1.0 0.1534694262
H  H39  1  0.13710000  0.63870000  0.37460000  1.0 0.1534694262
H  H40  1  0.86290000  0.36130000  0.37460000  1.0 0.1534694262
H  H41  1  0.85230000  0.22050000  0.77750000  1.0 0.3809078276
H  H42  1  0.14770000  0.77950000  0.77750000  1.0 0.3809078276
H  H43  1  0.22050000  0.85230000  0.72250000  1.0 0.3809078276
H  H44  1  0.77950000  0.14770000  0.72250000  1.0 0.3809078276
H  H45  1  0.64770000  0.27950000  0.22250000  1.0 0.3809078276
H  H46  1  0.35230000  0.72050000  0.22250000  1.0 0.3809078276
H  H47  1  0.27950000  0.64770000  0.27750000  1.0 0.3809078276
H  H48  1  0.72050000  0.35230000  0.27750000  1.0 0.3809078276
H  H49  1  0.05730000  0.25300000  0.79000000  1.0 0.1143218618
H  H50  1  0.94270000  0.74700000  0.79000000  1.0 0.1143218618
H  H51  1  0.25300000  0.05730000  0.71000000  1.0 0.1143218618
H  H52  1  0.74700000  0.94270000  0.71000000  1.0 0.1143218618
H  H53  1  0.44270000  0.24700000  0.21000000  1.0 0.1143218618
H  H54  1  0.55730000  0.75300000  0.21000000  1.0 0.1143218618
H  H55  1  0.24700000  0.44270000  0.29000000  1.0 0.1143218618
H  H56  1  0.75300000  0.55730000  0.29000000  1.0 0.1143218618
H  H57  1  0.14530000  0.94170000  0.86660000  1.0 0.1143218618
H  H58  1  0.85470000  0.05830000  0.86660000  1.0 0.1143218618
H  H59  1  0.94170000  0.14530000  0.63340000  1.0 0.1143218618
H  H60  1  0.05830000  0.85470000  0.63340000  1.0 0.1143218618
H  H61  1  0.35470000  0.55830000  0.13340000  1.0 0.1143218618
H  H62  1  0.64530000  0.44170000  0.13340000  1.0 0.1143218618
H  H63  1  0.55830000  0.35470000  0.36660000  1.0 0.1143218618
H  H64  1  0.44170000  0.64530000  0.36660000  1.0 0.1143218618
H  H65  1  0.23760000  0.03620000  0.95250000  1.0 0.1421457805
H  H66  1  0.76240000  0.96380000  0.95250000  1.0 0.1421457805
H  H67  1  0.03620000  0.23760000  0.54750000  1.0 0.1421457805
H  H68  1  0.96380000  0.76240000  0.54750000  1.0 0.1421457805
H  H69  1  0.26240000  0.46380000  0.04750000  1.0 0.1421457805
H  H70  1  0.73760000  0.53620000  0.04750000  1.0 0.1421457805
H  H71  1  0.46380000  0.26240000  0.45250000  1.0 0.1421457805
H  H72  1  0.53620000  0.73760000  0.45250000  1.0 0.1421457805
H  H73  1  0.13710000  0.36130000  0.87460000  1.0 0.1534694262
H  H74  1  0.86290000  0.63870000  0.87460000  1.0 0.1534694262
H  H75  1  0.36130000  0.13710000  0.62540000  1.0 0.1534694262
H  H76  1  0.63870000  0.86290000  0.62540000  1.0 0.1534694262
H  H77  1  0.36290000  0.13870000  0.12540000  1.0 0.1534694262
H  H78  1  0.63710000  0.86130000  0.12540000  1.0 0.1534694262
H  H79  1  0.13870000  0.36290000  0.37460000  1.0 0.1534694262
H  H80  1  0.86130000  0.63710000  0.37460000  1.0 0.1534694262
C  C1  1  0.28980000  0.59330000  0.82350000  1.0 0.0792589165
C  C2  1  0.71020000  0.40670000  0.82350000  1.0 0.0792589165
C  C3  1  0.40670000  0.71020000  0.67650000  1.0 0.0792589165
C  C4  1  0.59330000  0.28980000  0.67650000  1.0 0.0792589165
C  C5  1  0.21020000  0.90670000  0.17650000  1.0 0.0792589165
C  C6  1  0.78980000  0.09330000  0.17650000  1.0 0.0792589165
C  C7  1  0.09330000  0.78980000  0.32350000  1.0 0.0792589165
C  C8  1  0.90670000  0.21020000  0.32350000  1.0 0.0792589165
C  C9  1  0.47340000  0.64630000  0.86820000  1.0 0.1049560584
C  C10  1  0.52660000  0.35370000  0.86820000  1.0 0.1049560584
C  C11  1  0.35370000  0.52660000  0.63180000  1.0 0.1049560584
C  C12  1  0.64630000  0.47340000  0.63180000  1.0 0.1049560584
C  C13  1  0.02660000  0.85370000  0.13180000  1.0 0.1049560584
C  C14  1  0.97340000  0.14630000  0.13180000  1.0 0.1049560584
C  C15  1  0.14630000  0.97340000  0.36820000  1.0 0.1049560584
C  C16  1  0.85370000  0.02660000  0.36820000  1.0 0.1049560584
C  C17  1  0.41840000  0.69950000  0.92060000  1.0 -0.185422472
C  C18  1  0.58160000  0.30050000  0.92060000  1.0 -0.185422472
C  C19  1  0.30050000  0.58160000  0.57940000  1.0 -0.185422472
C  C20  1  0.69950000  0.41840000  0.57940000  1.0 -0.185422472
C  C21  1  0.08160000  0.80050000  0.07940000  1.0 -0.185422472
C  C22  1  0.91840000  0.19950000  0.07940000  1.0 -0.185422472
C  C23  1  0.19950000  0.91840000  0.42060000  1.0 -0.185422472
C  C24  1  0.80050000  0.08160000  0.42060000  1.0 -0.185422472
C  C25  1  0.22360000  0.64020000  0.87360000  1.0 -0.2063571461
C  C26  1  0.77640000  0.35980000  0.87360000  1.0 -0.2063571461
C  C27  1  0.35980000  0.77640000  0.62640000  1.0 -0.2063571461
C  C28  1  0.64020000  0.22360000  0.62640000  1.0 -0.2063571461
C  C29  1  0.27640000  0.85980000  0.12640000  1.0 -0.2063571461
C  C30  1  0.72360000  0.14020000  0.12640000  1.0 -0.2063571461
C  C31  1  0.14020000  0.72360000  0.37360000  1.0 -0.2063571461
C  C32  1  0.85980000  0.27640000  0.37360000  1.0 -0.2063571461
C  C33  1  0.29130000  0.69310000  0.92320000  1.0 0.2042734899
C  C34  1  0.70870000  0.30690000  0.92320000  1.0 0.2042734899
C  C35  1  0.30690000  0.70870000  0.57680000  1.0 0.2042734899
C  C36  1  0.69310000  0.29130000  0.57680000  1.0 0.2042734899
C  C37  1  0.20870000  0.80690000  0.07680000  1.0 0.2042734899
C  C38  1  0.79130000  0.19310000  0.07680000  1.0 0.2042734899
C  C39  1  0.19310000  0.79130000  0.42320000  1.0 0.2042734899
C  C40  1  0.80690000  0.20870000  0.42320000  1.0 0.2042734899
C  C41  1  0.09330000  0.21020000  0.82350000  1.0 0.0792589165
C  C42  1  0.90670000  0.78980000  0.82350000  1.0 0.0792589165
C  C43  1  0.21020000  0.09330000  0.67650000  1.0 0.0792589165
C  C44  1  0.78980000  0.90670000  0.67650000  1.0 0.0792589165
C  C45  1  0.40670000  0.28980000  0.17650000  1.0 0.0792589165
C  C46  1  0.59330000  0.71020000  0.17650000  1.0 0.0792589165
C  C47  1  0.28980000  0.40670000  0.32350000  1.0 0.0792589165
C  C48  1  0.71020000  0.59330000  0.32350000  1.0 0.0792589165
C  C49  1  0.14630000  0.02660000  0.86820000  1.0 0.1049560584
C  C50  1  0.85370000  0.97340000  0.86820000  1.0 0.1049560584
C  C51  1  0.02660000  0.14630000  0.63180000  1.0 0.1049560584
C  C52  1  0.97340000  0.85370000  0.63180000  1.0 0.1049560584
C  C53  1  0.35370000  0.47340000  0.13180000  1.0 0.1049560584
C  C54  1  0.64630000  0.52660000  0.13180000  1.0 0.1049560584
C  C55  1  0.47340000  0.35370000  0.36820000  1.0 0.1049560584
C  C56  1  0.52660000  0.64630000  0.36820000  1.0 0.1049560584
C  C57  1  0.19950000  0.08160000  0.92060000  1.0 -0.185422472
C  C58  1  0.80050000  0.91840000  0.92060000  1.0 -0.185422472
C  C59  1  0.08160000  0.19950000  0.57940000  1.0 -0.185422472
C  C60  1  0.91840000  0.80050000  0.57940000  1.0 -0.185422472
C  C61  1  0.30050000  0.41840000  0.07940000  1.0 -0.185422472
C  C62  1  0.69950000  0.58160000  0.07940000  1.0 -0.185422472
C  C63  1  0.41840000  0.30050000  0.42060000  1.0 -0.185422472
C  C64  1  0.58160000  0.69950000  0.42060000  1.0 -0.185422472
C  C65  1  0.14020000  0.27640000  0.87360000  1.0 -0.2063571461
C  C66  1  0.85980000  0.72360000  0.87360000  1.0 -0.2063571461
C  C67  1  0.27640000  0.14020000  0.62640000  1.0 -0.2063571461
C  C68  1  0.72360000  0.85980000  0.62640000  1.0 -0.2063571461
C  C69  1  0.35980000  0.22360000  0.12640000  1.0 -0.2063571461
C  C70  1  0.64020000  0.77640000  0.12640000  1.0 -0.2063571461
C  C71  1  0.22360000  0.35980000  0.37360000  1.0 -0.2063571461
C  C72  1  0.77640000  0.64020000  0.37360000  1.0 -0.2063571461
C  C73  1  0.19310000  0.20870000  0.92320000  1.0 0.2042734899
C  C74  1  0.80690000  0.79130000  0.92320000  1.0 0.2042734899
C  C75  1  0.20870000  0.19310000  0.57680000  1.0 0.2042734899
C  C76  1  0.79130000  0.80690000  0.57680000  1.0 0.2042734899
C  C77  1  0.30690000  0.29130000  0.07680000  1.0 0.2042734899
C  C78  1  0.69310000  0.70870000  0.07680000  1.0 0.2042734899
C  C79  1  0.29130000  0.30690000  0.42320000  1.0 0.2042734899
C  C80  1  0.70870000  0.69310000  0.42320000  1.0 0.2042734899
N  N1  1  0.41210000  0.59590000  0.81960000  1.0 -0.2282173451
N  N2  1  0.58790000  0.40410000  0.81960000  1.0 -0.2282173451
N  N3  1  0.40410000  0.58790000  0.68040000  1.0 -0.2282173451
N  N4  1  0.59590000  0.41210000  0.68040000  1.0 -0.2282173451
N  N5  1  0.08790000  0.90410000  0.18040000  1.0 -0.2282173451
N  N6  1  0.91210000  0.09590000  0.18040000  1.0 -0.2282173451
N  N7  1  0.09590000  0.91210000  0.31960000  1.0 -0.2282173451
N  N8  1  0.90410000  0.08790000  0.31960000  1.0 -0.2282173451
N  N9  1  0.22090000  0.74600000  0.97520000  1.0 -0.1166818388
N  N10  1  0.77910000  0.25400000  0.97520000  1.0 -0.1166818388
N  N11  1  0.25400000  0.77910000  0.52480000  1.0 -0.1166818388
N  N12  1  0.74600000  0.22090000  0.52480000  1.0 -0.1166818388
N  N13  1  0.27910000  0.75400000  0.02480000  1.0 -0.1166818388
N  N14  1  0.72090000  0.24600000  0.02480000  1.0 -0.1166818388
N  N15  1  0.24600000  0.72090000  0.47520000  1.0 -0.1166818388
N  N16  1  0.75400000  0.27910000  0.47520000  1.0 -0.1166818388
N  N17  1  0.09590000  0.08790000  0.81960000  1.0 -0.2282173451
N  N18  1  0.90410000  0.91210000  0.81960000  1.0 -0.2282173451
N  N19  1  0.08790000  0.09590000  0.68040000  1.0 -0.2282173451
N  N20  1  0.91210000  0.90410000  0.68040000  1.0 -0.2282173451
N  N21  1  0.40410000  0.41210000  0.18040000  1.0 -0.2282173451
N  N22  1  0.59590000  0.58790000  0.18040000  1.0 -0.2282173451
N  N23  1  0.41210000  0.40410000  0.31960000  1.0 -0.2282173451
N  N24  1  0.58790000  0.59590000  0.31960000  1.0 -0.2282173451
N  N25  1  0.24600000  0.27910000  0.97520000  1.0 -0.1166818388
N  N26  1  0.75400000  0.72090000  0.97520000  1.0 -0.1166818388
N  N27  1  0.27910000  0.24600000  0.52480000  1.0 -0.1166818388
N  N28  1  0.72090000  0.75400000  0.52480000  1.0 -0.1166818388
N  N29  1  0.25400000  0.22090000  0.02480000  1.0 -0.1166818388
N  N30  1  0.74600000  0.77910000  0.02480000  1.0 -0.1166818388
N  N31  1  0.22090000  0.25400000  0.47520000  1.0 -0.1166818388
N  N32  1  0.77910000  0.74600000  0.47520000  1.0 -0.1166818388
O  O1  1  0.34590000  0.34590000  0.75000000  1.0 -0.7620309613
O  O2  1  0.65410000  0.65410000  0.75000000  1.0 -0.7620309613
O  O3  1  0.15410000  0.15410000  0.25000000  1.0 -0.7620309613
O  O4  1  0.84590000  0.84590000  0.25000000  1.0 -0.7620309613
O  O5  1  0.84590000  0.15410000  0.75000000  1.0 -0.7620309613
O  O6  1  0.15410000  0.84590000  0.75000000  1.0 -0.7620309613
O  O7  1  0.65410000  0.34590000  0.25000000  1.0 -0.7620309613
O  O8  1  0.34590000  0.65410000  0.25000000  1.0 -0.7620309613
F  F1  1  0.90340000  0.62010000  0.20657000  1.0 -0.5129364841
F  F2  1  0.09660000  0.37990000  0.20657000  1.0 -0.5129364841
F  F3  1  0.12010000  0.59660000  0.20657000  1.0 -0.5129364841
F  F4  1  0.87990000  0.40340000  0.20657000  1.0 -0.5129364841
F  F5  1  0.00000000  0.50000000  0.12620000  1.0 -0.5129364841
F  F6  1  0.00000000  0.50000000  0.28600000  1.0 -0.5304610304
F  F7  1  0.59660000  0.12010000  0.29343000  1.0 -0.5129364841
F  F8  1  0.40340000  0.87990000  0.29343000  1.0 -0.5129364841
F  F9  1  0.37990000  0.09660000  0.29343000  1.0 -0.5129364841
F  F10  1  0.62010000  0.90340000  0.29343000  1.0 -0.5129364841
F  F11  1  0.50000000  0.00000000  0.37380000  1.0 -0.5129364841
F  F12  1  0.50000000  0.00000000  0.21400000  1.0 -0.5304610304
F  F13  1  0.59660000  0.87990000  0.79343000  1.0 -0.5129364841
F  F14  1  0.40340000  0.12010000  0.79343000  1.0 -0.5129364841
F  F15  1  0.37990000  0.90340000  0.79343000  1.0 -0.5129364841
F  F16  1  0.62010000  0.09660000  0.79343000  1.0 -0.5129364841
F  F17  1  0.50000000  0.00000000  0.87380000  1.0 -0.5129364841
F  F18  1  0.50000000  0.00000000  0.71400000  1.0 -0.5304610304
F  F19  1  0.90340000  0.37990000  0.70657000  1.0 -0.5129364841
F  F20  1  0.09660000  0.62010000  0.70657000  1.0 -0.5129364841
F  F21  1  0.12010000  0.40340000  0.70657000  1.0 -0.5129364841
F  F22  1  0.87990000  0.59660000  0.70657000  1.0 -0.5129364841
F  F23  1  0.00000000  0.50000000  0.62620000  1.0 -0.5129364841
F  F24  1  0.00000000  0.50000000  0.78600000  1.0 -0.5304610304
