# DDEC6 charges by PACMAN v1.1 (https://github.com/mtap-research/PACMAN-charge/)
data_XEFGEU05_ion_pacman
_symmetry_space_group_name_H-M   'P 1'
_cell_length_a   10.91500000
_cell_length_b   10.91500000
_cell_length_c   20.94400000
_cell_angle_alpha   90.00000000
_cell_angle_beta   90.00000000
_cell_angle_gamma   90.00000000
_symmetry_Int_Tables_number   1
_chemical_formula_structural   CuSiH20C20N8(OF3)2
_chemical_formula_sum   'Cu4 Si4 H80 C80 N32 O8 F24'
_cell_volume   2495.21004040
_cell_formula_units_Z   4
loop_
 _symmetry_equiv_pos_site_id
 _symmetry_equiv_pos_as_xyz
  1  'x, y, z'
loop_
 _atom_site_type_symbol
 _atom_site_label
 _atom_site_symmetry_multiplicity
 _atom_site_fract_x
 _atom_site_fract_y
 _atom_site_fract_z
 _atom_site_occupancy
 _atom_site_charge
Cu  Cu1  1  0.50000000  0.50000000  0.75000000  1.0 0.6612970385
Cu  Cu2  1  0.00000000  0.00000000  0.25000000  1.0 0.6612970385
Cu  Cu3  1  0.00000000  0.00000000  0.75000000  1.0 0.6612970385
Cu  Cu4  1  0.50000000  0.50000000  0.25000000  1.0 0.6612970385
Si  Si1  1  0.50000000  0.00000000  0.20620000  1.0 1.717370108
Si  Si2  1  0.00000000  0.50000000  0.29380000  1.0 1.717370108
Si  Si3  1  0.00000000  0.50000000  0.79380000  1.0 1.717370108
Si  Si4  1  0.50000000  0.00000000  0.70620000  1.0 1.717370108
H  H1  1  0.35180000  0.27910000  0.72240000  1.0 0.3827589381
H  H2  1  0.64820000  0.72090000  0.72240000  1.0 0.3827589381
H  H3  1  0.72090000  0.64820000  0.77760000  1.0 0.3827589381
H  H4  1  0.27910000  0.35180000  0.77760000  1.0 0.3827589381
H  H5  1  0.14820000  0.22090000  0.27760000  1.0 0.3827589381
H  H6  1  0.85180000  0.77910000  0.27760000  1.0 0.3827589381
H  H7  1  0.77910000  0.85180000  0.22240000  1.0 0.3827589381
H  H8  1  0.22090000  0.14820000  0.22240000  1.0 0.3827589381
H  H9  1  0.26440000  0.53520000  0.95130000  1.0 0.1414211842
H  H10  1  0.73560000  0.46480000  0.95130000  1.0 0.1414211842
H  H11  1  0.46480000  0.73560000  0.54870000  1.0 0.1414211842
H  H12  1  0.53520000  0.26440000  0.54870000  1.0 0.1414211842
H  H13  1  0.23560000  0.96480000  0.04870000  1.0 0.1414211842
H  H14  1  0.76440000  0.03520000  0.04870000  1.0 0.1414211842
H  H15  1  0.03520000  0.76440000  0.45130000  1.0 0.1414211842
H  H16  1  0.96480000  0.23560000  0.45130000  1.0 0.1414211842
H  H17  1  0.44570000  0.75360000  0.78950000  1.0 0.1087861464
H  H18  1  0.55430000  0.24640000  0.78950000  1.0 0.1087861464
H  H19  1  0.24640000  0.55430000  0.71050000  1.0 0.1087861464
H  H20  1  0.75360000  0.44570000  0.71050000  1.0 0.1087861464
H  H21  1  0.05430000  0.74640000  0.21050000  1.0 0.1087861464
H  H22  1  0.94570000  0.25360000  0.21050000  1.0 0.1087861464
H  H23  1  0.25360000  0.94570000  0.28950000  1.0 0.1087861464
H  H24  1  0.74640000  0.05430000  0.28950000  1.0 0.1087861464
H  H25  1  0.36020000  0.85900000  0.87430000  1.0 0.1480947735
H  H26  1  0.63980000  0.14100000  0.87430000  1.0 0.1480947735
H  H27  1  0.14100000  0.63980000  0.62570000  1.0 0.1480947735
H  H28  1  0.85900000  0.36020000  0.62570000  1.0 0.1480947735
H  H29  1  0.13980000  0.64100000  0.12570000  1.0 0.1480947735
H  H30  1  0.86020000  0.35900000  0.12570000  1.0 0.1480947735
H  H31  1  0.35900000  0.86020000  0.37430000  1.0 0.1480947735
H  H32  1  0.64100000  0.13980000  0.37430000  1.0 0.1480947735
H  H33  1  0.35850000  0.44190000  0.86620000  1.0 0.1087861464
H  H34  1  0.64150000  0.55810000  0.86620000  1.0 0.1087861464
H  H35  1  0.55810000  0.64150000  0.63380000  1.0 0.1087861464
H  H36  1  0.44190000  0.35850000  0.63380000  1.0 0.1087861464
H  H37  1  0.14150000  0.05810000  0.13380000  1.0 0.1087861464
H  H38  1  0.85850000  0.94190000  0.13380000  1.0 0.1087861464
H  H39  1  0.94190000  0.85850000  0.36620000  1.0 0.1087861464
H  H40  1  0.05810000  0.14150000  0.36620000  1.0 0.1087861464
H  H41  1  0.77910000  0.14820000  0.72240000  1.0 0.3827589381
H  H42  1  0.22090000  0.85180000  0.72240000  1.0 0.3827589381
H  H43  1  0.14820000  0.77910000  0.77760000  1.0 0.3827589381
H  H44  1  0.85180000  0.22090000  0.77760000  1.0 0.3827589381
H  H45  1  0.72090000  0.35180000  0.27760000  1.0 0.3827589381
H  H46  1  0.27910000  0.64820000  0.27760000  1.0 0.3827589381
H  H47  1  0.35180000  0.72090000  0.22240000  1.0 0.3827589381
H  H48  1  0.64820000  0.27910000  0.22240000  1.0 0.3827589381
H  H49  1  0.03520000  0.23560000  0.95130000  1.0 0.1414211842
H  H50  1  0.96480000  0.76440000  0.95130000  1.0 0.1414211842
H  H51  1  0.23560000  0.03520000  0.54870000  1.0 0.1414211842
H  H52  1  0.76440000  0.96480000  0.54870000  1.0 0.1414211842
H  H53  1  0.46480000  0.26440000  0.04870000  1.0 0.1414211842
H  H54  1  0.53520000  0.73560000  0.04870000  1.0 0.1414211842
H  H55  1  0.26440000  0.46480000  0.45130000  1.0 0.1414211842
H  H56  1  0.73560000  0.53520000  0.45130000  1.0 0.1414211842
H  H57  1  0.25360000  0.05430000  0.78950000  1.0 0.1087861464
H  H58  1  0.74640000  0.94570000  0.78950000  1.0 0.1087861464
H  H59  1  0.05430000  0.25360000  0.71050000  1.0 0.1087861464
H  H60  1  0.94570000  0.74640000  0.71050000  1.0 0.1087861464
H  H61  1  0.24640000  0.44570000  0.21050000  1.0 0.1087861464
H  H62  1  0.75360000  0.55430000  0.21050000  1.0 0.1087861464
H  H63  1  0.44570000  0.24640000  0.28950000  1.0 0.1087861464
H  H64  1  0.55430000  0.75360000  0.28950000  1.0 0.1087861464
H  H65  1  0.35900000  0.13980000  0.87430000  1.0 0.1480947735
H  H66  1  0.64100000  0.86020000  0.87430000  1.0 0.1480947735
H  H67  1  0.13980000  0.35900000  0.62570000  1.0 0.1480947735
H  H68  1  0.86020000  0.64100000  0.62570000  1.0 0.1480947735
H  H69  1  0.14100000  0.36020000  0.12570000  1.0 0.1480947735
H  H70  1  0.85900000  0.63980000  0.12570000  1.0 0.1480947735
H  H71  1  0.36020000  0.14100000  0.37430000  1.0 0.1480947735
H  H72  1  0.63980000  0.85900000  0.37430000  1.0 0.1480947735
H  H73  1  0.94190000  0.14150000  0.86620000  1.0 0.1087861464
H  H74  1  0.05810000  0.85850000  0.86620000  1.0 0.1087861464
H  H75  1  0.14150000  0.94190000  0.63380000  1.0 0.1087861464
H  H76  1  0.85850000  0.05810000  0.63380000  1.0 0.1087861464
H  H77  1  0.55810000  0.35850000  0.13380000  1.0 0.1087861464
H  H78  1  0.44190000  0.64150000  0.13380000  1.0 0.1087861464
H  H79  1  0.35850000  0.55810000  0.36620000  1.0 0.1087861464
H  H80  1  0.64150000  0.44190000  0.36620000  1.0 0.1087861464
C  C1  1  0.30210000  0.58190000  0.91980000  1.0 -0.1826286192
C  C2  1  0.69790000  0.41810000  0.91980000  1.0 -0.1826286192
C  C3  1  0.41810000  0.69790000  0.58020000  1.0 -0.1826286192
C  C4  1  0.58190000  0.30210000  0.58020000  1.0 -0.1826286192
C  C5  1  0.19790000  0.91810000  0.08020000  1.0 -0.1826286192
C  C6  1  0.80210000  0.08190000  0.08020000  1.0 -0.1826286192
C  C7  1  0.08190000  0.80210000  0.41980000  1.0 -0.1826286192
C  C8  1  0.91810000  0.19790000  0.41980000  1.0 -0.1826286192
C  C9  1  0.30540000  0.70800000  0.92400000  1.0 0.1913130873
C  C10  1  0.69460000  0.29200000  0.92400000  1.0 0.1913130873
C  C11  1  0.29200000  0.69460000  0.57600000  1.0 0.1913130873
C  C12  1  0.70800000  0.30540000  0.57600000  1.0 0.1913130873
C  C13  1  0.19460000  0.79200000  0.07600000  1.0 0.1913130873
C  C14  1  0.80540000  0.20800000  0.07600000  1.0 0.1913130873
C  C15  1  0.20800000  0.80540000  0.42400000  1.0 0.1913130873
C  C16  1  0.79200000  0.19460000  0.42400000  1.0 0.1913130873
C  C17  1  0.40850000  0.71050000  0.82260000  1.0 0.0978047552
C  C18  1  0.59150000  0.28950000  0.82260000  1.0 0.0978047552
C  C19  1  0.28950000  0.59150000  0.67740000  1.0 0.0978047552
C  C20  1  0.71050000  0.40850000  0.67740000  1.0 0.0978047552
C  C21  1  0.09150000  0.78950000  0.17740000  1.0 0.0978047552
C  C22  1  0.90850000  0.21050000  0.17740000  1.0 0.0978047552
C  C23  1  0.21050000  0.90850000  0.32260000  1.0 0.0978047552
C  C24  1  0.78950000  0.09150000  0.32260000  1.0 0.0978047552
C  C25  1  0.35860000  0.77380000  0.87350000  1.0 -0.1932562494
C  C26  1  0.64140000  0.22620000  0.87350000  1.0 -0.1932562494
C  C27  1  0.22620000  0.64140000  0.62650000  1.0 -0.1932562494
C  C28  1  0.77380000  0.35860000  0.62650000  1.0 -0.1932562494
C  C29  1  0.14140000  0.72620000  0.12650000  1.0 -0.1932562494
C  C30  1  0.85860000  0.27380000  0.12650000  1.0 -0.1932562494
C  C31  1  0.27380000  0.85860000  0.37350000  1.0 -0.1932562494
C  C32  1  0.72620000  0.14140000  0.37350000  1.0 -0.1932562494
C  C33  1  0.35600000  0.52700000  0.86780000  1.0 0.0978047552
C  C34  1  0.64400000  0.47300000  0.86780000  1.0 0.0978047552
C  C35  1  0.47300000  0.64400000  0.63220000  1.0 0.0978047552
C  C36  1  0.52700000  0.35600000  0.63220000  1.0 0.0978047552
C  C37  1  0.14400000  0.97300000  0.13220000  1.0 0.0978047552
C  C38  1  0.85600000  0.02700000  0.13220000  1.0 0.0978047552
C  C39  1  0.02700000  0.85600000  0.36780000  1.0 0.0978047552
C  C40  1  0.97300000  0.14400000  0.36780000  1.0 0.0978047552
C  C41  1  0.08190000  0.19790000  0.91980000  1.0 -0.1826286192
C  C42  1  0.91810000  0.80210000  0.91980000  1.0 -0.1826286192
C  C43  1  0.19790000  0.08190000  0.58020000  1.0 -0.1826286192
C  C44  1  0.80210000  0.91810000  0.58020000  1.0 -0.1826286192
C  C45  1  0.41810000  0.30210000  0.08020000  1.0 -0.1826286192
C  C46  1  0.58190000  0.69790000  0.08020000  1.0 -0.1826286192
C  C47  1  0.30210000  0.41810000  0.41980000  1.0 -0.1826286192
C  C48  1  0.69790000  0.58190000  0.41980000  1.0 -0.1826286192
C  C49  1  0.20800000  0.19460000  0.92400000  1.0 0.1913130873
C  C50  1  0.79200000  0.80540000  0.92400000  1.0 0.1913130873
C  C51  1  0.19460000  0.20800000  0.57600000  1.0 0.1913130873
C  C52  1  0.80540000  0.79200000  0.57600000  1.0 0.1913130873
C  C53  1  0.29200000  0.30540000  0.07600000  1.0 0.1913130873
C  C54  1  0.70800000  0.69460000  0.07600000  1.0 0.1913130873
C  C55  1  0.30540000  0.29200000  0.42400000  1.0 0.1913130873
C  C56  1  0.69460000  0.70800000  0.42400000  1.0 0.1913130873
C  C57  1  0.21050000  0.09150000  0.82260000  1.0 0.0978047552
C  C58  1  0.78950000  0.90850000  0.82260000  1.0 0.0978047552
C  C59  1  0.09150000  0.21050000  0.67740000  1.0 0.0978047552
C  C60  1  0.90850000  0.78950000  0.67740000  1.0 0.0978047552
C  C61  1  0.28950000  0.40850000  0.17740000  1.0 0.0978047552
C  C62  1  0.71050000  0.59150000  0.17740000  1.0 0.0978047552
C  C63  1  0.40850000  0.28950000  0.32260000  1.0 0.0978047552
C  C64  1  0.59150000  0.71050000  0.32260000  1.0 0.0978047552
C  C65  1  0.27380000  0.14140000  0.87350000  1.0 -0.1932562494
C  C66  1  0.72620000  0.85860000  0.87350000  1.0 -0.1932562494
C  C67  1  0.14140000  0.27380000  0.62650000  1.0 -0.1932562494
C  C68  1  0.85860000  0.72620000  0.62650000  1.0 -0.1932562494
C  C69  1  0.22620000  0.35860000  0.12650000  1.0 -0.1932562494
C  C70  1  0.77380000  0.64140000  0.12650000  1.0 -0.1932562494
C  C71  1  0.35860000  0.22620000  0.37350000  1.0 -0.1932562494
C  C72  1  0.64140000  0.77380000  0.37350000  1.0 -0.1932562494
C  C73  1  0.02700000  0.14400000  0.86780000  1.0 0.0978047552
C  C74  1  0.97300000  0.85600000  0.86780000  1.0 0.0978047552
C  C75  1  0.14400000  0.02700000  0.63220000  1.0 0.0978047552
C  C76  1  0.85600000  0.97300000  0.63220000  1.0 0.0978047552
C  C77  1  0.47300000  0.35600000  0.13220000  1.0 0.0978047552
C  C78  1  0.52700000  0.64400000  0.13220000  1.0 0.0978047552
C  C79  1  0.35600000  0.47300000  0.36780000  1.0 0.0978047552
C  C80  1  0.64400000  0.52700000  0.36780000  1.0 0.0978047552
N  N1  1  0.40410000  0.58890000  0.82020000  1.0 -0.2218034712
N  N2  1  0.59590000  0.41110000  0.82020000  1.0 -0.2218034712
N  N3  1  0.41110000  0.59590000  0.67980000  1.0 -0.2218034712
N  N4  1  0.58890000  0.40410000  0.67980000  1.0 -0.2218034712
N  N5  1  0.09590000  0.91110000  0.17980000  1.0 -0.2218034712
N  N6  1  0.90410000  0.08890000  0.17980000  1.0 -0.2218034712
N  N7  1  0.08890000  0.90410000  0.32020000  1.0 -0.2218034712
N  N8  1  0.91110000  0.09590000  0.32020000  1.0 -0.2218034712
N  N9  1  0.25430000  0.77700000  0.97530000  1.0 -0.1095601169
N  N10  1  0.74570000  0.22300000  0.97530000  1.0 -0.1095601169
N  N11  1  0.22300000  0.74570000  0.52470000  1.0 -0.1095601169
N  N12  1  0.77700000  0.25430000  0.52470000  1.0 -0.1095601169
N  N13  1  0.24570000  0.72300000  0.02470000  1.0 -0.1095601169
N  N14  1  0.75430000  0.27700000  0.02470000  1.0 -0.1095601169
N  N15  1  0.27700000  0.75430000  0.47530000  1.0 -0.1095601169
N  N16  1  0.72300000  0.24570000  0.47530000  1.0 -0.1095601169
N  N17  1  0.08890000  0.09590000  0.82020000  1.0 -0.2218034712
N  N18  1  0.91110000  0.90410000  0.82020000  1.0 -0.2218034712
N  N19  1  0.09590000  0.08890000  0.67980000  1.0 -0.2218034712
N  N20  1  0.90410000  0.91110000  0.67980000  1.0 -0.2218034712
N  N21  1  0.41110000  0.40410000  0.17980000  1.0 -0.2218034712
N  N22  1  0.58890000  0.59590000  0.17980000  1.0 -0.2218034712
N  N23  1  0.40410000  0.41110000  0.32020000  1.0 -0.2218034712
N  N24  1  0.59590000  0.58890000  0.32020000  1.0 -0.2218034712
N  N25  1  0.27700000  0.24570000  0.97530000  1.0 -0.1095601169
N  N26  1  0.72300000  0.75430000  0.97530000  1.0 -0.1095601169
N  N27  1  0.24570000  0.27700000  0.52470000  1.0 -0.1095601169
N  N28  1  0.75430000  0.72300000  0.52470000  1.0 -0.1095601169
N  N29  1  0.22300000  0.25430000  0.02470000  1.0 -0.1095601169
N  N30  1  0.77700000  0.74570000  0.02470000  1.0 -0.1095601169
N  N31  1  0.25430000  0.22300000  0.47530000  1.0 -0.1095601169
N  N32  1  0.74570000  0.77700000  0.47530000  1.0 -0.1095601169
O  O1  1  0.34550000  0.34550000  0.75000000  1.0 -0.7982051817
O  O2  1  0.65450000  0.65450000  0.75000000  1.0 -0.7982051817
O  O3  1  0.15450000  0.15450000  0.25000000  1.0 -0.7982051817
O  O4  1  0.84550000  0.84550000  0.25000000  1.0 -0.7982051817
O  O5  1  0.84550000  0.15450000  0.75000000  1.0 -0.7982051817
O  O6  1  0.15450000  0.84550000  0.75000000  1.0 -0.7982051817
O  O7  1  0.65450000  0.34550000  0.25000000  1.0 -0.7982051817
O  O8  1  0.34550000  0.65450000  0.25000000  1.0 -0.7982051817
F  F1  1  0.50000000  0.00000000  0.12550000  1.0 -0.5341983286
F  F2  1  0.62000000  0.90420000  0.20676000  1.0 -0.5017711965
F  F3  1  0.38000000  0.09580000  0.20676000  1.0 -0.5017711965
F  F4  1  0.40420000  0.88000000  0.20676000  1.0 -0.5017711965
F  F5  1  0.59580000  0.12000000  0.20676000  1.0 -0.5017711965
F  F6  1  0.50000000  0.00000000  0.28590000  1.0 -0.5190589872
F  F7  1  0.00000000  0.50000000  0.37450000  1.0 -0.5341983286
F  F8  1  0.88000000  0.40420000  0.29324000  1.0 -0.5017711965
F  F9  1  0.12000000  0.59580000  0.29324000  1.0 -0.5017711965
F  F10  1  0.09580000  0.38000000  0.29324000  1.0 -0.5017711965
F  F11  1  0.90420000  0.62000000  0.29324000  1.0 -0.5017711965
F  F12  1  0.00000000  0.50000000  0.21410000  1.0 -0.5190589872
F  F13  1  0.00000000  0.50000000  0.87450000  1.0 -0.5341983286
F  F14  1  0.88000000  0.59580000  0.79324000  1.0 -0.5017711965
F  F15  1  0.12000000  0.40420000  0.79324000  1.0 -0.5017711965
F  F16  1  0.09580000  0.62000000  0.79324000  1.0 -0.5017711965
F  F17  1  0.90420000  0.38000000  0.79324000  1.0 -0.5017711965
F  F18  1  0.00000000  0.50000000  0.71410000  1.0 -0.5190589872
F  F19  1  0.50000000  0.00000000  0.62550000  1.0 -0.5341983286
F  F20  1  0.62000000  0.09580000  0.70676000  1.0 -0.5017711965
F  F21  1  0.38000000  0.90420000  0.70676000  1.0 -0.5017711965
F  F22  1  0.40420000  0.12000000  0.70676000  1.0 -0.5017711965
F  F23  1  0.59580000  0.88000000  0.70676000  1.0 -0.5017711965
F  F24  1  0.50000000  0.00000000  0.78590000  1.0 -0.5190589872
