# DDEC6 charges by PACMAN v1.1 (https://github.com/mtap-research/PACMAN-charge/)
data_XEGKIF_FSR_pacman
_symmetry_space_group_name_H-M   'P 1'
_cell_length_a   14.39200000
_cell_length_b   16.66900000
_cell_length_c   19.63700000
_cell_angle_alpha   105.47100000
_cell_angle_beta   96.28600000
_cell_angle_gamma   95.10000000
_symmetry_Int_Tables_number   1
_chemical_formula_structural   GdH18C30(N2O5)4
_chemical_formula_sum   'Gd4 H72 C120 N32 O80'
_cell_volume   4478.50030933
_cell_formula_units_Z   4
loop_
 _symmetry_equiv_pos_site_id
 _symmetry_equiv_pos_as_xyz
  1  'x, y, z'
loop_
 _atom_site_type_symbol
 _atom_site_label
 _atom_site_symmetry_multiplicity
 _atom_site_fract_x
 _atom_site_fract_y
 _atom_site_fract_z
 _atom_site_occupancy
 _atom_site_charge
Gd  Gd1  1  0.12672000  0.04672000  0.05745000  1.0 1.9403819846
Gd  Gd2  1  0.87328000  0.95328000  0.94255000  1.0 1.9403819846
Gd  Gd3  1  0.63830000  0.54113000  0.50960000  1.0 1.9578822659
Gd  Gd4  1  0.36170000  0.45887000  0.49040000  1.0 1.9578822659
H  H1  1  0.07570000  0.86920000  0.18450000  1.0 0.1477464088
H  H2  1  0.92430000  0.13080000  0.81550000  1.0 0.1477464088
H  H3  1  0.84350000  0.75420000  0.05070000  1.0 0.1384339747
H  H4  1  0.15650000  0.24580000  0.94930000  1.0 0.1384339747
H  H5  1  0.75480000  0.75540000  0.40280000  1.0 0.1477464088
H  H6  1  0.24520000  0.24460000  0.59720000  1.0 0.1477464088
H  H7  1  0.85200000  0.53640000  0.32520000  1.0 0.1384339747
H  H8  1  0.14800000  0.46360000  0.67480000  1.0 0.1384339747
H  H9  1  0.21360000  0.89720000  0.92610000  1.0 0.156521629
H  H10  1  0.78640000  0.10280000  0.07390000  1.0 0.156521629
H  H11  1  0.07440000  0.91780000  0.74380000  1.0 0.1477464088
H  H12  1  0.92560000  0.08220000  0.25620000  1.0 0.1477464088
H  H13  1  0.34930000  0.60840000  0.62840000  1.0 0.1477464088
H  H14  1  0.65070000  0.39160000  0.37160000  1.0 0.1477464088
H  H15  1  0.54600000  0.80310000  0.66190000  1.0 0.1477464088
H  H16  1  0.45400000  0.19690000  0.33810000  1.0 0.1477464088
H  H17  1  0.29480000  0.57060000  0.32130000  1.0 0.1477464088
H  H18  1  0.70520000  0.42940000  0.67870000  1.0 0.1477464088
H  H19  1  0.56670000  0.64740000  0.32090000  1.0 0.1477464088
H  H20  1  0.43330000  0.35260000  0.67910000  1.0 0.1477464088
H  H21  1  0.29850000  0.96360000  0.24540000  1.0 0.1477464088
H  H22  1  0.70150000  0.03640000  0.75460000  1.0 0.1477464088
H  H23  1  0.30630000  0.80500000  0.05430000  1.0 0.1477464088
H  H24  1  0.69370000  0.19500000  0.94570000  1.0 0.1477464088
H  H25  1  0.37000000  0.10000000  0.03560000  1.0 0.1070554288
H  H26  1  0.63000000  0.90000000  0.96440000  1.0 0.1070554288
H  H27  1  0.48720000  0.16630000  0.92380000  1.0 0.1384339747
H  H28  1  0.51280000  0.83370000  0.07620000  1.0 0.1384339747
H  H29  1  0.48410000  0.06870000  0.90790000  1.0 0.1311261473
H  H30  1  0.51590000  0.93130000  0.09210000  1.0 0.1311261473
H  H31  1  0.49800000  0.12530000  0.98700000  1.0 0.1311261473
H  H32  1  0.50200000  0.87470000  0.01300000  1.0 0.1311261473
H  H33  1  0.24620000  0.08400000  0.87340000  1.0 0.1384339747
H  H34  1  0.75380000  0.91600000  0.12660000  1.0 0.1384339747
H  H35  1  0.33490000  0.07030000  0.83390000  1.0 0.1213052259
H  H36  1  0.66510000  0.92970000  0.16610000  1.0 0.1213052259
H  H37  1  0.31050000  0.16130000  0.86610000  1.0 0.1213052259
H  H38  1  0.68950000  0.83870000  0.13390000  1.0 0.1213052259
H  H39  1  0.28200000  0.16040000  0.20290000  1.0 0.1070554288
H  H40  1  0.71800000  0.83960000  0.79710000  1.0 0.1070554288
H  H41  1  0.33950000  0.28770000  0.28060000  1.0 0.1311261473
H  H42  1  0.66050000  0.71230000  0.71940000  1.0 0.1311261473
H  H43  1  0.29180000  0.40770000  0.25760000  1.0 0.1311261473
H  H44  1  0.70820000  0.59230000  0.74240000  1.0 0.1311261473
H  H45  1  0.12010000  0.25800000  0.08840000  1.0 0.1029035287
H  H46  1  0.87990000  0.74200000  0.91160000  1.0 0.1029035287
H  H47  1  0.10370000  0.40480000  0.11970000  1.0 0.0946204395
H  H48  1  0.89630000  0.59520000  0.88030000  1.0 0.0946204395
H  H49  1  0.80660000  0.70120000  0.60840000  1.0 0.0946204395
H  H50  1  0.19340000  0.29880000  0.39160000  1.0 0.0946204395
H  H51  1  0.98730000  0.57140000  0.64940000  1.0 0.1311261473
H  H52  1  0.01270000  0.42860000  0.35060000  1.0 0.1311261473
H  H53  1  0.96960000  0.60970000  0.72820000  1.0 0.1213052259
H  H54  1  0.03040000  0.39030000  0.27180000  1.0 0.1213052259
H  H55  1  0.89040000  0.54780000  0.67320000  1.0 0.1384339747
H  H56  1  0.10960000  0.45220000  0.32680000  1.0 0.1384339747
H  H57  1  0.96960000  0.75420000  0.74340000  1.0 0.1384339747
H  H58  1  0.03040000  0.24580000  0.25660000  1.0 0.1384339747
H  H59  1  0.01810000  0.74650000  0.67470000  1.0 0.1213052259
H  H60  1  0.98190000  0.25350000  0.32530000  1.0 0.1213052259
H  H61  1  0.92430000  0.78730000  0.68150000  1.0 0.1311261473
H  H62  1  0.07570000  0.21270000  0.31850000  1.0 0.1311261473
H  H63  1  0.62810000  0.33060000  0.52390000  1.0 0.1070554288
H  H64  1  0.37190000  0.66940000  0.47610000  1.0 0.1029035287
H  H65  1  0.71490000  0.22570000  0.53870000  1.0 0.1384339747
H  H66  1  0.28510000  0.77430000  0.46130000  1.0 0.1384339747
H  H67  1  0.87500000  0.24320000  0.53790000  1.0 0.1213052259
H  H68  1  0.12500000  0.75680000  0.46210000  1.0 0.1213052259
H  H69  1  0.85110000  0.46500000  0.49870000  1.0 0.1070554288
H  H70  1  0.14890000  0.53500000  0.50130000  1.0 0.1070554288
H  H71  1  0.01160000  0.30230000  0.50990000  1.0 0.1311261473
H  H72  1  0.98840000  0.69770000  0.49010000  1.0 0.1311261473
C  C1  1  0.98800000  0.87000000  0.06000000  1.0 0.6270397709
C  C2  1  0.01200000  0.13000000  0.94000000  1.0 0.6270397709
C  C3  1  0.96300000  0.82000000  0.11000000  1.0 -0.0026520209
C  C4  1  0.03700000  0.18000000  0.89000000  1.0 -0.0026520209
C  C5  1  0.02000000  0.83300000  0.17400000  1.0 -0.1212794377
C  C6  1  0.98000000  0.16700000  0.82600000  1.0 -0.1212794377
C  C7  1  0.99400000  0.79200000  0.22300000  1.0 0.0286695764
C  C8  1  0.00600000  0.20800000  0.77700000  1.0 0.0286695764
C  C9  1  0.91000000  0.73800000  0.21100000  1.0 0.0093523342
C  C10  1  0.09000000  0.26200000  0.78900000  1.0 0.0093523342
C  C11  1  0.85500000  0.72700000  0.14500000  1.0 0.0286695764
C  C12  1  0.14500000  0.27300000  0.85500000  1.0 0.0286695764
C  C13  1  0.88100000  0.76500000  0.09500000  1.0 -0.1301433534
C  C14  1  0.11900000  0.23500000  0.90500000  1.0 -0.1301433534
C  C15  1  0.87400000  0.70300000  0.26800000  1.0 0.0093523342
C  C16  1  0.12600000  0.29700000  0.73200000  1.0 0.0093523342
C  C17  1  0.82500000  0.75200000  0.31900000  1.0 0.0211315339
C  C18  1  0.17500000  0.24800000  0.68100000  1.0 0.0211315339
C  C19  1  0.78700000  0.72100000  0.37000000  1.0 -0.1457310735
C  C20  1  0.21300000  0.27900000  0.63000000  1.0 -0.1457310735
C  C21  1  0.79600000  0.64100000  0.37200000  1.0 0.0093523342
C  C22  1  0.20400000  0.35900000  0.62800000  1.0 0.0093523342
C  C23  1  0.84500000  0.59100000  0.32300000  1.0 -0.1419158174
C  C24  1  0.15500000  0.40900000  0.67700000  1.0 -0.1419158174
C  C25  1  0.88300000  0.62200000  0.27200000  1.0 0.0211315339
C  C26  1  0.11700000  0.37800000  0.72800000  1.0 0.0211315339
C  C27  1  0.75100000  0.60700000  0.42600000  1.0 0.5634017395
C  C28  1  0.24900000  0.39300000  0.57400000  1.0 0.5634017395
C  C29  1  0.04500000  0.92800000  0.87700000  1.0 0.5994922029
C  C30  1  0.95500000  0.07200000  0.12300000  1.0 0.5994922029
C  C31  1  0.13100000  0.90900000  0.84100000  1.0 0.0211315339
C  C32  1  0.86900000  0.09100000  0.15900000  1.0 0.0211315339
C  C33  1  0.20900000  0.89100000  0.87700000  1.0 -0.1301433534
C  C34  1  0.79100000  0.10900000  0.12300000  1.0 -0.1301433534
C  C35  1  0.28300000  0.86200000  0.83800000  1.0 0.0401415349
C  C36  1  0.71700000  0.13800000  0.16200000  1.0 0.0401415349
C  C37  1  0.28100000  0.85100000  0.76900000  1.0 -0.0315123986
C  C38  1  0.71900000  0.14900000  0.23100000  1.0 -0.0315123986
C  C39  1  0.20200000  0.88000000  0.73400000  1.0 0.0286695764
C  C40  1  0.79800000  0.12000000  0.26600000  1.0 0.0286695764
C  C41  1  0.12700000  0.90400000  0.76800000  1.0 -0.1457310735
C  C42  1  0.87300000  0.09600000  0.23200000  1.0 -0.1457310735
C  C43  1  0.34500000  0.80100000  0.72400000  1.0 -0.0386010387
C  C44  1  0.65500000  0.19900000  0.27600000  1.0 -0.0386010387
C  C45  1  0.31900000  0.71900000  0.69300000  1.0 0.0480007793
C  C46  1  0.68100000  0.28100000  0.30700000  1.0 0.0480007793
C  C47  1  0.37100000  0.66500000  0.64800000  1.0 -0.1556359871
C  C48  1  0.62900000  0.33500000  0.35200000  1.0 -0.1556359871
C  C49  1  0.45500000  0.70000000  0.63600000  1.0 0.0211315339
C  C50  1  0.54500000  0.30000000  0.36400000  1.0 0.0211315339
C  C51  1  0.48700000  0.78100000  0.66800000  1.0 -0.1457310735
C  C52  1  0.51300000  0.21900000  0.33200000  1.0 -0.1457310735
C  C53  1  0.43200000  0.83100000  0.71100000  1.0 0.0286695764
C  C54  1  0.56800000  0.16900000  0.28900000  1.0 0.0286695764
C  C55  1  0.51300000  0.64600000  0.58700000  1.0 0.5994922029
C  C56  1  0.48700000  0.35400000  0.41300000  1.0 0.5994922029
C  C57  1  0.46300000  0.54800000  0.37800000  1.0 0.6102611826
C  C58  1  0.53700000  0.45200000  0.62200000  1.0 0.6102611826
C  C59  1  0.43600000  0.59900000  0.32800000  1.0 -0.0026520209
C  C60  1  0.56400000  0.40100000  0.67200000  1.0 -0.0026520209
C  C61  1  0.34100000  0.60300000  0.30700000  1.0 -0.1121130182
C  C62  1  0.65900000  0.39700000  0.69300000  1.0 -0.1121130182
C  C63  1  0.31600000  0.65500000  0.26600000  1.0 0.0480007793
C  C64  1  0.68400000  0.34500000  0.73400000  1.0 0.0480007793
C  C65  1  0.38200000  0.70800000  0.24600000  1.0 0.0093523342
C  C66  1  0.61800000  0.29200000  0.75400000  1.0 0.0093523342
C  C67  1  0.47500000  0.70100000  0.26800000  1.0 0.0286695764
C  C68  1  0.52500000  0.29900000  0.73200000  1.0 0.0286695764
C  C69  1  0.50300000  0.64900000  0.30800000  1.0 -0.1212794377
C  C70  1  0.49700000  0.35100000  0.69200000  1.0 -0.1212794377
C  C71  1  0.35400000  0.77300000  0.21000000  1.0 -0.0315123986
C  C72  1  0.64600000  0.22700000  0.79000000  1.0 -0.0315123986
C  C73  1  0.33600000  0.85200000  0.24900000  1.0 0.0401415349
C  C74  1  0.66400000  0.14800000  0.75100000  1.0 0.0401415349
C  C75  1  0.30800000  0.91100000  0.21700000  1.0 -0.1301433534
C  C76  1  0.69200000  0.08900000  0.78300000  1.0 -0.1301433534
C  C77  1  0.29500000  0.89500000  0.14500000  1.0 0.0211315339
C  C78  1  0.70500000  0.10500000  0.85500000  1.0 0.0211315339
C  C79  1  0.31400000  0.81700000  0.10400000  1.0 -0.1301433534
C  C80  1  0.68600000  0.18300000  0.89600000  1.0 -0.1301433534
C  C81  1  0.34200000  0.76000000  0.13700000  1.0 0.0401415349
C  C82  1  0.65800000  0.24000000  0.86300000  1.0 0.0401415349
C  C83  1  0.25500000  0.95600000  0.11000000  1.0 0.5539256142
C  C84  1  0.74500000  0.04400000  0.89000000  1.0 0.5539256142
C  C85  1  0.32900000  0.09800000  0.99500000  1.0 0.3112541245
C  C86  1  0.67100000  0.90200000  0.00500000  1.0 0.3112541245
C  C87  1  0.46700000  0.11800000  0.93900000  1.0 -0.3519742085
C  C88  1  0.53300000  0.88200000  0.06100000  1.0 -0.3519742085
C  C89  1  0.31000000  0.10600000  0.87300000  1.0 -0.341195096
C  C90  1  0.69000000  0.89400000  0.12700000  1.0 -0.341195096
C  C91  1  0.26000000  0.20800000  0.19400000  1.0 0.0706916706
C  C92  1  0.74000000  0.79200000  0.80600000  1.0 0.0706916706
C  C93  1  0.29600000  0.28400000  0.24100000  1.0 -0.1457310735
C  C94  1  0.70400000  0.71600000  0.75900000  1.0 -0.1457310735
C  C95  1  0.26700000  0.35500000  0.22900000  1.0 -0.0386010387
C  C96  1  0.73300000  0.64500000  0.77100000  1.0 -0.0386010387
C  C97  1  0.19900000  0.34400000  0.17100000  1.0 -0.0315123986
C  C98  1  0.80100000  0.65600000  0.82900000  1.0 -0.0315123986
C  C99  1  0.16600000  0.26400000  0.12700000  1.0 0.0580348851
C  C100  1  0.83400000  0.73600000  0.87300000  1.0 0.0580348851
C  C101  1  0.15500000  0.41500000  0.15500000  1.0 0.2243831264
C  C102  1  0.84500000  0.58500000  0.84500000  1.0 0.2250648545
C  C103  1  0.82700000  0.65400000  0.61800000  1.0 0.2980123566
C  C104  1  0.17300000  0.34600000  0.38200000  1.0 0.2980123566
C  C105  1  0.94100000  0.59200000  0.67900000  1.0 -0.3282598648
C  C106  1  0.05900000  0.40800000  0.32100000  1.0 -0.341195096
C  C107  1  0.95900000  0.74500000  0.69300000  1.0 -0.3582257523
C  C108  1  0.04100000  0.25500000  0.30700000  1.0 -0.3582257523
C  C109  1  0.69300000  0.33800000  0.52300000  1.0 0.0401415349
C  C110  1  0.30700000  0.66200000  0.47700000  1.0 0.0401415349
C  C111  1  0.74400000  0.27400000  0.53100000  1.0 -0.1212794377
C  C112  1  0.25600000  0.72600000  0.46900000  1.0 -0.1212794377
C  C113  1  0.83800000  0.28400000  0.52900000  1.0 -0.0883737846
C  C114  1  0.16200000  0.71600000  0.47100000  1.0 -0.0883737846
C  C115  1  0.87700000  0.35100000  0.51500000  1.0 -0.0315123986
C  C116  1  0.12300000  0.64900000  0.48500000  1.0 -0.0315123986
C  C117  1  0.82100000  0.41700000  0.50700000  1.0 0.1029035287
C  C118  1  0.17900000  0.58300000  0.49300000  1.0 0.1029035287
C  C119  1  0.98000000  0.34800000  0.50900000  1.0 0.2706296103
C  C120  1  0.02000000  0.65200000  0.49100000  1.0 0.2706296103
N  N1  1  0.05700000  0.81000000  0.29100000  1.0 0.5124836818
N  N2  1  0.94300000  0.19000000  0.70900000  1.0 0.5124836818
N  N3  1  0.76800000  0.66900000  0.12500000  1.0 0.4946635173
N  N4  1  0.23200000  0.33100000  0.87500000  1.0 0.4986122792
N  N5  1  0.81300000  0.83900000  0.32100000  1.0 0.4986122792
N  N6  1  0.18700000  0.16100000  0.67900000  1.0 0.4986122792
N  N7  1  0.93600000  0.56800000  0.22400000  1.0 0.4986122792
N  N8  1  0.06400000  0.43200000  0.77600000  1.0 0.4986122792
N  N9  1  0.36200000  0.84100000  0.87900000  1.0 0.4986122792
N  N10  1  0.63800000  0.15900000  0.12100000  1.0 0.4986122792
N  N11  1  0.19400000  0.87200000  0.65700000  1.0 0.4986122792
N  N12  1  0.80600000  0.12800000  0.34300000  1.0 0.4986122792
N  N13  1  0.22600000  0.67700000  0.70200000  1.0 0.4986122792
N  N14  1  0.77400000  0.32300000  0.29800000  1.0 0.4986122792
N  N15  1  0.46700000  0.92100000  0.74300000  1.0 0.4675108151
N  N16  1  0.53300000  0.07900000  0.25700000  1.0 0.4675108151
N  N17  1  0.21500000  0.66100000  0.25000000  1.0 0.5256415711
N  N18  1  0.78500000  0.33900000  0.75000000  1.0 0.5256415711
N  N19  1  0.55200000  0.75100000  0.24700000  1.0 0.4786997543
N  N20  1  0.44800000  0.24900000  0.75300000  1.0 0.4786997543
N  N21  1  0.34800000  0.87700000  0.32900000  1.0 0.5124836818
N  N22  1  0.65200000  0.12300000  0.67100000  1.0 0.5124836818
N  N23  1  0.36400000  0.67900000  0.08900000  1.0 0.4986122792
N  N24  1  0.63600000  0.32100000  0.91100000  1.0 0.4986122792
N  N25  1  0.36600000  0.11100000  0.93900000  1.0 0.0286695764
N  N26  1  0.63400000  0.88900000  0.06100000  1.0 0.0286695764
N  N27  1  0.19700000  0.19700000  0.13700000  1.0 -0.3102954322
N  N28  1  0.80300000  0.80300000  0.86300000  1.0 -0.3102954322
N  N29  1  0.90400000  0.66200000  0.66000000  1.0 0.0211315339
N  N30  1  0.09600000  0.33800000  0.34000000  1.0 0.0211315339
N  N31  1  0.73000000  0.41300000  0.51200000  1.0 -0.3519742085
N  N32  1  0.27000000  0.58700000  0.48800000  1.0 -0.3519742085
O  O1  1  0.06100000  0.92200000  0.08040000  1.0 -0.6168367906
O  O2  1  0.93900000  0.07800000  0.91960000  1.0 -0.6168367906
O  O3  1  0.93200000  0.85900000  0.00260000  1.0 -0.6642117991
O  O4  1  0.06800000  0.14100000  0.99740000  1.0 -0.6642117991
O  O5  1  0.71800000  0.65800000  0.47500000  1.0 -0.6102092011
O  O6  1  0.28200000  0.34200000  0.52500000  1.0 -0.6102092011
O  O7  1  0.74300000  0.53000000  0.42060000  1.0 -0.6168367906
O  O8  1  0.25700000  0.47000000  0.57940000  1.0 -0.6168367906
O  O9  1  0.13700000  0.84000000  0.29300000  1.0 -0.2988426878
O  O10  1  0.86300000  0.16000000  0.70700000  1.0 -0.2988426878
O  O11  1  0.02500000  0.80000000  0.34400000  1.0 -0.3202827318
O  O12  1  0.97500000  0.20000000  0.65600000  1.0 -0.3202827318
O  O13  1  0.70400000  0.68400000  0.08600000  1.0 -0.2988426878
O  O14  1  0.29600000  0.31600000  0.91400000  1.0 -0.2909389995
O  O15  1  0.75900000  0.60700000  0.14600000  1.0 -0.2811982228
O  O16  1  0.24100000  0.39300000  0.85400000  1.0 -0.2811982228
O  O17  1  0.80900000  0.86100000  0.26600000  1.0 -0.341195096
O  O18  1  0.19100000  0.13900000  0.73400000  1.0 -0.341195096
O  O19  1  0.81000000  0.88700000  0.37900000  1.0 -0.2909389995
O  O20  1  0.19000000  0.11300000  0.62100000  1.0 -0.2909389995
O  O21  1  0.96900000  0.59100000  0.17700000  1.0 -0.2909389995
O  O22  1  0.03100000  0.40900000  0.82300000  1.0 -0.2909389995
O  O23  1  0.94300000  0.50000000  0.23000000  1.0 -0.263566245
O  O24  1  0.05700000  0.50000000  0.77000000  1.0 -0.263566245
O  O25  1  0.05800000  0.96000000  0.94500000  1.0 -0.7200191213
O  O26  1  0.94200000  0.04000000  0.05500000  1.0 -0.7200191213
O  O27  1  0.96600000  0.90900000  0.84200000  1.0 -0.5635228945
O  O28  1  0.03400000  0.09100000  0.15800000  1.0 -0.5635228945
O  O29  1  0.47200000  0.58100000  0.54060000  1.0 -0.7073933079
O  O30  1  0.52800000  0.41900000  0.45940000  1.0 -0.7073933079
O  O31  1  0.59900000  0.66800000  0.58990000  1.0 -0.5801135891
O  O32  1  0.40100000  0.33200000  0.41010000  1.0 -0.5801135891
O  O33  1  0.34300000  0.80600000  0.92500000  1.0 -0.2909389995
O  O34  1  0.65700000  0.19400000  0.07500000  1.0 -0.2909389995
O  O35  1  0.44000000  0.85400000  0.86500000  1.0 -0.3282598648
O  O36  1  0.56000000  0.14600000  0.13500000  1.0 -0.3282598648
O  O37  1  0.11700000  0.85700000  0.62300000  1.0 -0.2909389995
O  O38  1  0.88300000  0.14300000  0.37700000  1.0 -0.2909389995
O  O39  1  0.26500000  0.88200000  0.63100000  1.0 -0.2988426878
O  O40  1  0.73500000  0.11800000  0.36900000  1.0 -0.2988426878
O  O41  1  0.20600000  0.69400000  0.76400000  1.0 -0.3102954322
O  O42  1  0.79400000  0.30600000  0.23600000  1.0 -0.3102954322
O  O43  1  0.17500000  0.63900000  0.65400000  1.0 -0.2258329286
O  O44  1  0.82500000  0.36100000  0.34600000  1.0 -0.2258329286
O  O45  1  0.42300000  0.97100000  0.76400000  1.0 -0.1959475099
O  O46  1  0.57700000  0.02900000  0.23600000  1.0 -0.1959475099
O  O47  1  0.54800000  0.93900000  0.75200000  1.0 -0.1959475099
O  O48  1  0.45200000  0.06100000  0.24800000  1.0 -0.1959475099
O  O49  1  0.39800000  0.50300000  0.38990000  1.0 -0.6102092011
O  O50  1  0.60200000  0.49700000  0.61010000  1.0 -0.6102092011
O  O51  1  0.54900000  0.56000000  0.40600000  1.0 -0.6402133895
O  O52  1  0.45100000  0.44000000  0.59400000  1.0 -0.6402133895
O  O53  1  0.24100000  0.93800000  0.04380000  1.0 -0.5801135891
O  O54  1  0.75900000  0.06200000  0.95620000  1.0 -0.5801135891
O  O55  1  0.23300000  0.02300000  0.14980000  1.0 -0.6293383135
O  O56  1  0.76700000  0.97700000  0.85020000  1.0 -0.6293383135
O  O57  1  0.16300000  0.64600000  0.29200000  1.0 -0.3102954322
O  O58  1  0.83700000  0.35400000  0.70800000  1.0 -0.3102954322
O  O59  1  0.18800000  0.68000000  0.19600000  1.0 -0.2988426878
O  O60  1  0.81200000  0.32000000  0.80400000  1.0 -0.2988426878
O  O61  1  0.53900000  0.79600000  0.21700000  1.0 -0.1733704923
O  O62  1  0.46100000  0.20400000  0.78300000  1.0 -0.1733704923
O  O63  1  0.62700000  0.72700000  0.24700000  1.0 -0.2106496884
O  O64  1  0.37300000  0.27300000  0.75300000  1.0 -0.2106496884
O  O65  1  0.35100000  0.82400000  0.36000000  1.0 -0.3202827318
O  O66  1  0.64900000  0.17600000  0.64000000  1.0 -0.3202827318
O  O67  1  0.34500000  0.95100000  0.35900000  1.0 -0.2909389995
O  O68  1  0.65500000  0.04900000  0.64100000  1.0 -0.2909389995
O  O69  1  0.36400000  0.61800000  0.11000000  1.0 -0.2909389995
O  O70  1  0.63600000  0.38200000  0.89000000  1.0 -0.2909389995
O  O71  1  0.38000000  0.67900000  0.03000000  1.0 -0.2811982228
O  O72  1  0.62000000  0.32100000  0.97000000  1.0 -0.270868559
O  O73  1  0.24700000  0.08500000  0.99500000  1.0 -0.497810532
O  O74  1  0.75300000  0.91500000  0.00500000  1.0 -0.497810532
O  O75  1  0.18500000  0.48800000  0.18900000  1.0 -0.3519742085
O  O76  1  0.81500000  0.51200000  0.81100000  1.0 -0.3519742085
O  O77  1  0.77800000  0.58400000  0.59010000  1.0 -0.5801135891
O  O78  1  0.22200000  0.41600000  0.40990000  1.0 -0.5801135891
O  O79  1  0.01000000  0.40300000  0.50200000  1.0 -0.1825693517
O  O80  1  0.99000000  0.59700000  0.49800000  1.0 -0.1825693517
