# DDEC6 charges by PACMAN v1.1 (https://github.com/mtap-research/PACMAN-charge/)
data_XEGSEK_FSR_pacman
_chemical_formula_sum              "O48 C204 H96 F72 Co12 Mn6"
_cell_length_a       21.2551
_cell_length_b       21.2551
_cell_length_c       15.0041
_cell_angle_alpha    90
_cell_angle_beta     90
_cell_angle_gamma    120

_symmetry_space_group_name_H-M    "P 1"
_symmetry_Int_Tables_number       1

loop_
  _symmetry_equiv_pos_as_xyz
  'x, y, z'

loop_
  _atom_site_type_symbol
  _atom_site_label
  _atom_site_symmetry_multiplicity
  _atom_site_fract_x
  _atom_site_fract_y
  _atom_site_fract_z
  _atom_site_occupancy
 _atom_site_charge
O   O1        1.0  0.49480  0.69990  0.84110  1.0000 -0.5180233238
O   O2        1.0  0.36840  0.62560  0.97990  1.0000 -0.6652129708
C   C1        1.0  0.48260  0.67790  0.76060  1.0000 0.5578561755
O   O3        1.0  0.42260  0.65390  0.72250  1.0000 -0.6513529686
C   C2        1.0  0.54640  0.68330  0.71130  1.0000 -0.0288279556
O   O4        1.0  0.30750  0.57600  0.85350  1.0000 -0.6326486138
C   C3        1.0  0.61370  0.71720  0.75050  1.0000 -0.0929480387
C   C4        1.0  0.53920  0.65790  0.62430  1.0000 -0.1010982434
H   H1        1.0  0.61850  0.73370  0.80890  1.0000 0.1286562407
C   C5        1.0  0.67480  0.72740  0.70430  1.0000 -0.1618030089
C   C6        1.0  0.59920  0.66660  0.57880  1.0000 -0.1469080168
H   H2        1.0  0.49380  0.63510  0.59700  1.0000 0.1286562407
C   C7        1.0  0.66750  0.70130  0.61830  1.0000 0.0727239562
H   H3        1.0  0.72040  0.75170  0.73110  1.0000 0.1131725716
H   H4        1.0  0.59400  0.64900  0.52090  1.0000 0.1174132663
C   C8        1.0  0.73310  0.71240  0.56240  1.0000 -0.2889035908
C   C9        1.0  0.74400  0.76730  0.48810  1.0000 0.6514525172
C   C10       1.0  0.71940  0.63880  0.52440  1.0000 0.0755163587
C   C11       1.0  0.80360  0.74290  0.61790  1.0000 0.6514525172
F   F1        1.0  0.69230  0.73850  0.42650  1.0000 -0.2008013104
F   F2        1.0  0.74230  0.82470  0.52170  1.0000 -0.2008013104
F   F3        1.0  0.80750  0.79370  0.44500  1.0000 -0.2008013104
C   C12       1.0  0.74470  0.63160  0.44140  1.0000 -0.1469080168
C   C13       1.0  0.68190  0.57760  0.57610  1.0000 -0.1324548565
F   F4        1.0  0.79570  0.70210  0.68740  1.0000 -0.2008013104
F   F5        1.0  0.85830  0.74680  0.56900  1.0000 -0.2008013104
F   F6        1.0  0.82650  0.81080  0.64710  1.0000 -0.2008013104
H   H5        1.0  0.77130  0.67230  0.40580  1.0000 0.1174132663
C   C14       1.0  0.73060  0.56470  0.41220  1.0000 -0.1010982434
H   H6        1.0  0.66560  0.58180  0.63210  1.0000 0.1174132663
C   C15       1.0  0.66790  0.51020  0.54710  1.0000 -0.1208859203
C   C16       1.0  0.69100  0.50270  0.46380  1.0000 -0.0288279556
H   H7        1.0  0.74780  0.56060  0.35680  1.0000 0.1286562407
H   H8        1.0  0.64290  0.46980  0.58360  1.0000 0.1174132663
C   C17       1.0  0.67180  0.42960  0.42940  1.0000 0.5578561755
O   O5        1.0  0.30010  0.79490  0.50777  1.0000 -0.5180233238
O   O6        1.0  0.37440  0.74280  0.64657  1.0000 -0.6652129708
C   C18       1.0  0.32210  0.80470  0.42727  1.0000 0.5578561755
O   O7        1.0  0.34610  0.76870  0.38917  1.0000 -0.6513529686
C   C19       1.0  0.31670  0.86310  0.37797  1.0000 -0.0288279556
O   O8        1.0  0.42400  0.73150  0.52017  1.0000 -0.6326486138
C   C20       1.0  0.28280  0.89650  0.41717  1.0000 -0.0929480387
C   C21       1.0  0.34210  0.88130  0.29097  1.0000 -0.1010982434
H   H9        1.0  0.26630  0.88480  0.47557  1.0000 0.1286562407
C   C22       1.0  0.27260  0.94740  0.37097  1.0000 -0.1618030089
C   C23       1.0  0.33340  0.93260  0.24547  1.0000 -0.1469080168
H   H10       1.0  0.36490  0.85870  0.26367  1.0000 0.1286562407
C   C24       1.0  0.29870  0.96620  0.28497  1.0000 0.0727239562
H   H11       1.0  0.24830  0.96870  0.39777  1.0000 0.1131725716
H   H12       1.0  0.35100  0.94500  0.18757  1.0000 0.1174132663
C   C25       1.0  0.28760  0.02070  0.22907  1.0000 -0.2889035908
C   C26       1.0  0.23270  0.97670  0.15477  1.0000 0.6514525172
C   C27       1.0  0.36120  0.08060  0.19107  1.0000 0.0755163587
C   C28       1.0  0.25710  0.06070  0.28457  1.0000 0.6514525172
F   F7        1.0  0.26150  0.95380  0.09317  1.0000 -0.2008013104
F   F8        1.0  0.17530  0.91760  0.18837  1.0000 -0.2008013104
F   F9        1.0  0.20630  0.01380  0.11167  1.0000 -0.2008013104
C   C29       1.0  0.36840  0.11310  0.10807  1.0000 -0.1469080168
C   C30       1.0  0.42240  0.10430  0.24277  1.0000 -0.1324548565
F   F10       1.0  0.29790  0.09360  0.35407  1.0000 -0.2008013104
F   F11       1.0  0.25320  0.11150  0.23567  1.0000 -0.2008013104
F   F12       1.0  0.18920  0.01570  0.31377  1.0000 -0.2008013104
H   H13       1.0  0.32770  0.09900  0.07247  1.0000 0.1174132663
C   C31       1.0  0.43530  0.16590  0.07887  1.0000 -0.1010982434
H   H14       1.0  0.41820  0.08380  0.29877  1.0000 0.1174132663
C   C32       1.0  0.48980  0.15770  0.21377  1.0000 -0.1208859203
C   C33       1.0  0.49730  0.18830  0.13047  1.0000 -0.0288279556
H   H15       1.0  0.43940  0.18720  0.02347  1.0000 0.1286562407
H   H16       1.0  0.53020  0.17310  0.25027  1.0000 0.1174132663
C   C34       1.0  0.57040  0.24220  0.09607  1.0000 0.5578561755
O   O9        1.0  0.20510  0.50520  0.17443  1.0000 -0.5180233238
O   O10       1.0  0.25720  0.63160  0.31323  1.0000 -0.6652129708
C   C35       1.0  0.19530  0.51740  0.09393  1.0000 0.5578561755
O   O11       1.0  0.23130  0.57740  0.05583  1.0000 -0.6513529686
C   C36       1.0  0.13690  0.45360  0.04463  1.0000 -0.0288279556
O   O12       1.0  0.26850  0.69250  0.18683  1.0000 -0.6326486138
C   C37       1.0  0.10350  0.38630  0.08383  1.0000 -0.0929480387
C   C38       1.0  0.11870  0.46080  0.95763  1.0000 -0.1010982434
H   H17       1.0  0.11520  0.38150  0.14223  1.0000 0.1286562407
C   C39       1.0  0.05260  0.32520  0.03763  1.0000 -0.1618030089
C   C40       1.0  0.06740  0.40080  0.91213  1.0000 -0.1469080168
H   H18       1.0  0.14130  0.50620  0.93033  1.0000 0.1286562407
C   C41       1.0  0.03380  0.33250  0.95163  1.0000 0.0727239562
H   H19       1.0  0.03130  0.27960  0.06443  1.0000 0.1131725716
H   H20       1.0  0.05500  0.40600  0.85423  1.0000 0.1174132663
C   C42       1.0  0.97930  0.26690  0.89573  1.0000 -0.2889035908
C   C43       1.0  0.02330  0.25600  0.82143  1.0000 0.6514525172
C   C44       1.0  0.91940  0.28060  0.85773  1.0000 0.0755163587
C   C45       1.0  0.93930  0.19640  0.95123  1.0000 0.6514525172
F   F13       1.0  0.04620  0.30770  0.75983  1.0000 -0.2008013104
F   F14       1.0  0.08240  0.25770  0.85503  1.0000 -0.2008013104
F   F15       1.0  0.98620  0.19250  0.77833  1.0000 -0.2008013104
C   C46       1.0  0.88690  0.25530  0.77473  1.0000 -0.1469080168
C   C47       1.0  0.89570  0.31810  0.90943  1.0000 -0.1324548565
F   F16       1.0  0.90640  0.20430  0.02073  1.0000 -0.2008013104
F   F17       1.0  0.88850  0.14170  0.90233  1.0000 -0.2008013104
F   F18       1.0  0.98430  0.17350  0.98043  1.0000 -0.2008013104
H   H21       1.0  0.90100  0.22870  0.73913  1.0000 0.1174132663
C   C48       1.0  0.83410  0.26940  0.74553  1.0000 -0.1010982434
H   H22       1.0  0.91620  0.33440  0.96543  1.0000 0.1174132663
C   C49       1.0  0.84230  0.33210  0.88043  1.0000 -0.1208859203
C   C50       1.0  0.81170  0.30900  0.79713  1.0000 -0.0288279556
H   H23       1.0  0.81280  0.25220  0.69013  1.0000 0.1286562407
H   H24       1.0  0.82690  0.35710  0.91693  1.0000 0.1174132663
C   C51       1.0  0.75780  0.32820  0.76273  1.0000 0.5578561755
O   O13       1.0  0.50520  0.30010  0.34110  1.0000 -0.5180233238
O   O14       1.0  0.63160  0.37440  0.47990  1.0000 -0.6652129708
C   C52       1.0  0.51740  0.32210  0.26060  1.0000 0.5578561755
O   O15       1.0  0.57740  0.34610  0.22250  1.0000 -0.6513529686
C   C53       1.0  0.45360  0.31670  0.21130  1.0000 -0.0288279556
O   O16       1.0  0.69250  0.42400  0.35350  1.0000 -0.6326486138
C   C54       1.0  0.38630  0.28280  0.25050  1.0000 -0.0929480387
C   C55       1.0  0.46080  0.34210  0.12430  1.0000 -0.1010982434
H   H25       1.0  0.38150  0.26630  0.30890  1.0000 0.1286562407
C   C56       1.0  0.32520  0.27260  0.20430  1.0000 -0.1618030089
C   C57       1.0  0.40080  0.33340  0.07880  1.0000 -0.1469080168
H   H26       1.0  0.50620  0.36490  0.09700  1.0000 0.1286562407
C   C58       1.0  0.33250  0.29870  0.11830  1.0000 0.0727239562
H   H27       1.0  0.27960  0.24830  0.23110  1.0000 0.1131725716
H   H28       1.0  0.40600  0.35100  0.02090  1.0000 0.1174132663
C   C59       1.0  0.26690  0.28760  0.06240  1.0000 -0.2889035908
C   C60       1.0  0.25600  0.23270  0.98810  1.0000 0.6514525172
C   C61       1.0  0.28060  0.36120  0.02440  1.0000 0.0755163587
C   C62       1.0  0.19640  0.25710  0.11790  1.0000 0.6514525172
F   F19       1.0  0.30770  0.26150  0.92650  1.0000 -0.2008013104
F   F20       1.0  0.25770  0.17530  0.02170  1.0000 -0.2008013104
F   F21       1.0  0.19250  0.20630  0.94500  1.0000 -0.2008013104
C   C63       1.0  0.25530  0.36840  0.94140  1.0000 -0.1469080168
C   C64       1.0  0.31810  0.42240  0.07610  1.0000 -0.1324548565
F   F22       1.0  0.20430  0.29790  0.18740  1.0000 -0.2008013104
F   F23       1.0  0.14170  0.25320  0.06900  1.0000 -0.2008013104
F   F24       1.0  0.17350  0.18920  0.14710  1.0000 -0.2008013104
H   H29       1.0  0.22870  0.32770  0.90580  1.0000 0.1174132663
C   C65       1.0  0.26940  0.43530  0.91220  1.0000 -0.1010982434
H   H30       1.0  0.33440  0.41820  0.13210  1.0000 0.1174132663
C   C66       1.0  0.33210  0.48980  0.04710  1.0000 -0.1208859203
C   C67       1.0  0.30900  0.49730  0.96380  1.0000 -0.0288279556
H   H31       1.0  0.25220  0.43940  0.85680  1.0000 0.1286562407
H   H32       1.0  0.35710  0.53020  0.08360  1.0000 0.1174132663
C   C68       1.0  0.32820  0.57040  0.92940  1.0000 0.5578561755
O   O17       1.0  0.69990  0.20510  0.00777  1.0000 -0.5180233238
O   O18       1.0  0.62560  0.25720  0.14657  1.0000 -0.6652129708
C   C69       1.0  0.67790  0.19530  0.92727  1.0000 0.5578561755
O   O19       1.0  0.65390  0.23130  0.88917  1.0000 -0.6513529686
C   C70       1.0  0.68330  0.13690  0.87797  1.0000 -0.0288279556
O   O20       1.0  0.57600  0.26850  0.02017  1.0000 -0.6326486138
C   C71       1.0  0.71720  0.10350  0.91717  1.0000 -0.0929480387
C   C72       1.0  0.65790  0.11870  0.79097  1.0000 -0.1010982434
H   H33       1.0  0.73370  0.11520  0.97557  1.0000 0.1286562407
C   C73       1.0  0.72740  0.05260  0.87097  1.0000 -0.1618030089
C   C74       1.0  0.66660  0.06740  0.74547  1.0000 -0.1469080168
H   H34       1.0  0.63510  0.14130  0.76367  1.0000 0.1286562407
C   C75       1.0  0.70130  0.03380  0.78497  1.0000 0.0727239562
H   H35       1.0  0.75170  0.03130  0.89777  1.0000 0.1131725716
H   H36       1.0  0.64900  0.05500  0.68757  1.0000 0.1174132663
C   C76       1.0  0.71240  0.97930  0.72907  1.0000 -0.2889035908
C   C77       1.0  0.76730  0.02330  0.65477  1.0000 0.6514525172
C   C78       1.0  0.63880  0.91940  0.69107  1.0000 0.0755163587
C   C79       1.0  0.74290  0.93930  0.78457  1.0000 0.6514525172
F   F25       1.0  0.73850  0.04620  0.59317  1.0000 -0.2008013104
F   F26       1.0  0.82470  0.08240  0.68837  1.0000 -0.2008013104
F   F27       1.0  0.79370  0.98620  0.61167  1.0000 -0.2008013104
C   C80       1.0  0.63160  0.88690  0.60807  1.0000 -0.1469080168
C   C81       1.0  0.57760  0.89570  0.74277  1.0000 -0.1324548565
F   F28       1.0  0.70210  0.90640  0.85407  1.0000 -0.2008013104
F   F29       1.0  0.74680  0.88850  0.73567  1.0000 -0.2008013104
F   F30       1.0  0.81080  0.98430  0.81377  1.0000 -0.2008013104
H   H37       1.0  0.67230  0.90100  0.57247  1.0000 0.1174132663
C   C82       1.0  0.56470  0.83410  0.57887  1.0000 -0.1010982434
H   H38       1.0  0.58180  0.91620  0.79877  1.0000 0.1174132663
C   C83       1.0  0.51020  0.84230  0.71377  1.0000 -0.1208859203
C   C84       1.0  0.50270  0.81170  0.63047  1.0000 -0.0288279556
H   H39       1.0  0.56060  0.81280  0.52347  1.0000 0.1286562407
H   H40       1.0  0.46980  0.82690  0.75027  1.0000 0.1174132663
C   C85       1.0  0.42960  0.75780  0.59607  1.0000 0.5578561755
O   O21       1.0  0.79490  0.49480  0.67443  1.0000 -0.5180233238
O   O22       1.0  0.74280  0.36840  0.81323  1.0000 -0.6652129708
C   C86       1.0  0.80470  0.48260  0.59393  1.0000 0.5578561755
O   O23       1.0  0.76870  0.42260  0.55583  1.0000 -0.6513529686
C   C87       1.0  0.86310  0.54640  0.54463  1.0000 -0.0288279556
O   O24       1.0  0.73150  0.30750  0.68683  1.0000 -0.6326486138
C   C88       1.0  0.89650  0.61370  0.58383  1.0000 -0.0929480387
C   C89       1.0  0.88130  0.53920  0.45763  1.0000 -0.1010982434
H   H41       1.0  0.88480  0.61850  0.64223  1.0000 0.1286562407
C   C90       1.0  0.94740  0.67480  0.53763  1.0000 -0.1618030089
C   C91       1.0  0.93260  0.59920  0.41213  1.0000 -0.1469080168
H   H42       1.0  0.85870  0.49380  0.43033  1.0000 0.1286562407
C   C92       1.0  0.96620  0.66750  0.45163  1.0000 0.0727239562
H   H43       1.0  0.96870  0.72040  0.56443  1.0000 0.1131725716
H   H44       1.0  0.94500  0.59400  0.35423  1.0000 0.1174132663
C   C93       1.0  0.02070  0.73310  0.39573  1.0000 -0.2889035908
C   C94       1.0  0.97670  0.74400  0.32143  1.0000 0.6514525172
C   C95       1.0  0.08060  0.71940  0.35773  1.0000 0.0755163587
C   C96       1.0  0.06070  0.80360  0.45123  1.0000 0.6514525172
F   F31       1.0  0.95380  0.69230  0.25983  1.0000 -0.2008013104
F   F32       1.0  0.91760  0.74230  0.35503  1.0000 -0.2008013104
F   F33       1.0  0.01380  0.80750  0.27833  1.0000 -0.2008013104
C   C97       1.0  0.11310  0.74470  0.27473  1.0000 -0.1469080168
C   C98       1.0  0.10430  0.68190  0.40943  1.0000 -0.1324548565
F   F34       1.0  0.09360  0.79570  0.52073  1.0000 -0.2008013104
F   F35       1.0  0.11150  0.85830  0.40233  1.0000 -0.2008013104
F   F36       1.0  0.01570  0.82650  0.48043  1.0000 -0.2008013104
H   H45       1.0  0.09900  0.77130  0.23913  1.0000 0.1174132663
C   C99       1.0  0.16590  0.73060  0.24553  1.0000 -0.1010982434
H   H46       1.0  0.08380  0.66560  0.46543  1.0000 0.1174132663
C   C100      1.0  0.15770  0.66790  0.38043  1.0000 -0.1208859203
C   C101      1.0  0.18830  0.69100  0.29713  1.0000 -0.0288279556
H   H47       1.0  0.18720  0.74780  0.19013  1.0000 0.1286562407
H   H48       1.0  0.17310  0.64290  0.41693  1.0000 0.1174132663
C   C102      1.0  0.24220  0.67180  0.26273  1.0000 0.5578561755
O   O25       1.0  0.69990  0.49480  0.82557  1.0000 -0.5180233238
O   O26       1.0  0.62560  0.36840  0.68677  1.0000 -0.6652129708
C   C103      1.0  0.67790  0.48260  0.90607  1.0000 0.5578561755
O   O27       1.0  0.65390  0.42260  0.94417  1.0000 -0.6513529686
C   C104      1.0  0.68330  0.54640  0.95537  1.0000 -0.0288279556
O   O28       1.0  0.57600  0.30750  0.81317  1.0000 -0.6326486138
C   C105      1.0  0.71720  0.61370  0.91617  1.0000 -0.0929480387
C   C106      1.0  0.65790  0.53920  0.04237  1.0000 -0.1010982434
H   H49       1.0  0.73370  0.61850  0.85777  1.0000 0.1286562407
C   C107      1.0  0.72740  0.67480  0.96237  1.0000 -0.1618030089
C   C108      1.0  0.66660  0.59920  0.08787  1.0000 -0.1469080168
H   H50       1.0  0.63510  0.49380  0.06967  1.0000 0.1286562407
C   C109      1.0  0.70130  0.66750  0.04837  1.0000 0.0727239562
H   H51       1.0  0.75170  0.72040  0.93557  1.0000 0.1131725716
H   H52       1.0  0.64900  0.59400  0.14577  1.0000 0.1174132663
C   C110      1.0  0.71240  0.73310  0.10427  1.0000 -0.2889035908
C   C111      1.0  0.76730  0.74400  0.17857  1.0000 0.6514525172
C   C112      1.0  0.63880  0.71940  0.14227  1.0000 0.0755163587
C   C113      1.0  0.74290  0.80360  0.04877  1.0000 0.6514525172
F   F37       1.0  0.73850  0.69230  0.24017  1.0000 -0.2008013104
F   F38       1.0  0.82470  0.74230  0.14497  1.0000 -0.2008013104
F   F39       1.0  0.79370  0.80750  0.22167  1.0000 -0.2008013104
C   C114      1.0  0.63160  0.74470  0.22527  1.0000 -0.1469080168
C   C115      1.0  0.57760  0.68190  0.09057  1.0000 -0.1324548565
F   F40       1.0  0.70210  0.79570  0.97927  1.0000 -0.2008013104
F   F41       1.0  0.74680  0.85830  0.09767  1.0000 -0.2008013104
F   F42       1.0  0.81080  0.82650  0.01957  1.0000 -0.2008013104
H   H53       1.0  0.67230  0.77130  0.26087  1.0000 0.1174132663
C   C116      1.0  0.56470  0.73060  0.25447  1.0000 -0.1010982434
H   H54       1.0  0.58180  0.66560  0.03457  1.0000 0.1174132663
C   C117      1.0  0.51020  0.66790  0.11957  1.0000 -0.1208859203
C   C118      1.0  0.50270  0.69100  0.20287  1.0000 -0.0288279556
H   H55       1.0  0.56060  0.74780  0.30987  1.0000 0.1286562407
H   H56       1.0  0.46980  0.64290  0.08307  1.0000 0.1174132663
C   C119      1.0  0.42960  0.67180  0.23727  1.0000 0.5578561755
O   O29       1.0  0.79490  0.30010  0.15890  1.0000 -0.5180233238
O   O30       1.0  0.74280  0.37440  0.02010  1.0000 -0.6652129708
C   C120      1.0  0.80470  0.32210  0.23940  1.0000 0.5578561755
O   O31       1.0  0.76870  0.34610  0.27750  1.0000 -0.6513529686
C   C121      1.0  0.86310  0.31670  0.28870  1.0000 -0.0288279556
O   O32       1.0  0.73150  0.42400  0.14650  1.0000 -0.6326486138
C   C122      1.0  0.89650  0.28280  0.24950  1.0000 -0.0929480387
C   C123      1.0  0.88130  0.34210  0.37570  1.0000 -0.1010982434
H   H57       1.0  0.88480  0.26630  0.19110  1.0000 0.1286562407
C   C124      1.0  0.94740  0.27260  0.29570  1.0000 -0.1618030089
C   C125      1.0  0.93260  0.33340  0.42120  1.0000 -0.1469080168
H   H58       1.0  0.85870  0.36490  0.40300  1.0000 0.1286562407
C   C126      1.0  0.96620  0.29870  0.38170  1.0000 0.0727239562
H   H59       1.0  0.96870  0.24830  0.26890  1.0000 0.1131725716
H   H60       1.0  0.94500  0.35100  0.47910  1.0000 0.1174132663
C   C127      1.0  0.02070  0.28760  0.43760  1.0000 -0.2889035908
C   C128      1.0  0.97670  0.23270  0.51190  1.0000 0.6514525172
C   C129      1.0  0.08060  0.36120  0.47560  1.0000 0.0755163587
C   C130      1.0  0.06070  0.25710  0.38210  1.0000 0.6514525172
F   F43       1.0  0.95380  0.26150  0.57350  1.0000 -0.2008013104
F   F44       1.0  0.91760  0.17530  0.47830  1.0000 -0.2008013104
F   F45       1.0  0.01380  0.20630  0.55500  1.0000 -0.2008013104
C   C131      1.0  0.11310  0.36840  0.55860  1.0000 -0.1469080168
C   C132      1.0  0.10430  0.42240  0.42390  1.0000 -0.1324548565
F   F46       1.0  0.09360  0.29790  0.31260  1.0000 -0.2008013104
F   F47       1.0  0.11150  0.25320  0.43100  1.0000 -0.2008013104
F   F48       1.0  0.01570  0.18920  0.35290  1.0000 -0.2008013104
H   H61       1.0  0.09900  0.32770  0.59420  1.0000 0.1174132663
C   C133      1.0  0.16590  0.43530  0.58780  1.0000 -0.1010982434
H   H62       1.0  0.08380  0.41820  0.36790  1.0000 0.1174132663
C   C134      1.0  0.15770  0.48980  0.45290  1.0000 -0.1208859203
C   C135      1.0  0.18830  0.49730  0.53620  1.0000 -0.0288279556
H   H63       1.0  0.18720  0.43940  0.64320  1.0000 0.1286562407
H   H64       1.0  0.17310  0.53020  0.41640  1.0000 0.1174132663
C   C136      1.0  0.24220  0.57040  0.57060  1.0000 0.5578561755
O   O33       1.0  0.50520  0.20510  0.49223  1.0000 -0.5180233238
O   O34       1.0  0.63160  0.25720  0.35343  1.0000 -0.6652129708
C   C137      1.0  0.51740  0.19530  0.57273  1.0000 0.5578561755
O   O35       1.0  0.57740  0.23130  0.61083  1.0000 -0.6513529686
C   C138      1.0  0.45360  0.13690  0.62203  1.0000 -0.0288279556
O   O36       1.0  0.69250  0.26850  0.47983  1.0000 -0.6326486138
C   C139      1.0  0.38630  0.10350  0.58283  1.0000 -0.0929480387
C   C140      1.0  0.46080  0.11870  0.70903  1.0000 -0.1010982434
H   H65       1.0  0.38150  0.11520  0.52443  1.0000 0.1286562407
C   C141      1.0  0.32520  0.05260  0.62903  1.0000 -0.1618030089
C   C142      1.0  0.40080  0.06740  0.75453  1.0000 -0.1469080168
H   H66       1.0  0.50620  0.14130  0.73633  1.0000 0.1286562407
C   C143      1.0  0.33250  0.03380  0.71503  1.0000 0.0727239562
H   H67       1.0  0.27960  0.03130  0.60223  1.0000 0.1131725716
H   H68       1.0  0.40600  0.05500  0.81243  1.0000 0.1174132663
C   C144      1.0  0.26690  0.97930  0.77093  1.0000 -0.2889035908
C   C145      1.0  0.25600  0.02330  0.84523  1.0000 0.6514525172
C   C146      1.0  0.28060  0.91940  0.80893  1.0000 0.0755163587
C   C147      1.0  0.19640  0.93930  0.71543  1.0000 0.6514525172
F   F49       1.0  0.30770  0.04620  0.90683  1.0000 -0.2008013104
F   F50       1.0  0.25770  0.08240  0.81163  1.0000 -0.2008013104
F   F51       1.0  0.19250  0.98620  0.88833  1.0000 -0.2008013104
C   C148      1.0  0.25530  0.88690  0.89193  1.0000 -0.1469080168
C   C149      1.0  0.31810  0.89570  0.75723  1.0000 -0.1324548565
F   F52       1.0  0.20430  0.90640  0.64593  1.0000 -0.2008013104
F   F53       1.0  0.14170  0.88850  0.76433  1.0000 -0.2008013104
F   F54       1.0  0.17350  0.98430  0.68623  1.0000 -0.2008013104
H   H69       1.0  0.22870  0.90100  0.92753  1.0000 0.1174132663
C   C150      1.0  0.26940  0.83410  0.92113  1.0000 -0.1010982434
H   H70       1.0  0.33440  0.91620  0.70123  1.0000 0.1174132663
C   C151      1.0  0.33210  0.84230  0.78623  1.0000 -0.1208859203
C   C152      1.0  0.30900  0.81170  0.86953  1.0000 -0.0288279556
H   H71       1.0  0.25220  0.81280  0.97653  1.0000 0.1286562407
H   H72       1.0  0.35710  0.82690  0.74973  1.0000 0.1174132663
C   C153      1.0  0.32820  0.75780  0.90393  1.0000 0.5578561755
O   O37       1.0  0.30010  0.50520  0.32557  1.0000 -0.5180233238
O   O38       1.0  0.37440  0.63160  0.18677  1.0000 -0.6652129708
C   C154      1.0  0.32210  0.51740  0.40607  1.0000 0.5578561755
O   O39       1.0  0.34610  0.57740  0.44417  1.0000 -0.6513529686
C   C155      1.0  0.31670  0.45360  0.45537  1.0000 -0.0288279556
O   O40       1.0  0.42400  0.69250  0.31317  1.0000 -0.6326486138
C   C156      1.0  0.28280  0.38630  0.41617  1.0000 -0.0929480387
C   C157      1.0  0.34210  0.46080  0.54237  1.0000 -0.1010982434
H   H73       1.0  0.26630  0.38150  0.35777  1.0000 0.1286562407
C   C158      1.0  0.27260  0.32520  0.46237  1.0000 -0.1618030089
C   C159      1.0  0.33340  0.40080  0.58787  1.0000 -0.1469080168
H   H74       1.0  0.36490  0.50620  0.56967  1.0000 0.1286562407
C   C160      1.0  0.29870  0.33250  0.54837  1.0000 0.0727239562
H   H75       1.0  0.24830  0.27960  0.43557  1.0000 0.1131725716
H   H76       1.0  0.35100  0.40600  0.64577  1.0000 0.1174132663
C   C161      1.0  0.28760  0.26690  0.60427  1.0000 -0.2889035908
C   C162      1.0  0.23270  0.25600  0.67857  1.0000 0.6514525172
C   C163      1.0  0.36120  0.28060  0.64227  1.0000 0.0755163587
C   C164      1.0  0.25710  0.19640  0.54877  1.0000 0.6514525172
F   F55       1.0  0.26150  0.30770  0.74017  1.0000 -0.2008013104
F   F56       1.0  0.17530  0.25770  0.64497  1.0000 -0.2008013104
F   F57       1.0  0.20630  0.19250  0.72167  1.0000 -0.2008013104
C   C165      1.0  0.36840  0.25530  0.72527  1.0000 -0.1469080168
C   C166      1.0  0.42240  0.31810  0.59057  1.0000 -0.1324548565
F   F58       1.0  0.29790  0.20430  0.47927  1.0000 -0.2008013104
F   F59       1.0  0.25320  0.14170  0.59767  1.0000 -0.2008013104
F   F60       1.0  0.18920  0.17350  0.51957  1.0000 -0.2008013104
H   H77       1.0  0.32770  0.22870  0.76087  1.0000 0.1174132663
C   C167      1.0  0.43530  0.26940  0.75447  1.0000 -0.1010982434
H   H78       1.0  0.41820  0.33440  0.53457  1.0000 0.1174132663
C   C168      1.0  0.48980  0.33210  0.61957  1.0000 -0.1208859203
C   C169      1.0  0.49730  0.30900  0.70287  1.0000 -0.0288279556
H   H79       1.0  0.43940  0.25220  0.80987  1.0000 0.1286562407
H   H80       1.0  0.53020  0.35710  0.58307  1.0000 0.1174132663
C   C170      1.0  0.57040  0.32820  0.73727  1.0000 0.5578561755
O   O41       1.0  0.20510  0.69990  0.65890  1.0000 -0.5180233238
O   O42       1.0  0.25720  0.62560  0.52010  1.0000 -0.6652129708
C   C171      1.0  0.19530  0.67790  0.73940  1.0000 0.5578561755
O   O43       1.0  0.23130  0.65390  0.77750  1.0000 -0.6513529686
C   C172      1.0  0.13690  0.68330  0.78870  1.0000 -0.0288279556
O   O44       1.0  0.26850  0.57600  0.64650  1.0000 -0.6326486138
C   C173      1.0  0.10350  0.71720  0.74950  1.0000 -0.0929480387
C   C174      1.0  0.11870  0.65790  0.87570  1.0000 -0.1010982434
H   H81       1.0  0.11520  0.73370  0.69110  1.0000 0.1286562407
C   C175      1.0  0.05260  0.72740  0.79570  1.0000 -0.1618030089
C   C176      1.0  0.06740  0.66660  0.92120  1.0000 -0.1469080168
H   H82       1.0  0.14130  0.63510  0.90300  1.0000 0.1286562407
C   C177      1.0  0.03380  0.70130  0.88170  1.0000 0.0727239562
H   H83       1.0  0.03130  0.75170  0.76890  1.0000 0.1131725716
H   H84       1.0  0.05500  0.64900  0.97910  1.0000 0.1174132663
C   C178      1.0  0.97930  0.71240  0.93760  1.0000 -0.2889035908
C   C179      1.0  0.02330  0.76730  0.01190  1.0000 0.6514525172
C   C180      1.0  0.91940  0.63880  0.97560  1.0000 0.0755163587
C   C181      1.0  0.93930  0.74290  0.88210  1.0000 0.6514525172
F   F61       1.0  0.04620  0.73850  0.07350  1.0000 -0.2008013104
F   F62       1.0  0.08240  0.82470  0.97830  1.0000 -0.2008013104
F   F63       1.0  0.98620  0.79370  0.05500  1.0000 -0.2008013104
C   C182      1.0  0.88690  0.63160  0.05860  1.0000 -0.1469080168
C   C183      1.0  0.89570  0.57760  0.92390  1.0000 -0.1324548565
F   F64       1.0  0.90640  0.70210  0.81260  1.0000 -0.2008013104
F   F65       1.0  0.88850  0.74680  0.93100  1.0000 -0.2008013104
F   F66       1.0  0.98430  0.81080  0.85290  1.0000 -0.2008013104
H   H85       1.0  0.90100  0.67230  0.09420  1.0000 0.1174132663
C   C184      1.0  0.83410  0.56470  0.08780  1.0000 -0.1010982434
H   H86       1.0  0.91620  0.58180  0.86790  1.0000 0.1174132663
C   C185      1.0  0.84230  0.51020  0.95290  1.0000 -0.1208859203
C   C186      1.0  0.81170  0.50270  0.03620  1.0000 -0.0288279556
H   H87       1.0  0.81280  0.56060  0.14320  1.0000 0.1286562407
H   H88       1.0  0.82690  0.46980  0.91640  1.0000 0.1174132663
C   C187      1.0  0.75780  0.42960  0.07060  1.0000 0.5578561755
O   O45       1.0  0.49480  0.79490  0.99223  1.0000 -0.5180233238
O   O46       1.0  0.36840  0.74280  0.85343  1.0000 -0.6652129708
C   C188      1.0  0.48260  0.80470  0.07273  1.0000 0.5578561755
O   O47       1.0  0.42260  0.76870  0.11083  1.0000 -0.6513529686
C   C189      1.0  0.54640  0.86310  0.12203  1.0000 -0.0288279556
O   O48       1.0  0.30750  0.73150  0.97983  1.0000 -0.6326486138
C   C190      1.0  0.61370  0.89650  0.08283  1.0000 -0.0929480387
C   C191      1.0  0.53920  0.88130  0.20903  1.0000 -0.1010982434
H   H89       1.0  0.61850  0.88480  0.02443  1.0000 0.1286562407
C   C192      1.0  0.67480  0.94740  0.12903  1.0000 -0.1618030089
C   C193      1.0  0.59920  0.93260  0.25453  1.0000 -0.1469080168
H   H90       1.0  0.49380  0.85870  0.23633  1.0000 0.1286562407
C   C194      1.0  0.66750  0.96620  0.21503  1.0000 0.0727239562
H   H91       1.0  0.72040  0.96870  0.10223  1.0000 0.1131725716
H   H92       1.0  0.59400  0.94500  0.31243  1.0000 0.1174132663
C   C195      1.0  0.73310  0.02070  0.27093  1.0000 -0.2889035908
C   C196      1.0  0.74400  0.97670  0.34523  1.0000 0.6514525172
C   C197      1.0  0.71940  0.08060  0.30893  1.0000 0.0755163587
C   C198      1.0  0.80360  0.06070  0.21543  1.0000 0.6514525172
F   F67       1.0  0.69230  0.95380  0.40683  1.0000 -0.2008013104
F   F68       1.0  0.74230  0.91760  0.31163  1.0000 -0.2008013104
F   F69       1.0  0.80750  0.01380  0.38833  1.0000 -0.2008013104
C   C199      1.0  0.74470  0.11310  0.39193  1.0000 -0.1469080168
C   C200      1.0  0.68190  0.10430  0.25723  1.0000 -0.1324548565
F   F70       1.0  0.79570  0.09360  0.14593  1.0000 -0.2008013104
F   F71       1.0  0.85830  0.11150  0.26433  1.0000 -0.2008013104
F   F72       1.0  0.82650  0.01570  0.18623  1.0000 -0.2008013104
H   H93       1.0  0.77130  0.09900  0.42753  1.0000 0.1174132663
C   C201      1.0  0.73060  0.16590  0.42113  1.0000 -0.1010982434
H   H94       1.0  0.66560  0.08380  0.20123  1.0000 0.1174132663
C   C202      1.0  0.66790  0.15770  0.28623  1.0000 -0.1208859203
C   C203      1.0  0.69100  0.18830  0.36953  1.0000 -0.0288279556
H   H95       1.0  0.74780  0.18720  0.47653  1.0000 0.1286562407
H   H96       1.0  0.64290  0.17310  0.24973  1.0000 0.1174132663
C   C204      1.0  0.67180  0.24220  0.40393  1.0000 0.5578561755
Co  Co1       1.0  0.43240  0.71620  0.91667  1.0000 0.7992917033
Co  Co2       1.0  0.28380  0.71620  0.58333  1.0000 0.7992917033
Co  Co3       1.0  0.28380  0.56760  0.25000  1.0000 0.7992917033
Co  Co4       1.0  0.56760  0.28380  0.41667  1.0000 0.7992917033
Co  Co5       1.0  0.71620  0.28380  0.08333  1.0000 0.7992917033
Co  Co6       1.0  0.71620  0.43240  0.75000  1.0000 0.7992917033
Mn  Mn1       1.0  0.32320  0.67680  0.08333  1.0000 1.1167368623
Mn  Mn2       1.0  0.32320  0.64640  0.75000  1.0000 1.1167368623
Mn  Mn3       1.0  0.35360  0.67680  0.41667  1.0000 1.1167368623
Mn  Mn4       1.0  0.67680  0.32320  0.58333  1.0000 1.1167368623
Mn  Mn5       1.0  0.67680  0.35360  0.25000  1.0000 1.1167368623
Mn  Mn6       1.0  0.64640  0.32320  0.91667  1.0000 1.1167368623
Co  Co7       1.0  0.32725  0.65450  0.75000  1.0000 1.0580864879
Co  Co8       1.0  0.34550  0.67275  0.41667  1.0000 1.0580864879
Co  Co9       1.0  0.32725  0.67275  0.08333  1.0000 1.0580864879
Co  Co10      1.0  0.67275  0.34550  0.25000  1.0000 1.0580864879
Co  Co11      1.0  0.65450  0.32725  0.91667  1.0000 1.0580864879
Co  Co12      1.0  0.67275  0.32725  0.58333  1.0000 1.0580864879
  Zn  Zn1       1.0  0.43240  0.71620  0.91667  1.0000
  Zn  Zn2       1.0  0.28380  0.71620  0.58333  1.0000
  Zn  Zn3       1.0  0.28380  0.56760  0.25000  1.0000
  Zn  Zn4       1.0  0.56760  0.28380  0.41667  1.0000
  Zn  Zn5       1.0  0.71620  0.28380  0.08333  1.0000
  Zn  Zn6       1.0  0.71620  0.43240  0.75000  1.0000
