# DDEC6 charges by PACMAN v1.1 (https://github.com/mtap-research/PACMAN-charge/)
data_XEGSEK01_FSR_pacman
_chemical_formula_sum              "O48 F72 C204 H96 Mn6 Co12 Zn4"
_cell_length_a       21.2847
_cell_length_b       21.2847
_cell_length_c       15.1009
_cell_angle_alpha    90
_cell_angle_beta     90
_cell_angle_gamma    120

_symmetry_space_group_name_H-M    "P 1"
_symmetry_Int_Tables_number       1

loop_
  _symmetry_equiv_pos_as_xyz
  'x, y, z'

loop_
  _atom_site_type_symbol
  _atom_site_label
  _atom_site_symmetry_multiplicity
  _atom_site_fract_x
  _atom_site_fract_y
  _atom_site_fract_z
  _atom_site_occupancy
 _atom_site_charge
O   O1        1.0  0.42473  0.73299  0.97885  1.0000 -0.6083681562
O   O2        1.0  0.37504  0.74392  0.85362  1.0000 -0.6546916642
O   O3        1.0  0.65441  0.23075  0.60980  1.0000 -0.6268798986
F   F1        1.0  0.70240  0.90681  0.64750  1.0000 -0.1991137678
C   C1        1.0  0.67860  0.19526  0.57150  1.0000 0.5553545973
C   C2        1.0  0.43015  0.75882  0.90420  1.0000 0.554786267
C   C3        1.0  0.63190  0.88780  0.89080  1.0000 -0.147602862
H   H1        1.0  0.67270  0.90150  0.92560  1.0000 0.1121864426
C   C4        1.0  0.50326  0.81287  0.86950  1.0000 -0.0197688201
O   O4        1.0  0.70139  0.20546  0.49250  1.0000 -0.5116269716
C   C5        1.0  0.57770  0.89610  0.75620  1.0000 -0.1400525052
H   H2        1.0  0.58200  0.91580  0.70000  1.0000 0.1177946471
F   F2        1.0  0.74710  0.88952  0.76540  1.0000 -0.1991137678
C   C6        1.0  0.68380  0.13753  0.62120  1.0000 -0.0331750212
C   C7        1.0  0.71770  0.10350  0.58240  1.0000 -0.0944915393
H   H3        1.0  0.73450  0.11510  0.52450  1.0000 0.1303790386
F   F3        1.0  0.81081  0.98450  0.68720  1.0000 -0.1991137678
F   F4        1.0  0.73810  0.04708  0.90520  1.0000 -0.1991137678
C   C8        1.0  0.66620  0.06750  0.75310  1.0000 -0.147602862
H   H4        1.0  0.64790  0.05500  0.81030  1.0000 0.1121864426
C   C9        1.0  0.71260  0.97980  0.77120  1.0000 -0.289780252
C   C10       1.0  0.56510  0.83540  0.92100  1.0000 -0.0999058022
H   H5        1.0  0.56110  0.81480  0.97640  1.0000 0.1303790386
F   F5        1.0  0.82472  0.08325  0.81060  1.0000 -0.1991137678
F   F6        1.0  0.79387  0.98800  0.88770  1.0000 -0.1991137678
C   C11       1.0  0.70160  0.03410  0.71470  1.0000 0.0723957561
C   C12       1.0  0.63930  0.92061  0.80940  1.0000 0.0723957561
C   C13       1.0  0.65810  0.11890  0.70730  1.0000 -0.1054159754
H   H6        1.0  0.63520  0.14130  0.73420  1.0000 0.1177946471
C   C14       1.0  0.76770  0.02450  0.84420  1.0000 0.6502692671
C   C15       1.0  0.51050  0.84310  0.78570  1.0000 -0.1400525052
H   H7        1.0  0.47000  0.82760  0.74960  1.0000 0.1121864426
C   C16       1.0  0.72710  0.05250  0.62860  1.0000 -0.1621958419
H   H8        1.0  0.75050  0.03050  0.60170  1.0000 0.1121864426
C   C17       1.0  0.74370  0.94010  0.71680  1.0000 0.6502692671
O   O5        1.0  0.26701  0.69174  0.31218  1.0000 -0.5909904817
O   O6        1.0  0.25608  0.63112  0.18695  1.0000 -0.7119090089
O   O7        1.0  0.76925  0.42366  0.94313  1.0000 -0.5996493676
F   F7        1.0  0.09319  0.79559  0.98083  1.0000 -0.1991137678
C   C18       1.0  0.80474  0.48334  0.90483  1.0000 0.4767361826
C   C19       1.0  0.24118  0.67133  0.23753  1.0000 0.4341170114
C   C20       1.0  0.11220  0.74410  0.22413  1.0000 -0.147602862
H   H9        1.0  0.09850  0.77120  0.25893  1.0000 0.1121864426
C   C21       1.0  0.18713  0.69039  0.20283  1.0000 -0.0066152703
O   O8        1.0  0.79454  0.49593  0.82583  1.0000 -0.5803364792
C   C22       1.0  0.10390  0.68160  0.08953  1.0000 -0.1296683342
H   H10       1.0  0.08420  0.66620  0.03333  1.0000 0.1177946471
F   F8        1.0  0.11048  0.85758  0.09873  1.0000 -0.1991137678
C   C23       1.0  0.86247  0.54627  0.95453  1.0000 -0.0197688201
C   C24       1.0  0.89650  0.61420  0.91573  1.0000 -0.0999058022
H   H11       1.0  0.88490  0.61940  0.85783  1.0000 0.1303790386
F   F9        1.0  0.01550  0.82631  0.02053  1.0000 -0.1991137678
F   F10       1.0  0.95292  0.69102  0.23853  1.0000 -0.1991137678
C   C25       1.0  0.93250  0.59870  0.08643  1.0000 -0.147602862
H   H12       1.0  0.94500  0.59290  0.14363  1.0000 0.1177946471
C   C26       1.0  0.02020  0.73280  0.10453  1.0000 -0.289780252
C   C27       1.0  0.16460  0.72970  0.25433  1.0000 -0.0999058022
H   H13       1.0  0.18520  0.74630  0.30973  1.0000 0.1303790386
F   F11       1.0  0.91675  0.74147  0.14393  1.0000 -0.1991137678
F   F12       1.0  0.01200  0.80587  0.22103  1.0000 -0.1991137678
C   C28       1.0  0.96590  0.66750  0.04803  1.0000 0.0723957561
C   C29       1.0  0.07939  0.71869  0.14273  1.0000 0.0723957561
C   C30       1.0  0.88110  0.53920  0.04063  1.0000 -0.0999058022
H   H14       1.0  0.85870  0.49390  0.06753  1.0000 0.1303790386
C   C31       1.0  0.97550  0.74320  0.17753  1.0000 0.6502692671
C   C32       1.0  0.15690  0.66740  0.11903  1.0000 -0.1296683342
H   H15       1.0  0.17240  0.64240  0.08293  1.0000 0.1177946471
C   C33       1.0  0.94750  0.67460  0.96193  1.0000 -0.1621958419
H   H16       1.0  0.96950  0.72000  0.93503  1.0000 0.1121864426
C   C34       1.0  0.05990  0.80360  0.05013  1.0000 0.6502692671
O   O9        1.0  0.30826  0.57527  0.64552  1.0000 -0.6083681562
O   O10       1.0  0.36888  0.62496  0.52029  1.0000 -0.7006714621
O   O11       1.0  0.57634  0.34559  0.27647  1.0000 -0.6268798986
F   F13       1.0  0.20441  0.29760  0.31417  1.0000 -0.1991137678
C   C35       1.0  0.51666  0.32140  0.23817  1.0000 0.4698711059
C   C36       1.0  0.32867  0.56985  0.57087  1.0000 0.4361911735
C   C37       1.0  0.25590  0.36810  0.55747  1.0000 -0.147602862
H   H17       1.0  0.22880  0.32730  0.59227  1.0000 0.1177946471
C   C38       1.0  0.30961  0.49674  0.53617  1.0000 -0.0066152703
O   O12       1.0  0.50407  0.29861  0.15917  1.0000 -0.5803364792
C   C39       1.0  0.31840  0.42230  0.42287  1.0000 -0.1400525052
H   H18       1.0  0.33380  0.41800  0.36667  1.0000 0.1177946471
F   F14       1.0  0.14242  0.25290  0.43207  1.0000 -0.1991137678
C   C40       1.0  0.45373  0.31620  0.28787  1.0000 -0.0197688201
C   C41       1.0  0.38580  0.28230  0.24907  1.0000 -0.0999058022
H   H19       1.0  0.38060  0.26550  0.19117  1.0000 0.1303790386
F   F15       1.0  0.17369  0.18919  0.35387  1.0000 -0.1991137678
F   F16       1.0  0.30898  0.26190  0.57187  1.0000 -0.1991137678
C   C42       1.0  0.40130  0.33380  0.41977  1.0000 -0.147602862
H   H20       1.0  0.40710  0.35210  0.47697  1.0000 0.1177946471
C   C43       1.0  0.26720  0.28740  0.43787  1.0000 -0.289780252
C   C44       1.0  0.27030  0.43490  0.58767  1.0000 -0.0999058022
H   H21       1.0  0.25370  0.43890  0.64307  1.0000 0.1303790386
F   F17       1.0  0.25853  0.17528  0.47727  1.0000 -0.1991137678
F   F18       1.0  0.19413  0.20613  0.55437  1.0000 -0.1991137678
C   C45       1.0  0.33250  0.29840  0.38137  1.0000 0.0723957561
C   C46       1.0  0.28131  0.36070  0.47607  1.0000 0.0723957561
C   C47       1.0  0.46080  0.34190  0.37397  1.0000 -0.0999058022
H   H22       1.0  0.50610  0.36480  0.40087  1.0000 0.1303790386
C   C48       1.0  0.25680  0.23230  0.51087  1.0000 0.6502692671
C   C49       1.0  0.33260  0.48950  0.45237  1.0000 -0.147602862
H   H23       1.0  0.35760  0.53000  0.41627  1.0000 0.1121864426
C   C50       1.0  0.32540  0.27290  0.29527  1.0000 -0.1621958419
H   H24       1.0  0.28000  0.24950  0.26837  1.0000 0.1121864426
C   C51       1.0  0.19640  0.25630  0.38347  1.0000 0.6502692671
O   O13       1.0  0.57527  0.26701  0.47885  1.0000 -0.6083681562
O   O14       1.0  0.62496  0.25608  0.35362  1.0000 -0.6546916642
O   O15       1.0  0.34559  0.76925  0.10980  1.0000 -0.6268798986
F   F19       1.0  0.29760  0.09319  0.14750  1.0000 -0.1991137678
C   C52       1.0  0.32140  0.80474  0.07150  1.0000 0.554786267
C   C53       1.0  0.56985  0.24118  0.40420  1.0000 0.554786267
C   C54       1.0  0.36810  0.11220  0.39080  1.0000 -0.147602862
H   H25       1.0  0.32730  0.09850  0.42560  1.0000 0.1121864426
C   C55       1.0  0.49674  0.18713  0.36950  1.0000 -0.0197688201
O   O16       1.0  0.29861  0.79454  0.99250  1.0000 -0.5116269716
C   C56       1.0  0.42230  0.10390  0.25620  1.0000 -0.1400525052
H   H26       1.0  0.41800  0.08420  0.20000  1.0000 0.1177946471
F   F20       1.0  0.25290  0.11048  0.26540  1.0000 -0.1991137678
C   C57       1.0  0.31620  0.86247  0.12120  1.0000 -0.0331750212
C   C58       1.0  0.28230  0.89650  0.08240  1.0000 -0.0944915393
H   H27       1.0  0.26550  0.88490  0.02450  1.0000 0.1303790386
F   F21       1.0  0.18919  0.01550  0.18720  1.0000 -0.1991137678
F   F22       1.0  0.26190  0.95292  0.40520  1.0000 -0.1991137678
C   C59       1.0  0.33380  0.93250  0.25310  1.0000 -0.147602862
H   H28       1.0  0.35210  0.94500  0.31030  1.0000 0.1121864426
C   C60       1.0  0.28740  0.02020  0.27120  1.0000 -0.289780252
C   C61       1.0  0.43490  0.16460  0.42100  1.0000 -0.0999058022
H   H29       1.0  0.43890  0.18520  0.47640  1.0000 0.1303790386
F   F23       1.0  0.17528  0.91675  0.31060  1.0000 -0.1991137678
F   F24       1.0  0.20613  0.01200  0.38770  1.0000 -0.1991137678
C   C62       1.0  0.29840  0.96590  0.21470  1.0000 0.0723957561
C   C63       1.0  0.36070  0.07939  0.30940  1.0000 0.0723957561
C   C64       1.0  0.34190  0.88110  0.20730  1.0000 -0.1054159754
H   H30       1.0  0.36480  0.85870  0.23420  1.0000 0.1177946471
C   C65       1.0  0.23230  0.97550  0.34420  1.0000 0.6502692671
C   C66       1.0  0.48950  0.15690  0.28570  1.0000 -0.1400525052
H   H31       1.0  0.53000  0.17240  0.24960  1.0000 0.1121864426
C   C67       1.0  0.27290  0.94750  0.12860  1.0000 -0.1621958419
H   H32       1.0  0.24950  0.96950  0.10170  1.0000 0.1121864426
C   C68       1.0  0.25630  0.05990  0.21680  1.0000 0.6502692671
O   O17       1.0  0.73299  0.30826  0.81218  1.0000 -0.5909904817
O   O18       1.0  0.74392  0.36888  0.68695  1.0000 -0.7119090089
O   O19       1.0  0.23075  0.57634  0.44313  1.0000 -0.5996493676
F   F25       1.0  0.90681  0.20441  0.48083  1.0000 -0.1991137678
C   C69       1.0  0.19526  0.51666  0.40483  1.0000 0.4767361826
C   C70       1.0  0.75882  0.32867  0.73753  1.0000 0.4341170114
C   C71       1.0  0.88780  0.25590  0.72413  1.0000 -0.147602862
H   H33       1.0  0.90150  0.22880  0.75893  1.0000 0.1121864426
C   C72       1.0  0.81287  0.30961  0.70283  1.0000 -0.0066152703
O   O20       1.0  0.20546  0.50407  0.32583  1.0000 -0.5803364792
C   C73       1.0  0.89610  0.31840  0.58953  1.0000 -0.1296683342
H   H34       1.0  0.91580  0.33380  0.53333  1.0000 0.1177946471
F   F26       1.0  0.88952  0.14242  0.59873  1.0000 -0.1991137678
C   C74       1.0  0.13753  0.45373  0.45453  1.0000 -0.0197688201
C   C75       1.0  0.10350  0.38580  0.41573  1.0000 -0.0999058022
H   H35       1.0  0.11510  0.38060  0.35783  1.0000 0.1303790386
F   F27       1.0  0.98450  0.17369  0.52053  1.0000 -0.1991137678
F   F28       1.0  0.04708  0.30898  0.73853  1.0000 -0.1991137678
C   C76       1.0  0.06750  0.40130  0.58643  1.0000 -0.147602862
H   H36       1.0  0.05500  0.40710  0.64363  1.0000 0.1177946471
C   C77       1.0  0.97980  0.26720  0.60453  1.0000 -0.289780252
C   C78       1.0  0.83540  0.27030  0.75433  1.0000 -0.0999058022
H   H37       1.0  0.81480  0.25370  0.80973  1.0000 0.1303790386
F   F29       1.0  0.08325  0.25853  0.64393  1.0000 -0.1991137678
F   F30       1.0  0.98800  0.19413  0.72103  1.0000 -0.1991137678
C   C79       1.0  0.03410  0.33250  0.54803  1.0000 0.0723957561
C   C80       1.0  0.92061  0.28131  0.64273  1.0000 0.0723957561
C   C81       1.0  0.11890  0.46080  0.54063  1.0000 -0.0999058022
H   H38       1.0  0.14130  0.50610  0.56753  1.0000 0.1303790386
C   C82       1.0  0.02450  0.25680  0.67753  1.0000 0.6502692671
C   C83       1.0  0.84310  0.33260  0.61903  1.0000 -0.1296683342
H   H39       1.0  0.82760  0.35760  0.58293  1.0000 0.1177946471
C   C84       1.0  0.05250  0.32540  0.46193  1.0000 -0.1621958419
H   H40       1.0  0.03050  0.28000  0.43503  1.0000 0.1121864426
C   C85       1.0  0.94010  0.19640  0.55013  1.0000 0.6502692671
O   O21       1.0  0.69174  0.42473  0.14552  1.0000 -0.6083681562
O   O22       1.0  0.63112  0.37504  0.02029  1.0000 -0.7006714621
O   O23       1.0  0.42366  0.65441  0.77647  1.0000 -0.6268798986
F   F31       1.0  0.79559  0.70240  0.81417  1.0000 -0.1991137678
C   C86       1.0  0.48334  0.67860  0.73817  1.0000 0.4698711059
C   C87       1.0  0.67133  0.43015  0.07087  1.0000 0.4361911735
C   C88       1.0  0.74410  0.63190  0.05747  1.0000 -0.147602862
H   H41       1.0  0.77120  0.67270  0.09227  1.0000 0.1177946471
C   C89       1.0  0.69039  0.50326  0.03617  1.0000 -0.0066152703
O   O24       1.0  0.49593  0.70139  0.65917  1.0000 -0.5803364792
C   C90       1.0  0.68160  0.57770  0.92287  1.0000 -0.1400525052
H   H42       1.0  0.66620  0.58200  0.86667  1.0000 0.1177946471
F   F32       1.0  0.85758  0.74710  0.93207  1.0000 -0.1991137678
C   C91       1.0  0.54627  0.68380  0.78787  1.0000 -0.0197688201
C   C92       1.0  0.61420  0.71770  0.74907  1.0000 -0.0999058022
H   H43       1.0  0.61940  0.73450  0.69117  1.0000 0.1303790386
F   F33       1.0  0.82631  0.81081  0.85387  1.0000 -0.1991137678
F   F34       1.0  0.69102  0.73810  0.07187  1.0000 -0.1991137678
C   C93       1.0  0.59870  0.66620  0.91977  1.0000 -0.147602862
H   H44       1.0  0.59290  0.64790  0.97697  1.0000 0.1177946471
C   C94       1.0  0.73280  0.71260  0.93787  1.0000 -0.289780252
C   C95       1.0  0.72970  0.56510  0.08767  1.0000 -0.0999058022
H   H45       1.0  0.74630  0.56110  0.14307  1.0000 0.1303790386
F   F35       1.0  0.74147  0.82472  0.97727  1.0000 -0.1991137678
F   F36       1.0  0.80587  0.79387  0.05437  1.0000 -0.1991137678
C   C96       1.0  0.66750  0.70160  0.88137  1.0000 0.0723957561
C   C97       1.0  0.71869  0.63930  0.97607  1.0000 0.0723957561
C   C98       1.0  0.53920  0.65810  0.87397  1.0000 -0.0999058022
H   H46       1.0  0.49390  0.63520  0.90087  1.0000 0.1303790386
C   C99       1.0  0.74320  0.76770  0.01087  1.0000 0.6502692671
C   C100      1.0  0.66740  0.51050  0.95237  1.0000 -0.147602862
H   H47       1.0  0.64240  0.47000  0.91627  1.0000 0.1121864426
C   C101      1.0  0.67460  0.72710  0.79527  1.0000 -0.1621958419
H   H48       1.0  0.72000  0.75050  0.76837  1.0000 0.1121864426
C   C102      1.0  0.80360  0.74370  0.88347  1.0000 0.6502692671
O   O25       1.0  0.73299  0.42473  0.35448  1.0000 -0.6083681562
O   O26       1.0  0.74392  0.37504  0.47971  1.0000 -0.6546916642
O   O27       1.0  0.23075  0.65441  0.72353  1.0000 -0.6268798986
F   F37       1.0  0.90681  0.70240  0.68583  1.0000 -0.1991137678
C   C103      1.0  0.19526  0.67860  0.76183  1.0000 0.554786267
C   C104      1.0  0.75882  0.43015  0.42913  1.0000 0.554786267
C   C105      1.0  0.88780  0.63190  0.44253  1.0000 -0.147602862
H   H49       1.0  0.90150  0.67270  0.40773  1.0000 0.1121864426
C   C106      1.0  0.81287  0.50326  0.46383  1.0000 -0.0197688201
O   O28       1.0  0.20546  0.70139  0.84083  1.0000 -0.5116269716
C   C107      1.0  0.89610  0.57770  0.57713  1.0000 -0.1400525052
H   H50       1.0  0.91580  0.58200  0.63333  1.0000 0.1177946471
F   F38       1.0  0.88952  0.74710  0.56793  1.0000 -0.1991137678
C   C108      1.0  0.13753  0.68380  0.71213  1.0000 -0.0331750212
C   C109      1.0  0.10350  0.71770  0.75093  1.0000 -0.0944915393
H   H51       1.0  0.11510  0.73450  0.80883  1.0000 0.1303790386
F   F39       1.0  0.98450  0.81081  0.64613  1.0000 -0.1991137678
F   F40       1.0  0.04708  0.73810  0.42813  1.0000 -0.1991137678
C   C110      1.0  0.06750  0.66620  0.58023  1.0000 -0.147602862
H   H52       1.0  0.05500  0.64790  0.52303  1.0000 0.1121864426
C   C111      1.0  0.97980  0.71260  0.56213  1.0000 -0.289780252
C   C112      1.0  0.83540  0.56510  0.41233  1.0000 -0.0999058022
H   H53       1.0  0.81480  0.56110  0.35693  1.0000 0.1303790386
F   F41       1.0  0.08325  0.82472  0.52273  1.0000 -0.1991137678
F   F42       1.0  0.98800  0.79387  0.44563  1.0000 -0.1991137678
C   C113      1.0  0.03410  0.70160  0.61863  1.0000 0.0723957561
C   C114      1.0  0.92061  0.63930  0.52393  1.0000 0.0723957561
C   C115      1.0  0.11890  0.65810  0.62603  1.0000 -0.1054159754
H   H54       1.0  0.14130  0.63520  0.59913  1.0000 0.1177946471
C   C116      1.0  0.02450  0.76770  0.48913  1.0000 0.6502692671
C   C117      1.0  0.84310  0.51050  0.54763  1.0000 -0.1400525052
H   H55       1.0  0.82760  0.47000  0.58373  1.0000 0.1121864426
C   C118      1.0  0.05250  0.72710  0.70473  1.0000 -0.1621958419
H   H56       1.0  0.03050  0.75050  0.73163  1.0000 0.1121864426
C   C119      1.0  0.94010  0.74370  0.61653  1.0000 0.6502692671
O   O29       1.0  0.69174  0.26701  0.02115  1.0000 -0.5909904817
O   O30       1.0  0.63112  0.25608  0.14638  1.0000 -0.7119090089
O   O31       1.0  0.42366  0.76925  0.39020  1.0000 -0.5996493676
F   F43       1.0  0.79559  0.09319  0.35250  1.0000 -0.1991137678
C   C120      1.0  0.48334  0.80474  0.42850  1.0000 0.4767361826
C   C121      1.0  0.67133  0.24118  0.09580  1.0000 0.4361911735
C   C122      1.0  0.74410  0.11220  0.10920  1.0000 -0.147602862
H   H57       1.0  0.77120  0.09850  0.07440  1.0000 0.1121864426
C   C123      1.0  0.69039  0.18713  0.13050  1.0000 -0.0066152703
O   O32       1.0  0.49593  0.79454  0.50750  1.0000 -0.5803364792
C   C124      1.0  0.68160  0.10390  0.24380  1.0000 -0.1296683342
H   H58       1.0  0.66620  0.08420  0.30000  1.0000 0.1177946471
F   F44       1.0  0.85758  0.11048  0.23460  1.0000 -0.1991137678
C   C125      1.0  0.54627  0.86247  0.37880  1.0000 -0.0197688201
C   C126      1.0  0.61420  0.89650  0.41760  1.0000 -0.0999058022
H   H59       1.0  0.61940  0.88490  0.47550  1.0000 0.1303790386
F   F45       1.0  0.82631  0.01550  0.31280  1.0000 -0.1991137678
F   F46       1.0  0.69102  0.95292  0.09480  1.0000 -0.1991137678
C   C127      1.0  0.59870  0.93250  0.24690  1.0000 -0.147602862
H   H60       1.0  0.59290  0.94500  0.18970  1.0000 0.1177946471
C   C128      1.0  0.73280  0.02020  0.22880  1.0000 -0.289780252
C   C129      1.0  0.72970  0.16460  0.07900  1.0000 -0.0999058022
H   H61       1.0  0.74630  0.18520  0.02360  1.0000 0.1303790386
F   F47       1.0  0.74147  0.91675  0.18940  1.0000 -0.1991137678
F   F48       1.0  0.80587  0.01200  0.11230  1.0000 -0.1991137678
C   C130      1.0  0.66750  0.96590  0.28530  1.0000 0.0723957561
C   C131      1.0  0.71869  0.07939  0.19060  1.0000 0.0723957561
C   C132      1.0  0.53920  0.88110  0.29270  1.0000 -0.0999058022
H   H62       1.0  0.49390  0.85870  0.26580  1.0000 0.1303790386
C   C133      1.0  0.74320  0.97550  0.15580  1.0000 0.6502692671
C   C134      1.0  0.66740  0.15690  0.21430  1.0000 -0.1296683342
H   H63       1.0  0.64240  0.17240  0.25040  1.0000 0.1177946471
C   C135      1.0  0.67460  0.94750  0.37140  1.0000 -0.1621958419
H   H64       1.0  0.72000  0.96950  0.39830  1.0000 0.1121864426
C   C136      1.0  0.80360  0.05990  0.28320  1.0000 0.6502692671
O   O33       1.0  0.57527  0.30826  0.68782  1.0000 -0.6083681562
O   O34       1.0  0.62496  0.36888  0.81305  1.0000 -0.7006714621
O   O35       1.0  0.34559  0.57634  0.05687  1.0000 -0.6268798986
F   F49       1.0  0.29760  0.20441  0.01917  1.0000 -0.1991137678
C   C137      1.0  0.32140  0.51666  0.09517  1.0000 0.4698711059
C   C138      1.0  0.56985  0.32867  0.76247  1.0000 0.4361911735
C   C139      1.0  0.36810  0.25590  0.77587  1.0000 -0.147602862
H   H65       1.0  0.32730  0.22880  0.74107  1.0000 0.1177946471
C   C140      1.0  0.49674  0.30961  0.79717  1.0000 -0.0066152703
O   O36       1.0  0.29861  0.50407  0.17417  1.0000 -0.5803364792
C   C141      1.0  0.42230  0.31840  0.91047  1.0000 -0.1400525052
H   H66       1.0  0.41800  0.33380  0.96667  1.0000 0.1177946471
F   F50       1.0  0.25290  0.14242  0.90127  1.0000 -0.1991137678
C   C142      1.0  0.31620  0.45373  0.04547  1.0000 -0.0197688201
C   C143      1.0  0.28230  0.38580  0.08427  1.0000 -0.0999058022
H   H67       1.0  0.26550  0.38060  0.14217  1.0000 0.1303790386
F   F51       1.0  0.18919  0.17369  0.97947  1.0000 -0.1991137678
F   F52       1.0  0.26190  0.30898  0.76147  1.0000 -0.1991137678
C   C144      1.0  0.33380  0.40130  0.91357  1.0000 -0.147602862
H   H68       1.0  0.35210  0.40710  0.85637  1.0000 0.1177946471
C   C145      1.0  0.28740  0.26720  0.89547  1.0000 -0.289780252
C   C146      1.0  0.43490  0.27030  0.74567  1.0000 -0.0999058022
H   H69       1.0  0.43890  0.25370  0.69027  1.0000 0.1303790386
F   F53       1.0  0.17528  0.25853  0.85607  1.0000 -0.1991137678
F   F54       1.0  0.20613  0.19413  0.77897  1.0000 -0.1991137678
C   C147      1.0  0.29840  0.33250  0.95197  1.0000 0.0723957561
C   C148      1.0  0.36070  0.28131  0.85727  1.0000 0.0723957561
C   C149      1.0  0.34190  0.46080  0.95937  1.0000 -0.0999058022
H   H70       1.0  0.36480  0.50610  0.93247  1.0000 0.1303790386
C   C150      1.0  0.23230  0.25680  0.82247  1.0000 0.6502692671
C   C151      1.0  0.48950  0.33260  0.88097  1.0000 -0.147602862
H   H71       1.0  0.53000  0.35760  0.91707  1.0000 0.1121864426
C   C152      1.0  0.27290  0.32540  0.03807  1.0000 -0.1621958419
H   H72       1.0  0.24950  0.28000  0.06497  1.0000 0.1121864426
C   C153      1.0  0.25630  0.19640  0.94987  1.0000 0.6502692671
O   O37       1.0  0.26701  0.57527  0.85448  1.0000 -0.6083681562
O   O38       1.0  0.25608  0.62496  0.97971  1.0000 -0.6546916642
O   O39       1.0  0.76925  0.34559  0.22353  1.0000 -0.6268798986
F   F55       1.0  0.09319  0.29760  0.18583  1.0000 -0.1991137678
C   C154      1.0  0.80474  0.32140  0.26183  1.0000 0.554786267
C   C155      1.0  0.24118  0.56985  0.92913  1.0000 0.554786267
C   C156      1.0  0.11220  0.36810  0.94253  1.0000 -0.147602862
H   H73       1.0  0.09850  0.32730  0.90773  1.0000 0.1121864426
C   C157      1.0  0.18713  0.49674  0.96383  1.0000 -0.0197688201
O   O40       1.0  0.79454  0.29861  0.34083  1.0000 -0.5116269716
C   C158      1.0  0.10390  0.42230  0.07713  1.0000 -0.1400525052
H   H74       1.0  0.08420  0.41800  0.13333  1.0000 0.1177946471
F   F56       1.0  0.11048  0.25290  0.06793  1.0000 -0.1991137678
C   C159      1.0  0.86247  0.31620  0.21213  1.0000 -0.0331750212
C   C160      1.0  0.89650  0.28230  0.25093  1.0000 -0.0944915393
H   H75       1.0  0.88490  0.26550  0.30883  1.0000 0.1303790386
F   F57       1.0  0.01550  0.18919  0.14613  1.0000 -0.1991137678
F   F58       1.0  0.95292  0.26190  0.92813  1.0000 -0.1991137678
C   C161      1.0  0.93250  0.33380  0.08023  1.0000 -0.147602862
H   H76       1.0  0.94500  0.35210  0.02303  1.0000 0.1121864426
C   C162      1.0  0.02020  0.28740  0.06213  1.0000 -0.289780252
C   C163      1.0  0.16460  0.43490  0.91233  1.0000 -0.0999058022
H   H77       1.0  0.18520  0.43890  0.85693  1.0000 0.1303790386
F   F59       1.0  0.91675  0.17528  0.02273  1.0000 -0.1991137678
F   F60       1.0  0.01200  0.20613  0.94563  1.0000 -0.1991137678
C   C164      1.0  0.96590  0.29840  0.11863  1.0000 0.0723957561
C   C165      1.0  0.07939  0.36070  0.02393  1.0000 0.0723957561
C   C166      1.0  0.88110  0.34190  0.12603  1.0000 -0.1054159754
H   H78       1.0  0.85870  0.36480  0.09913  1.0000 0.1177946471
C   C167      1.0  0.97550  0.23230  0.98913  1.0000 0.6502692671
C   C168      1.0  0.15690  0.48950  0.04763  1.0000 -0.1400525052
H   H79       1.0  0.17240  0.53000  0.08373  1.0000 0.1121864426
C   C169      1.0  0.94750  0.27290  0.20473  1.0000 -0.1621958419
H   H80       1.0  0.96950  0.24950  0.23163  1.0000 0.1121864426
C   C170      1.0  0.05990  0.25630  0.11653  1.0000 0.6502692671
O   O41       1.0  0.30826  0.73299  0.52115  1.0000 -0.5909904817
O   O42       1.0  0.36888  0.74392  0.64638  1.0000 -0.7119090089
O   O43       1.0  0.57634  0.23075  0.89020  1.0000 -0.5996493676
F   F61       1.0  0.20441  0.90681  0.85250  1.0000 -0.1991137678
C   C171      1.0  0.51666  0.19526  0.92850  1.0000 0.4767361826
C   C172      1.0  0.32867  0.75882  0.59580  1.0000 0.4341170114
C   C173      1.0  0.25590  0.88780  0.60920  1.0000 -0.147602862
H   H81       1.0  0.22880  0.90150  0.57440  1.0000 0.1121864426
C   C174      1.0  0.30961  0.81287  0.63050  1.0000 -0.0066152703
O   O44       1.0  0.50407  0.20546  0.00750  1.0000 -0.5803364792
C   C175      1.0  0.31840  0.89610  0.74380  1.0000 -0.1296683342
H   H82       1.0  0.33380  0.91580  0.80000  1.0000 0.1177946471
F   F62       1.0  0.14242  0.88952  0.73460  1.0000 -0.1991137678
C   C176      1.0  0.45373  0.13753  0.87880  1.0000 -0.0197688201
C   C177      1.0  0.38580  0.10350  0.91760  1.0000 -0.0999058022
H   H83       1.0  0.38060  0.11510  0.97550  1.0000 0.1303790386
F   F63       1.0  0.17369  0.98450  0.81280  1.0000 -0.1991137678
F   F64       1.0  0.30898  0.04708  0.59480  1.0000 -0.1991137678
C   C178      1.0  0.40130  0.06750  0.74690  1.0000 -0.147602862
H   H84       1.0  0.40710  0.05500  0.68970  1.0000 0.1177946471
C   C179      1.0  0.26720  0.97980  0.72880  1.0000 -0.289780252
C   C180      1.0  0.27030  0.83540  0.57900  1.0000 -0.0999058022
H   H85       1.0  0.25370  0.81480  0.52360  1.0000 0.1303790386
F   F65       1.0  0.25853  0.08325  0.68940  1.0000 -0.1991137678
F   F66       1.0  0.19413  0.98800  0.61230  1.0000 -0.1991137678
C   C181      1.0  0.33250  0.03410  0.78530  1.0000 0.0723957561
C   C182      1.0  0.28131  0.92061  0.69060  1.0000 0.0723957561
C   C183      1.0  0.46080  0.11890  0.79270  1.0000 -0.0999058022
H   H86       1.0  0.50610  0.14130  0.76580  1.0000 0.1303790386
C   C184      1.0  0.25680  0.02450  0.65580  1.0000 0.6502692671
C   C185      1.0  0.33260  0.84310  0.71430  1.0000 -0.1296683342
H   H87       1.0  0.35760  0.82760  0.75040  1.0000 0.1177946471
C   C186      1.0  0.32540  0.05250  0.87140  1.0000 -0.1621958419
H   H88       1.0  0.28000  0.03050  0.89830  1.0000 0.1121864426
C   C187      1.0  0.19640  0.94010  0.78320  1.0000 0.6502692671
O   O45       1.0  0.42473  0.69174  0.18782  1.0000 -0.6083681562
O   O46       1.0  0.37504  0.63112  0.31305  1.0000 -0.7006714621
O   O47       1.0  0.65441  0.42366  0.55687  1.0000 -0.6268798986
F   F67       1.0  0.70240  0.79559  0.51917  1.0000 -0.1991137678
C   C188      1.0  0.67860  0.48334  0.59517  1.0000 0.4698711059
C   C189      1.0  0.43015  0.67133  0.26247  1.0000 0.4361911735
C   C190      1.0  0.63190  0.74410  0.27587  1.0000 -0.147602862
H   H89       1.0  0.67270  0.77120  0.24107  1.0000 0.1177946471
C   C191      1.0  0.50326  0.69039  0.29717  1.0000 -0.0066152703
O   O48       1.0  0.70139  0.49593  0.67417  1.0000 -0.5803364792
C   C192      1.0  0.57770  0.68160  0.41047  1.0000 -0.1400525052
H   H90       1.0  0.58200  0.66620  0.46667  1.0000 0.1177946471
F   F68       1.0  0.74710  0.85758  0.40127  1.0000 -0.1991137678
C   C193      1.0  0.68380  0.54627  0.54547  1.0000 -0.0197688201
C   C194      1.0  0.71770  0.61420  0.58427  1.0000 -0.0999058022
H   H91       1.0  0.73450  0.61940  0.64217  1.0000 0.1303790386
F   F69       1.0  0.81081  0.82631  0.47947  1.0000 -0.1991137678
F   F70       1.0  0.73810  0.69102  0.26147  1.0000 -0.1991137678
C   C195      1.0  0.66620  0.59870  0.41357  1.0000 -0.147602862
H   H92       1.0  0.64790  0.59290  0.35637  1.0000 0.1177946471
C   C196      1.0  0.71260  0.73280  0.39547  1.0000 -0.289780252
C   C197      1.0  0.56510  0.72970  0.24567  1.0000 -0.0999058022
H   H93       1.0  0.56110  0.74630  0.19027  1.0000 0.1303790386
F   F71       1.0  0.82472  0.74147  0.35607  1.0000 -0.1991137678
F   F72       1.0  0.79387  0.80587  0.27897  1.0000 -0.1991137678
C   C198      1.0  0.70160  0.66750  0.45197  1.0000 0.0723957561
C   C199      1.0  0.63930  0.71869  0.35727  1.0000 0.0723957561
C   C200      1.0  0.65810  0.53920  0.45937  1.0000 -0.0999058022
H   H94       1.0  0.63520  0.49390  0.43247  1.0000 0.1303790386
C   C201      1.0  0.76770  0.74320  0.32247  1.0000 0.6502692671
C   C202      1.0  0.51050  0.66740  0.38097  1.0000 -0.147602862
H   H95       1.0  0.47000  0.64240  0.41707  1.0000 0.1121864426
C   C203      1.0  0.72710  0.67460  0.53807  1.0000 -0.1621958419
H   H96       1.0  0.75050  0.72000  0.56497  1.0000 0.1121864426
C   C204      1.0  0.74370  0.80360  0.44987  1.0000 0.6502692671
Mn  Mn1       1.0  0.35190  0.67595  0.08333  1.0000 1.0579952619
Co  Co1       1.0  0.34840  0.67420  0.08333  1.0000 0.9292843959
Mn  Mn2       1.0  0.32405  0.67595  0.41667  1.0000 0.996066036
Co  Co2       1.0  0.32580  0.67420  0.41667  1.0000 0.8424708566
Mn  Mn3       1.0  0.32405  0.64810  0.75000  1.0000 1.0579952619
Co  Co3       1.0  0.32580  0.65160  0.75000  1.0000 0.9292843959
Mn  Mn4       1.0  0.64810  0.32405  0.58333  1.0000 1.0579952619
Co  Co4       1.0  0.65160  0.32580  0.58333  1.0000 0.9292843959
Mn  Mn5       1.0  0.67595  0.32405  0.91667  1.0000 0.996066036
Co  Co5       1.0  0.67420  0.32580  0.91667  1.0000 0.8424708566
Mn  Mn6       1.0  0.67595  0.35190  0.25000  1.0000 1.0579952619
Co  Co6       1.0  0.67420  0.34840  0.25000  1.0000 0.9292843959
Co  Co7       1.0  0.28386  0.71614  0.91667  1.0000 0.7776748559
Co  Co8       1.0  0.28386  0.56772  0.25000  1.0000 0.7673789135
Zn  Zn1       1.0  0.28320  0.56640  0.25000  1.0000 0.849574255
Co  Co9       1.0  0.43228  0.71614  0.58333  1.0000 0.7673789135
Zn  Zn2       1.0  0.43360  0.71680  0.58333  1.0000 0.849574255
Co  Co10      1.0  0.71614  0.28386  0.41667  1.0000 0.7776748559
Co  Co11      1.0  0.71614  0.43228  0.75000  1.0000 0.7673789135
Zn  Zn3       1.0  0.71680  0.43360  0.75000  1.0000 0.849574255
Co  Co12      1.0  0.56772  0.28386  0.08333  1.0000 0.7673789135
Zn  Zn4       1.0  0.56640  0.28320  0.08333  1.0000 0.849574255
  Zn  Zn5       1.0  0.28386  0.71614  0.91667  1.0000
  Zn  Zn6       1.0  0.71614  0.28386  0.41667  1.0000
