# DDEC6 charges by PACMAN v1.1 (https://github.com/mtap-research/PACMAN-charge/)
data_XEGSOU01_FSR_pacman
_chemical_formula_sum              "O48 F72 C204 H96 Co12 Zn2"
_cell_length_a       21.19
_cell_length_b       21.19
_cell_length_c       14.8333
_cell_angle_alpha    90
_cell_angle_beta     90
_cell_angle_gamma    120

_symmetry_space_group_name_H-M    "P 1"
_symmetry_Int_Tables_number       1

loop_
  _symmetry_equiv_pos_as_xyz
  'x, y, z'

loop_
  _atom_site_type_symbol
  _atom_site_label
  _atom_site_symmetry_multiplicity
  _atom_site_fract_x
  _atom_site_fract_y
  _atom_site_fract_z
  _atom_site_occupancy
 _atom_site_charge
O   O1        1.0  0.62530  0.25840  0.64900  1.0000 -0.6194814065
F   F1        1.0  0.25120  0.11200  0.73830  1.0000 -0.1937106518
C   C1        1.0  0.28640  0.02150  0.72820  1.0000 -0.2812650919
F   F2        1.0  0.18780  0.01510  0.81590  1.0000 -0.1937106518
F   F3        1.0  0.20470  0.01510  0.61070  1.0000 -0.1958449577
F   F4        1.0  0.26020  0.95540  0.59060  1.0000 -0.1937106518
F   F5        1.0  0.17350  0.91800  0.68750  1.0000 -0.1937106518
F   F6        1.0  0.29680  0.09310  0.85740  1.0000 -0.1958449577
C   C2        1.0  0.32440  0.80530  0.92750  1.0000 0.5755908072
C   C3        1.0  0.28440  0.89650  0.91810  1.0000 -0.0914720498
H   H1        1.0  0.26760  0.88400  0.97700  1.0000 0.1211685474
C   C4        1.0  0.31930  0.86410  0.87710  1.0000 -0.0222944255
C   C5        1.0  0.29860  0.96690  0.78410  1.0000 0.0726341965
C   C6        1.0  0.43550  0.16820  0.57790  1.0000 -0.0914720498
H   H2        1.0  0.44000  0.18960  0.52170  1.0000 0.1292087911
C   C7        1.0  0.23040  0.97760  0.65370  1.0000 0.6617324134
C   C8        1.0  0.27380  0.94790  0.87220  1.0000 -0.159048332
H   H3        1.0  0.25020  0.96940  0.90050  1.0000 0.1131409428
C   C9        1.0  0.36050  0.08210  0.69090  1.0000 0.0793111926
C   C10       1.0  0.49700  0.19030  0.63060  1.0000 -0.0262957774
O   O2        1.0  0.34820  0.76890  0.88720  1.0000 -0.5602116207
C   C11       1.0  0.33400  0.93340  0.74330  1.0000 -0.1419583079
H   H4        1.0  0.35160  0.94640  0.68480  1.0000 0.1211685474
C   C12       1.0  0.48940  0.15970  0.71560  1.0000 -0.1242804596
H   H5        1.0  0.52980  0.17550  0.75300  1.0000 0.1131409428
C   C13       1.0  0.36740  0.11480  0.60740  1.0000 -0.1481230762
H   H6        1.0  0.32650  0.10080  0.57140  1.0000 0.1131409428
C   C14       1.0  0.25490  0.06010  0.78530  1.0000 0.6617324134
C   C15       1.0  0.42140  0.10570  0.74450  1.0000 -0.1419583079
H   H7        1.0  0.41680  0.08480  0.80110  1.0000 0.1211685474
O   O3        1.0  0.30410  0.79680  0.00800  1.0000 -0.5307591775
C   C16       1.0  0.34350  0.88190  0.78790  1.0000 -0.0914720498
H   H8        1.0  0.36560  0.85900  0.75910  1.0000 0.1292087911
O   O4        1.0  0.57630  0.27010  0.51940  1.0000 -0.5212326665
C   C17       1.0  0.57020  0.24450  0.59560  1.0000 0.6081929585
O   O5        1.0  0.74160  0.36690  0.31567  1.0000 -0.6194814065
F   F7        1.0  0.88800  0.13920  0.40497  1.0000 -0.1937106518
C   C18       1.0  0.97850  0.26490  0.39487  1.0000 -0.2812650919
F   F8        1.0  0.98490  0.17270  0.48257  1.0000 -0.1958449577
F   F9        1.0  0.98490  0.18960  0.27737  1.0000 -0.1937106518
F   F10       1.0  0.04460  0.30480  0.25727  1.0000 -0.1937106518
F   F11       1.0  0.08200  0.25550  0.35417  1.0000 -0.1937106518
F   F12       1.0  0.90690  0.20370  0.52407  1.0000 -0.1937106518
C   C19       1.0  0.19470  0.51910  0.59417  1.0000 0.5704018347
C   C20       1.0  0.10350  0.38790  0.58477  1.0000 -0.0914720498
H   H9        1.0  0.11600  0.38360  0.64367  1.0000 0.1292087911
C   C21       1.0  0.13590  0.45520  0.54377  1.0000 -0.0104566939
C   C22       1.0  0.03310  0.33170  0.45077  1.0000 0.0793111926
C   C23       1.0  0.83180  0.26730  0.24457  1.0000 -0.0914720498
H   H10       1.0  0.81040  0.25040  0.18837  1.0000 0.1292087911
C   C24       1.0  0.02240  0.25280  0.32037  1.0000 0.6617324134
C   C25       1.0  0.05210  0.32590  0.53887  1.0000 -0.159048332
H   H11       1.0  0.03060  0.28080  0.56717  1.0000 0.1131409428
C   C26       1.0  0.91790  0.27840  0.35757  1.0000 0.0793111926
C   C27       1.0  0.80970  0.30670  0.29727  1.0000 -0.0222944255
O   O6        1.0  0.23110  0.57930  0.55387  1.0000 -0.5526188035
C   C28       1.0  0.06660  0.40060  0.40997  1.0000 -0.1419583079
H   H12       1.0  0.05360  0.40520  0.35147  1.0000 0.1211685474
C   C29       1.0  0.84030  0.32970  0.38227  1.0000 -0.0970350887
H   H13       1.0  0.82450  0.35430  0.41967  1.0000 0.1211685474
C   C30       1.0  0.88520  0.25260  0.27407  1.0000 -0.1481230762
H   H14       1.0  0.89920  0.22570  0.23807  1.0000 0.1131409428
C   C31       1.0  0.93990  0.19480  0.45197  1.0000 0.6617324134
C   C32       1.0  0.89430  0.31570  0.41117  1.0000 -0.1287801633
H   H15       1.0  0.91520  0.33200  0.46777  1.0000 0.1211685474
O   O7        1.0  0.20320  0.50730  0.67467  1.0000 -0.6270813564
C   C33       1.0  0.11810  0.46160  0.45457  1.0000 -0.0914720498
H   H16       1.0  0.14100  0.50660  0.42577  1.0000 0.1380026309
O   O8        1.0  0.72990  0.30620  0.18607  1.0000 -0.5212326665
C   C34       1.0  0.75550  0.32570  0.26227  1.0000 0.6037359616
O   O9        1.0  0.63310  0.37470  0.98233  1.0000 -0.6964213023
F   F13       1.0  0.86080  0.74880  0.07163  1.0000 -0.1937106518
C   C35       1.0  0.73510  0.71360  0.06153  1.0000 -0.2812650919
F   F14       1.0  0.82730  0.81220  0.14923  1.0000 -0.1958449577
F   F15       1.0  0.81040  0.79530  0.94403  1.0000 -0.1958449577
F   F16       1.0  0.69520  0.73980  0.92393  1.0000 -0.1958449577
F   F17       1.0  0.74450  0.82650  0.02083  1.0000 -0.1937106518
F   F18       1.0  0.79630  0.70320  0.19073  1.0000 -0.1937106518
C   C36       1.0  0.48090  0.67560  0.26083  1.0000 0.5704018347
C   C37       1.0  0.61210  0.71560  0.25143  1.0000 -0.0914720498
H   H17       1.0  0.61640  0.73240  0.31033  1.0000 0.1211685474
C   C38       1.0  0.54480  0.68070  0.21043  1.0000 -0.0222944255
C   C39       1.0  0.66830  0.70140  0.11743  1.0000 0.0726341965
C   C40       1.0  0.73270  0.56450  0.91123  1.0000 -0.0914720498
H   H18       1.0  0.74960  0.56000  0.85503  1.0000 0.1292087911
C   C41       1.0  0.74720  0.76960  0.98703  1.0000 0.6617324134
C   C42       1.0  0.67410  0.72620  0.20553  1.0000 -0.159048332
H   H19       1.0  0.71920  0.74980  0.23383  1.0000 0.1131409428
C   C43       1.0  0.72160  0.63950  0.02423  1.0000 0.0793111926
C   C44       1.0  0.69330  0.50300  0.96393  1.0000 -0.0104566939
O   O10       1.0  0.42070  0.65180  0.22053  1.0000 -0.5602116207
C   C45       1.0  0.59940  0.66600  0.07663  1.0000 -0.1419583079
H   H20       1.0  0.59480  0.64840  0.01813  1.0000 0.1211685474
C   C46       1.0  0.67030  0.51060  0.04893  1.0000 -0.0970350887
H   H21       1.0  0.64570  0.47020  0.08633  1.0000 0.1292087911
C   C47       1.0  0.74740  0.63260  0.94073  1.0000 -0.1481230762
H   H22       1.0  0.77430  0.67350  0.90473  1.0000 0.1131409428
C   C48       1.0  0.80520  0.74510  0.11863  1.0000 0.6617324134
C   C49       1.0  0.68430  0.57860  0.07783  1.0000 -0.1287801633
H   H23       1.0  0.66800  0.58320  0.13443  1.0000 0.1211685474
O   O11       1.0  0.49270  0.69590  0.34133  1.0000 -0.5307591775
C   C50       1.0  0.53840  0.65650  0.12123  1.0000 -0.0914720498
H   H24       1.0  0.49340  0.63440  0.09243  1.0000 0.1292087911
O   O12       1.0  0.69380  0.42370  0.85273  1.0000 -0.5212326665
C   C51       1.0  0.67430  0.42980  0.92893  1.0000 0.5704018347
O   O13       1.0  0.37470  0.74160  0.14900  1.0000 -0.6194814065
F   F19       1.0  0.74880  0.88800  0.23830  1.0000 -0.1937106518
C   C52       1.0  0.71360  0.97850  0.22820  1.0000 -0.2812650919
F   F20       1.0  0.81220  0.98490  0.31590  1.0000 -0.1937106518
F   F21       1.0  0.79530  0.98490  0.11070  1.0000 -0.1937106518
F   F22       1.0  0.73980  0.04460  0.09060  1.0000 -0.1937106518
F   F23       1.0  0.82650  0.08200  0.18750  1.0000 -0.1937106518
F   F24       1.0  0.70320  0.90690  0.35740  1.0000 -0.1937106518
C   C53       1.0  0.67560  0.19470  0.42750  1.0000 0.5704018347
C   C54       1.0  0.71560  0.10350  0.41810  1.0000 -0.0914720498
H   H25       1.0  0.73240  0.11600  0.47700  1.0000 0.1211685474
C   C55       1.0  0.68070  0.13590  0.37710  1.0000 -0.0222944255
C   C56       1.0  0.70140  0.03310  0.28410  1.0000 0.0726341965
C   C57       1.0  0.56450  0.83180  0.07790  1.0000 -0.0914720498
H   H26       1.0  0.56000  0.81040  0.02170  1.0000 0.1211685474
C   C58       1.0  0.76960  0.02240  0.15370  1.0000 0.6617324134
C   C59       1.0  0.72620  0.05210  0.37220  1.0000 -0.159048332
H   H27       1.0  0.74980  0.03060  0.40050  1.0000 0.1131409428
C   C60       1.0  0.63950  0.91790  0.19090  1.0000 0.0793111926
C   C61       1.0  0.50300  0.80970  0.13060  1.0000 -0.0262957774
O   O14       1.0  0.65180  0.23110  0.38720  1.0000 -0.5602116207
C   C62       1.0  0.66600  0.06660  0.24330  1.0000 -0.1419583079
H   H28       1.0  0.64840  0.05360  0.18480  1.0000 0.1211685474
C   C63       1.0  0.51060  0.84030  0.21560  1.0000 -0.0970350887
H   H29       1.0  0.47020  0.82450  0.25300  1.0000 0.1211685474
C   C64       1.0  0.63260  0.88520  0.10740  1.0000 -0.1481230762
H   H30       1.0  0.67350  0.89920  0.07140  1.0000 0.1131409428
C   C65       1.0  0.74510  0.93990  0.28530  1.0000 0.6617324134
C   C66       1.0  0.57860  0.89430  0.24450  1.0000 -0.1287801633
H   H31       1.0  0.58320  0.91520  0.30110  1.0000 0.1211685474
O   O15       1.0  0.69590  0.20320  0.50800  1.0000 -0.5307591775
C   C67       1.0  0.65650  0.11810  0.28790  1.0000 -0.0914720498
H   H32       1.0  0.63440  0.14100  0.25910  1.0000 0.1292087911
O   O16       1.0  0.42370  0.72990  0.01940  1.0000 -0.5212326665
C   C68       1.0  0.42980  0.75550  0.09560  1.0000 0.6081929585
O   O17       1.0  0.25840  0.63310  0.81567  1.0000 -0.6964213023
F   F25       1.0  0.11200  0.86080  0.90497  1.0000 -0.1937106518
C   C69       1.0  0.02150  0.73510  0.89487  1.0000 -0.2812650919
F   F26       1.0  0.01510  0.82730  0.98257  1.0000 -0.1958449577
F   F27       1.0  0.01510  0.81040  0.77737  1.0000 -0.1958449577
F   F28       1.0  0.95540  0.69520  0.75727  1.0000 -0.1937106518
F   F29       1.0  0.91800  0.74450  0.85417  1.0000 -0.1937106518
F   F30       1.0  0.09310  0.79630  0.02407  1.0000 -0.1937106518
C   C70       1.0  0.80530  0.48090  0.09417  1.0000 0.5704018347
C   C71       1.0  0.89650  0.61210  0.08477  1.0000 -0.0914720498
H   H33       1.0  0.88400  0.61640  0.14367  1.0000 0.1292087911
C   C72       1.0  0.86410  0.54480  0.04377  1.0000 -0.0222944255
C   C73       1.0  0.96690  0.66830  0.95077  1.0000 0.0726341965
C   C74       1.0  0.16820  0.73270  0.74457  1.0000 -0.0914720498
H   H34       1.0  0.18960  0.74960  0.68837  1.0000 0.1292087911
C   C75       1.0  0.97760  0.74720  0.82037  1.0000 0.6617324134
C   C76       1.0  0.94790  0.67410  0.03887  1.0000 -0.159048332
H   H35       1.0  0.96940  0.71920  0.06717  1.0000 0.1131409428
C   C77       1.0  0.08210  0.72160  0.85757  1.0000 0.0793111926
C   C78       1.0  0.19030  0.69330  0.79727  1.0000 -0.0104566939
O   O18       1.0  0.76890  0.42070  0.05387  1.0000 -0.5526188035
C   C79       1.0  0.93340  0.59940  0.90997  1.0000 -0.1419583079
H   H36       1.0  0.94640  0.59480  0.85147  1.0000 0.1211685474
C   C80       1.0  0.15970  0.67030  0.88227  1.0000 -0.0970350887
H   H37       1.0  0.17550  0.64570  0.91967  1.0000 0.1292087911
C   C81       1.0  0.11480  0.74740  0.77407  1.0000 -0.1481230762
H   H38       1.0  0.10080  0.77430  0.73807  1.0000 0.1131409428
C   C82       1.0  0.06010  0.80520  0.95197  1.0000 0.6617324134
C   C83       1.0  0.10570  0.68430  0.91117  1.0000 -0.1287801633
H   H39       1.0  0.08480  0.66800  0.96777  1.0000 0.1211685474
O   O19       1.0  0.79680  0.49270  0.17467  1.0000 -0.5307591775
C   C84       1.0  0.88190  0.53840  0.95457  1.0000 -0.0914720498
H   H40       1.0  0.85900  0.49340  0.92577  1.0000 0.1292087911
O   O20       1.0  0.27010  0.69380  0.68607  1.0000 -0.5212326665
C   C85       1.0  0.24450  0.67430  0.76227  1.0000 0.5704018347
O   O21       1.0  0.36690  0.62530  0.48233  1.0000 -0.6194814065
F   F31       1.0  0.13920  0.25120  0.57163  1.0000 -0.1937106518
C   C86       1.0  0.26490  0.28640  0.56153  1.0000 -0.2812650919
F   F32       1.0  0.17270  0.18780  0.64923  1.0000 -0.1958449577
F   F33       1.0  0.18960  0.20470  0.44403  1.0000 -0.1937106518
F   F34       1.0  0.30480  0.26020  0.42393  1.0000 -0.1937106518
F   F35       1.0  0.25550  0.17350  0.52083  1.0000 -0.1937106518
F   F36       1.0  0.20370  0.29680  0.69073  1.0000 -0.1958449577
C   C87       1.0  0.51910  0.32440  0.76083  1.0000 0.5704018347
C   C88       1.0  0.38790  0.28440  0.75143  1.0000 -0.0914720498
H   H41       1.0  0.38360  0.26760  0.81033  1.0000 0.1292087911
C   C89       1.0  0.45520  0.31930  0.71043  1.0000 -0.0104566939
C   C90       1.0  0.33170  0.29860  0.61743  1.0000 0.0793111926
C   C91       1.0  0.26730  0.43550  0.41123  1.0000 -0.0914720498
H   H42       1.0  0.25040  0.44000  0.35503  1.0000 0.1292087911
C   C92       1.0  0.25280  0.23040  0.48703  1.0000 0.6617324134
C   C93       1.0  0.32590  0.27380  0.70553  1.0000 -0.159048332
H   H43       1.0  0.28080  0.25020  0.73383  1.0000 0.1131409428
C   C94       1.0  0.27840  0.36050  0.52423  1.0000 0.0793111926
C   C95       1.0  0.30670  0.49700  0.46393  1.0000 -0.0222944255
O   O22       1.0  0.57930  0.34820  0.72053  1.0000 -0.5526188035
C   C96       1.0  0.40060  0.33400  0.57663  1.0000 -0.1419583079
H   H44       1.0  0.40520  0.35160  0.51813  1.0000 0.1211685474
C   C97       1.0  0.32970  0.48940  0.54893  1.0000 -0.1287801633
H   H45       1.0  0.35430  0.52980  0.58633  1.0000 0.1131409428
C   C98       1.0  0.25260  0.36740  0.44073  1.0000 -0.1481230762
H   H46       1.0  0.22570  0.32650  0.40473  1.0000 0.1131409428
C   C99       1.0  0.19480  0.25490  0.61863  1.0000 0.6617324134
C   C100      1.0  0.31570  0.42140  0.57783  1.0000 -0.1419583079
H   H47       1.0  0.33200  0.41680  0.63443  1.0000 0.1211685474
O   O23       1.0  0.50730  0.30410  0.84133  1.0000 -0.6270813564
C   C101      1.0  0.46160  0.34350  0.62123  1.0000 -0.0914720498
H   H48       1.0  0.50660  0.36560  0.59243  1.0000 0.1380026309
O   O24       1.0  0.30620  0.57630  0.35273  1.0000 -0.5212326665
C   C102      1.0  0.32570  0.57020  0.42893  1.0000 0.6037359616
O   O25       1.0  0.25840  0.62530  0.01767  1.0000 -0.6194814065
F   F37       1.0  0.11200  0.25120  0.92837  1.0000 -0.1937106518
C   C103      1.0  0.02150  0.28640  0.93847  1.0000 -0.2812650919
F   F38       1.0  0.01510  0.18780  0.85077  1.0000 -0.1958449577
F   F39       1.0  0.01510  0.20470  0.05597  1.0000 -0.1958449577
F   F40       1.0  0.95540  0.26020  0.07607  1.0000 -0.1937106518
F   F41       1.0  0.91800  0.17350  0.97917  1.0000 -0.1937106518
F   F42       1.0  0.09310  0.29680  0.80927  1.0000 -0.1958449577
C   C104      1.0  0.80530  0.32440  0.73917  1.0000 0.5755908072
C   C105      1.0  0.89650  0.28440  0.74857  1.0000 -0.0914720498
H   H49       1.0  0.88400  0.26760  0.68967  1.0000 0.1211685474
C   C106      1.0  0.86410  0.31930  0.78957  1.0000 -0.0222944255
C   C107      1.0  0.96690  0.29860  0.88257  1.0000 0.0726341965
C   C108      1.0  0.16820  0.43550  0.08877  1.0000 -0.0914720498
H   H50       1.0  0.18960  0.44000  0.14497  1.0000 0.1292087911
C   C109      1.0  0.97760  0.23040  0.01297  1.0000 0.6617324134
C   C110      1.0  0.94790  0.27380  0.79447  1.0000 -0.159048332
H   H51       1.0  0.96940  0.25020  0.76617  1.0000 0.1131409428
C   C111      1.0  0.08210  0.36050  0.97577  1.0000 0.0793111926
C   C112      1.0  0.19030  0.49700  0.03607  1.0000 -0.0222944255
O   O26       1.0  0.76890  0.34820  0.77947  1.0000 -0.5602116207
C   C113      1.0  0.93340  0.33400  0.92337  1.0000 -0.1419583079
H   H52       1.0  0.94640  0.35160  0.98187  1.0000 0.1211685474
C   C114      1.0  0.15970  0.48940  0.95107  1.0000 -0.1287801633
H   H53       1.0  0.17550  0.52980  0.91367  1.0000 0.1131409428
C   C115      1.0  0.11480  0.36740  0.05927  1.0000 -0.1481230762
H   H54       1.0  0.10080  0.32650  0.09527  1.0000 0.1131409428
C   C116      1.0  0.06010  0.25490  0.88137  1.0000 0.6617324134
C   C117      1.0  0.10570  0.42140  0.92217  1.0000 -0.1419583079
H   H55       1.0  0.08480  0.41680  0.86557  1.0000 0.1211685474
O   O27       1.0  0.79680  0.30410  0.65867  1.0000 -0.5307591775
C   C118      1.0  0.88190  0.34350  0.87877  1.0000 -0.0914720498
H   H56       1.0  0.85900  0.36560  0.90757  1.0000 0.1292087911
O   O28       1.0  0.27010  0.57630  0.14727  1.0000 -0.5212326665
C   C119      1.0  0.24450  0.57020  0.07107  1.0000 0.6081929585
O   O29       1.0  0.36690  0.74160  0.35100  1.0000 -0.6194814065
F   F43       1.0  0.13920  0.88800  0.26170  1.0000 -0.1937106518
C   C120      1.0  0.26490  0.97850  0.27180  1.0000 -0.2812650919
F   F44       1.0  0.17270  0.98490  0.18410  1.0000 -0.1958449577
F   F45       1.0  0.18960  0.98490  0.38930  1.0000 -0.1937106518
F   F46       1.0  0.30480  0.04460  0.40940  1.0000 -0.1937106518
F   F47       1.0  0.25550  0.08200  0.31250  1.0000 -0.1937106518
F   F48       1.0  0.20370  0.90690  0.14260  1.0000 -0.1937106518
C   C121      1.0  0.51910  0.19470  0.07250  1.0000 0.5704018347
C   C122      1.0  0.38790  0.10350  0.08190  1.0000 -0.0914720498
H   H57       1.0  0.38360  0.11600  0.02300  1.0000 0.1292087911
C   C123      1.0  0.45520  0.13590  0.12290  1.0000 -0.0104566939
C   C124      1.0  0.33170  0.03310  0.21590  1.0000 0.0793111926
C   C125      1.0  0.26730  0.83180  0.42210  1.0000 -0.0914720498
H   H58       1.0  0.25040  0.81040  0.47830  1.0000 0.1292087911
C   C126      1.0  0.25280  0.02240  0.34630  1.0000 0.6617324134
C   C127      1.0  0.32590  0.05210  0.12780  1.0000 -0.159048332
H   H59       1.0  0.28080  0.03060  0.09950  1.0000 0.1131409428
C   C128      1.0  0.27840  0.91790  0.30910  1.0000 0.0793111926
C   C129      1.0  0.30670  0.80970  0.36940  1.0000 -0.0222944255
O   O30       1.0  0.57930  0.23110  0.11280  1.0000 -0.5526188035
C   C130      1.0  0.40060  0.06660  0.25670  1.0000 -0.1419583079
H   H60       1.0  0.40520  0.05360  0.31520  1.0000 0.1211685474
C   C131      1.0  0.32970  0.84030  0.28440  1.0000 -0.0970350887
H   H61       1.0  0.35430  0.82450  0.24700  1.0000 0.1211685474
C   C132      1.0  0.25260  0.88520  0.39260  1.0000 -0.1481230762
H   H62       1.0  0.22570  0.89920  0.42860  1.0000 0.1131409428
C   C133      1.0  0.19480  0.93990  0.21470  1.0000 0.6617324134
C   C134      1.0  0.31570  0.89430  0.25550  1.0000 -0.1287801633
H   H63       1.0  0.33200  0.91520  0.19890  1.0000 0.1211685474
O   O31       1.0  0.50730  0.20320  0.99200  1.0000 -0.6270813564
C   C135      1.0  0.46160  0.11810  0.21210  1.0000 -0.0914720498
H   H64       1.0  0.50660  0.14100  0.24090  1.0000 0.1380026309
O   O32       1.0  0.30620  0.72990  0.48060  1.0000 -0.5212326665
C   C136      1.0  0.32570  0.75550  0.40440  1.0000 0.6037359616
O   O33       1.0  0.37470  0.63310  0.68433  1.0000 -0.6964213023
F   F49       1.0  0.74880  0.86080  0.59503  1.0000 -0.1937106518
C   C137      1.0  0.71360  0.73510  0.60513  1.0000 -0.2812650919
F   F50       1.0  0.81220  0.82730  0.51743  1.0000 -0.1958449577
F   F51       1.0  0.79530  0.81040  0.72263  1.0000 -0.1958449577
F   F52       1.0  0.73980  0.69520  0.74273  1.0000 -0.1937106518
F   F53       1.0  0.82650  0.74450  0.64583  1.0000 -0.1937106518
F   F54       1.0  0.70320  0.79630  0.47593  1.0000 -0.1937106518
C   C138      1.0  0.67560  0.48090  0.40583  1.0000 0.5704018347
C   C139      1.0  0.71560  0.61210  0.41523  1.0000 -0.0914720498
H   H65       1.0  0.73240  0.61640  0.35633  1.0000 0.1292087911
C   C140      1.0  0.68070  0.54480  0.45623  1.0000 -0.0222944255
C   C141      1.0  0.70140  0.66830  0.54923  1.0000 0.0726341965
C   C142      1.0  0.56450  0.73270  0.75543  1.0000 -0.0914720498
H   H66       1.0  0.56000  0.74960  0.81163  1.0000 0.1292087911
C   C143      1.0  0.76960  0.74720  0.67963  1.0000 0.6617324134
C   C144      1.0  0.72620  0.67410  0.46113  1.0000 -0.159048332
H   H67       1.0  0.74980  0.71920  0.43283  1.0000 0.1131409428
C   C145      1.0  0.63950  0.72160  0.64243  1.0000 0.0793111926
C   C146      1.0  0.50300  0.69330  0.70273  1.0000 -0.0104566939
O   O34       1.0  0.65180  0.42070  0.44613  1.0000 -0.5602116207
C   C147      1.0  0.66600  0.59940  0.59003  1.0000 -0.1419583079
H   H68       1.0  0.64840  0.59480  0.64853  1.0000 0.1211685474
C   C148      1.0  0.51060  0.67030  0.61773  1.0000 -0.0970350887
H   H69       1.0  0.47020  0.64570  0.58033  1.0000 0.1292087911
C   C149      1.0  0.63260  0.74740  0.72593  1.0000 -0.1481230762
H   H70       1.0  0.67350  0.77430  0.76193  1.0000 0.1131409428
C   C150      1.0  0.74510  0.80520  0.54803  1.0000 0.6617324134
C   C151      1.0  0.57860  0.68430  0.58883  1.0000 -0.1287801633
H   H71       1.0  0.58320  0.66800  0.53223  1.0000 0.1211685474
O   O35       1.0  0.69590  0.49270  0.32533  1.0000 -0.5307591775
C   C152      1.0  0.65650  0.53840  0.54543  1.0000 -0.0914720498
H   H72       1.0  0.63440  0.49340  0.57423  1.0000 0.1292087911
O   O36       1.0  0.42370  0.69380  0.81393  1.0000 -0.5212326665
C   C153      1.0  0.42980  0.67430  0.73773  1.0000 0.5704018347
O   O37       1.0  0.74160  0.37470  0.51767  1.0000 -0.6194814065
F   F55       1.0  0.88800  0.74880  0.42837  1.0000 -0.1937106518
C   C154      1.0  0.97850  0.71360  0.43847  1.0000 -0.2812650919
F   F56       1.0  0.98490  0.81220  0.35077  1.0000 -0.1958449577
F   F57       1.0  0.98490  0.79530  0.55597  1.0000 -0.1958449577
F   F58       1.0  0.04460  0.73980  0.57607  1.0000 -0.1937106518
F   F59       1.0  0.08200  0.82650  0.47917  1.0000 -0.1937106518
F   F60       1.0  0.90690  0.70320  0.30927  1.0000 -0.1937106518
C   C155      1.0  0.19470  0.67560  0.23917  1.0000 0.5755908072
C   C156      1.0  0.10350  0.71560  0.24857  1.0000 -0.0914720498
H   H73       1.0  0.11600  0.73240  0.18967  1.0000 0.1211685474
C   C157      1.0  0.13590  0.68070  0.28957  1.0000 -0.0222944255
C   C158      1.0  0.03310  0.70140  0.38257  1.0000 0.0726341965
C   C159      1.0  0.83180  0.56450  0.58877  1.0000 -0.0914720498
H   H74       1.0  0.81040  0.56000  0.64497  1.0000 0.1211685474
C   C160      1.0  0.02240  0.76960  0.51297  1.0000 0.6617324134
C   C161      1.0  0.05210  0.72620  0.29447  1.0000 -0.159048332
H   H75       1.0  0.03060  0.74980  0.26617  1.0000 0.1131409428
C   C162      1.0  0.91790  0.63950  0.47577  1.0000 0.0793111926
C   C163      1.0  0.80970  0.50300  0.53607  1.0000 -0.0262957774
O   O38       1.0  0.23110  0.65180  0.27947  1.0000 -0.5602116207
C   C164      1.0  0.06660  0.66600  0.42337  1.0000 -0.1419583079
H   H76       1.0  0.05360  0.64840  0.48187  1.0000 0.1211685474
C   C165      1.0  0.84030  0.51060  0.45107  1.0000 -0.0970350887
H   H77       1.0  0.82450  0.47020  0.41367  1.0000 0.1211685474
C   C166      1.0  0.88520  0.63260  0.55927  1.0000 -0.1481230762
H   H78       1.0  0.89920  0.67350  0.59527  1.0000 0.1131409428
C   C167      1.0  0.93990  0.74510  0.38137  1.0000 0.6617324134
C   C168      1.0  0.89430  0.57860  0.42217  1.0000 -0.1287801633
H   H79       1.0  0.91520  0.58320  0.36557  1.0000 0.1211685474
O   O39       1.0  0.20320  0.69590  0.15867  1.0000 -0.5307591775
C   C169      1.0  0.11810  0.65650  0.37877  1.0000 -0.0914720498
H   H80       1.0  0.14100  0.63440  0.40757  1.0000 0.1292087911
O   O40       1.0  0.72990  0.42370  0.64727  1.0000 -0.5212326665
C   C170      1.0  0.75550  0.42980  0.57107  1.0000 0.6081929585
O   O41       1.0  0.63310  0.25840  0.85100  1.0000 -0.6964213023
F   F61       1.0  0.86080  0.11200  0.76170  1.0000 -0.1937106518
C   C171      1.0  0.73510  0.02150  0.77180  1.0000 -0.2812650919
F   F62       1.0  0.82730  0.01510  0.68410  1.0000 -0.1937106518
F   F63       1.0  0.81040  0.01510  0.88930  1.0000 -0.1958449577
F   F64       1.0  0.69520  0.95540  0.90940  1.0000 -0.1937106518
F   F65       1.0  0.74450  0.91800  0.81250  1.0000 -0.1937106518
F   F66       1.0  0.79630  0.09310  0.64260  1.0000 -0.1937106518
C   C172      1.0  0.48090  0.80530  0.57250  1.0000 0.5704018347
C   C173      1.0  0.61210  0.89650  0.58190  1.0000 -0.0914720498
H   H81       1.0  0.61640  0.88400  0.52300  1.0000 0.1292087911
C   C174      1.0  0.54480  0.86410  0.62290  1.0000 -0.0222944255
C   C175      1.0  0.66830  0.96690  0.71590  1.0000 0.0726341965
C   C176      1.0  0.73270  0.16820  0.92210  1.0000 -0.0914720498
H   H82       1.0  0.74960  0.18960  0.97830  1.0000 0.1292087911
C   C177      1.0  0.74720  0.97760  0.84630  1.0000 0.6617324134
C   C178      1.0  0.67410  0.94790  0.62780  1.0000 -0.159048332
H   H83       1.0  0.71920  0.96940  0.59950  1.0000 0.1131409428
C   C179      1.0  0.72160  0.08210  0.80910  1.0000 0.0793111926
C   C180      1.0  0.69330  0.19030  0.86940  1.0000 -0.0104566939
O   O42       1.0  0.42070  0.76890  0.61280  1.0000 -0.5526188035
C   C181      1.0  0.59940  0.93340  0.75670  1.0000 -0.1419583079
H   H84       1.0  0.59480  0.94640  0.81520  1.0000 0.1211685474
C   C182      1.0  0.67030  0.15970  0.78440  1.0000 -0.0970350887
H   H85       1.0  0.64570  0.17550  0.74700  1.0000 0.1292087911
C   C183      1.0  0.74740  0.11480  0.89260  1.0000 -0.1481230762
H   H86       1.0  0.77430  0.10080  0.92860  1.0000 0.1131409428
C   C184      1.0  0.80520  0.06010  0.71470  1.0000 0.6617324134
C   C185      1.0  0.68430  0.10570  0.75550  1.0000 -0.1287801633
H   H87       1.0  0.66800  0.08480  0.69890  1.0000 0.1211685474
O   O43       1.0  0.49270  0.79680  0.49200  1.0000 -0.5307591775
C   C186      1.0  0.53840  0.88190  0.71210  1.0000 -0.0914720498
H   H88       1.0  0.49340  0.85900  0.74090  1.0000 0.1292087911
O   O44       1.0  0.69380  0.27010  0.98060  1.0000 -0.5212326665
C   C187      1.0  0.67430  0.24450  0.90440  1.0000 0.5704018347
O   O45       1.0  0.62530  0.36690  0.18433  1.0000 -0.6194814065
F   F67       1.0  0.25120  0.13920  0.09503  1.0000 -0.1937106518
C   C188      1.0  0.28640  0.26490  0.10513  1.0000 -0.2812650919
F   F68       1.0  0.18780  0.17270  0.01743  1.0000 -0.1958449577
F   F69       1.0  0.20470  0.18960  0.22263  1.0000 -0.1958449577
F   F70       1.0  0.26020  0.30480  0.24273  1.0000 -0.1958449577
F   F71       1.0  0.17350  0.25550  0.14583  1.0000 -0.1937106518
F   F72       1.0  0.29680  0.20370  0.97593  1.0000 -0.1958449577
C   C189      1.0  0.32440  0.51910  0.90583  1.0000 0.5704018347
C   C190      1.0  0.28440  0.38790  0.91523  1.0000 -0.0970350887
H   H89       1.0  0.26760  0.38360  0.85633  1.0000 0.1292087911
C   C191      1.0  0.31930  0.45520  0.95623  1.0000 -0.0104566939
C   C192      1.0  0.29860  0.33170  0.04923  1.0000 0.0793111926
C   C193      1.0  0.43550  0.26730  0.25543  1.0000 -0.0914720498
H   H90       1.0  0.44000  0.25040  0.31163  1.0000 0.1292087911
C   C194      1.0  0.23040  0.25280  0.17963  1.0000 0.6617324134
C   C195      1.0  0.27380  0.32590  0.96113  1.0000 -0.159048332
H   H91       1.0  0.25020  0.28080  0.93283  1.0000 0.1131409428
C   C196      1.0  0.36050  0.27840  0.14243  1.0000 0.0793111926
C   C197      1.0  0.49700  0.30670  0.20273  1.0000 -0.0222944255
O   O46       1.0  0.34820  0.57930  0.94613  1.0000 -0.5526188035
C   C198      1.0  0.33400  0.40060  0.09003  1.0000 -0.1419583079
H   H92       1.0  0.35160  0.40520  0.14853  1.0000 0.1211685474
C   C199      1.0  0.48940  0.32970  0.11773  1.0000 -0.1287801633
H   H93       1.0  0.52980  0.35430  0.08033  1.0000 0.1131409428
C   C200      1.0  0.36740  0.25260  0.22593  1.0000 -0.1481230762
H   H94       1.0  0.32650  0.22570  0.26193  1.0000 0.1131409428
C   C201      1.0  0.25490  0.19480  0.04803  1.0000 0.6617324134
C   C202      1.0  0.42140  0.31570  0.08883  1.0000 -0.1419583079
H   H95       1.0  0.41680  0.33200  0.03223  1.0000 0.1211685474
O   O47       1.0  0.30410  0.50730  0.82533  1.0000 -0.6270813564
C   C203      1.0  0.34350  0.46160  0.04543  1.0000 -0.0914720498
H   H96       1.0  0.36560  0.50660  0.07423  1.0000 0.1380026309
O   O48       1.0  0.57630  0.30620  0.31393  1.0000 -0.5212326665
C   C204      1.0  0.57020  0.32570  0.23773  1.0000 0.6037359616
Co  Co1       1.0  0.34931  0.67465  0.91667  1.0000 0.9527492305
Co  Co2       1.0  0.32535  0.67466  0.58333  1.0000 0.9527492305
Co  Co3       1.0  0.32534  0.65069  0.25000  1.0000 1.0168814441
Co  Co4       1.0  0.65069  0.32535  0.41667  1.0000 1.0168814441
Co  Co5       1.0  0.67465  0.32534  0.08333  1.0000 0.9527492305
Co  Co6       1.0  0.67466  0.34931  0.75000  1.0000 0.9527492305
Co  Co7       1.0  0.28440  0.71560  0.08333  1.0000 0.8983533761
Co  Co8       1.0  0.28440  0.56880  0.75000  1.0000 0.9892945221
Zn  Zn1       1.0  0.28390  0.56780  0.75000  1.0000 0.9892945221
Co  Co9       1.0  0.43120  0.71560  0.41667  1.0000 0.8983533761
Co  Co10      1.0  0.71560  0.28440  0.58333  1.0000 0.8983533761
Co  Co11      1.0  0.71560  0.43120  0.25000  1.0000 0.8983533761
Co  Co12      1.0  0.56880  0.28440  0.91667  1.0000 0.9892945221
Zn  Zn2       1.0  0.56780  0.28390  0.91667  1.0000 0.9892945221
  Zn  Zn3       1.0  0.28440  0.71560  0.08333  1.0000
  Zn  Zn4       1.0  0.71560  0.28440  0.58333  1.0000
