# DDEC6 charges by PACMAN v1.1 (https://github.com/mtap-research/PACMAN-charge/)
data_XEGTAH_FSR_pacman
_chemical_formula_sum              "O48 F72 C204 H96 Zn6 Co8 Mn6"
_cell_length_a       21.2813
_cell_length_b       21.2813
_cell_length_c       15.0807
_cell_angle_alpha    90
_cell_angle_beta     90
_cell_angle_gamma    120

_symmetry_space_group_name_H-M    "P 1"
_symmetry_Int_Tables_number       1

loop_
  _symmetry_equiv_pos_as_xyz
  'x, y, z'

loop_
  _atom_site_type_symbol
  _atom_site_label
  _atom_site_symmetry_multiplicity
  _atom_site_fract_x
  _atom_site_fract_y
  _atom_site_fract_z
  _atom_site_occupancy
 _atom_site_charge
O   O1        1.0  0.37490  0.74360  0.64530  1.0000 -0.6397129332
O   O2        1.0  0.65500  0.23170  0.88970  1.0000 -0.6280866151
F   F1        1.0  0.70210  0.90680  0.85370  1.0000 -0.1999066246
C   C1        1.0  0.67830  0.19580  0.92850  1.0000 0.554206959
C   C2        1.0  0.71290  0.98040  0.72970  1.0000 -0.2893056556
O   O3        1.0  0.70070  0.20520  0.00760  1.0000 -0.5013289039
C   C3        1.0  0.43000  0.75860  0.59500  1.0000 0.5551658388
F   F2        1.0  0.73820  0.04730  0.59460  1.0000 -0.1999066246
C   C4        1.0  0.57780  0.89650  0.74330  1.0000 -0.1422007267
H   H1        1.0  0.58190  0.91700  0.79900  1.0000 0.1177552845
C   C5        1.0  0.56590  0.83580  0.57880  1.0000 -0.1002077318
H   H2        1.0  0.56230  0.81470  0.52360  1.0000 0.1299736316
C   C6        1.0  0.63190  0.88790  0.60870  1.0000 -0.1463869574
H   H3        1.0  0.67270  0.90220  0.57350  1.0000 0.1177552845
C   C7        1.0  0.68440  0.13800  0.87860  1.0000 -0.0213407349
F   F3        1.0  0.81080  0.98480  0.81320  1.0000 -0.1999066246
F   F4        1.0  0.79390  0.98790  0.61300  1.0000 -0.1999066246
F   F5        1.0  0.74660  0.88940  0.73530  1.0000 -0.1999066246
C   C8        1.0  0.66680  0.06800  0.74700  1.0000 -0.1463869574
H   H4        1.0  0.64930  0.05600  0.68940  1.0000 0.1177552845
C   C9        1.0  0.50330  0.81320  0.62990  1.0000 -0.0213407349
C   C10       1.0  0.71770  0.10410  0.91740  1.0000 -0.1002077318
H   H5        1.0  0.73440  0.11560  0.97540  1.0000 0.1299736316
F   F6        1.0  0.82480  0.08350  0.68980  1.0000 -0.1999066246
C   C11       1.0  0.70150  0.03450  0.78510  1.0000 0.0723941559
C   C12       1.0  0.65780  0.11850  0.79240  1.0000 -0.1002077318
H   H6        1.0  0.63380  0.14000  0.76570  1.0000 0.1299736316
C   C13       1.0  0.63910  0.92030  0.69160  1.0000 0.0723941559
C   C14       1.0  0.76750  0.02440  0.65610  1.0000 0.6519816583
C   C15       1.0  0.74310  0.94020  0.78390  1.0000 0.6519816583
C   C16       1.0  0.72720  0.05280  0.87150  1.0000 -0.161772447
H   H7        1.0  0.75050  0.03080  0.89840  1.0000 0.1119412247
C   C17       1.0  0.51050  0.84300  0.71430  1.0000 -0.1422007267
H   H8        1.0  0.47010  0.82690  0.75090  1.0000 0.1119412247
O   O4        1.0  0.42530  0.73320  0.52050  1.0000 -0.6000579779
O   O5        1.0  0.25640  0.63130  0.31197  1.0000 -0.73635954
O   O6        1.0  0.76830  0.42330  0.55637  1.0000 -0.5309124474
F   F7        1.0  0.09320  0.79530  0.52037  1.0000 -0.1999066246
C   C18       1.0  0.80420  0.48250  0.59517  1.0000 0.5229153003
C   C19       1.0  0.01960  0.73250  0.39637  1.0000 -0.2893056556
O   O7        1.0  0.79480  0.49550  0.67427  1.0000 -0.6000579779
C   C20       1.0  0.24140  0.67140  0.26167  1.0000 0.499453802
F   F8        1.0  0.95270  0.69090  0.26127  1.0000 -0.1999066246
C   C21       1.0  0.10350  0.68130  0.40997  1.0000 -0.1298775633
H   H9        1.0  0.08300  0.66490  0.46567  1.0000 0.1177552845
C   C22       1.0  0.16420  0.73010  0.24547  1.0000 -0.1002077318
H   H10       1.0  0.18530  0.74760  0.19027  1.0000 0.1299736316
C   C23       1.0  0.11210  0.74400  0.27537  1.0000 -0.1463869574
H   H11       1.0  0.09780  0.77050  0.24017  1.0000 0.1177552845
C   C24       1.0  0.86200  0.54640  0.54527  1.0000 -0.0213407349
F   F9        1.0  0.01520  0.82600  0.47987  1.0000 -0.1999066246
F   F10       1.0  0.01210  0.80600  0.27967  1.0000 -0.1999066246
F   F11       1.0  0.11060  0.85720  0.40197  1.0000 -0.1999066246
C   C25       1.0  0.93200  0.59880  0.41367  1.0000 -0.1463869574
H   H12       1.0  0.94400  0.59330  0.35607  1.0000 0.1177552845
C   C26       1.0  0.18680  0.69010  0.29657  1.0000 -0.0094849451
C   C27       1.0  0.89590  0.61360  0.58407  1.0000 -0.1002077318
H   H13       1.0  0.88440  0.61880  0.64207  1.0000 0.1299736316
F   F12       1.0  0.91650  0.74130  0.35647  1.0000 -0.1999066246
C   C28       1.0  0.96550  0.66700  0.45177  1.0000 0.0723941559
C   C29       1.0  0.88150  0.53930  0.45907  1.0000 -0.1002077318
H   H14       1.0  0.86000  0.49380  0.43237  1.0000 0.1299736316
C   C30       1.0  0.07970  0.71880  0.35827  1.0000 0.0723941559
C   C31       1.0  0.97560  0.74310  0.32277  1.0000 0.6519816583
C   C32       1.0  0.05980  0.80290  0.45057  1.0000 0.6519816583
C   C33       1.0  0.94720  0.67440  0.53817  1.0000 -0.161772447
H   H15       1.0  0.96920  0.71970  0.56507  1.0000 0.1119412247
C   C34       1.0  0.15700  0.66750  0.38097  1.0000 -0.1298775633
H   H16       1.0  0.17310  0.64320  0.41757  1.0000 0.1177552845
O   O8        1.0  0.26680  0.69210  0.18717  1.0000 -0.5080299113
O   O9        1.0  0.36870  0.62510  0.97863  1.0000 -0.6514986638
O   O10       1.0  0.57670  0.34500  0.22303  1.0000 -0.6397129332
F   F13       1.0  0.20470  0.29790  0.18703  1.0000 -0.1999066246
C   C35       1.0  0.51750  0.32170  0.26183  1.0000 0.4595130946
C   C36       1.0  0.26750  0.28710  0.06303  1.0000 -0.2893056556
O   O11       1.0  0.50450  0.29930  0.34093  1.0000 -0.6068503741
C   C37       1.0  0.32860  0.57000  0.92833  1.0000 0.499453802
F   F14       1.0  0.30910  0.26180  0.92793  1.0000 -0.1999066246
C   C38       1.0  0.31870  0.42220  0.07663  1.0000 -0.1422007267
H   H17       1.0  0.33510  0.41810  0.13233  1.0000 0.1177552845
C   C39       1.0  0.26990  0.43410  0.91213  1.0000 -0.1002077318
H   H18       1.0  0.25240  0.43770  0.85693  1.0000 0.1299736316
C   C40       1.0  0.25600  0.36810  0.94203  1.0000 -0.1463869574
H   H19       1.0  0.22950  0.32730  0.90683  1.0000 0.1177552845
C   C41       1.0  0.45360  0.31560  0.21193  1.0000 -0.0094849451
F   F15       1.0  0.17400  0.18920  0.14653  1.0000 -0.1999066246
F   F16       1.0  0.19400  0.20610  0.94633  1.0000 -0.1999066246
F   F17       1.0  0.14280  0.25340  0.06863  1.0000 -0.1999066246
C   C42       1.0  0.40120  0.33320  0.08033  1.0000 -0.1463869574
H   H20       1.0  0.40670  0.35070  0.02273  1.0000 0.1177552845
C   C43       1.0  0.30990  0.49670  0.96323  1.0000 -0.0094849451
C   C44       1.0  0.38640  0.28230  0.25073  1.0000 -0.1002077318
H   H21       1.0  0.38120  0.26560  0.30873  1.0000 0.1299736316
F   F18       1.0  0.25870  0.17520  0.02313  1.0000 -0.1999066246
C   C45       1.0  0.33300  0.29850  0.11843  1.0000 0.0723941559
C   C46       1.0  0.46070  0.34220  0.12573  1.0000 -0.1002077318
H   H22       1.0  0.50620  0.36620  0.09903  1.0000 0.1299736316
C   C47       1.0  0.28120  0.36090  0.02493  1.0000 0.0723941559
C   C48       1.0  0.25690  0.23250  0.98943  1.0000 0.6519816583
C   C49       1.0  0.19710  0.25690  0.11723  1.0000 0.6519816583
C   C50       1.0  0.32560  0.27280  0.20483  1.0000 -0.161772447
H   H23       1.0  0.28030  0.24950  0.23173  1.0000 0.1119412247
C   C51       1.0  0.33250  0.48950  0.04763  1.0000 -0.1422007267
H   H24       1.0  0.35680  0.52990  0.08423  1.0000 0.1119412247
O   O12       1.0  0.30790  0.57470  0.85383  1.0000 -0.6280866151
O   O13       1.0  0.62510  0.25640  0.14530  1.0000 -0.6397129332
O   O14       1.0  0.34500  0.76830  0.38970  1.0000 -0.6280866151
F   F19       1.0  0.29790  0.09320  0.35370  1.0000 -0.1999066246
C   C52       1.0  0.32170  0.80420  0.42850  1.0000 0.554206959
C   C53       1.0  0.28710  0.01960  0.22970  1.0000 -0.2893056556
O   O15       1.0  0.29930  0.79480  0.50760  1.0000 -0.5013289039
C   C54       1.0  0.57000  0.24140  0.09500  1.0000 0.554206959
F   F20       1.0  0.26180  0.95270  0.09460  1.0000 -0.1999066246
C   C55       1.0  0.42220  0.10350  0.24330  1.0000 -0.1422007267
H   H25       1.0  0.41810  0.08300  0.29900  1.0000 0.1177552845
C   C56       1.0  0.43410  0.16420  0.07880  1.0000 -0.1002077318
H   H26       1.0  0.43770  0.18530  0.02360  1.0000 0.1299736316
C   C57       1.0  0.36810  0.11210  0.10870  1.0000 -0.1463869574
H   H27       1.0  0.32730  0.09780  0.07350  1.0000 0.1177552845
C   C58       1.0  0.31560  0.86200  0.37860  1.0000 -0.0213407349
F   F21       1.0  0.18920  0.01520  0.31320  1.0000 -0.1999066246
F   F22       1.0  0.20610  0.01210  0.11300  1.0000 -0.1999066246
F   F23       1.0  0.25340  0.11060  0.23530  1.0000 -0.1999066246
C   C59       1.0  0.33320  0.93200  0.24700  1.0000 -0.1463869574
H   H28       1.0  0.35070  0.94400  0.18940  1.0000 0.1177552845
C   C60       1.0  0.49670  0.18680  0.12990  1.0000 -0.0213407349
C   C61       1.0  0.28230  0.89590  0.41740  1.0000 -0.1002077318
H   H29       1.0  0.26560  0.88440  0.47540  1.0000 0.1299736316
F   F24       1.0  0.17520  0.91650  0.18980  1.0000 -0.1999066246
C   C62       1.0  0.29850  0.96550  0.28510  1.0000 0.0723941559
C   C63       1.0  0.34220  0.88150  0.29240  1.0000 -0.1002077318
H   H30       1.0  0.36620  0.86000  0.26570  1.0000 0.1299736316
C   C64       1.0  0.36090  0.07970  0.19160  1.0000 0.0752386715
C   C65       1.0  0.23250  0.97560  0.15610  1.0000 0.6519816583
C   C66       1.0  0.25690  0.05980  0.28390  1.0000 0.6519816583
C   C67       1.0  0.27280  0.94720  0.37150  1.0000 -0.161772447
H   H31       1.0  0.24950  0.96920  0.39840  1.0000 0.1119412247
C   C68       1.0  0.48950  0.15700  0.21430  1.0000 -0.1422007267
H   H32       1.0  0.52990  0.17310  0.25090  1.0000 0.1119412247
O   O16       1.0  0.57470  0.26680  0.02050  1.0000 -0.6000579779
O   O17       1.0  0.74360  0.36870  0.81197  1.0000 -0.73635954
O   O18       1.0  0.23170  0.57670  0.05637  1.0000 -0.5309124474
F   F25       1.0  0.90680  0.20470  0.02037  1.0000 -0.1999066246
C   C69       1.0  0.19580  0.51750  0.09517  1.0000 0.5229153003
C   C70       1.0  0.98040  0.26750  0.89637  1.0000 -0.2893056556
O   O19       1.0  0.20520  0.50450  0.17427  1.0000 -0.6000579779
C   C71       1.0  0.75860  0.32860  0.76167  1.0000 0.499453802
F   F26       1.0  0.04730  0.30910  0.76127  1.0000 -0.1999066246
C   C72       1.0  0.89650  0.31870  0.90997  1.0000 -0.1298775633
H   H33       1.0  0.91700  0.33510  0.96567  1.0000 0.1177552845
C   C73       1.0  0.83580  0.26990  0.74547  1.0000 -0.1002077318
H   H34       1.0  0.81470  0.25240  0.69027  1.0000 0.1299736316
C   C74       1.0  0.88790  0.25600  0.77537  1.0000 -0.1463869574
H   H35       1.0  0.90220  0.22950  0.74017  1.0000 0.1177552845
C   C75       1.0  0.13800  0.45360  0.04527  1.0000 -0.0213407349
F   F27       1.0  0.98480  0.17400  0.97987  1.0000 -0.1999066246
F   F28       1.0  0.98790  0.19400  0.77967  1.0000 -0.1999066246
F   F29       1.0  0.88940  0.14280  0.90197  1.0000 -0.1999066246
C   C76       1.0  0.06800  0.40120  0.91367  1.0000 -0.1463869574
H   H36       1.0  0.05600  0.40670  0.85607  1.0000 0.1177552845
C   C77       1.0  0.81320  0.30990  0.79657  1.0000 -0.0094849451
C   C78       1.0  0.10410  0.38640  0.08407  1.0000 -0.1002077318
H   H37       1.0  0.11560  0.38120  0.14207  1.0000 0.1299736316
F   F30       1.0  0.08350  0.25870  0.85647  1.0000 -0.1999066246
C   C79       1.0  0.03450  0.33300  0.95177  1.0000 0.0723941559
C   C80       1.0  0.11850  0.46070  0.95907  1.0000 -0.1002077318
H   H38       1.0  0.14000  0.50620  0.93237  1.0000 0.1299736316
C   C81       1.0  0.92030  0.28120  0.85827  1.0000 0.0723941559
C   C82       1.0  0.02440  0.25690  0.82277  1.0000 0.6519816583
C   C83       1.0  0.94020  0.19710  0.95057  1.0000 0.6519816583
C   C84       1.0  0.05280  0.32560  0.03817  1.0000 -0.161772447
H   H39       1.0  0.03080  0.28030  0.06507  1.0000 0.1119412247
C   C85       1.0  0.84300  0.33250  0.88097  1.0000 -0.1298775633
H   H40       1.0  0.82690  0.35680  0.91757  1.0000 0.1177552845
O   O20       1.0  0.73320  0.30790  0.68717  1.0000 -0.5080299113
O   O21       1.0  0.63130  0.37490  0.47863  1.0000 -0.6514986638
O   O22       1.0  0.42330  0.65500  0.72303  1.0000 -0.6397129332
F   F31       1.0  0.79530  0.70210  0.68703  1.0000 -0.1999066246
C   C86       1.0  0.48250  0.67830  0.76183  1.0000 0.4595130946
C   C87       1.0  0.73250  0.71290  0.56303  1.0000 -0.2893056556
O   O23       1.0  0.49550  0.70070  0.84093  1.0000 -0.6068503741
C   C88       1.0  0.67140  0.43000  0.42833  1.0000 0.499453802
F   F32       1.0  0.69090  0.73820  0.42793  1.0000 -0.1999066246
C   C89       1.0  0.68130  0.57780  0.57663  1.0000 -0.1422007267
H   H41       1.0  0.66490  0.58190  0.63233  1.0000 0.1177552845
C   C90       1.0  0.73010  0.56590  0.41213  1.0000 -0.1002077318
H   H42       1.0  0.74760  0.56230  0.35693  1.0000 0.1299736316
C   C91       1.0  0.74400  0.63190  0.44203  1.0000 -0.1463869574
H   H43       1.0  0.77050  0.67270  0.40683  1.0000 0.1177552845
C   C92       1.0  0.54640  0.68440  0.71193  1.0000 -0.0094849451
F   F33       1.0  0.82600  0.81080  0.64653  1.0000 -0.1999066246
F   F34       1.0  0.80600  0.79390  0.44633  1.0000 -0.1999066246
F   F35       1.0  0.85720  0.74660  0.56863  1.0000 -0.1999066246
C   C93       1.0  0.59880  0.66680  0.58033  1.0000 -0.1422007267
H   H44       1.0  0.59330  0.64930  0.52273  1.0000 0.1177552845
C   C94       1.0  0.69010  0.50330  0.46323  1.0000 -0.0094849451
C   C95       1.0  0.61360  0.71770  0.75073  1.0000 -0.1002077318
H   H45       1.0  0.61880  0.73440  0.80873  1.0000 0.1299736316
F   F36       1.0  0.74130  0.82480  0.52313  1.0000 -0.1999066246
C   C96       1.0  0.66700  0.70150  0.61843  1.0000 0.0723941559
C   C97       1.0  0.53930  0.65780  0.62573  1.0000 -0.1002077318
H   H46       1.0  0.49380  0.63380  0.59903  1.0000 0.1299736316
C   C98       1.0  0.71880  0.63910  0.52493  1.0000 0.0723941559
C   C99       1.0  0.74310  0.76750  0.48943  1.0000 0.6519816583
C   C100      1.0  0.80290  0.74310  0.61723  1.0000 0.6519816583
C   C101      1.0  0.67440  0.72720  0.70483  1.0000 -0.161772447
H   H47       1.0  0.71970  0.75050  0.73173  1.0000 0.1119412247
C   C102      1.0  0.66750  0.51050  0.54763  1.0000 -0.1422007267
H   H48       1.0  0.64320  0.47010  0.58423  1.0000 0.1119412247
O   O24       1.0  0.69210  0.42530  0.35383  1.0000 -0.6280866151
O   O25       1.0  0.74360  0.37490  0.02137  1.0000 -0.6397129332
O   O26       1.0  0.23170  0.65500  0.77697  1.0000 -0.6280866151
F   F37       1.0  0.90680  0.70210  0.81297  1.0000 -0.1999066246
C   C103      1.0  0.19580  0.67830  0.73817  1.0000 0.554206959
C   C104      1.0  0.98040  0.71290  0.93697  1.0000 -0.2893056556
O   O27       1.0  0.20520  0.70070  0.65907  1.0000 -0.5013289039
C   C105      1.0  0.75860  0.43000  0.07167  1.0000 0.554206959
F   F38       1.0  0.04730  0.73820  0.07207  1.0000 -0.1999066246
C   C106      1.0  0.89650  0.57780  0.92337  1.0000 -0.1422007267
H   H49       1.0  0.91700  0.58190  0.86767  1.0000 0.1177552845
C   C107      1.0  0.83580  0.56590  0.08787  1.0000 -0.1002077318
H   H50       1.0  0.81470  0.56230  0.14307  1.0000 0.1299736316
C   C108      1.0  0.88790  0.63190  0.05797  1.0000 -0.1463869574
H   H51       1.0  0.90220  0.67270  0.09317  1.0000 0.1177552845
C   C109      1.0  0.13800  0.68440  0.78807  1.0000 -0.0213407349
F   F39       1.0  0.98480  0.81080  0.85347  1.0000 -0.1999066246
F   F40       1.0  0.98790  0.79390  0.05367  1.0000 -0.1999066246
F   F41       1.0  0.88940  0.74660  0.93137  1.0000 -0.1999066246
C   C110      1.0  0.06800  0.66680  0.91967  1.0000 -0.1463869574
H   H52       1.0  0.05600  0.64930  0.97727  1.0000 0.1177552845
C   C111      1.0  0.81320  0.50330  0.03677  1.0000 -0.0213407349
C   C112      1.0  0.10410  0.71770  0.74927  1.0000 -0.1002077318
H   H53       1.0  0.11560  0.73440  0.69127  1.0000 0.1299736316
F   F42       1.0  0.08350  0.82480  0.97687  1.0000 -0.1999066246
C   C113      1.0  0.03450  0.70150  0.88157  1.0000 0.0723941559
C   C114      1.0  0.11850  0.65780  0.87427  1.0000 -0.1002077318
H   H54       1.0  0.14000  0.63380  0.90097  1.0000 0.1299736316
C   C115      1.0  0.92030  0.63910  0.97507  1.0000 0.0723941559
C   C116      1.0  0.02440  0.76750  0.01057  1.0000 0.6519816583
C   C117      1.0  0.94020  0.74310  0.88277  1.0000 0.6519816583
C   C118      1.0  0.05280  0.72720  0.79517  1.0000 -0.161772447
H   H55       1.0  0.03080  0.75050  0.76827  1.0000 0.1119412247
C   C119      1.0  0.84300  0.51050  0.95237  1.0000 -0.1422007267
H   H56       1.0  0.82690  0.47010  0.91577  1.0000 0.1119412247
O   O28       1.0  0.73320  0.42530  0.14617  1.0000 -0.6000579779
O   O29       1.0  0.63130  0.25640  0.35470  1.0000 -0.73635954
O   O30       1.0  0.42330  0.76830  0.11030  1.0000 -0.5309124474
F   F43       1.0  0.79530  0.09320  0.14630  1.0000 -0.1999066246
C   C120      1.0  0.48250  0.80420  0.07150  1.0000 0.5229153003
C   C121      1.0  0.73250  0.01960  0.27030  1.0000 -0.2893056556
O   O31       1.0  0.49550  0.79480  0.99240  1.0000 -0.6000579779
C   C122      1.0  0.67140  0.24140  0.40500  1.0000 0.499453802
F   F44       1.0  0.69090  0.95270  0.40540  1.0000 -0.1999066246
C   C123      1.0  0.68130  0.10350  0.25670  1.0000 -0.1298775633
H   H57       1.0  0.66490  0.08300  0.20100  1.0000 0.1177552845
C   C124      1.0  0.73010  0.16420  0.42120  1.0000 -0.1002077318
H   H58       1.0  0.74760  0.18530  0.47640  1.0000 0.1299736316
C   C125      1.0  0.74400  0.11210  0.39130  1.0000 -0.1463869574
H   H59       1.0  0.77050  0.09780  0.42650  1.0000 0.1177552845
C   C126      1.0  0.54640  0.86200  0.12140  1.0000 -0.0213407349
F   F45       1.0  0.82600  0.01520  0.18680  1.0000 -0.1999066246
F   F46       1.0  0.80600  0.01210  0.38700  1.0000 -0.1999066246
F   F47       1.0  0.85720  0.11060  0.26470  1.0000 -0.1999066246
C   C127      1.0  0.59880  0.93200  0.25300  1.0000 -0.1463869574
H   H60       1.0  0.59330  0.94400  0.31060  1.0000 0.1177552845
C   C128      1.0  0.69010  0.18680  0.37010  1.0000 -0.0094849451
C   C129      1.0  0.61360  0.89590  0.08260  1.0000 -0.1002077318
H   H61       1.0  0.61880  0.88440  0.02460  1.0000 0.1299736316
F   F48       1.0  0.74130  0.91650  0.31020  1.0000 -0.1999066246
C   C130      1.0  0.66700  0.96550  0.21490  1.0000 0.0723941559
C   C131      1.0  0.53930  0.88150  0.20760  1.0000 -0.1002077318
H   H62       1.0  0.49380  0.86000  0.23430  1.0000 0.1299736316
C   C132      1.0  0.71880  0.07970  0.30840  1.0000 0.0723941559
C   C133      1.0  0.74310  0.97560  0.34390  1.0000 0.6519816583
C   C134      1.0  0.80290  0.05980  0.21610  1.0000 0.6519816583
C   C135      1.0  0.67440  0.94720  0.12850  1.0000 -0.161772447
H   H63       1.0  0.71970  0.96920  0.10160  1.0000 0.1119412247
C   C136      1.0  0.66750  0.15700  0.28570  1.0000 -0.1298775633
H   H64       1.0  0.64320  0.17310  0.24910  1.0000 0.1177552845
O   O32       1.0  0.69210  0.26680  0.47950  1.0000 -0.5080299113
O   O33       1.0  0.62510  0.36870  0.68803  1.0000 -0.6514986638
O   O34       1.0  0.34500  0.57670  0.44363  1.0000 -0.6397129332
F   F49       1.0  0.29790  0.20470  0.47963  1.0000 -0.1999066246
C   C137      1.0  0.32170  0.51750  0.40483  1.0000 0.4595130946
C   C138      1.0  0.28710  0.26750  0.60363  1.0000 -0.2893056556
O   O35       1.0  0.29930  0.50450  0.32573  1.0000 -0.6068503741
C   C139      1.0  0.57000  0.32860  0.73833  1.0000 0.499453802
F   F50       1.0  0.26180  0.30910  0.73873  1.0000 -0.1999066246
C   C140      1.0  0.42220  0.31870  0.59003  1.0000 -0.1422007267
H   H65       1.0  0.41810  0.33510  0.53433  1.0000 0.1177552845
C   C141      1.0  0.43410  0.26990  0.75453  1.0000 -0.1002077318
H   H66       1.0  0.43770  0.25240  0.80973  1.0000 0.1299736316
C   C142      1.0  0.36810  0.25600  0.72463  1.0000 -0.1463869574
H   H67       1.0  0.32730  0.22950  0.75983  1.0000 0.1177552845
C   C143      1.0  0.31560  0.45360  0.45473  1.0000 -0.0094849451
F   F51       1.0  0.18920  0.17400  0.52013  1.0000 -0.1999066246
F   F52       1.0  0.20610  0.19400  0.72033  1.0000 -0.1999066246
F   F53       1.0  0.25340  0.14280  0.59803  1.0000 -0.1999066246
C   C144      1.0  0.33320  0.40120  0.58633  1.0000 -0.1463869574
H   H68       1.0  0.35070  0.40670  0.64393  1.0000 0.1177552845
C   C145      1.0  0.49670  0.30990  0.70343  1.0000 -0.0094849451
C   C146      1.0  0.28230  0.38640  0.41593  1.0000 -0.1002077318
H   H69       1.0  0.26560  0.38120  0.35793  1.0000 0.1299736316
F   F54       1.0  0.17520  0.25870  0.64353  1.0000 -0.1999066246
C   C147      1.0  0.29850  0.33300  0.54823  1.0000 0.0723941559
C   C148      1.0  0.34220  0.46070  0.54093  1.0000 -0.1002077318
H   H70       1.0  0.36620  0.50620  0.56763  1.0000 0.1299736316
C   C149      1.0  0.36090  0.28120  0.64173  1.0000 0.0723941559
C   C150      1.0  0.23250  0.25690  0.67723  1.0000 0.6519816583
C   C151      1.0  0.25690  0.19710  0.54943  1.0000 0.6519816583
C   C152      1.0  0.27280  0.32560  0.46183  1.0000 -0.161772447
H   H71       1.0  0.24950  0.28030  0.43493  1.0000 0.1119412247
C   C153      1.0  0.48950  0.33250  0.61903  1.0000 -0.1422007267
H   H72       1.0  0.52990  0.35680  0.58243  1.0000 0.1119412247
O   O36       1.0  0.57470  0.30790  0.81283  1.0000 -0.6280866151
O   O37       1.0  0.25640  0.62510  0.52137  1.0000 -0.6397129332
O   O38       1.0  0.76830  0.34500  0.27697  1.0000 -0.6280866151
F   F55       1.0  0.09320  0.29790  0.31297  1.0000 -0.1999066246
C   C154      1.0  0.80420  0.32170  0.23817  1.0000 0.554206959
C   C155      1.0  0.01960  0.28710  0.43697  1.0000 -0.2893056556
O   O39       1.0  0.79480  0.29930  0.15907  1.0000 -0.5013289039
C   C156      1.0  0.24140  0.57000  0.57167  1.0000 0.5551658388
F   F56       1.0  0.95270  0.26180  0.57207  1.0000 -0.1999066246
C   C157      1.0  0.10350  0.42220  0.42337  1.0000 -0.1422007267
H   H73       1.0  0.08300  0.41810  0.36767  1.0000 0.1177552845
C   C158      1.0  0.16420  0.43410  0.58787  1.0000 -0.1002077318
H   H74       1.0  0.18530  0.43770  0.64307  1.0000 0.1299736316
C   C159      1.0  0.11210  0.36810  0.55797  1.0000 -0.1463869574
H   H75       1.0  0.09780  0.32730  0.59317  1.0000 0.1177552845
C   C160      1.0  0.86200  0.31560  0.28807  1.0000 -0.0213407349
F   F57       1.0  0.01520  0.18920  0.35347  1.0000 -0.1999066246
F   F58       1.0  0.01210  0.20610  0.55367  1.0000 -0.1999066246
F   F59       1.0  0.11060  0.25340  0.43137  1.0000 -0.1999066246
C   C161      1.0  0.93200  0.33320  0.41967  1.0000 -0.1463869574
H   H76       1.0  0.94400  0.35070  0.47727  1.0000 0.1177552845
C   C162      1.0  0.18680  0.49670  0.53677  1.0000 -0.0213407349
C   C163      1.0  0.89590  0.28230  0.24927  1.0000 -0.1002077318
H   H77       1.0  0.88440  0.26560  0.19127  1.0000 0.1299736316
F   F60       1.0  0.91650  0.17520  0.47687  1.0000 -0.1999066246
C   C164      1.0  0.96550  0.29850  0.38157  1.0000 0.0723941559
C   C165      1.0  0.88150  0.34220  0.37427  1.0000 -0.1002077318
H   H78       1.0  0.86000  0.36620  0.40097  1.0000 0.1299736316
C   C166      1.0  0.07970  0.36090  0.47507  1.0000 0.0752386715
C   C167      1.0  0.97560  0.23250  0.51057  1.0000 0.6519816583
C   C168      1.0  0.05980  0.25690  0.38277  1.0000 0.6519816583
C   C169      1.0  0.94720  0.27280  0.29517  1.0000 -0.161772447
H   H79       1.0  0.96920  0.24950  0.26827  1.0000 0.1119412247
C   C170      1.0  0.15700  0.48950  0.45237  1.0000 -0.1422007267
H   H80       1.0  0.17310  0.52990  0.41577  1.0000 0.1119412247
O   O40       1.0  0.26680  0.57470  0.64617  1.0000 -0.6000579779
O   O41       1.0  0.36870  0.74360  0.85470  1.0000 -0.73635954
O   O42       1.0  0.57670  0.23170  0.61030  1.0000 -0.5309124474
F   F61       1.0  0.20470  0.90680  0.64630  1.0000 -0.1999066246
C   C171      1.0  0.51750  0.19580  0.57150  1.0000 0.5229153003
C   C172      1.0  0.26750  0.98040  0.77030  1.0000 -0.2893056556
O   O43       1.0  0.50450  0.20520  0.49240  1.0000 -0.6000579779
C   C173      1.0  0.32860  0.75860  0.90500  1.0000 0.499453802
F   F62       1.0  0.30910  0.04730  0.90540  1.0000 -0.1999066246
C   C174      1.0  0.31870  0.89650  0.75670  1.0000 -0.1298775633
H   H81       1.0  0.33510  0.91700  0.70100  1.0000 0.1177552845
C   C175      1.0  0.26990  0.83580  0.92120  1.0000 -0.1002077318
H   H82       1.0  0.25240  0.81470  0.97640  1.0000 0.1299736316
C   C176      1.0  0.25600  0.88790  0.89130  1.0000 -0.1463869574
H   H83       1.0  0.22950  0.90220  0.92650  1.0000 0.1177552845
C   C177      1.0  0.45360  0.13800  0.62140  1.0000 -0.0213407349
F   F63       1.0  0.17400  0.98480  0.68680  1.0000 -0.1999066246
F   F64       1.0  0.19400  0.98790  0.88700  1.0000 -0.1999066246
F   F65       1.0  0.14280  0.88940  0.76470  1.0000 -0.1999066246
C   C178      1.0  0.40120  0.06800  0.75300  1.0000 -0.1463869574
H   H84       1.0  0.40670  0.05600  0.81060  1.0000 0.1177552845
C   C179      1.0  0.30990  0.81320  0.87010  1.0000 -0.0094849451
C   C180      1.0  0.38640  0.10410  0.58260  1.0000 -0.1002077318
H   H85       1.0  0.38120  0.11560  0.52460  1.0000 0.1299736316
F   F66       1.0  0.25870  0.08350  0.81020  1.0000 -0.1999066246
C   C181      1.0  0.33300  0.03450  0.71490  1.0000 0.0723941559
C   C182      1.0  0.46070  0.11850  0.70760  1.0000 -0.1050819044
H   H86       1.0  0.50620  0.14000  0.73430  1.0000 0.1299736316
C   C183      1.0  0.28120  0.92030  0.80840  1.0000 0.0723941559
C   C184      1.0  0.25690  0.02440  0.84390  1.0000 0.6519816583
C   C185      1.0  0.19710  0.94020  0.71610  1.0000 0.6519816583
C   C186      1.0  0.32560  0.05280  0.62850  1.0000 -0.161772447
H   H87       1.0  0.28030  0.03080  0.60160  1.0000 0.1119412247
C   C187      1.0  0.33250  0.84300  0.78570  1.0000 -0.1298775633
H   H88       1.0  0.35680  0.82690  0.74910  1.0000 0.1177552845
O   O44       1.0  0.30790  0.73320  0.97950  1.0000 -0.5080299113
O   O45       1.0  0.37490  0.63130  0.18803  1.0000 -0.6514986638
O   O46       1.0  0.65500  0.42330  0.94363  1.0000 -0.6397129332
F   F67       1.0  0.70210  0.79530  0.97963  1.0000 -0.1999066246
C   C188      1.0  0.67830  0.48250  0.90483  1.0000 0.4595130946
C   C189      1.0  0.71290  0.73250  0.10363  1.0000 -0.2893056556
O   O47       1.0  0.70070  0.49550  0.82573  1.0000 -0.6068503741
C   C190      1.0  0.43000  0.67140  0.23833  1.0000 0.499453802
F   F68       1.0  0.73820  0.69090  0.23873  1.0000 -0.1999066246
C   C191      1.0  0.57780  0.68130  0.09003  1.0000 -0.1422007267
H   H89       1.0  0.58190  0.66490  0.03433  1.0000 0.1177552845
C   C192      1.0  0.56590  0.73010  0.25453  1.0000 -0.1002077318
H   H90       1.0  0.56230  0.74760  0.30973  1.0000 0.1299736316
C   C193      1.0  0.63190  0.74400  0.22463  1.0000 -0.1463869574
H   H91       1.0  0.67270  0.77050  0.25983  1.0000 0.1177552845
C   C194      1.0  0.68440  0.54640  0.95473  1.0000 -0.0094849451
F   F69       1.0  0.81080  0.82600  0.02013  1.0000 -0.1999066246
F   F70       1.0  0.79390  0.80600  0.22033  1.0000 -0.1999066246
F   F71       1.0  0.74660  0.85720  0.09803  1.0000 -0.1999066246
C   C195      1.0  0.66680  0.59880  0.08633  1.0000 -0.1422007267
H   H92       1.0  0.64930  0.59330  0.14393  1.0000 0.1177552845
C   C196      1.0  0.50330  0.69010  0.20343  1.0000 -0.0094849451
C   C197      1.0  0.71770  0.61360  0.91593  1.0000 -0.1002077318
H   H93       1.0  0.73440  0.61880  0.85793  1.0000 0.1299736316
F   F72       1.0  0.82480  0.74130  0.14353  1.0000 -0.1999066246
C   C198      1.0  0.70150  0.66700  0.04823  1.0000 0.0723941559
C   C199      1.0  0.65780  0.53930  0.04093  1.0000 -0.1002077318
H   H94       1.0  0.63380  0.49380  0.06763  1.0000 0.1299736316
C   C200      1.0  0.63910  0.71880  0.14173  1.0000 0.0723941559
C   C201      1.0  0.76750  0.74310  0.17723  1.0000 0.6519816583
C   C202      1.0  0.74310  0.80290  0.04943  1.0000 0.6519816583
C   C203      1.0  0.72720  0.67440  0.96183  1.0000 -0.161772447
H   H95       1.0  0.75050  0.71970  0.93493  1.0000 0.1119412247
C   C204      1.0  0.51050  0.66750  0.11903  1.0000 -0.1422007267
H   H96       1.0  0.47010  0.64320  0.08243  1.0000 0.1119412247
O   O48       1.0  0.42530  0.69210  0.31283  1.0000 -0.6280866151
Zn  Zn1       1.0  0.71636  0.28364  0.08333  1.0000 0.6854893084
Zn  Zn2       1.0  0.71636  0.43272  0.75000  1.0000 0.9075538035
Co  Co1       1.0  0.71690  0.43380  0.75000  1.0000 0.8519356664
Zn  Zn3       1.0  0.56728  0.28364  0.41667  1.0000 0.9075538035
Co  Co2       1.0  0.56620  0.28310  0.41667  1.0000 0.8519356664
Zn  Zn4       1.0  0.28364  0.71636  0.58333  1.0000 0.6840999241
Zn  Zn5       1.0  0.28364  0.56728  0.25000  1.0000 0.9075538035
Co  Co3       1.0  0.28310  0.56620  0.25000  1.0000 0.8519356664
Zn  Zn6       1.0  0.43272  0.71636  0.91667  1.0000 0.9075538035
Co  Co4       1.0  0.43380  0.71690  0.91667  1.0000 0.8519356664
Mn  Mn1       1.0  0.64740  0.32370  0.91667  1.0000 1.0617632981
Co  Co5       1.0  0.64900  0.32450  0.91667  1.0000 0.940394115
Mn  Mn2       1.0  0.67630  0.32370  0.58333  1.0000 0.9472558613
Mn  Mn3       1.0  0.67630  0.35260  0.25000  1.0000 1.0617632981
Co  Co6       1.0  0.67550  0.35100  0.25000  1.0000 0.940394115
Mn  Mn4       1.0  0.35260  0.67630  0.41667  1.0000 1.0617632981
Co  Co7       1.0  0.35100  0.67550  0.41667  1.0000 0.940394115
Mn  Mn5       1.0  0.32370  0.67630  0.08333  1.0000 0.9472558613
Mn  Mn6       1.0  0.32370  0.64740  0.75000  1.0000 1.0617632981
Co  Co8       1.0  0.32450  0.64900  0.75000  1.0000 0.940394115
  Co  Co9       1.0  0.71636  0.28364  0.08333  1.0000
  Co  Co10      1.0  0.28364  0.71636  0.58333  1.0000
