# DDEC6 charges by PACMAN v1.1 (https://github.com/mtap-research/PACMAN-charge/)
data_XEGTEL_FSR_pacman
_symmetry_space_group_name_H-M   'P 1'
_cell_length_a   21.29890000
_cell_length_b   21.29890000
_cell_length_c   15.12480000
_cell_angle_alpha   90.00000000
_cell_angle_beta   90.00000000
_cell_angle_gamma   120.00000000
_symmetry_Int_Tables_number   1
_chemical_formula_structural   Mn3Zn3Co2H48C102(O2F3)12
_chemical_formula_sum   'Mn6 Zn6 Co4 H96 C204 O48 F72'
_cell_volume   5942.02700538
_cell_formula_units_Z   2
loop_
 _symmetry_equiv_pos_site_id
 _symmetry_equiv_pos_as_xyz
  1  'x, y, z'
loop_
 _atom_site_type_symbol
 _atom_site_label
 _atom_site_symmetry_multiplicity
 _atom_site_fract_x
 _atom_site_fract_y
 _atom_site_fract_z
 _atom_site_occupancy
 _atom_site_charge
Mn  Mn1  1  0.32452000  0.64905000  0.58334000  1.0 1.0031822542
Mn  Mn2  1  0.32452000  0.67548000  0.25000000  1.0 0.9562119762
Mn  Mn3  1  0.35095000  0.67548000  0.91666000  1.0 1.0031822542
Mn  Mn4  1  0.67548000  0.35095000  0.08334000  1.0 1.0031822542
Mn  Mn5  1  0.67548000  0.32452000  0.75000000  1.0 0.9562119762
Mn  Mn6  1  0.64905000  0.32452000  0.41666000  1.0 1.0031822542
Zn  Zn1  1  0.28289000  0.71711000  0.75000000  1.0 0.8962850193
Zn  Zn2  1  0.43422000  0.71711000  0.41666000  1.0 0.9729541163
Zn  Zn3  1  0.28289000  0.56578000  0.08334000  1.0 0.9729541163
Zn  Zn4  1  0.71711000  0.28289000  0.25000000  1.0 0.8962850193
Zn  Zn5  1  0.56578000  0.28289000  0.91666000  1.0 0.9729541163
Zn  Zn6  1  0.71711000  0.43422000  0.58334000  1.0 0.9729541163
Co  Co1  1  0.43260000  0.71630000  0.41666000  1.0 0.9794846396
Co  Co2  1  0.28370000  0.56740000  0.08334000  1.0 0.9794846396
Co  Co3  1  0.56740000  0.28370000  0.91666000  1.0 0.9794846396
Co  Co4  1  0.71630000  0.43260000  0.58334000  1.0 0.9794846396
H  H1  1  0.09810000  0.32720000  0.74116000  1.0 0.1120463351
H  H2  1  0.08400000  0.41860000  0.96617000  1.0 0.1196541546
H  H3  1  0.88630000  0.26560000  0.14247000  1.0 0.1196541546
H  H4  1  0.18590000  0.43990000  0.69066000  1.0 0.1196541546
H  H5  1  0.85810000  0.36430000  0.93296000  1.0 0.1196541546
H  H6  1  0.97000000  0.24960000  0.06477000  1.0 0.1120463351
H  H7  1  0.17210000  0.53070000  0.91616000  1.0 0.1120463351
H  H8  1  0.94520000  0.35210000  0.85696000  1.0 0.1120463351
H  H9  1  0.22910000  0.90190000  0.40783000  1.0 0.1120463351
H  H10  1  0.33460000  0.91600000  0.63283000  1.0 0.1196541546
H  H11  1  0.37930000  0.11370000  0.80914000  1.0 0.1295485715
H  H12  1  0.25400000  0.81410000  0.35734000  1.0 0.1295485715
H  H13  1  0.50620000  0.14190000  0.59963000  1.0 0.1295485715
H  H14  1  0.27960000  0.03000000  0.73143000  1.0 0.1120463351
H  H15  1  0.35860000  0.82790000  0.58283000  1.0 0.1196541546
H  H16  1  0.40690000  0.05480000  0.52363000  1.0 0.1196541546
H  H17  1  0.67280000  0.77090000  0.07449000  1.0 0.1120463351
H  H18  1  0.58140000  0.66540000  0.29949000  1.0 0.1196541546
H  H19  1  0.73440000  0.62070000  0.47579000  1.0 0.1295485715
H  H20  1  0.56010000  0.74600000  0.02399000  1.0 0.1295485715
H  H21  1  0.63570000  0.49380000  0.26630000  1.0 0.1295485715
H  H22  1  0.75040000  0.72040000  0.39809000  1.0 0.1120463351
H  H23  1  0.46930000  0.64140000  0.24949000  1.0 0.1120463351
H  H24  1  0.64790000  0.59310000  0.19029000  1.0 0.1120463351
H  H25  1  0.90190000  0.67280000  0.24116000  1.0 0.1120463351
H  H26  1  0.91600000  0.58140000  0.46616000  1.0 0.1196541546
H  H27  1  0.11370000  0.73440000  0.64246000  1.0 0.1196541546
H  H28  1  0.81410000  0.56010000  0.19066000  1.0 0.1196541546
H  H29  1  0.14190000  0.63570000  0.43296000  1.0 0.1196541546
H  H30  1  0.03000000  0.75040000  0.56476000  1.0 0.1120463351
H  H31  1  0.82790000  0.46930000  0.41616000  1.0 0.1120463351
H  H32  1  0.05480000  0.64790000  0.35696000  1.0 0.1120463351
H  H33  1  0.77090000  0.09810000  0.90783000  1.0 0.1120463351
H  H34  1  0.66540000  0.08400000  0.13284000  1.0 0.1196541546
H  H35  1  0.62070000  0.88630000  0.30913000  1.0 0.1295485715
H  H36  1  0.74600000  0.18590000  0.85733000  1.0 0.1295485715
H  H37  1  0.49380000  0.85810000  0.09964000  1.0 0.1295485715
H  H38  1  0.72040000  0.97000000  0.23143000  1.0 0.1120463351
H  H39  1  0.64140000  0.17210000  0.08284000  1.0 0.1196541546
H  H40  1  0.59310000  0.94520000  0.02363000  1.0 0.1196541546
H  H41  1  0.32720000  0.22910000  0.57449000  1.0 0.1120463351
H  H42  1  0.41860000  0.33460000  0.79949000  1.0 0.1196541546
H  H43  1  0.26560000  0.37930000  0.97579000  1.0 0.1295485715
H  H44  1  0.43990000  0.25400000  0.52399000  1.0 0.1295485715
H  H45  1  0.36430000  0.50620000  0.76629000  1.0 0.1295485715
H  H46  1  0.24960000  0.27960000  0.89809000  1.0 0.1120463351
H  H47  1  0.53070000  0.35860000  0.74949000  1.0 0.1120463351
H  H48  1  0.35210000  0.40690000  0.69029000  1.0 0.1120463351
H  H49  1  0.32720000  0.09810000  0.25883000  1.0 0.1120463351
H  H50  1  0.41860000  0.08400000  0.03383000  1.0 0.1196541546
H  H51  1  0.26560000  0.88630000  0.85753000  1.0 0.1196541546
H  H52  1  0.43990000  0.18590000  0.30934000  1.0 0.1196541546
H  H53  1  0.36430000  0.85810000  0.06703000  1.0 0.1196541546
H  H54  1  0.24960000  0.97000000  0.93523000  1.0 0.1120463351
H  H55  1  0.53070000  0.17210000  0.08383000  1.0 0.1120463351
H  H56  1  0.35210000  0.94520000  0.14303000  1.0 0.1120463351
H  H57  1  0.90190000  0.22910000  0.59217000  1.0 0.1120463351
H  H58  1  0.91600000  0.33460000  0.36717000  1.0 0.1196541546
H  H59  1  0.11370000  0.37930000  0.19087000  1.0 0.1295485715
H  H60  1  0.81410000  0.25400000  0.64267000  1.0 0.1295485715
H  H61  1  0.14190000  0.50620000  0.40036000  1.0 0.1295485715
H  H62  1  0.03000000  0.27960000  0.26856000  1.0 0.1120463351
H  H63  1  0.82790000  0.35860000  0.41717000  1.0 0.1196541546
H  H64  1  0.05480000  0.40690000  0.47636000  1.0 0.1196541546
H  H65  1  0.77090000  0.67280000  0.92551000  1.0 0.1120463351
H  H66  1  0.66540000  0.58140000  0.70050000  1.0 0.1196541546
H  H67  1  0.62070000  0.73440000  0.52421000  1.0 0.1295485715
H  H68  1  0.74600000  0.56010000  0.97601000  1.0 0.1295485715
H  H69  1  0.49380000  0.63570000  0.73370000  1.0 0.1295485715
H  H70  1  0.72040000  0.75040000  0.60190000  1.0 0.1120463351
H  H71  1  0.64140000  0.46930000  0.75050000  1.0 0.1120463351
H  H72  1  0.59310000  0.64790000  0.80970000  1.0 0.1120463351
H  H73  1  0.67280000  0.90190000  0.75884000  1.0 0.1120463351
H  H74  1  0.58140000  0.91600000  0.53383000  1.0 0.1196541546
H  H75  1  0.73440000  0.11370000  0.35753000  1.0 0.1196541546
H  H76  1  0.56010000  0.81410000  0.80934000  1.0 0.1196541546
H  H77  1  0.63570000  0.14190000  0.56703000  1.0 0.1196541546
H  H78  1  0.75040000  0.03000000  0.43523000  1.0 0.1120463351
H  H79  1  0.46930000  0.82790000  0.58383000  1.0 0.1120463351
H  H80  1  0.64790000  0.05480000  0.64303000  1.0 0.1120463351
H  H81  1  0.09810000  0.77090000  0.09216000  1.0 0.1120463351
H  H82  1  0.08400000  0.66540000  0.86716000  1.0 0.1196541546
H  H83  1  0.88630000  0.62070000  0.69086000  1.0 0.1295485715
H  H84  1  0.18590000  0.74600000  0.14266000  1.0 0.1295485715
H  H85  1  0.85810000  0.49380000  0.90036000  1.0 0.1295485715
H  H86  1  0.97000000  0.72040000  0.76857000  1.0 0.1120463351
H  H87  1  0.17210000  0.64140000  0.91717000  1.0 0.1196541546
H  H88  1  0.94520000  0.59310000  0.97636000  1.0 0.1196541546
H  H89  1  0.22910000  0.32720000  0.42550000  1.0 0.1120463351
H  H90  1  0.33460000  0.41860000  0.20050000  1.0 0.1196541546
H  H91  1  0.37930000  0.26560000  0.02421000  1.0 0.1295485715
H  H92  1  0.25400000  0.43990000  0.47601000  1.0 0.1295485715
H  H93  1  0.50620000  0.36430000  0.23370000  1.0 0.1295485715
H  H94  1  0.27960000  0.24960000  0.10190000  1.0 0.1120463351
H  H95  1  0.35860000  0.53070000  0.25050000  1.0 0.1120463351
H  H96  1  0.40690000  0.35210000  0.30970000  1.0 0.1120463351
C  C1  1  0.80481000  0.32057000  0.09546000  1.0 0.5729825715
C  C2  1  0.11200000  0.36800000  0.77606000  1.0 -0.1490600525
C  C3  1  0.10380000  0.42270000  0.91026000  1.0 -0.1390191727
C  C4  1  0.02070000  0.28810000  0.89546000  1.0 -0.2893492833
C  C5  1  0.24080000  0.57022000  0.76266000  1.0 0.5917987446
C  C6  1  0.89740000  0.28220000  0.08457000  1.0 -0.0922094663
C  C7  1  0.16500000  0.43581000  0.74587000  1.0 -0.0966518709
C  C8  1  0.18720000  0.49729000  0.79706000  1.0 -0.0315430863
C  C9  1  0.86295000  0.31590000  0.04596000  1.0 -0.0315430863
C  C10  1  0.96600000  0.29830000  0.95186000  1.0 0.0732787607
C  C11  1  0.07970000  0.36100000  0.85796000  1.0 0.0775159276
C  C12  1  0.97610000  0.23310000  0.82266000  1.0 0.652759703
C  C13  1  0.88080000  0.34170000  0.95966000  1.0 -0.0966518709
C  C14  1  0.94790000  0.27300000  0.03816000  1.0 -0.1571447184
C  C15  1  0.06060000  0.25690000  0.94896000  1.0 0.6586602896
C  C16  1  0.15677000  0.49010000  0.88036000  1.0 -0.1294542432
C  C17  1  0.93260000  0.33360000  0.91397000  1.0 -0.1490600525
C  C18  1  0.51576000  0.19519000  0.76213000  1.0 0.5513376812
C  C19  1  0.25600000  0.88800000  0.44273000  1.0 -0.1490600525
C  C20  1  0.31890000  0.89620000  0.57693000  1.0 -0.1294542432
C  C21  1  0.26740000  0.97930000  0.56214000  1.0 -0.2893492833
C  C22  1  0.32942000  0.75920000  0.42933000  1.0 0.556621715
C  C23  1  0.38480000  0.10260000  0.75123000  1.0 -0.0966518709
C  C24  1  0.27081000  0.83500000  0.41253000  1.0 -0.0922094663
C  C25  1  0.31009000  0.81280000  0.46373000  1.0 -0.0140420641
C  C26  1  0.45295000  0.13705000  0.71264000  1.0 -0.0181079815
C  C27  1  0.33230000  0.03400000  0.61853000  1.0 0.0732787607
C  C28  1  0.28130000  0.92030000  0.52463000  1.0 0.0775159276
C  C29  1  0.25700000  0.02390000  0.48933000  1.0 0.652759703
C  C30  1  0.46090000  0.11920000  0.62633000  1.0 -0.0966518709
C  C31  1  0.32510000  0.05210000  0.70483000  1.0 -0.1490600525
C  C32  1  0.19630000  0.93940000  0.61564000  1.0 0.6586602896
C  C33  1  0.33333333  0.84320000  0.54703000  1.0 -0.1051607808
C  C34  1  0.40100000  0.06740000  0.58064000  1.0 -0.1490600525
C  C35  1  0.67943000  0.48424000  0.42879000  1.0 0.556621715
C  C36  1  0.63200000  0.74400000  0.10939000  1.0 -0.1490600525
C  C37  1  0.57730000  0.68110000  0.24360000  1.0 -0.1390191727
C  C38  1  0.71190000  0.73260000  0.22879000  1.0 -0.2893492833
C  C39  1  0.42978000  0.67058000  0.09599000  1.0 0.5513376812
C  C40  1  0.71780000  0.61520000  0.41790000  1.0 -0.0966518709
C  C41  1  0.56419000  0.72919000  0.07920000  1.0 -0.0922094663
C  C42  1  0.50271000  0.68991000  0.13040000  1.0 -0.0181079815
C  C43  1  0.68410000  0.54705000  0.37929000  1.0 -0.0181079815
C  C44  1  0.70170000  0.66770000  0.28519000  1.0 0.0732787607
C  C45  1  0.63900000  0.71870000  0.19129000  1.0 0.0775159276
C  C46  1  0.76690000  0.74300000  0.15599000  1.0 0.652759703
C  C47  1  0.65830000  0.53910000  0.29300000  1.0 -0.0966518709
C  C48  1  0.72700000  0.67490000  0.37150000  1.0 -0.1490600525
C  C49  1  0.74310000  0.80370000  0.28229000  1.0 0.6586602896
C  C50  1  0.50990000  0.66666667  0.21369000  1.0 -0.1294542432
C  C51  1  0.66640000  0.59900000  0.24729000  1.0 -0.1490600525
C  C52  1  0.19519000  0.67943000  0.59546000  1.0 0.5729825715
C  C53  1  0.88800000  0.63200000  0.27606000  1.0 -0.1490600525
C  C54  1  0.89620000  0.57730000  0.41026000  1.0 -0.1390191727
C  C55  1  0.97930000  0.71190000  0.39547000  1.0 -0.2893492833
C  C56  1  0.75920000  0.42978000  0.26266000  1.0 0.5917987446
C  C57  1  0.10260000  0.71780000  0.58457000  1.0 -0.0922094663
C  C58  1  0.83500000  0.56419000  0.24587000  1.0 -0.0966518709
C  C59  1  0.81280000  0.50271000  0.29706000  1.0 -0.0315430863
C  C60  1  0.13705000  0.68410000  0.54597000  1.0 -0.0315430863
C  C61  1  0.03400000  0.70170000  0.45186000  1.0 0.0732787607
C  C62  1  0.92030000  0.63900000  0.35796000  1.0 0.0775159276
C  C63  1  0.02390000  0.76690000  0.32266000  1.0 0.652759703
C  C64  1  0.11920000  0.65830000  0.45966000  1.0 -0.0966518709
C  C65  1  0.05210000  0.72700000  0.53817000  1.0 -0.1571447184
C  C66  1  0.93940000  0.74310000  0.44896000  1.0 0.6586602896
C  C67  1  0.84323000  0.50990000  0.38037000  1.0 -0.1294542432
C  C68  1  0.06740000  0.66640000  0.41396000  1.0 -0.1490600525
C  C69  1  0.48424000  0.80481000  0.26214000  1.0 0.5513376812
C  C70  1  0.74400000  0.11200000  0.94273000  1.0 -0.1490600525
C  C71  1  0.68110000  0.10380000  0.07693000  1.0 -0.1294542432
C  C72  1  0.73260000  0.02070000  0.06213000  1.0 -0.2893492833
C  C73  1  0.67058000  0.24080000  0.92933000  1.0 0.556621715
C  C74  1  0.61520000  0.89740000  0.25123000  1.0 -0.0966518709
C  C75  1  0.72919000  0.16500000  0.91253000  1.0 -0.0922094663
C  C76  1  0.68991000  0.18720000  0.96373000  1.0 -0.0140420641
C  C77  1  0.54705000  0.86295000  0.21263000  1.0 -0.0181079815
C  C78  1  0.66770000  0.96600000  0.11854000  1.0 0.0732787607
C  C79  1  0.71870000  0.07970000  0.02463000  1.0 0.0775159276
C  C80  1  0.74300000  0.97610000  0.98933000  1.0 0.652759703
C  C81  1  0.53910000  0.88080000  0.12634000  1.0 -0.0966518709
C  C82  1  0.67490000  0.94790000  0.20483000  1.0 -0.1490600525
C  C83  1  0.80370000  0.06060000  0.11563000  1.0 0.6586602896
C  C84  1  0.66666667  0.15680000  0.04703000  1.0 -0.1051607808
C  C85  1  0.59900000  0.93260000  0.08063000  1.0 -0.1490600525
C  C86  1  0.32057000  0.51576000  0.92880000  1.0 0.556621715
C  C87  1  0.36800000  0.25600000  0.60939000  1.0 -0.1490600525
C  C88  1  0.42270000  0.31890000  0.74360000  1.0 -0.1390191727
C  C89  1  0.28810000  0.26740000  0.72879000  1.0 -0.2893492833
C  C90  1  0.57022000  0.32942000  0.59599000  1.0 0.5513376812
C  C91  1  0.28220000  0.38480000  0.91790000  1.0 -0.0966518709
C  C92  1  0.43581000  0.27081000  0.57920000  1.0 -0.0922094663
C  C93  1  0.49729000  0.31009000  0.63039000  1.0 -0.0181079815
C  C94  1  0.31590000  0.45295000  0.87929000  1.0 -0.0181079815
C  C95  1  0.29830000  0.33230000  0.78519000  1.0 0.0732787607
C  C96  1  0.36100000  0.28130000  0.69129000  1.0 0.0775159276
C  C97  1  0.23310000  0.25700000  0.65599000  1.0 0.652759703
C  C98  1  0.34170000  0.46090000  0.79300000  1.0 -0.0966518709
C  C99  1  0.27300000  0.32510000  0.87150000  1.0 -0.1490600525
C  C100  1  0.25690000  0.19630000  0.78229000  1.0 0.6586602896
C  C101  1  0.49010000  0.33333333  0.71369000  1.0 -0.1294542432
C  C102  1  0.33360000  0.40100000  0.74730000  1.0 -0.1490600525
C  C103  1  0.32057000  0.80481000  0.90453000  1.0 0.5729825715
C  C104  1  0.36800000  0.11200000  0.22393000  1.0 -0.1490600525
C  C105  1  0.42270000  0.10380000  0.08973000  1.0 -0.1390191727
C  C106  1  0.28810000  0.02070000  0.10454000  1.0 -0.2893492833
C  C107  1  0.57022000  0.24080000  0.23733000  1.0 0.5917987446
C  C108  1  0.28220000  0.89740000  0.91543000  1.0 -0.0922094663
C  C109  1  0.43581000  0.16500000  0.25413000  1.0 -0.0966518709
C  C110  1  0.49729000  0.18720000  0.20293000  1.0 -0.0315430863
C  C111  1  0.31590000  0.86295000  0.95403000  1.0 -0.0315430863
C  C112  1  0.29830000  0.96600000  0.04813000  1.0 0.0732787607
C  C113  1  0.36100000  0.07970000  0.14203000  1.0 0.0775159276
C  C114  1  0.23310000  0.97610000  0.17733000  1.0 0.652759703
C  C115  1  0.34170000  0.88080000  0.04033000  1.0 -0.0966518709
C  C116  1  0.27300000  0.94790000  0.96183000  1.0 -0.1571447184
C  C117  1  0.25690000  0.06060000  0.05103000  1.0 0.6586602896
C  C118  1  0.49010000  0.15677000  0.11964000  1.0 -0.1294542432
C  C119  1  0.33360000  0.93260000  0.08604000  1.0 -0.1490600525
C  C120  1  0.19519000  0.51576000  0.23786000  1.0 0.5513376812
C  C121  1  0.88800000  0.25600000  0.55727000  1.0 -0.1490600525
C  C122  1  0.89620000  0.31890000  0.42307000  1.0 -0.1294542432
C  C123  1  0.97930000  0.26740000  0.43786000  1.0 -0.2893492833
C  C124  1  0.75920000  0.32942000  0.57066000  1.0 0.556621715
C  C125  1  0.10260000  0.38480000  0.24876000  1.0 -0.0966518709
C  C126  1  0.83500000  0.27081000  0.58746000  1.0 -0.0922094663
C  C127  1  0.81280000  0.31009000  0.53626000  1.0 -0.0140420641
C  C128  1  0.13705000  0.45295000  0.28736000  1.0 -0.0181079815
C  C129  1  0.03400000  0.33230000  0.38146000  1.0 0.0732787607
C  C130  1  0.92030000  0.28130000  0.47536000  1.0 0.0775159276
C  C131  1  0.02390000  0.25700000  0.51067000  1.0 0.652759703
C  C132  1  0.11920000  0.46090000  0.37367000  1.0 -0.0966518709
C  C133  1  0.05210000  0.32510000  0.29517000  1.0 -0.1490600525
C  C134  1  0.93940000  0.19630000  0.38437000  1.0 0.6586602896
C  C135  1  0.84320000  0.33333333  0.45297000  1.0 -0.1051607808
C  C136  1  0.06740000  0.40100000  0.41936000  1.0 -0.1490600525
C  C137  1  0.48424000  0.67943000  0.57120000  1.0 0.556621715
C  C138  1  0.74400000  0.63200000  0.89060000  1.0 -0.1490600525
C  C139  1  0.68110000  0.57730000  0.75640000  1.0 -0.1390191727
C  C140  1  0.73260000  0.71190000  0.77121000  1.0 -0.2893492833
C  C141  1  0.67058000  0.42978000  0.90400000  1.0 0.5513376812
C  C142  1  0.61520000  0.71780000  0.58210000  1.0 -0.0966518709
C  C143  1  0.72919000  0.56419000  0.92080000  1.0 -0.0922094663
C  C144  1  0.68991000  0.50271000  0.86960000  1.0 -0.0181079815
C  C145  1  0.54705000  0.68410000  0.62070000  1.0 -0.0181079815
C  C146  1  0.66770000  0.70170000  0.71480000  1.0 0.0732787607
C  C147  1  0.71870000  0.63900000  0.80871000  1.0 0.0775159276
C  C148  1  0.74300000  0.76690000  0.84401000  1.0 0.652759703
C  C149  1  0.53910000  0.65830000  0.70700000  1.0 -0.0966518709
C  C150  1  0.67490000  0.72700000  0.62850000  1.0 -0.1490600525
C  C151  1  0.80370000  0.74310000  0.71771000  1.0 0.6586602896
C  C152  1  0.66666667  0.50990000  0.78631000  1.0 -0.1294542432
C  C153  1  0.59900000  0.66640000  0.75270000  1.0 -0.1490600525
C  C154  1  0.67943000  0.19519000  0.40453000  1.0 0.5729825715
C  C155  1  0.63200000  0.88800000  0.72393000  1.0 -0.1490600525
C  C156  1  0.57730000  0.89620000  0.58973000  1.0 -0.1390191727
C  C157  1  0.71190000  0.97930000  0.60454000  1.0 -0.2893492833
C  C158  1  0.42978000  0.75920000  0.73733000  1.0 0.5917987446
C  C159  1  0.71780000  0.10260000  0.41543000  1.0 -0.0922094663
C  C160  1  0.56419000  0.83500000  0.75413000  1.0 -0.0966518709
C  C161  1  0.50271000  0.81280000  0.70293000  1.0 -0.0315430863
C  C162  1  0.68410000  0.13705000  0.45403000  1.0 -0.0315430863
C  C163  1  0.70170000  0.03400000  0.54813000  1.0 0.0732787607
C  C164  1  0.63900000  0.92030000  0.64204000  1.0 0.0775159276
C  C165  1  0.76690000  0.02390000  0.67734000  1.0 0.652759703
C  C166  1  0.65830000  0.11920000  0.54033000  1.0 -0.0966518709
C  C167  1  0.72700000  0.05210000  0.46183000  1.0 -0.1571447184
C  C168  1  0.74310000  0.93940000  0.55104000  1.0 0.6586602896
C  C169  1  0.50990000  0.84323000  0.61964000  1.0 -0.1294542432
C  C170  1  0.66640000  0.06740000  0.58603000  1.0 -0.1490600525
C  C171  1  0.80481000  0.48424000  0.73786000  1.0 0.5513376812
C  C172  1  0.11200000  0.74400000  0.05727000  1.0 -0.1490600525
C  C173  1  0.10380000  0.68110000  0.92306000  1.0 -0.1294542432
C  C174  1  0.02070000  0.73260000  0.93786000  1.0 -0.2893492833
C  C175  1  0.24080000  0.67058000  0.07066000  1.0 0.556621715
C  C176  1  0.89740000  0.61520000  0.74876000  1.0 -0.0966518709
C  C177  1  0.16500000  0.72919000  0.08746000  1.0 -0.0922094663
C  C178  1  0.18720000  0.68991000  0.03626000  1.0 -0.0140420641
C  C179  1  0.86295000  0.54705000  0.78736000  1.0 -0.0181079815
C  C180  1  0.96600000  0.66770000  0.88147000  1.0 0.0732787607
C  C181  1  0.07970000  0.71870000  0.97537000  1.0 0.0775159276
C  C182  1  0.97610000  0.74300000  0.01066000  1.0 0.652759703
C  C183  1  0.88080000  0.53910000  0.87366000  1.0 -0.0966518709
C  C184  1  0.94790000  0.67490000  0.79516000  1.0 -0.1490600525
C  C185  1  0.06060000  0.80370000  0.88436000  1.0 0.6586602896
C  C186  1  0.15680000  0.66666667  0.95296000  1.0 -0.1051607808
C  C187  1  0.93260000  0.59900000  0.91936000  1.0 -0.1490600525
C  C188  1  0.51576000  0.32057000  0.07121000  1.0 0.556621715
C  C189  1  0.25600000  0.36800000  0.39060000  1.0 -0.1490600525
C  C190  1  0.31890000  0.42270000  0.25640000  1.0 -0.1390191727
C  C191  1  0.26740000  0.28810000  0.27120000  1.0 -0.2893492833
C  C192  1  0.32942000  0.57022000  0.40400000  1.0 0.5513376812
C  C193  1  0.38480000  0.28220000  0.08210000  1.0 -0.0966518709
C  C194  1  0.27081000  0.43581000  0.42080000  1.0 -0.0922094663
C  C195  1  0.31009000  0.49729000  0.36960000  1.0 -0.0181079815
C  C196  1  0.45295000  0.31590000  0.12071000  1.0 -0.0181079815
C  C197  1  0.33230000  0.29830000  0.21480000  1.0 0.0732787607
C  C198  1  0.28130000  0.36100000  0.30871000  1.0 0.0775159276
C  C199  1  0.25700000  0.23310000  0.34400000  1.0 0.652759703
C  C200  1  0.46090000  0.34170000  0.20700000  1.0 -0.0966518709
C  C201  1  0.32510000  0.27300000  0.12851000  1.0 -0.1490600525
C  C202  1  0.19630000  0.25690000  0.21770000  1.0 0.6586602896
C  C203  1  0.33333333  0.49010000  0.28630000  1.0 -0.1294542432
C  C204  1  0.40100000  0.33360000  0.25271000  1.0 -0.1390191727
O  O1  1  0.26699000  0.57530000  0.68797000  1.0 -0.5308782836
O  O2  1  0.25604000  0.62526000  0.81225000  1.0 -0.5950521608
O  O3  1  0.76918000  0.34466000  0.05771000  1.0 -0.5554710408
O  O4  1  0.79479000  0.29831000  0.17461000  1.0 -0.5407494684
O  O5  1  0.30831000  0.73301000  0.35463000  1.0 -0.5308782836
O  O6  1  0.36922000  0.74396000  0.47892000  1.0 -0.6733174329
O  O7  1  0.57548000  0.23082000  0.72438000  1.0 -0.5407494684
O  O8  1  0.50352000  0.20521000  0.84127000  1.0 -0.6301173647
O  O9  1  0.42470000  0.69169000  0.02130000  1.0 -0.5308782836
O  O10  1  0.37474000  0.63078000  0.14558000  1.0 -0.6733174329
O  O11  1  0.65534000  0.42452000  0.39104000  1.0 -0.5516218154
O  O12  1  0.70169000  0.49648000  0.50794000  1.0 -0.6301173647
O  O13  1  0.73301000  0.42470000  0.18796000  1.0 -0.5308782836
O  O14  1  0.74396000  0.37474000  0.31225000  1.0 -0.5940643926
O  O15  1  0.23082000  0.65534000  0.55771000  1.0 -0.5516218154
O  O16  1  0.20521000  0.70169000  0.67460000  1.0 -0.5407494684
O  O17  1  0.69169000  0.26699000  0.85464000  1.0 -0.5308782836
O  O18  1  0.63078000  0.25604000  0.97893000  1.0 -0.6733174329
O  O19  1  0.42452000  0.76918000  0.22439000  1.0 -0.5407494684
O  O20  1  0.49648000  0.79479000  0.34127000  1.0 -0.6301173647
O  O21  1  0.57530000  0.30831000  0.52129000  1.0 -0.5308782836
O  O22  1  0.62526000  0.36922000  0.64558000  1.0 -0.6733174329
O  O23  1  0.34466000  0.57548000  0.89104000  1.0 -0.5516218154
O  O24  1  0.29831000  0.50352000  0.00793000  1.0 -0.6301173647
O  O25  1  0.57530000  0.26699000  0.31203000  1.0 -0.5308782836
O  O26  1  0.62526000  0.25604000  0.18774000  1.0 -0.5940643926
O  O27  1  0.34466000  0.76918000  0.94228000  1.0 -0.5516218154
O  O28  1  0.29831000  0.79479000  0.82539000  1.0 -0.5407494684
O  O29  1  0.73301000  0.30831000  0.64536000  1.0 -0.5308782836
O  O30  1  0.74396000  0.36922000  0.52107000  1.0 -0.6733174329
O  O31  1  0.23082000  0.57548000  0.27561000  1.0 -0.5407494684
O  O32  1  0.20521000  0.50352000  0.15873000  1.0 -0.6301173647
O  O33  1  0.69169000  0.42470000  0.97870000  1.0 -0.5308782836
O  O34  1  0.63078000  0.37474000  0.85441000  1.0 -0.6733174329
O  O35  1  0.42452000  0.65534000  0.60895000  1.0 -0.5516218154
O  O36  1  0.49648000  0.70169000  0.49206000  1.0 -0.6301173647
O  O37  1  0.42470000  0.73301000  0.81203000  1.0 -0.5308782836
O  O38  1  0.37474000  0.74396000  0.68774000  1.0 -0.5950521608
O  O39  1  0.65534000  0.23082000  0.44228000  1.0 -0.5516218154
O  O40  1  0.70169000  0.20521000  0.32539000  1.0 -0.5407494684
O  O41  1  0.26699000  0.69169000  0.14536000  1.0 -0.5308782836
O  O42  1  0.25604000  0.63078000  0.02107000  1.0 -0.6733174329
O  O43  1  0.76918000  0.42452000  0.77562000  1.0 -0.5407494684
O  O44  1  0.79479000  0.49648000  0.65873000  1.0 -0.6301173647
O  O45  1  0.30831000  0.57530000  0.47870000  1.0 -0.5308782836
O  O46  1  0.36922000  0.62526000  0.35441000  1.0 -0.6733174329
O  O47  1  0.57548000  0.34466000  0.10895000  1.0 -0.5516218154
O  O48  1  0.50352000  0.29831000  0.99206000  1.0 -0.6301173647
F  F1  1  0.09416000  0.29813000  0.01876000  1.0 -0.1972898252
F  F2  1  0.01597000  0.18972000  0.97896000  1.0 -0.1972898252
F  F3  1  0.95301000  0.26208000  0.76206000  1.0 -0.1972898252
F  F4  1  0.01251000  0.20675000  0.77897000  1.0 -0.1972898252
F  F5  1  0.11110000  0.25373000  0.90046000  1.0 -0.1972898252
F  F6  1  0.91667000  0.17571000  0.85596000  1.0 -0.1972898252
F  F7  1  0.20397000  0.90584000  0.68544000  1.0 -0.1972898252
F  F8  1  0.17375000  0.98403000  0.64563000  1.0 -0.1972898252
F  F9  1  0.30907000  0.04699000  0.42873000  1.0 -0.1972898252
F  F10  1  0.19424000  0.98749000  0.44564000  1.0 -0.1972898252
F  F11  1  0.14263000  0.88890000  0.56713000  1.0 -0.1942914208
F  F12  1  0.25904000  0.08333000  0.52263000  1.0 -0.1972898252
F  F13  1  0.70187000  0.79603000  0.35209000  1.0 -0.1972898252
F  F14  1  0.81028000  0.82625000  0.31229000  1.0 -0.1972898252
F  F15  1  0.73792000  0.69093000  0.09539000  1.0 -0.1972898252
F  F16  1  0.79325000  0.80576000  0.11229000  1.0 -0.1972898252
F  F17  1  0.74627000  0.85737000  0.23379000  1.0 -0.1972898252
F  F18  1  0.82429000  0.74096000  0.18929000  1.0 -0.1972898252
F  F19  1  0.90584000  0.70187000  0.51876000  1.0 -0.1972898252
F  F20  1  0.98403000  0.81028000  0.47896000  1.0 -0.1972898252
F  F21  1  0.04699000  0.73792000  0.26206000  1.0 -0.1972898252
F  F22  1  0.98749000  0.79325000  0.27897000  1.0 -0.1972898252
F  F23  1  0.88890000  0.74627000  0.40046000  1.0 -0.1972898252
F  F24  1  0.08333000  0.82429000  0.35596000  1.0 -0.1972898252
F  F25  1  0.79603000  0.09416000  0.18543000  1.0 -0.1972898252
F  F26  1  0.82625000  0.01597000  0.14563000  1.0 -0.1972898252
F  F27  1  0.69093000  0.95301000  0.92873000  1.0 -0.1972898252
F  F28  1  0.80576000  0.01251000  0.94563000  1.0 -0.1972898252
F  F29  1  0.85737000  0.11110000  0.06714000  1.0 -0.1972898252
F  F30  1  0.74096000  0.91667000  0.02263000  1.0 -0.1972898252
F  F31  1  0.29813000  0.20397000  0.85210000  1.0 -0.1972898252
F  F32  1  0.18972000  0.17375000  0.81229000  1.0 -0.1972898252
F  F33  1  0.26208000  0.30907000  0.59540000  1.0 -0.1972898252
F  F34  1  0.20675000  0.19424000  0.61230000  1.0 -0.1972898252
F  F35  1  0.25373000  0.14263000  0.73379000  1.0 -0.1972898252
F  F36  1  0.17571000  0.25904000  0.68929000  1.0 -0.1972898252
F  F37  1  0.29813000  0.09416000  0.98123000  1.0 -0.1972898252
F  F38  1  0.18972000  0.01597000  0.02103000  1.0 -0.1972898252
F  F39  1  0.26208000  0.95301000  0.23794000  1.0 -0.1972898252
F  F40  1  0.20675000  0.01251000  0.22104000  1.0 -0.1972898252
F  F41  1  0.25373000  0.11110000  0.09953000  1.0 -0.1972898252
F  F42  1  0.17571000  0.91667000  0.14403000  1.0 -0.1972898252
F  F43  1  0.90584000  0.20397000  0.31456000  1.0 -0.1972898252
F  F44  1  0.98403000  0.17375000  0.35436000  1.0 -0.1972898252
F  F45  1  0.04699000  0.30907000  0.57126000  1.0 -0.1972898252
F  F46  1  0.98749000  0.19424000  0.55436000  1.0 -0.1972898252
F  F47  1  0.88890000  0.14263000  0.43286000  1.0 -0.1942914208
F  F48  1  0.08333000  0.25904000  0.47736000  1.0 -0.1972898252
F  F49  1  0.79603000  0.70187000  0.64790000  1.0 -0.1972898252
F  F50  1  0.82625000  0.81028000  0.68771000  1.0 -0.1972898252
F  F51  1  0.69093000  0.73792000  0.90460000  1.0 -0.1972898252
F  F52  1  0.80576000  0.79325000  0.88770000  1.0 -0.1972898252
F  F53  1  0.85737000  0.74627000  0.76621000  1.0 -0.1972898252
F  F54  1  0.74096000  0.82429000  0.81071000  1.0 -0.1972898252
F  F55  1  0.70187000  0.90584000  0.48123000  1.0 -0.1972898252
F  F56  1  0.81028000  0.98403000  0.52104000  1.0 -0.1972898252
F  F57  1  0.73792000  0.04699000  0.73793000  1.0 -0.1972898252
F  F58  1  0.79325000  0.98749000  0.72103000  1.0 -0.1972898252
F  F59  1  0.74627000  0.88890000  0.59954000  1.0 -0.1972898252
F  F60  1  0.82429000  0.08333000  0.64404000  1.0 -0.1972898252
F  F61  1  0.09416000  0.79603000  0.81456000  1.0 -0.1972898252
F  F62  1  0.01597000  0.82625000  0.85437000  1.0 -0.1972898252
F  F63  1  0.95301000  0.69093000  0.07126000  1.0 -0.1972898252
F  F64  1  0.01251000  0.80576000  0.05436000  1.0 -0.1972898252
F  F65  1  0.11110000  0.85737000  0.93287000  1.0 -0.1972898252
F  F66  1  0.91667000  0.74096000  0.97736000  1.0 -0.1972898252
F  F67  1  0.20397000  0.29813000  0.14790000  1.0 -0.1972898252
F  F68  1  0.17375000  0.18972000  0.18771000  1.0 -0.1972898252
F  F69  1  0.30907000  0.26208000  0.40460000  1.0 -0.1972898252
F  F70  1  0.19424000  0.20675000  0.38771000  1.0 -0.1972898252
F  F71  1  0.14263000  0.25373000  0.26620000  1.0 -0.1972898252
F  F72  1  0.25904000  0.17571000  0.31071000  1.0 -0.1972898252
