# DDEC6 charges by PACMAN v1.1 (https://github.com/mtap-research/PACMAN-charge/)
data_XEGTUB_FSR_pacman
_chemical_formula_sum              "O48 F72 C204 H96 Co6 Ca6"
_cell_length_a       21.2593
_cell_length_b       21.2593
_cell_length_c       15.6553
_cell_angle_alpha    90
_cell_angle_beta     90
_cell_angle_gamma    120

_symmetry_space_group_name_H-M    "P 1"
_symmetry_Int_Tables_number       1

loop_
  _symmetry_equiv_pos_as_xyz
  'x, y, z'

loop_
  _atom_site_type_symbol
  _atom_site_label
  _atom_site_symmetry_multiplicity
  _atom_site_fract_x
  _atom_site_fract_y
  _atom_site_fract_z
  _atom_site_occupancy
 _atom_site_charge
O   O1        1.0  0.62711  0.25269  0.35515  1.0000 -0.6500021592
O   O2        1.0  0.29390  0.79910  0.98680  1.0000 -0.5327428455
O   O3        1.0  0.33890  0.77170  0.09930  1.0000 -0.6360121444
F   F1        1.0  0.18720  0.01640  0.19680  1.0000 -0.1898412057
F   F2        1.0  0.29510  0.09660  0.15930  1.0000 -0.1898412057
C   C1        1.0  0.49800  0.18320  0.36730  1.0000 -0.0333161068
C   C2        1.0  0.28720  0.01920  0.27200  1.0000 -0.2802292333
C   C3        1.0  0.36910  0.10690  0.38870  1.0000 -0.1509491419
H   H1        1.0  0.32850  0.09150  0.42340  1.0000 0.1184647448
C   C4        1.0  0.33200  0.93210  0.24450  1.0000 -0.1437194062
H   H2        1.0  0.35120  0.94280  0.29940  1.0000 0.1184647448
C   C5        1.0  0.42240  0.10320  0.25720  1.0000 -0.1258146465
H   H3        1.0  0.41790  0.08500  0.20210  1.0000 0.1268178696
F   F3        1.0  0.26410  0.94740  0.39800  1.0000 -0.1898412057
C   C6        1.0  0.48950  0.15520  0.28630  1.0000 -0.088535628
H   H4        1.0  0.52980  0.17160  0.25070  1.0000 0.1184647448
C   C7        1.0  0.27100  0.95170  0.13020  1.0000 -0.155462645
H   H5        1.0  0.24750  0.97480  0.10740  1.0000 0.1184647448
C   C8        1.0  0.31570  0.80860  0.06330  1.0000 0.6019402369
F   F4        1.0  0.20710  0.00670  0.38760  1.0000 -0.1898412057
C   C9        1.0  0.27930  0.90230  0.08040  1.0000 -0.088535628
H   H6        1.0  0.26250  0.89350  0.02440  1.0000 0.1268178696
C   C10       1.0  0.43680  0.15950  0.41810  1.0000 -0.0842820015
H   H7        1.0  0.44110  0.17910  0.47240  1.0000 0.1268178696
C   C11       1.0  0.31230  0.86630  0.11360  1.0000 -0.0333161068
C   C12       1.0  0.23370  0.97130  0.34270  1.0000 0.6626270389
F   F5        1.0  0.25170  0.10930  0.27570  1.0000 -0.1898412057
C   C13       1.0  0.29670  0.96710  0.21210  1.0000 0.0740215704
C   C14       1.0  0.57080  0.23660  0.40180  1.0000 0.6274768337
C   C15       1.0  0.33910  0.88150  0.19610  1.0000 -0.088535628
H   H8        1.0  0.36190  0.85770  0.21900  1.0000 0.1268178696
F   F6        1.0  0.17620  0.91390  0.30880  1.0000 -0.1898412057
C   C16       1.0  0.25470  0.05960  0.22630  1.0000 0.6626270389
O   O4        1.0  0.57518  0.26350  0.47350  1.0000 -0.6090214327
C   C17       1.0  0.36150  0.07730  0.30850  1.0000 0.0820771927
O   O5        1.0  0.74731  0.37442  0.68848  1.0000 -0.6500021592
O   O6        1.0  0.20090  0.49480  0.32013  1.0000 -0.5327428455
O   O7        1.0  0.22830  0.56720  0.43263  1.0000 -0.6360121444
F   F7        1.0  0.98360  0.17080  0.53013  1.0000 -0.1898412057
F   F8        1.0  0.90340  0.19850  0.49263  1.0000 -0.1898412057
C   C18       1.0  0.81680  0.31480  0.70063  1.0000 -0.0333161068
C   C19       1.0  0.98080  0.26800  0.60533  1.0000 -0.2802292333
C   C20       1.0  0.89310  0.26220  0.72203  1.0000 -0.1509491419
H   H9        1.0  0.90850  0.23700  0.75673  1.0000 0.1184647448
C   C21       1.0  0.06790  0.39990  0.57783  1.0000 -0.1437194062
H   H10       1.0  0.05720  0.40840  0.63273  1.0000 0.1184647448
C   C22       1.0  0.89680  0.31920  0.59053  1.0000 -0.1258146465
H   H11       1.0  0.91500  0.33290  0.53543  1.0000 0.1268178696
F   F9        1.0  0.05260  0.31670  0.73133  1.0000 -0.1898412057
C   C23       1.0  0.84480  0.33430  0.61963  1.0000 -0.088535628
H   H12       1.0  0.82840  0.35820  0.58403  1.0000 0.1184647448
C   C24       1.0  0.04830  0.31930  0.46353  1.0000 -0.155462645
H   H13       1.0  0.02520  0.27270  0.44073  1.0000 0.1184647448
C   C25       1.0  0.19140  0.50710  0.39663  1.0000 0.6019402369
F   F10       1.0  0.99330  0.20040  0.72093  1.0000 -0.1898412057
C   C26       1.0  0.09770  0.37700  0.41373  1.0000 -0.088535628
H   H14       1.0  0.10650  0.36900  0.35773  1.0000 0.1268178696
C   C27       1.0  0.84050  0.27730  0.75143  1.0000 -0.0842820015
H   H15       1.0  0.82090  0.26200  0.80573  1.0000 0.1268178696
C   C28       1.0  0.13370  0.44600  0.44693  1.0000 -0.0333161068
C   C29       1.0  0.02870  0.26240  0.67603  1.0000 0.6626270389
F   F11       1.0  0.89070  0.14240  0.60903  1.0000 -0.1898412057
C   C30       1.0  0.03290  0.32960  0.54543  1.0000 0.0740215704
C   C31       1.0  0.76340  0.33420  0.73513  1.0000 0.6274768337
C   C32       1.0  0.11850  0.45760  0.52943  1.0000 -0.088535628
H   H16       1.0  0.14230  0.50420  0.55233  1.0000 0.1268178696
F   F12       1.0  0.08610  0.26230  0.64213  1.0000 -0.1898412057
C   C33       1.0  0.94040  0.19510  0.55963  1.0000 0.6626270389
O   O8        1.0  0.73650  0.31168  0.80683  1.0000 -0.6090214327
C   C34       1.0  0.92270  0.28420  0.64183  1.0000 0.0820771927
O   O9        1.0  0.62558  0.37289  0.02182  1.0000 -0.6500021592
O   O10       1.0  0.50520  0.70610  0.65347  1.0000 -0.5327428455
O   O11       1.0  0.43280  0.66110  0.76597  1.0000 -0.6360121444
F   F13       1.0  0.82920  0.81280  0.86347  1.0000 -0.1898412057
F   F14       1.0  0.80150  0.70490  0.82597  1.0000 -0.1898412057
C   C35       1.0  0.68520  0.50200  0.03397  1.0000 -0.0333161068
C   C36       1.0  0.73200  0.71280  0.93867  1.0000 -0.2802292333
C   C37       1.0  0.73780  0.63090  0.05537  1.0000 -0.1509491419
H   H17       1.0  0.76300  0.67150  0.09007  1.0000 0.1184647448
C   C38       1.0  0.60010  0.66800  0.91117  1.0000 -0.1437194062
H   H18       1.0  0.59160  0.64880  0.96607  1.0000 0.1184647448
C   C39       1.0  0.68080  0.57760  0.92387  1.0000 -0.1258146465
H   H19       1.0  0.66710  0.58210  0.86877  1.0000 0.1268178696
F   F15       1.0  0.68330  0.73590  0.06467  1.0000 -0.1898412057
C   C40       1.0  0.66570  0.51050  0.95297  1.0000 -0.088535628
H   H20       1.0  0.64180  0.47020  0.91737  1.0000 0.1184647448
C   C41       1.0  0.68070  0.72900  0.79687  1.0000 -0.155462645
H   H21       1.0  0.72730  0.75250  0.77407  1.0000 0.1184647448
C   C42       1.0  0.49290  0.68430  0.72997  1.0000 0.6019402369
F   F16       1.0  0.79960  0.79290  0.05427  1.0000 -0.1898412057
C   C43       1.0  0.62300  0.72070  0.74707  1.0000 -0.088535628
H   H22       1.0  0.63100  0.73750  0.69107  1.0000 0.1268178696
C   C44       1.0  0.72270  0.56320  0.08477  1.0000 -0.0842820015
H   H23       1.0  0.73800  0.55890  0.13907  1.0000 0.1268178696
C   C45       1.0  0.55400  0.68770  0.78027  1.0000 -0.0333161068
C   C46       1.0  0.73760  0.76630  0.00937  1.0000 0.6626270389
F   F17       1.0  0.85760  0.74830  0.94237  1.0000 -0.1898412057
C   C47       1.0  0.67040  0.70330  0.87877  1.0000 0.0740215704
C   C48       1.0  0.66580  0.42920  0.06847  1.0000 0.6274768337
C   C49       1.0  0.54240  0.66090  0.86277  1.0000 -0.088535628
H   H24       1.0  0.49580  0.63810  0.88567  1.0000 0.1268178696
F   F18       1.0  0.73770  0.82380  0.97547  1.0000 -0.1898412057
C   C50       1.0  0.80490  0.74530  0.89297  1.0000 0.6626270389
O   O12       1.0  0.68832  0.42482  0.14017  1.0000 -0.6090214327
C   C51       1.0  0.71580  0.63850  0.97517  1.0000 0.0820771927
O   O13       1.0  0.37289  0.74731  0.85515  1.0000 -0.6500021592
O   O14       1.0  0.70610  0.20090  0.48680  1.0000 -0.5327428455
O   O15       1.0  0.66110  0.22830  0.59930  1.0000 -0.6360121444
F   F19       1.0  0.81280  0.98360  0.69680  1.0000 -0.1898412057
F   F20       1.0  0.70490  0.90340  0.65930  1.0000 -0.1898412057
C   C52       1.0  0.50200  0.81680  0.86730  1.0000 -0.0333161068
C   C53       1.0  0.71280  0.98080  0.77200  1.0000 -0.2802292333
C   C54       1.0  0.63090  0.89310  0.88870  1.0000 -0.1509491419
H   H25       1.0  0.67150  0.90850  0.92340  1.0000 0.1184647448
C   C55       1.0  0.66800  0.06790  0.74450  1.0000 -0.1437194062
H   H26       1.0  0.64880  0.05720  0.79940  1.0000 0.1184647448
C   C56       1.0  0.57760  0.89680  0.75720  1.0000 -0.1258146465
H   H27       1.0  0.58210  0.91500  0.70210  1.0000 0.1268178696
F   F21       1.0  0.73590  0.05260  0.89800  1.0000 -0.1898412057
C   C57       1.0  0.51050  0.84480  0.78630  1.0000 -0.088535628
H   H28       1.0  0.47020  0.82840  0.75070  1.0000 0.1184647448
C   C58       1.0  0.72900  0.04830  0.63020  1.0000 -0.1509491419
H   H29       1.0  0.75250  0.02520  0.60740  1.0000 0.1184647448
C   C59       1.0  0.68430  0.19140  0.56330  1.0000 0.6019402369
F   F22       1.0  0.79290  0.99330  0.88760  1.0000 -0.1898412057
C   C60       1.0  0.72070  0.09770  0.58040  1.0000 -0.088535628
H   H30       1.0  0.73750  0.10650  0.52440  1.0000 0.1268178696
C   C61       1.0  0.56320  0.84050  0.91810  1.0000 -0.0842820015
H   H31       1.0  0.55890  0.82090  0.97240  1.0000 0.1268178696
C   C62       1.0  0.68770  0.13370  0.61360  1.0000 -0.0333161068
C   C63       1.0  0.76630  0.02870  0.84270  1.0000 0.6626270389
F   F23       1.0  0.74830  0.89070  0.77570  1.0000 -0.1898412057
C   C64       1.0  0.70330  0.03290  0.71210  1.0000 0.0740215704
C   C65       1.0  0.42920  0.76340  0.90180  1.0000 0.6274768337
C   C66       1.0  0.66090  0.11850  0.69610  1.0000 -0.088535628
H   H32       1.0  0.63810  0.14230  0.71900  1.0000 0.1268178696
F   F24       1.0  0.82380  0.08610  0.80880  1.0000 -0.1898412057
C   C67       1.0  0.74530  0.94040  0.72630  1.0000 0.6626270389
O   O16       1.0  0.42482  0.73650  0.97350  1.0000 -0.6090214327
C   C68       1.0  0.63850  0.92270  0.80850  1.0000 0.0820771927
O   O17       1.0  0.25269  0.62558  0.18848  1.0000 -0.6500021592
O   O18       1.0  0.79910  0.50520  0.82013  1.0000 -0.5327428455
O   O19       1.0  0.77170  0.43280  0.93263  1.0000 -0.6360121444
F   F25       1.0  0.01640  0.82920  0.03013  1.0000 -0.1898412057
F   F26       1.0  0.09660  0.80150  0.99263  1.0000 -0.1898412057
C   C69       1.0  0.18320  0.68520  0.20063  1.0000 -0.0333161068
C   C70       1.0  0.01920  0.73200  0.10533  1.0000 -0.2802292333
C   C71       1.0  0.10690  0.73780  0.22203  1.0000 -0.1509491419
H   H33       1.0  0.09150  0.76300  0.25673  1.0000 0.1184647448
C   C72       1.0  0.93210  0.60010  0.07783  1.0000 -0.1437194062
H   H34       1.0  0.94280  0.59160  0.13273  1.0000 0.1184647448
C   C73       1.0  0.10320  0.68080  0.09053  1.0000 -0.1258146465
H   H35       1.0  0.08500  0.66710  0.03543  1.0000 0.1268178696
F   F27       1.0  0.94740  0.68330  0.23133  1.0000 -0.1898412057
C   C74       1.0  0.15520  0.66570  0.11963  1.0000 -0.088535628
H   H36       1.0  0.17160  0.64180  0.08403  1.0000 0.1184647448
C   C75       1.0  0.95170  0.68070  0.96353  1.0000 -0.155462645
H   H37       1.0  0.97480  0.72730  0.94073  1.0000 0.1184647448
C   C76       1.0  0.80860  0.49290  0.89663  1.0000 0.6019402369
F   F28       1.0  0.00670  0.79960  0.22093  1.0000 -0.1898412057
C   C77       1.0  0.90230  0.62300  0.91373  1.0000 -0.088535628
H   H38       1.0  0.89350  0.63100  0.85773  1.0000 0.1268178696
C   C78       1.0  0.15950  0.72270  0.25143  1.0000 -0.0842820015
H   H39       1.0  0.17910  0.73800  0.30573  1.0000 0.1268178696
C   C79       1.0  0.86630  0.55400  0.94693  1.0000 -0.0333161068
C   C80       1.0  0.97130  0.73760  0.17603  1.0000 0.6626270389
F   F29       1.0  0.10930  0.85760  0.10903  1.0000 -0.1898412057
C   C81       1.0  0.96710  0.67040  0.04543  1.0000 0.0740215704
C   C82       1.0  0.23660  0.66580  0.23513  1.0000 0.6274768337
C   C83       1.0  0.88150  0.54240  0.02943  1.0000 -0.088535628
H   H40       1.0  0.85770  0.49580  0.05233  1.0000 0.1268178696
F   F30       1.0  0.91390  0.73770  0.14213  1.0000 -0.1898412057
C   C84       1.0  0.05960  0.80490  0.05963  1.0000 0.6626270389
O   O20       1.0  0.26350  0.68832  0.30683  1.0000 -0.6090214327
C   C85       1.0  0.07730  0.71580  0.14183  1.0000 0.0820771927
O   O21       1.0  0.37442  0.62711  0.52182  1.0000 -0.6500021592
O   O22       1.0  0.49480  0.29390  0.15347  1.0000 -0.5327428455
O   O23       1.0  0.56720  0.33890  0.26597  1.0000 -0.6360121444
F   F31       1.0  0.17080  0.18720  0.36347  1.0000 -0.1898412057
F   F32       1.0  0.19850  0.29510  0.32597  1.0000 -0.1898412057
C   C86       1.0  0.31480  0.49800  0.53397  1.0000 -0.0333161068
C   C87       1.0  0.26800  0.28720  0.43867  1.0000 -0.2802292333
C   C88       1.0  0.26220  0.36910  0.55537  1.0000 -0.1509491419
H   H41       1.0  0.23700  0.32850  0.59007  1.0000 0.1184647448
C   C89       1.0  0.39990  0.33200  0.41117  1.0000 -0.1437194062
H   H42       1.0  0.40840  0.35120  0.46607  1.0000 0.1184647448
C   C90       1.0  0.31920  0.42240  0.42387  1.0000 -0.1258146465
H   H43       1.0  0.33290  0.41790  0.36877  1.0000 0.1268178696
F   F33       1.0  0.31670  0.26410  0.56467  1.0000 -0.1898412057
C   C91       1.0  0.33430  0.48950  0.45297  1.0000 -0.088535628
H   H44       1.0  0.35820  0.52980  0.41737  1.0000 0.1184647448
C   C92       1.0  0.31930  0.27100  0.29687  1.0000 -0.155462645
H   H45       1.0  0.27270  0.24750  0.27407  1.0000 0.1184647448
C   C93       1.0  0.50710  0.31570  0.22997  1.0000 0.6019402369
F   F34       1.0  0.20040  0.20710  0.55427  1.0000 -0.1898412057
C   C94       1.0  0.37700  0.27930  0.24707  1.0000 -0.088535628
H   H46       1.0  0.36900  0.26250  0.19107  1.0000 0.1268178696
C   C95       1.0  0.27730  0.43680  0.58477  1.0000 -0.0842820015
H   H47       1.0  0.26200  0.44110  0.63907  1.0000 0.1268178696
C   C96       1.0  0.44600  0.31230  0.28027  1.0000 -0.0333161068
C   C97       1.0  0.26240  0.23370  0.50937  1.0000 0.6626270389
F   F35       1.0  0.14240  0.25170  0.44237  1.0000 -0.1898412057
C   C98       1.0  0.32960  0.29670  0.37877  1.0000 0.0740215704
C   C99       1.0  0.33420  0.57080  0.56847  1.0000 0.6274768337
C   C100      1.0  0.45760  0.33910  0.36277  1.0000 -0.088535628
H   H48       1.0  0.50420  0.36190  0.38567  1.0000 0.1268178696
F   F36       1.0  0.26230  0.17620  0.47547  1.0000 -0.1898412057
C   C101      1.0  0.19510  0.25470  0.39297  1.0000 0.6626270389
O   O24       1.0  0.31168  0.57518  0.64017  1.0000 -0.6090214327
C   C102      1.0  0.28420  0.36150  0.47517  1.0000 0.0820771927
O   O25       1.0  0.25269  0.62711  0.97818  1.0000 -0.6500021592
O   O26       1.0  0.79910  0.29390  0.34653  1.0000 -0.5327428455
O   O27       1.0  0.77170  0.33890  0.23403  1.0000 -0.6360121444
F   F37       1.0  0.01640  0.18720  0.13653  1.0000 -0.1898412057
F   F38       1.0  0.09660  0.29510  0.17403  1.0000 -0.1898412057
C   C103      1.0  0.18320  0.49800  0.96603  1.0000 -0.0333161068
C   C104      1.0  0.01920  0.28720  0.06133  1.0000 -0.2802292333
C   C105      1.0  0.10690  0.36910  0.94463  1.0000 -0.1509491419
H   H49       1.0  0.09150  0.32850  0.90993  1.0000 0.1184647448
C   C106      1.0  0.93210  0.33200  0.08883  1.0000 -0.1437194062
H   H50       1.0  0.94280  0.35120  0.03393  1.0000 0.1184647448
C   C107      1.0  0.10320  0.42240  0.07613  1.0000 -0.1258146465
H   H51       1.0  0.08500  0.41790  0.13123  1.0000 0.1268178696
F   F39       1.0  0.94740  0.26410  0.93533  1.0000 -0.1898412057
C   C108      1.0  0.15520  0.48950  0.04703  1.0000 -0.088535628
H   H52       1.0  0.17160  0.52980  0.08263  1.0000 0.1184647448
C   C109      1.0  0.95170  0.27100  0.20313  1.0000 -0.1509491419
H   H53       1.0  0.97480  0.24750  0.22593  1.0000 0.1184647448
C   C110      1.0  0.80860  0.31570  0.27003  1.0000 0.6019402369
F   F40       1.0  0.00670  0.20710  0.94573  1.0000 -0.1898412057
C   C111      1.0  0.90230  0.27930  0.25293  1.0000 -0.088535628
H   H54       1.0  0.89350  0.26250  0.30893  1.0000 0.1268178696
C   C112      1.0  0.15950  0.43680  0.91523  1.0000 -0.0842820015
H   H55       1.0  0.17910  0.44110  0.86093  1.0000 0.1268178696
C   C113      1.0  0.86630  0.31230  0.21973  1.0000 -0.0333161068
C   C114      1.0  0.97130  0.23370  0.99063  1.0000 0.6626270389
F   F41       1.0  0.10930  0.25170  0.05763  1.0000 -0.1898412057
C   C115      1.0  0.96710  0.29670  0.12123  1.0000 0.0740215704
C   C116      1.0  0.23660  0.57080  0.93153  1.0000 0.6274768337
C   C117      1.0  0.88150  0.33910  0.13723  1.0000 -0.088535628
H   H56       1.0  0.85770  0.36190  0.11433  1.0000 0.1268178696
F   F42       1.0  0.91390  0.17620  0.02453  1.0000 -0.1898412057
C   C118      1.0  0.05960  0.25470  0.10703  1.0000 0.6626270389
O   O28       1.0  0.26350  0.57518  0.85983  1.0000 -0.6090214327
C   C119      1.0  0.07730  0.36150  0.02483  1.0000 0.0820771927
O   O29       1.0  0.37442  0.74731  0.64485  1.0000 -0.6500021592
O   O30       1.0  0.49480  0.20090  0.01320  1.0000 -0.5327428455
O   O31       1.0  0.56720  0.22830  0.90070  1.0000 -0.6360121444
F   F43       1.0  0.17080  0.98360  0.80320  1.0000 -0.1898412057
F   F44       1.0  0.19850  0.90340  0.84070  1.0000 -0.1898412057
C   C120      1.0  0.31480  0.81680  0.63270  1.0000 -0.0333161068
C   C121      1.0  0.26800  0.98080  0.72800  1.0000 -0.2802292333
C   C122      1.0  0.26220  0.89310  0.61130  1.0000 -0.1509491419
H   H57       1.0  0.23700  0.90850  0.57660  1.0000 0.1184647448
C   C123      1.0  0.39990  0.06790  0.75550  1.0000 -0.1437194062
H   H58       1.0  0.40840  0.05720  0.70060  1.0000 0.1184647448
C   C124      1.0  0.31920  0.89680  0.74280  1.0000 -0.1258146465
H   H59       1.0  0.33290  0.91500  0.79790  1.0000 0.1268178696
F   F45       1.0  0.31670  0.05260  0.60200  1.0000 -0.1898412057
C   C125      1.0  0.33430  0.84480  0.71370  1.0000 -0.088535628
H   H60       1.0  0.35820  0.82840  0.74930  1.0000 0.1184647448
C   C126      1.0  0.31930  0.04830  0.86980  1.0000 -0.155462645
H   H61       1.0  0.27270  0.02520  0.89260  1.0000 0.1184647448
C   C127      1.0  0.50710  0.19140  0.93670  1.0000 0.6019402369
F   F46       1.0  0.20040  0.99330  0.61240  1.0000 -0.1898412057
C   C128      1.0  0.37700  0.09770  0.91960  1.0000 -0.088535628
H   H62       1.0  0.36900  0.10650  0.97560  1.0000 0.1268178696
C   C129      1.0  0.27730  0.84050  0.58190  1.0000 -0.0842820015
H   H63       1.0  0.26200  0.82090  0.52760  1.0000 0.1268178696
C   C130      1.0  0.44600  0.13370  0.88640  1.0000 -0.0333161068
C   C131      1.0  0.26240  0.02870  0.65730  1.0000 0.6626270389
F   F47       1.0  0.14240  0.89070  0.72430  1.0000 -0.1898412057
C   C132      1.0  0.32960  0.03290  0.78790  1.0000 0.0740215704
C   C133      1.0  0.33420  0.76340  0.59820  1.0000 0.6274768337
C   C134      1.0  0.45760  0.11850  0.80390  1.0000 -0.088535628
H   H64       1.0  0.50420  0.14230  0.78100  1.0000 0.1268178696
F   F48       1.0  0.26230  0.08610  0.69120  1.0000 -0.1898412057
C   C135      1.0  0.19510  0.94040  0.77370  1.0000 0.6626270389
O   O32       1.0  0.31168  0.73650  0.52650  1.0000 -0.6090214327
C   C136      1.0  0.28420  0.92270  0.69150  1.0000 0.0820771927
O   O33       1.0  0.37289  0.62558  0.31152  1.0000 -0.6500021592
O   O34       1.0  0.70610  0.50520  0.67987  1.0000 -0.5327428455
O   O35       1.0  0.66110  0.43280  0.56737  1.0000 -0.6360121444
F   F49       1.0  0.81280  0.82920  0.46987  1.0000 -0.1898412057
F   F50       1.0  0.70490  0.80150  0.50737  1.0000 -0.1898412057
C   C137      1.0  0.50200  0.68520  0.29937  1.0000 -0.0333161068
C   C138      1.0  0.71280  0.73200  0.39467  1.0000 -0.2802292333
C   C139      1.0  0.63090  0.73780  0.27797  1.0000 -0.1509491419
H   H65       1.0  0.67150  0.76300  0.24327  1.0000 0.1184647448
C   C140      1.0  0.66800  0.60010  0.42217  1.0000 -0.1437194062
H   H66       1.0  0.64880  0.59160  0.36727  1.0000 0.1184647448
C   C141      1.0  0.57760  0.68080  0.40947  1.0000 -0.1258146465
H   H67       1.0  0.58210  0.66710  0.46457  1.0000 0.1268178696
F   F51       1.0  0.73590  0.68330  0.26867  1.0000 -0.1898412057
C   C142      1.0  0.51050  0.66570  0.38037  1.0000 -0.088535628
H   H68       1.0  0.47020  0.64180  0.41597  1.0000 0.1184647448
C   C143      1.0  0.72900  0.68070  0.53647  1.0000 -0.155462645
H   H69       1.0  0.75250  0.72730  0.55927  1.0000 0.1184647448
C   C144      1.0  0.68430  0.49290  0.60337  1.0000 0.6019402369
F   F52       1.0  0.79290  0.79960  0.27907  1.0000 -0.1898412057
C   C145      1.0  0.72070  0.62300  0.58627  1.0000 -0.088535628
H   H70       1.0  0.73750  0.63100  0.64227  1.0000 0.1268178696
C   C146      1.0  0.56320  0.72270  0.24857  1.0000 -0.0842820015
H   H71       1.0  0.55890  0.73800  0.19427  1.0000 0.1268178696
C   C147      1.0  0.68770  0.55400  0.55307  1.0000 -0.0333161068
C   C148      1.0  0.76630  0.73760  0.32397  1.0000 0.6626270389
F   F53       1.0  0.74830  0.85760  0.39097  1.0000 -0.1898412057
C   C149      1.0  0.70330  0.67040  0.45457  1.0000 0.0740215704
C   C150      1.0  0.42920  0.66580  0.26487  1.0000 0.6274768337
C   C151      1.0  0.66090  0.54240  0.47057  1.0000 -0.088535628
H   H72       1.0  0.63810  0.49580  0.44767  1.0000 0.1268178696
F   F54       1.0  0.82380  0.73770  0.35787  1.0000 -0.1898412057
C   C152      1.0  0.74530  0.80490  0.44037  1.0000 0.6626270389
O   O36       1.0  0.42482  0.68832  0.19317  1.0000 -0.6090214327
C   C153      1.0  0.63850  0.71580  0.35817  1.0000 0.0820771927
O   O37       1.0  0.74731  0.37289  0.47818  1.0000 -0.6500021592
O   O38       1.0  0.20090  0.70610  0.84653  1.0000 -0.5327428455
O   O39       1.0  0.22830  0.66110  0.73403  1.0000 -0.6360121444
F   F55       1.0  0.98360  0.81280  0.63653  1.0000 -0.1898412057
F   F56       1.0  0.90340  0.70490  0.67403  1.0000 -0.1898412057
C   C154      1.0  0.81680  0.50200  0.46603  1.0000 -0.0333161068
C   C155      1.0  0.98080  0.71280  0.56133  1.0000 -0.2802292333
C   C156      1.0  0.89310  0.63090  0.44463  1.0000 -0.1509491419
H   H73       1.0  0.90850  0.67150  0.40993  1.0000 0.1184647448
C   C157      1.0  0.06790  0.66800  0.58883  1.0000 -0.1437194062
H   H74       1.0  0.05720  0.64880  0.53393  1.0000 0.1184647448
C   C158      1.0  0.89680  0.57760  0.57613  1.0000 -0.1258146465
H   H75       1.0  0.91500  0.58210  0.63123  1.0000 0.1268178696
F   F57       1.0  0.05260  0.73590  0.43533  1.0000 -0.1898412057
C   C159      1.0  0.84480  0.51050  0.54703  1.0000 -0.088535628
H   H76       1.0  0.82840  0.47020  0.58263  1.0000 0.1184647448
C   C160      1.0  0.04830  0.72900  0.70313  1.0000 -0.155462645
H   H77       1.0  0.02520  0.75250  0.72593  1.0000 0.1184647448
C   C161      1.0  0.19140  0.68430  0.77003  1.0000 0.6019402369
F   F58       1.0  0.99330  0.79290  0.44573  1.0000 -0.1898412057
C   C162      1.0  0.09770  0.72070  0.75293  1.0000 -0.088535628
H   H78       1.0  0.10650  0.73750  0.80893  1.0000 0.1268178696
C   C163      1.0  0.84050  0.56320  0.41523  1.0000 -0.0842820015
H   H79       1.0  0.82090  0.55890  0.36093  1.0000 0.1268178696
C   C164      1.0  0.13370  0.68770  0.71973  1.0000 -0.0333161068
C   C165      1.0  0.02870  0.76630  0.49063  1.0000 0.6626270389
F   F59       1.0  0.89070  0.74830  0.55763  1.0000 -0.1898412057
C   C166      1.0  0.03290  0.70330  0.62123  1.0000 0.0740215704
C   C167      1.0  0.76340  0.42920  0.43153  1.0000 0.6274768337
C   C168      1.0  0.11850  0.66090  0.63723  1.0000 -0.088535628
H   H80       1.0  0.14230  0.63810  0.61433  1.0000 0.1268178696
F   F60       1.0  0.08610  0.82380  0.52453  1.0000 -0.1898412057
C   C169      1.0  0.94040  0.74530  0.60703  1.0000 0.6626270389
O   O40       1.0  0.73650  0.42482  0.35983  1.0000 -0.6090214327
C   C170      1.0  0.92270  0.63850  0.52483  1.0000 0.0820771927
O   O41       1.0  0.62558  0.25269  0.14485  1.0000 -0.6500021592
O   O42       1.0  0.50520  0.79910  0.51320  1.0000 -0.5327428455
O   O43       1.0  0.43280  0.77170  0.40070  1.0000 -0.6360121444
F   F61       1.0  0.82920  0.01640  0.30320  1.0000 -0.1898412057
F   F62       1.0  0.80150  0.09660  0.34070  1.0000 -0.1898412057
C   C171      1.0  0.68520  0.18320  0.13270  1.0000 -0.0333161068
C   C172      1.0  0.73200  0.01920  0.22800  1.0000 -0.2802292333
C   C173      1.0  0.73780  0.10690  0.11130  1.0000 -0.1509491419
H   H81       1.0  0.76300  0.09150  0.07660  1.0000 0.1184647448
C   C174      1.0  0.60010  0.93210  0.25550  1.0000 -0.1437194062
H   H82       1.0  0.59160  0.94280  0.20060  1.0000 0.1184647448
C   C175      1.0  0.68080  0.10320  0.24280  1.0000 -0.1258146465
H   H83       1.0  0.66710  0.08500  0.29790  1.0000 0.1268178696
F   F63       1.0  0.68330  0.94740  0.10200  1.0000 -0.1898412057
C   C176      1.0  0.66570  0.15520  0.21370  1.0000 -0.088535628
H   H84       1.0  0.64180  0.17160  0.24930  1.0000 0.1184647448
C   C177      1.0  0.68070  0.95170  0.36980  1.0000 -0.155462645
H   H85       1.0  0.72730  0.97480  0.39260  1.0000 0.1184647448
C   C178      1.0  0.49290  0.80860  0.43670  1.0000 0.6019402369
F   F64       1.0  0.79960  0.00670  0.11240  1.0000 -0.1898412057
C   C179      1.0  0.62300  0.90230  0.41960  1.0000 -0.088535628
H   H86       1.0  0.63100  0.89350  0.47560  1.0000 0.1268178696
C   C180      1.0  0.72270  0.15950  0.08190  1.0000 -0.0842820015
H   H87       1.0  0.73800  0.17910  0.02760  1.0000 0.1268178696
C   C181      1.0  0.55400  0.86630  0.38640  1.0000 -0.0333161068
C   C182      1.0  0.73760  0.97130  0.15730  1.0000 0.6626270389
F   F65       1.0  0.85760  0.10930  0.22430  1.0000 -0.1898412057
C   C183      1.0  0.67040  0.96710  0.28790  1.0000 0.0740215704
C   C184      1.0  0.66580  0.23660  0.09820  1.0000 0.6274768337
C   C185      1.0  0.54240  0.88150  0.30390  1.0000 -0.088535628
H   H88       1.0  0.49580  0.85770  0.28100  1.0000 0.1268178696
F   F66       1.0  0.73770  0.91390  0.19120  1.0000 -0.1898412057
C   C186      1.0  0.80490  0.05960  0.27370  1.0000 0.6626270389
O   O44       1.0  0.68832  0.26350  0.02650  1.0000 -0.6090214327
C   C187      1.0  0.71580  0.07730  0.19150  1.0000 0.0820771927
O   O45       1.0  0.62711  0.37442  0.81152  1.0000 -0.6500021592
O   O46       1.0  0.29390  0.49480  0.17987  1.0000 -0.5327428455
O   O47       1.0  0.33890  0.56720  0.06737  1.0000 -0.6360121444
F   F67       1.0  0.18720  0.17080  0.96987  1.0000 -0.1898412057
F   F68       1.0  0.29510  0.19850  0.00737  1.0000 -0.1898412057
C   C188      1.0  0.49800  0.31480  0.79937  1.0000 -0.0333161068
C   C189      1.0  0.28720  0.26800  0.89467  1.0000 -0.2802292333
C   C190      1.0  0.36910  0.26220  0.77797  1.0000 -0.1509491419
H   H89       1.0  0.32850  0.23700  0.74327  1.0000 0.1184647448
C   C191      1.0  0.33200  0.39990  0.92217  1.0000 -0.1437194062
H   H90       1.0  0.35120  0.40840  0.86727  1.0000 0.1184647448
C   C192      1.0  0.42240  0.31920  0.90947  1.0000 -0.1258146465
H   H91       1.0  0.41790  0.33290  0.96457  1.0000 0.1268178696
F   F69       1.0  0.26410  0.31670  0.76867  1.0000 -0.1898412057
C   C193      1.0  0.48950  0.33430  0.88037  1.0000 -0.088535628
H   H92       1.0  0.52980  0.35820  0.91597  1.0000 0.1184647448
C   C194      1.0  0.27100  0.31930  0.03647  1.0000 -0.1509491419
H   H93       1.0  0.24750  0.27270  0.05927  1.0000 0.1184647448
C   C195      1.0  0.31570  0.50710  0.10337  1.0000 0.6019402369
F   F70       1.0  0.20710  0.20040  0.77907  1.0000 -0.1898412057
C   C196      1.0  0.27930  0.37700  0.08627  1.0000 -0.088535628
H   H94       1.0  0.26250  0.36900  0.14227  1.0000 0.1268178696
C   C197      1.0  0.43680  0.27730  0.74857  1.0000 -0.0842820015
H   H95       1.0  0.44110  0.26200  0.69427  1.0000 0.1268178696
C   C198      1.0  0.31230  0.44600  0.05307  1.0000 -0.0333161068
C   C199      1.0  0.23370  0.26240  0.82397  1.0000 0.6626270389
F   F71       1.0  0.25170  0.14240  0.89097  1.0000 -0.1898412057
C   C200      1.0  0.29670  0.32960  0.95457  1.0000 0.0740215704
C   C201      1.0  0.57080  0.33420  0.76487  1.0000 0.6274768337
C   C202      1.0  0.33910  0.45760  0.97057  1.0000 -0.088535628
H   H96       1.0  0.36190  0.50420  0.94767  1.0000 0.1268178696
F   F72       1.0  0.17620  0.26230  0.85787  1.0000 -0.1898412057
C   C203      1.0  0.25470  0.19510  0.94037  1.0000 0.6626270389
O   O48       1.0  0.57518  0.31168  0.69317  1.0000 -0.6090214327
C   C204      1.0  0.36150  0.28420  0.85817  1.0000 0.0820771927
Co  Co1       1.0  0.28027  0.71973  0.91667  1.0000 0.902833037
Co  Co2       1.0  0.28027  0.56054  0.25000  1.0000 0.902833037
Co  Co3       1.0  0.43946  0.71973  0.58333  1.0000 0.902833037
Co  Co4       1.0  0.71973  0.28027  0.41667  1.0000 0.902833037
Co  Co5       1.0  0.71973  0.43946  0.75000  1.0000 0.902833037
Co  Co6       1.0  0.56054  0.28027  0.08333  1.0000 0.902833037
Ca  Ca1       1.0  0.35140  0.67570  0.08333  1.0000 1.3901534502
Ca  Ca2       1.0  0.32430  0.67570  0.41667  1.0000 1.3901534502
Ca  Ca3       1.0  0.32430  0.64860  0.75000  1.0000 1.3901534502
Ca  Ca4       1.0  0.64860  0.32430  0.58333  1.0000 1.3901534502
Ca  Ca5       1.0  0.67570  0.32430  0.91667  1.0000 1.3901534502
Ca  Ca6       1.0  0.67570  0.35140  0.25000  1.0000 1.3901534502
  Zn  Zn1       1.0  0.28027  0.71973  0.91667  1.0000
  Zn  Zn2       1.0  0.28027  0.56054  0.25000  1.0000
  Zn  Zn3       1.0  0.43946  0.71973  0.58333  1.0000
  Zn  Zn4       1.0  0.71973  0.28027  0.41667  1.0000
  Zn  Zn5       1.0  0.71973  0.43946  0.75000  1.0000
  Zn  Zn6       1.0  0.56054  0.28027  0.08333  1.0000
