# DDEC6 charges by PACMAN v1.1 (https://github.com/mtap-research/PACMAN-charge/)
data_XEGVIR_FSR_pacman
_chemical_formula_sum              "O48 F72 C204 H96 Zn6 Mn6 Ca4"
_cell_length_a       21.2727
_cell_length_b       21.2727
_cell_length_c       15.3429
_cell_angle_alpha    90
_cell_angle_beta     90
_cell_angle_gamma    120

_symmetry_space_group_name_H-M    "P 1"
_symmetry_Int_Tables_number       1

loop_
  _symmetry_equiv_pos_as_xyz
  'x, y, z'

loop_
  _atom_site_type_symbol
  _atom_site_label
  _atom_site_symmetry_multiplicity
  _atom_site_fract_x
  _atom_site_fract_y
  _atom_site_fract_z
  _atom_site_occupancy
 _atom_site_charge
O   O1        1.0  0.42488  0.73425  0.97700  1.0000 -0.6887370911
O   O2        1.0  0.37380  0.74502  0.85475  1.0000 -0.7017965035
O   O3        1.0  0.65740  0.22979  0.60550  1.0000 -0.7017965035
F   F1        1.0  0.70350  0.90500  0.65330  1.0000 -0.1988795535
O   O4        1.0  0.70290  0.20300  0.49050  1.0000 -0.5100424256
C   C1        1.0  0.68090  0.19390  0.56850  1.0000 0.5791069526
C   C2        1.0  0.71230  0.97970  0.77180  1.0000 -0.2916956387
F   F2        1.0  0.81170  0.98420  0.69160  1.0000 -0.1988795535
C   C3        1.0  0.63140  0.88990  0.89110  1.0000 -0.1476467846
H   H1        1.0  0.67200  0.90450  0.92620  1.0000 0.1193497029
C   C4        1.0  0.56410  0.83750  0.92010  1.0000 -0.092385579
H   H2        1.0  0.55980  0.81690  0.97490  1.0000 0.128212988
F   F3        1.0  0.79320  0.98980  0.88820  1.0000 -0.1988795535
C   C5        1.0  0.50240  0.81450  0.86910  1.0000 -0.0322958517
F   F4        1.0  0.82470  0.08470  0.80970  1.0000 -0.1988795535
C   C6        1.0  0.66670  0.06740  0.74930  1.0000 -0.1437070993
H   H3        1.0  0.64790  0.05550  0.80550  1.0000 0.1136351451
C   C7        1.0  0.68540  0.13600  0.61840  1.0000 -0.0322958517
C   C8        1.0  0.42960  0.76060  0.90340  1.0000 0.5501093302
C   C9        1.0  0.57730  0.89630  0.75760  1.0000 -0.129534959
H   H4        1.0  0.58170  0.91580  0.70220  1.0000 0.1193497029
F   F5        1.0  0.73710  0.04930  0.90250  1.0000 -0.1988795535
C   C10       1.0  0.76740  0.02590  0.84360  1.0000 0.657531759
C   C11       1.0  0.65900  0.11860  0.70280  1.0000 -0.1008613399
H   H5        1.0  0.63600  0.14150  0.72800  1.0000 0.128212988
F   F6        1.0  0.74740  0.88970  0.77090  1.0000 -0.1988795535
C   C12       1.0  0.71860  0.10080  0.58130  1.0000 -0.092385579
H   H6        1.0  0.73500  0.11100  0.52400  1.0000 0.128212988
C   C13       1.0  0.72760  0.05010  0.62900  1.0000 -0.1602545372
H   H7        1.0  0.75080  0.02740  0.60370  1.0000 0.1136351451
C   C14       1.0  0.51050  0.84380  0.78620  1.0000 -0.1219038855
H   H8        1.0  0.47030  0.82760  0.74990  1.0000 0.1193497029
C   C15       1.0  0.63870  0.92120  0.80950  1.0000 0.0809438995
C   C16       1.0  0.74480  0.94010  0.72180  1.0000 0.657531759
C   C17       1.0  0.70230  0.03340  0.71390  1.0000 0.0809438995
O   O5        1.0  0.26575  0.69063  0.31033  1.0000 -0.5928227719
O   O6        1.0  0.25498  0.62878  0.18808  1.0000 -0.7197404023
O   O7        1.0  0.77021  0.42761  0.93883  1.0000 -0.6235783215
F   F7        1.0  0.09500  0.79850  0.98663  1.0000 -0.1988795535
O   O8        1.0  0.79700  0.49990  0.82383  1.0000 -0.5273887929
C   C18       1.0  0.80610  0.48700  0.90183  1.0000 0.5907215914
C   C19       1.0  0.02030  0.73260  0.10513  1.0000 -0.2916956387
F   F8        1.0  0.01580  0.82750  0.02493  1.0000 -0.1988795535
C   C20       1.0  0.11010  0.74150  0.22443  1.0000 -0.1476467846
H   H9        1.0  0.09550  0.76750  0.25953  1.0000 0.1193497029
C   C21       1.0  0.16250  0.72660  0.25343  1.0000 -0.092385579
H   H10       1.0  0.18310  0.74290  0.30823  1.0000 0.128212988
F   F9        1.0  0.01020  0.80340  0.22153  1.0000 -0.1988795535
C   C22       1.0  0.18550  0.68790  0.20243  1.0000 -0.0360836552
F   F10       1.0  0.91530  0.74000  0.14303  1.0000 -0.1988795535
C   C23       1.0  0.93260  0.59930  0.08263  1.0000 -0.1476467846
H   H11       1.0  0.94450  0.59240  0.13883  1.0000 0.1136351451
C   C24       1.0  0.86400  0.54940  0.95173  1.0000 -0.0360836552
C   C25       1.0  0.23940  0.66900  0.23673  1.0000 0.5907215914
C   C26       1.0  0.10370  0.68100  0.09093  1.0000 -0.129534959
H   H12       1.0  0.08420  0.66590  0.03553  1.0000 0.1193497029
F   F11       1.0  0.95070  0.68780  0.23583  1.0000 -0.1988795535
C   C27       1.0  0.97410  0.74150  0.17693  1.0000 0.657531759
C   C28       1.0  0.88140  0.54040  0.03613  1.0000 -0.1008613399
H   H13       1.0  0.85850  0.49450  0.06133  1.0000 0.1193497029
F   F12       1.0  0.11030  0.85770  0.10423  1.0000 -0.1988795535
C   C29       1.0  0.89920  0.61780  0.91463  1.0000 -0.092385579
H   H14       1.0  0.88900  0.62400  0.85733  1.0000 0.1193497029
C   C30       1.0  0.94990  0.67750  0.96233  1.0000 -0.1602545372
H   H15       1.0  0.97260  0.72340  0.93703  1.0000 0.1136351451
C   C31       1.0  0.15620  0.66670  0.11953  1.0000 -0.1219038855
H   H16       1.0  0.17240  0.64270  0.08323  1.0000 0.1136351451
C   C32       1.0  0.07880  0.71750  0.14283  1.0000 0.0809438995
C   C33       1.0  0.05990  0.80470  0.05513  1.0000 0.657531759
C   C34       1.0  0.96660  0.66890  0.04723  1.0000 0.074972238
O   O9        1.0  0.30937  0.57512  0.64367  1.0000 -0.7075492855
O   O10       1.0  0.37122  0.62620  0.52142  1.0000 -0.6377065595
O   O11       1.0  0.57239  0.34260  0.27217  1.0000 -0.7017965035
F   F13       1.0  0.20150  0.29650  0.31997  1.0000 -0.1943294373
O   O12       1.0  0.50010  0.29710  0.15717  1.0000 -0.5237583634
C   C35       1.0  0.51300  0.31910  0.23517  1.0000 0.5791069526
C   C36       1.0  0.26740  0.28770  0.43847  1.0000 -0.2916956387
F   F14       1.0  0.17250  0.18830  0.35827  1.0000 -0.1988795535
C   C37       1.0  0.25850  0.36860  0.55777  1.0000 -0.1476467846
H   H17       1.0  0.23250  0.32800  0.59287  1.0000 0.1136351451
C   C38       1.0  0.27340  0.43590  0.58677  1.0000 -0.092385579
H   H18       1.0  0.25710  0.44020  0.64157  1.0000 0.128212988
F   F15       1.0  0.19660  0.20680  0.55487  1.0000 -0.1988795535
C   C39       1.0  0.31210  0.49760  0.53577  1.0000 -0.0360836552
F   F16       1.0  0.26000  0.17530  0.47637  1.0000 -0.1988795535
C   C40       1.0  0.40070  0.33330  0.41597  1.0000 -0.1437070993
H   H19       1.0  0.40760  0.35210  0.47217  1.0000 0.1136351451
C   C41       1.0  0.45060  0.31460  0.28507  1.0000 -0.0322958517
C   C42       1.0  0.33100  0.57040  0.57007  1.0000 0.6021920923
C   C43       1.0  0.31900  0.42270  0.42427  1.0000 -0.129534959
H   H20       1.0  0.33410  0.41830  0.36887  1.0000 0.1193497029
F   F17       1.0  0.31220  0.26290  0.56917  1.0000 -0.1988795535
C   C44       1.0  0.25850  0.23260  0.51027  1.0000 0.657531759
C   C45       1.0  0.45960  0.34100  0.36947  1.0000 -0.1008613399
H   H21       1.0  0.50550  0.36400  0.39467  1.0000 0.1193497029
F   F18       1.0  0.14230  0.25260  0.43757  1.0000 -0.1988795535
C   C46       1.0  0.38220  0.28140  0.24797  1.0000 -0.092385579
H   H22       1.0  0.37600  0.26500  0.19067  1.0000 0.128212988
C   C47       1.0  0.32250  0.27240  0.29567  1.0000 -0.1602545372
H   H23       1.0  0.27660  0.24920  0.27037  1.0000 0.1136351451
C   C48       1.0  0.33330  0.48950  0.45287  1.0000 -0.1053820666
H   H24       1.0  0.35730  0.52970  0.41657  1.0000 0.1193497029
C   C49       1.0  0.28250  0.36130  0.47617  1.0000 0.0809438995
C   C50       1.0  0.19530  0.25520  0.38847  1.0000 0.657531759
C   C51       1.0  0.33110  0.29770  0.38057  1.0000 0.074972238
O   O13       1.0  0.57512  0.26575  0.47700  1.0000 -0.6887370911
O   O14       1.0  0.62620  0.25498  0.35475  1.0000 -0.7017965035
O   O15       1.0  0.34260  0.77021  0.10550  1.0000 -0.7017965035
F   F19       1.0  0.29650  0.09500  0.15330  1.0000 -0.1988795535
O   O16       1.0  0.29710  0.79700  0.99050  1.0000 -0.5100424256
C   C52       1.0  0.31910  0.80610  0.06850  1.0000 0.5791069526
C   C53       1.0  0.28770  0.02030  0.27180  1.0000 -0.2916956387
F   F20       1.0  0.18830  0.01580  0.19160  1.0000 -0.1988795535
C   C54       1.0  0.36860  0.11010  0.39110  1.0000 -0.1437070993
H   H25       1.0  0.32800  0.09550  0.42620  1.0000 0.1193497029
C   C55       1.0  0.43590  0.16250  0.42010  1.0000 -0.092385579
H   H26       1.0  0.44020  0.18310  0.47490  1.0000 0.128212988
F   F21       1.0  0.20680  0.01020  0.38820  1.0000 -0.1988795535
C   C56       1.0  0.49760  0.18550  0.36910  1.0000 -0.0322958517
F   F22       1.0  0.17530  0.91530  0.30970  1.0000 -0.1988795535
C   C57       1.0  0.33330  0.93260  0.24930  1.0000 -0.1437070993
H   H27       1.0  0.35210  0.94450  0.30550  1.0000 0.1136351451
C   C58       1.0  0.31460  0.86400  0.11840  1.0000 -0.0322958517
C   C59       1.0  0.57040  0.23940  0.40340  1.0000 0.5501093302
C   C60       1.0  0.42270  0.10370  0.25760  1.0000 -0.129534959
H   H28       1.0  0.41830  0.08420  0.20220  1.0000 0.1193497029
F   F23       1.0  0.26290  0.95070  0.40250  1.0000 -0.1988795535
C   C61       1.0  0.23260  0.97410  0.34360  1.0000 0.657531759
C   C62       1.0  0.34100  0.88140  0.20280  1.0000 -0.1008613399
H   H29       1.0  0.36400  0.85850  0.22800  1.0000 0.128212988
F   F24       1.0  0.25260  0.11030  0.27090  1.0000 -0.1988795535
C   C63       1.0  0.28140  0.89920  0.08130  1.0000 -0.092385579
H   H30       1.0  0.26500  0.88900  0.02400  1.0000 0.128212988
C   C64       1.0  0.27240  0.94990  0.12900  1.0000 -0.1602545372
H   H31       1.0  0.24920  0.97260  0.10370  1.0000 0.1136351451
C   C65       1.0  0.48950  0.15620  0.28620  1.0000 -0.1219038855
H   H32       1.0  0.52970  0.17240  0.24990  1.0000 0.1193497029
C   C66       1.0  0.36130  0.07880  0.30950  1.0000 0.0809438995
C   C67       1.0  0.25520  0.05990  0.22180  1.0000 0.657531759
C   C68       1.0  0.29770  0.96660  0.21390  1.0000 0.0809438995
O   O17       1.0  0.73425  0.30937  0.81033  1.0000 -0.5928227719
O   O18       1.0  0.74502  0.37122  0.68808  1.0000 -0.7197404023
O   O19       1.0  0.22979  0.57239  0.43883  1.0000 -0.6235783215
F   F25       1.0  0.90500  0.20150  0.48663  1.0000 -0.1988795535
O   O20       1.0  0.20300  0.50010  0.32383  1.0000 -0.5273887929
C   C69       1.0  0.19390  0.51300  0.40183  1.0000 0.5907215914
C   C70       1.0  0.97970  0.26740  0.60513  1.0000 -0.2916956387
F   F26       1.0  0.98420  0.17250  0.52493  1.0000 -0.1988795535
C   C71       1.0  0.88990  0.25850  0.72443  1.0000 -0.1476467846
H   H33       1.0  0.90450  0.23250  0.75953  1.0000 0.1193497029
C   C72       1.0  0.83750  0.27340  0.75343  1.0000 -0.092385579
H   H34       1.0  0.81690  0.25710  0.80823  1.0000 0.128212988
F   F27       1.0  0.98980  0.19660  0.72153  1.0000 -0.1988795535
C   C73       1.0  0.81450  0.31210  0.70243  1.0000 -0.0360836552
F   F28       1.0  0.08470  0.26000  0.64303  1.0000 -0.1988795535
C   C74       1.0  0.06740  0.40070  0.58263  1.0000 -0.1476467846
H   H35       1.0  0.05550  0.40760  0.63883  1.0000 0.1136351451
C   C75       1.0  0.13600  0.45060  0.45173  1.0000 -0.0360836552
C   C76       1.0  0.76060  0.33100  0.73673  1.0000 0.6021920923
C   C77       1.0  0.89630  0.31900  0.59093  1.0000 -0.129534959
H   H36       1.0  0.91580  0.33410  0.53553  1.0000 0.1193497029
F   F29       1.0  0.04930  0.31220  0.73583  1.0000 -0.1988795535
C   C78       1.0  0.02590  0.25850  0.67693  1.0000 0.657531759
C   C79       1.0  0.11860  0.45960  0.53613  1.0000 -0.1008613399
H   H37       1.0  0.14150  0.50550  0.56133  1.0000 0.1193497029
F   F30       1.0  0.88970  0.14230  0.60423  1.0000 -0.1988795535
C   C80       1.0  0.10080  0.38220  0.41463  1.0000 -0.092385579
H   H38       1.0  0.11100  0.37600  0.35733  1.0000 0.1193497029
C   C81       1.0  0.05010  0.32250  0.46233  1.0000 -0.1602545372
H   H39       1.0  0.02740  0.27660  0.43703  1.0000 0.1136351451
C   C82       1.0  0.84380  0.33330  0.61953  1.0000 -0.1219038855
H   H40       1.0  0.82760  0.35730  0.58323  1.0000 0.1136351451
C   C83       1.0  0.92120  0.28250  0.64283  1.0000 0.0809438995
C   C84       1.0  0.94010  0.19530  0.55513  1.0000 0.657531759
C   C85       1.0  0.03340  0.33110  0.54723  1.0000 0.0809438995
O   O21       1.0  0.69063  0.42488  0.14367  1.0000 -0.7075492855
O   O22       1.0  0.62878  0.37380  0.02142  1.0000 -0.6377065595
O   O23       1.0  0.42761  0.65740  0.77217  1.0000 -0.7017965035
F   F31       1.0  0.79850  0.70350  0.81997  1.0000 -0.1988795535
O   O24       1.0  0.49990  0.70290  0.65717  1.0000 -0.5237583634
C   C86       1.0  0.48700  0.68090  0.73517  1.0000 0.5791069526
C   C87       1.0  0.73260  0.71230  0.93847  1.0000 -0.2916956387
F   F32       1.0  0.82750  0.81170  0.85827  1.0000 -0.1988795535
C   C88       1.0  0.74150  0.63140  0.05777  1.0000 -0.1476467846
H   H41       1.0  0.76750  0.67200  0.09287  1.0000 0.1193497029
C   C89       1.0  0.72660  0.56410  0.08677  1.0000 -0.092385579
H   H42       1.0  0.74290  0.55980  0.14157  1.0000 0.128212988
F   F33       1.0  0.80340  0.79320  0.05487  1.0000 -0.1988795535
C   C90       1.0  0.68790  0.50240  0.03577  1.0000 -0.0360836552
F   F34       1.0  0.74000  0.82470  0.97637  1.0000 -0.1988795535
C   C91       1.0  0.59930  0.66670  0.91597  1.0000 -0.1437070993
H   H43       1.0  0.59240  0.64790  0.97217  1.0000 0.1136351451
C   C92       1.0  0.54940  0.68540  0.78507  1.0000 -0.0322958517
C   C93       1.0  0.66900  0.42960  0.07007  1.0000 0.6021920923
C   C94       1.0  0.68100  0.57730  0.92427  1.0000 -0.129534959
H   H44       1.0  0.66590  0.58170  0.86887  1.0000 0.1193497029
F   F35       1.0  0.68780  0.73710  0.06917  1.0000 -0.1988795535
C   C95       1.0  0.74150  0.76740  0.01027  1.0000 0.657531759
C   C96       1.0  0.54040  0.65900  0.86947  1.0000 -0.1008613399
H   H45       1.0  0.49450  0.63600  0.89467  1.0000 0.1193497029
F   F36       1.0  0.85770  0.74740  0.93757  1.0000 -0.1988795535
C   C97       1.0  0.61780  0.71860  0.74797  1.0000 -0.092385579
H   H46       1.0  0.62400  0.73500  0.69067  1.0000 0.128212988
C   C98       1.0  0.67750  0.72760  0.79567  1.0000 -0.1602545372
H   H47       1.0  0.72340  0.75080  0.77037  1.0000 0.1136351451
C   C99       1.0  0.66670  0.51050  0.95287  1.0000 -0.1053820666
H   H48       1.0  0.64270  0.47030  0.91657  1.0000 0.1193497029
C   C100      1.0  0.71750  0.63870  0.97617  1.0000 0.0809438995
C   C101      1.0  0.80470  0.74480  0.88847  1.0000 0.657531759
C   C102      1.0  0.66890  0.70230  0.88057  1.0000 0.074972238
O   O25       1.0  0.73425  0.42488  0.35633  1.0000 -0.6887370911
O   O26       1.0  0.74502  0.37380  0.47858  1.0000 -0.7017965035
O   O27       1.0  0.22979  0.65740  0.72783  1.0000 -0.7017965035
F   F37       1.0  0.90500  0.70350  0.68003  1.0000 -0.1988795535
O   O28       1.0  0.20300  0.70290  0.84283  1.0000 -0.5100424256
C   C103      1.0  0.19390  0.68090  0.76483  1.0000 0.5791069526
C   C104      1.0  0.97970  0.71230  0.56153  1.0000 -0.2916956387
F   F38       1.0  0.98420  0.81170  0.64173  1.0000 -0.1988795535
C   C105      1.0  0.88990  0.63140  0.44223  1.0000 -0.1437070993
H   H49       1.0  0.90450  0.67200  0.40713  1.0000 0.1193497029
C   C106      1.0  0.83750  0.56410  0.41323  1.0000 -0.092385579
H   H50       1.0  0.81690  0.55980  0.35843  1.0000 0.128212988
F   F39       1.0  0.98980  0.79320  0.44513  1.0000 -0.1988795535
C   C107      1.0  0.81450  0.50240  0.46423  1.0000 -0.0322958517
F   F40       1.0  0.08470  0.82470  0.52363  1.0000 -0.1988795535
C   C108      1.0  0.06740  0.66670  0.58403  1.0000 -0.1437070993
H   H51       1.0  0.05550  0.64790  0.52783  1.0000 0.1136351451
C   C109      1.0  0.13600  0.68540  0.71493  1.0000 -0.0322958517
C   C110      1.0  0.76060  0.42960  0.42993  1.0000 0.5501093302
C   C111      1.0  0.89630  0.57730  0.57573  1.0000 -0.129534959
H   H52       1.0  0.91580  0.58170  0.63113  1.0000 0.1193497029
F   F41       1.0  0.04930  0.73710  0.43083  1.0000 -0.1988795535
C   C112      1.0  0.02590  0.76740  0.48973  1.0000 0.657531759
C   C113      1.0  0.11860  0.65900  0.63053  1.0000 -0.1008613399
H   H53       1.0  0.14150  0.63600  0.60533  1.0000 0.128212988
F   F42       1.0  0.88970  0.74740  0.56243  1.0000 -0.1988795535
C   C114      1.0  0.10080  0.71860  0.75203  1.0000 -0.092385579
H   H54       1.0  0.11100  0.73500  0.80933  1.0000 0.128212988
C   C115      1.0  0.05010  0.72760  0.70433  1.0000 -0.1602545372
H   H55       1.0  0.02740  0.75080  0.72963  1.0000 0.1136351451
C   C116      1.0  0.84380  0.51050  0.54713  1.0000 -0.1219038855
H   H56       1.0  0.82760  0.47030  0.58343  1.0000 0.1193497029
C   C117      1.0  0.92120  0.63870  0.52383  1.0000 0.0809438995
C   C118      1.0  0.94010  0.74480  0.61153  1.0000 0.657531759
C   C119      1.0  0.03340  0.70230  0.61943  1.0000 0.0809438995
O   O29       1.0  0.69063  0.26575  0.02300  1.0000 -0.5928227719
O   O30       1.0  0.62878  0.25498  0.14525  1.0000 -0.7197404023
O   O31       1.0  0.42761  0.77021  0.39450  1.0000 -0.6235783215
F   F43       1.0  0.79850  0.09500  0.34670  1.0000 -0.1988795535
O   O32       1.0  0.49990  0.79700  0.50950  1.0000 -0.5273887929
C   C120      1.0  0.48700  0.80610  0.43150  1.0000 0.5907215914
C   C121      1.0  0.73260  0.02030  0.22820  1.0000 -0.2916956387
F   F44       1.0  0.82750  0.01580  0.30840  1.0000 -0.1988795535
C   C122      1.0  0.74150  0.11010  0.10890  1.0000 -0.1476467846
H   H57       1.0  0.76750  0.09550  0.07380  1.0000 0.1193497029
C   C123      1.0  0.72660  0.16250  0.07990  1.0000 -0.092385579
H   H58       1.0  0.74290  0.18310  0.02510  1.0000 0.128212988
F   F45       1.0  0.80340  0.01020  0.11180  1.0000 -0.1988795535
C   C124      1.0  0.68790  0.18550  0.13090  1.0000 -0.0360836552
F   F46       1.0  0.74000  0.91530  0.19030  1.0000 -0.1988795535
C   C125      1.0  0.59930  0.93260  0.25070  1.0000 -0.1476467846
H   H59       1.0  0.59240  0.94450  0.19450  1.0000 0.1136351451
C   C126      1.0  0.54940  0.86400  0.38160  1.0000 -0.0360836552
C   C127      1.0  0.66900  0.23940  0.09660  1.0000 0.5907215914
C   C128      1.0  0.68100  0.10370  0.24240  1.0000 -0.129534959
H   H60       1.0  0.66590  0.08420  0.29780  1.0000 0.1193497029
F   F47       1.0  0.68780  0.95070  0.09750  1.0000 -0.1988795535
C   C129      1.0  0.74150  0.97410  0.15640  1.0000 0.657531759
C   C130      1.0  0.54040  0.88140  0.29720  1.0000 -0.1008613399
H   H61       1.0  0.49450  0.85850  0.27200  1.0000 0.1193497029
F   F48       1.0  0.85770  0.11030  0.22910  1.0000 -0.1988795535
C   C131      1.0  0.61780  0.89920  0.41870  1.0000 -0.092385579
H   H62       1.0  0.62400  0.88900  0.47600  1.0000 0.1193497029
C   C132      1.0  0.67750  0.94990  0.37100  1.0000 -0.1602545372
H   H63       1.0  0.72340  0.97260  0.39630  1.0000 0.1136351451
C   C133      1.0  0.66670  0.15620  0.21380  1.0000 -0.1219038855
H   H64       1.0  0.64270  0.17240  0.25010  1.0000 0.1136351451
C   C134      1.0  0.71750  0.07880  0.19050  1.0000 0.0809438995
C   C135      1.0  0.80470  0.05990  0.27820  1.0000 0.657531759
C   C136      1.0  0.66890  0.96660  0.28610  1.0000 0.074972238
O   O33       1.0  0.57512  0.30937  0.68967  1.0000 -0.7075492855
O   O34       1.0  0.62620  0.37122  0.81192  1.0000 -0.6377065595
O   O35       1.0  0.34260  0.57239  0.06117  1.0000 -0.7017965035
F   F49       1.0  0.29650  0.20150  0.01337  1.0000 -0.1988795535
O   O36       1.0  0.29710  0.50010  0.17617  1.0000 -0.5237583634
C   C137      1.0  0.31910  0.51300  0.09817  1.0000 0.5791069526
C   C138      1.0  0.28770  0.26740  0.89487  1.0000 -0.2916956387
F   F50       1.0  0.18830  0.17250  0.97507  1.0000 -0.1988795535
C   C139      1.0  0.36860  0.25850  0.77557  1.0000 -0.1476467846
H   H65       1.0  0.32800  0.23250  0.74047  1.0000 0.1193497029
C   C140      1.0  0.43590  0.27340  0.74657  1.0000 -0.092385579
H   H66       1.0  0.44020  0.25710  0.69177  1.0000 0.128212988
F   F51       1.0  0.20680  0.19660  0.77847  1.0000 -0.1988795535
C   C141      1.0  0.49760  0.31210  0.79757  1.0000 -0.0360836552
F   F52       1.0  0.17530  0.26000  0.85697  1.0000 -0.1988795535
C   C142      1.0  0.33330  0.40070  0.91737  1.0000 -0.1437070993
H   H67       1.0  0.35210  0.40760  0.86117  1.0000 0.1136351451
C   C143      1.0  0.31460  0.45060  0.04827  1.0000 -0.0322958517
C   C144      1.0  0.57040  0.33100  0.76327  1.0000 0.6059460822
C   C145      1.0  0.42270  0.31900  0.90907  1.0000 -0.129534959
H   H68       1.0  0.41830  0.33410  0.96447  1.0000 0.1193497029
F   F53       1.0  0.26290  0.31220  0.76417  1.0000 -0.1988795535
C   C146      1.0  0.23260  0.25850  0.82307  1.0000 0.657531759
C   C147      1.0  0.34100  0.45960  0.96387  1.0000 -0.1008613399
H   H69       1.0  0.36400  0.50550  0.93867  1.0000 0.1193497029
F   F54       1.0  0.25260  0.14230  0.89577  1.0000 -0.1988795535
C   C148      1.0  0.28140  0.38220  0.08537  1.0000 -0.092385579
H   H70       1.0  0.26500  0.37600  0.14267  1.0000 0.128212988
C   C149      1.0  0.27240  0.32250  0.03767  1.0000 -0.1602545372
H   H71       1.0  0.24920  0.27660  0.06297  1.0000 0.1136351451
C   C150      1.0  0.48950  0.33330  0.88047  1.0000 -0.1053820666
H   H72       1.0  0.52970  0.35730  0.91677  1.0000 0.1193497029
C   C151      1.0  0.36130  0.28250  0.85717  1.0000 0.0809438995
C   C152      1.0  0.25520  0.19530  0.94487  1.0000 0.657531759
C   C153      1.0  0.29770  0.33110  0.95277  1.0000 0.074972238
O   O37       1.0  0.26575  0.57512  0.85633  1.0000 -0.6887370911
O   O38       1.0  0.25498  0.62620  0.97858  1.0000 -0.7017965035
O   O39       1.0  0.77021  0.34260  0.22783  1.0000 -0.7017965035
F   F55       1.0  0.09500  0.29650  0.18003  1.0000 -0.1988795535
O   O40       1.0  0.79700  0.29710  0.34283  1.0000 -0.5100424256
C   C154      1.0  0.80610  0.31910  0.26483  1.0000 0.5791069526
C   C155      1.0  0.02030  0.28770  0.06153  1.0000 -0.2916956387
F   F56       1.0  0.01580  0.18830  0.14173  1.0000 -0.1988795535
C   C156      1.0  0.11010  0.36860  0.94223  1.0000 -0.1476467846
H   H73       1.0  0.09550  0.32800  0.90713  1.0000 0.1193497029
C   C157      1.0  0.16250  0.43590  0.91323  1.0000 -0.092385579
H   H74       1.0  0.18310  0.44020  0.85843  1.0000 0.128212988
F   F57       1.0  0.01020  0.20680  0.94513  1.0000 -0.1988795535
C   C158      1.0  0.18550  0.49760  0.96423  1.0000 -0.0322958517
F   F58       1.0  0.91530  0.17530  0.02363  1.0000 -0.1988795535
C   C159      1.0  0.93260  0.33330  0.08403  1.0000 -0.1437070993
H   H75       1.0  0.94450  0.35210  0.02783  1.0000 0.1136351451
C   C160      1.0  0.86400  0.31460  0.21493  1.0000 -0.0322958517
C   C161      1.0  0.23940  0.57040  0.92993  1.0000 0.5501093302
C   C162      1.0  0.10370  0.42270  0.07573  1.0000 -0.129534959
H   H76       1.0  0.08420  0.41830  0.13113  1.0000 0.1193497029
F   F59       1.0  0.95070  0.26290  0.93083  1.0000 -0.1988795535
C   C163      1.0  0.97410  0.23260  0.98973  1.0000 0.657531759
C   C164      1.0  0.88140  0.34100  0.13053  1.0000 -0.1008613399
H   H77       1.0  0.85850  0.36400  0.10533  1.0000 0.128212988
F   F60       1.0  0.11030  0.25260  0.06243  1.0000 -0.1988795535
C   C165      1.0  0.89920  0.28140  0.25203  1.0000 -0.092385579
H   H78       1.0  0.88900  0.26500  0.30933  1.0000 0.128212988
C   C166      1.0  0.94990  0.27240  0.20433  1.0000 -0.1602545372
H   H79       1.0  0.97260  0.24920  0.22963  1.0000 0.1136351451
C   C167      1.0  0.15620  0.48950  0.04713  1.0000 -0.1219038855
H   H80       1.0  0.17240  0.52970  0.08343  1.0000 0.1193497029
C   C168      1.0  0.07880  0.36130  0.02383  1.0000 0.0809438995
C   C169      1.0  0.05990  0.25520  0.11153  1.0000 0.657531759
C   C170      1.0  0.96660  0.29770  0.11943  1.0000 0.0809438995
O   O41       1.0  0.30937  0.73425  0.52300  1.0000 -0.5928227719
O   O42       1.0  0.37122  0.74502  0.64525  1.0000 -0.7197404023
O   O43       1.0  0.57239  0.22979  0.89450  1.0000 -0.6235783215
F   F61       1.0  0.20150  0.90500  0.84670  1.0000 -0.1988795535
O   O44       1.0  0.50010  0.20300  0.00950  1.0000 -0.5273887929
C   C171      1.0  0.51300  0.19390  0.93150  1.0000 0.5907215914
C   C172      1.0  0.26740  0.97970  0.72820  1.0000 -0.2916956387
F   F62       1.0  0.17250  0.98420  0.80840  1.0000 -0.1988795535
C   C173      1.0  0.25850  0.88990  0.60890  1.0000 -0.1476467846
H   H81       1.0  0.23250  0.90450  0.57380  1.0000 0.1193497029
C   C174      1.0  0.27340  0.83750  0.57990  1.0000 -0.092385579
H   H82       1.0  0.25710  0.81690  0.52510  1.0000 0.128212988
F   F63       1.0  0.19660  0.98980  0.61180  1.0000 -0.1988795535
C   C175      1.0  0.31210  0.81450  0.63090  1.0000 -0.0360836552
F   F64       1.0  0.26000  0.08470  0.69030  1.0000 -0.1988795535
C   C176      1.0  0.40070  0.06740  0.75070  1.0000 -0.1476467846
H   H83       1.0  0.40760  0.05550  0.69450  1.0000 0.1136351451
C   C177      1.0  0.45060  0.13600  0.88160  1.0000 -0.0360836552
C   C178      1.0  0.33100  0.76060  0.59660  1.0000 0.5907215914
C   C179      1.0  0.31900  0.89630  0.74240  1.0000 -0.129534959
H   H84       1.0  0.33410  0.91580  0.79780  1.0000 0.1193497029
F   F65       1.0  0.31220  0.04930  0.59750  1.0000 -0.1988795535
C   C180      1.0  0.25850  0.02590  0.65640  1.0000 0.657531759
C   C181      1.0  0.45960  0.11860  0.79720  1.0000 -0.1008613399
H   H85       1.0  0.50550  0.14150  0.77200  1.0000 0.1193497029
F   F66       1.0  0.14230  0.88970  0.72910  1.0000 -0.1988795535
C   C182      1.0  0.38220  0.10080  0.91870  1.0000 -0.092385579
H   H86       1.0  0.37600  0.11100  0.97600  1.0000 0.1193497029
C   C183      1.0  0.32250  0.05010  0.87100  1.0000 -0.1602545372
H   H87       1.0  0.27660  0.02740  0.89630  1.0000 0.1136351451
C   C184      1.0  0.33330  0.84380  0.71380  1.0000 -0.1219038855
H   H88       1.0  0.35730  0.82760  0.75010  1.0000 0.1136351451
C   C185      1.0  0.28250  0.92120  0.69050  1.0000 0.0809438995
C   C186      1.0  0.19530  0.94010  0.77820  1.0000 0.657531759
C   C187      1.0  0.33110  0.03340  0.78610  1.0000 0.074972238
O   O45       1.0  0.42488  0.69063  0.18967  1.0000 -0.7075492855
O   O46       1.0  0.37380  0.62878  0.31192  1.0000 -0.6377065595
O   O47       1.0  0.65740  0.42761  0.56117  1.0000 -0.7017965035
F   F67       1.0  0.70350  0.79850  0.51337  1.0000 -0.1988795535
O   O48       1.0  0.70290  0.49990  0.67617  1.0000 -0.5237583634
C   C188      1.0  0.68090  0.48700  0.59817  1.0000 0.5791069526
C   C189      1.0  0.71230  0.73260  0.39487  1.0000 -0.2916956387
F   F68       1.0  0.81170  0.82750  0.47507  1.0000 -0.1988795535
C   C190      1.0  0.63140  0.74150  0.27557  1.0000 -0.1476467846
H   H89       1.0  0.67200  0.76750  0.24047  1.0000 0.1193497029
C   C191      1.0  0.56410  0.72660  0.24657  1.0000 -0.092385579
H   H90       1.0  0.55980  0.74290  0.19177  1.0000 0.128212988
F   F69       1.0  0.79320  0.80340  0.27847  1.0000 -0.1988795535
C   C192      1.0  0.50240  0.68790  0.29757  1.0000 -0.0360836552
F   F70       1.0  0.82470  0.74000  0.35697  1.0000 -0.1988795535
C   C193      1.0  0.66670  0.59930  0.41737  1.0000 -0.1437070993
H   H91       1.0  0.64790  0.59240  0.36117  1.0000 0.1136351451
C   C194      1.0  0.68540  0.54940  0.54827  1.0000 -0.0322958517
C   C195      1.0  0.42960  0.66900  0.26327  1.0000 0.6021920923
C   C196      1.0  0.57730  0.68100  0.40907  1.0000 -0.129534959
H   H92       1.0  0.58170  0.66590  0.46447  1.0000 0.1193497029
F   F71       1.0  0.73710  0.68780  0.26417  1.0000 -0.1988795535
C   C197      1.0  0.76740  0.74150  0.32307  1.0000 0.657531759
C   C198      1.0  0.65900  0.54040  0.46387  1.0000 -0.1008613399
H   H93       1.0  0.63600  0.49450  0.43867  1.0000 0.1193497029
F   F72       1.0  0.74740  0.85770  0.39577  1.0000 -0.1988795535
C   C199      1.0  0.71860  0.61780  0.58537  1.0000 -0.092385579
H   H94       1.0  0.73500  0.62400  0.64267  1.0000 0.128212988
C   C200      1.0  0.72760  0.67750  0.53767  1.0000 -0.1602545372
H   H95       1.0  0.75080  0.72340  0.56297  1.0000 0.1136351451
C   C201      1.0  0.51050  0.66670  0.38047  1.0000 -0.1053820666
H   H96       1.0  0.47030  0.64270  0.41677  1.0000 0.1193497029
C   C202      1.0  0.63870  0.71750  0.35717  1.0000 0.0809438995
C   C203      1.0  0.74480  0.80470  0.44487  1.0000 0.657531759
C   C204      1.0  0.70230  0.66890  0.45277  1.0000 0.0809438995
Zn  Zn1       1.0  0.28184  0.71816  0.91667  1.0000 0.7859976474
Zn  Zn2       1.0  0.28184  0.56368  0.25000  1.0000 0.8439890627
Zn  Zn3       1.0  0.43632  0.71816  0.58333  1.0000 0.8439890627
Zn  Zn4       1.0  0.71816  0.28184  0.41667  1.0000 0.7835390154
Zn  Zn5       1.0  0.71816  0.43632  0.75000  1.0000 0.8439890627
Zn  Zn6       1.0  0.56368  0.28184  0.08333  1.0000 0.8439890627
Mn  Mn1       1.0  0.35140  0.67570  0.08333  1.0000 1.1337315026
Ca  Ca1       1.0  0.35030  0.67515  0.08333  1.0000 1.401303995
Mn  Mn2       1.0  0.32430  0.67570  0.41667  1.0000 1.36381771
Mn  Mn3       1.0  0.32430  0.64860  0.75000  1.0000 1.1337315026
Ca  Ca2       1.0  0.32485  0.64970  0.75000  1.0000 1.401303995
Mn  Mn4       1.0  0.64860  0.32430  0.58333  1.0000 1.1337315026
Ca  Ca3       1.0  0.64970  0.32485  0.58333  1.0000 1.401303995
Mn  Mn5       1.0  0.67570  0.32430  0.91667  1.0000 1.36381771
Mn  Mn6       1.0  0.67570  0.35140  0.25000  1.0000 1.1337315026
Ca  Ca4       1.0  0.67515  0.35030  0.25000  1.0000 1.401303995
  Ca  Ca5       1.0  0.32430  0.67570  0.41667  1.0000
  Ca  Ca6       1.0  0.67570  0.32430  0.91667  1.0000
