# DDEC6 charges by PACMAN v1.1 (https://github.com/mtap-research/PACMAN-charge/)
data_XEGVOX_FSR_pacman
_symmetry_space_group_name_H-M   'P 1'
_cell_length_a   21.17600000
_cell_length_b   21.17600000
_cell_length_c   14.92030000
_cell_angle_alpha   90.00000000
_cell_angle_beta   90.00000000
_cell_angle_gamma   120.00000000
_symmetry_Int_Tables_number   1
_chemical_formula_structural   ZnCoH16C34(O2F3)4
_chemical_formula_sum   'Zn6 Co6 H96 C204 O48 F72'
_cell_volume   5794.23418145
_cell_formula_units_Z   6
loop_
 _symmetry_equiv_pos_site_id
 _symmetry_equiv_pos_as_xyz
  1  'x, y, z'
loop_
 _atom_site_type_symbol
 _atom_site_label
 _atom_site_symmetry_multiplicity
 _atom_site_fract_x
 _atom_site_fract_y
 _atom_site_fract_z
 _atom_site_occupancy
 _atom_site_charge
Zn  Zn1  1  0.56870000  0.28435000  0.41667000  1.0 0.8877580846
Zn  Zn2  1  0.71565000  0.43130000  0.75000000  1.0 0.8877580846
Zn  Zn3  1  0.71565000  0.28435000  0.08333000  1.0 0.8877580846
Zn  Zn4  1  0.43130000  0.71565000  0.91667000  1.0 0.8877580846
Zn  Zn5  1  0.28435000  0.56870000  0.25000000  1.0 0.8877580846
Zn  Zn6  1  0.28435000  0.71565000  0.58333000  1.0 0.8877580846
Co  Co1  1  0.67571000  0.35142000  0.25000000  1.0 0.9958622838
Co  Co2  1  0.67571000  0.32429000  0.58333000  1.0 0.9958622838
Co  Co3  1  0.64858000  0.32429000  0.91667000  1.0 0.9958622838
Co  Co4  1  0.32429000  0.64858000  0.75000000  1.0 0.9958622838
Co  Co5  1  0.32429000  0.67571000  0.08333000  1.0 0.9958622838
Co  Co6  1  0.35142000  0.67571000  0.41667000  1.0 0.9958622838
H  H1  1  0.38290000  0.26530000  0.30893000  1.0 0.1289810862
H  H2  1  0.25070000  0.43780000  0.85513000  1.0 0.1289810862
H  H3  1  0.28230000  0.24980000  0.23173000  1.0 0.1141922595
H  H4  1  0.22850000  0.32680000  0.90343000  1.0 0.1141922595
H  H5  1  0.50800000  0.36770000  0.09373000  1.0 0.1289810862
H  H6  1  0.40650000  0.35350000  0.01883000  1.0 0.1221618746
H  H7  1  0.33090000  0.41740000  0.13453000  1.0 0.1221618746
H  H8  1  0.35700000  0.53000000  0.08393000  1.0 0.1289810862
H  H9  1  0.88240000  0.61710000  0.64227000  1.0 0.1289810862
H  H10  1  0.18710000  0.74930000  0.18847000  1.0 0.1289810862
H  H11  1  0.96750000  0.71770000  0.56507000  1.0 0.1141922595
H  H12  1  0.09830000  0.77150000  0.23677000  1.0 0.1141922595
H  H13  1  0.85970000  0.49200000  0.42707000  1.0 0.1289810862
H  H14  1  0.94700000  0.59350000  0.35217000  1.0 0.1221618746
H  H15  1  0.08650000  0.66910000  0.46787000  1.0 0.1221618746
H  H16  1  0.17300000  0.64300000  0.41727000  1.0 0.1289810862
H  H17  1  0.73470000  0.11760000  0.97560000  1.0 0.1289810862
H  H18  1  0.56220000  0.81290000  0.52180000  1.0 0.1289810862
H  H19  1  0.75020000  0.03250000  0.89840000  1.0 0.1141922595
H  H20  1  0.67320000  0.90170000  0.57010000  1.0 0.1141922595
H  H21  1  0.63230000  0.14030000  0.76040000  1.0 0.1289810862
H  H22  1  0.64650000  0.05300000  0.68550000  1.0 0.1221618746
H  H23  1  0.58260000  0.91350000  0.80120000  1.0 0.1221618746
H  H24  1  0.47000000  0.82700000  0.75060000  1.0 0.1289810862
H  H25  1  0.61710000  0.73470000  0.80893000  1.0 0.1289810862
H  H26  1  0.74930000  0.56220000  0.35513000  1.0 0.1289810862
H  H27  1  0.71770000  0.75020000  0.73173000  1.0 0.1141922595
H  H28  1  0.77150000  0.67320000  0.40343000  1.0 0.1141922595
H  H29  1  0.49200000  0.63230000  0.59373000  1.0 0.1289810862
H  H30  1  0.59350000  0.64650000  0.51883000  1.0 0.1221618746
H  H31  1  0.66910000  0.58260000  0.63453000  1.0 0.1221618746
H  H32  1  0.64300000  0.47000000  0.58393000  1.0 0.1289810862
H  H33  1  0.11760000  0.38290000  0.14227000  1.0 0.1289810862
H  H34  1  0.81290000  0.25070000  0.68847000  1.0 0.1289810862
H  H35  1  0.03250000  0.28230000  0.06507000  1.0 0.1141922595
H  H36  1  0.90170000  0.22850000  0.73677000  1.0 0.1141922595
H  H37  1  0.14030000  0.50800000  0.92707000  1.0 0.1289810862
H  H38  1  0.05300000  0.40650000  0.85217000  1.0 0.1221618746
H  H39  1  0.91350000  0.33090000  0.96787000  1.0 0.1221618746
H  H40  1  0.82700000  0.35700000  0.91727000  1.0 0.1289810862
H  H41  1  0.26530000  0.88240000  0.47560000  1.0 0.1289810862
H  H42  1  0.43780000  0.18710000  0.02180000  1.0 0.1289810862
H  H43  1  0.24980000  0.96750000  0.39840000  1.0 0.1141922595
H  H44  1  0.32680000  0.09830000  0.07010000  1.0 0.1141922595
H  H45  1  0.36770000  0.85970000  0.26040000  1.0 0.1289810862
H  H46  1  0.35350000  0.94700000  0.18550000  1.0 0.1221618746
H  H47  1  0.41740000  0.08650000  0.30120000  1.0 0.1221618746
H  H48  1  0.53000000  0.17300000  0.25060000  1.0 0.1289810862
H  H49  1  0.11760000  0.73470000  0.69107000  1.0 0.1289810862
H  H50  1  0.81290000  0.56220000  0.14487000  1.0 0.1289810862
H  H51  1  0.03250000  0.75020000  0.76827000  1.0 0.1141922595
H  H52  1  0.90170000  0.67320000  0.09657000  1.0 0.1141922595
H  H53  1  0.14030000  0.63230000  0.90627000  1.0 0.1289810862
H  H54  1  0.05300000  0.64650000  0.98117000  1.0 0.1221618746
H  H55  1  0.91350000  0.58260000  0.86547000  1.0 0.1221618746
H  H56  1  0.82700000  0.47000000  0.91607000  1.0 0.1289810862
H  H57  1  0.26530000  0.38290000  0.35773000  1.0 0.1289810862
H  H58  1  0.43780000  0.25070000  0.81153000  1.0 0.1289810862
H  H59  1  0.24980000  0.28230000  0.43493000  1.0 0.1141922595
H  H60  1  0.32680000  0.22850000  0.76323000  1.0 0.1141922595
H  H61  1  0.36770000  0.50800000  0.57293000  1.0 0.1289810862
H  H62  1  0.35350000  0.40650000  0.64783000  1.0 0.1221618746
H  H63  1  0.41740000  0.33090000  0.53213000  1.0 0.1221618746
H  H64  1  0.53000000  0.35700000  0.58273000  1.0 0.1289810862
H  H65  1  0.61710000  0.88240000  0.02440000  1.0 0.1289810862
H  H66  1  0.74930000  0.18710000  0.47820000  1.0 0.1289810862
H  H67  1  0.71770000  0.96750000  0.10160000  1.0 0.1141922595
H  H68  1  0.77150000  0.09830000  0.42990000  1.0 0.1141922595
H  H69  1  0.49200000  0.85970000  0.23960000  1.0 0.1289810862
H  H70  1  0.59350000  0.94700000  0.31450000  1.0 0.1221618746
H  H71  1  0.66910000  0.08650000  0.19880000  1.0 0.1221618746
H  H72  1  0.64300000  0.17300000  0.24940000  1.0 0.1289810862
H  H73  1  0.88240000  0.26530000  0.19107000  1.0 0.1289810862
H  H74  1  0.18710000  0.43780000  0.64487000  1.0 0.1289810862
H  H75  1  0.96750000  0.24980000  0.26827000  1.0 0.1141922595
H  H76  1  0.09830000  0.32680000  0.59657000  1.0 0.1141922595
H  H77  1  0.85970000  0.36770000  0.40627000  1.0 0.1289810862
H  H78  1  0.94700000  0.35350000  0.48117000  1.0 0.1221618746
H  H79  1  0.08650000  0.41740000  0.36547000  1.0 0.1221618746
H  H80  1  0.17300000  0.53000000  0.41607000  1.0 0.1289810862
H  H81  1  0.73470000  0.61710000  0.85773000  1.0 0.1289810862
H  H82  1  0.56220000  0.74930000  0.31153000  1.0 0.1289810862
H  H83  1  0.75020000  0.71770000  0.93493000  1.0 0.1141922595
H  H84  1  0.67320000  0.77150000  0.26323000  1.0 0.1141922595
H  H85  1  0.63230000  0.49200000  0.07293000  1.0 0.1289810862
H  H86  1  0.64650000  0.59350000  0.14783000  1.0 0.1221618746
H  H87  1  0.58260000  0.66910000  0.03213000  1.0 0.1221618746
H  H88  1  0.47000000  0.64300000  0.08273000  1.0 0.1289810862
H  H89  1  0.38290000  0.11760000  0.52440000  1.0 0.1289810862
H  H90  1  0.25070000  0.81290000  0.97820000  1.0 0.1289810862
H  H91  1  0.28230000  0.03250000  0.60160000  1.0 0.1141922595
H  H92  1  0.22850000  0.90170000  0.92990000  1.0 0.1141922595
H  H93  1  0.50800000  0.14030000  0.73960000  1.0 0.1289810862
H  H94  1  0.40650000  0.05300000  0.81450000  1.0 0.1221618746
H  H95  1  0.33090000  0.91350000  0.69880000  1.0 0.1221618746
H  H96  1  0.35700000  0.82700000  0.74940000  1.0 0.1289810862
C  C1  1  0.52080000  0.32380000  0.26033000  1.0 0.5661859299
C  C2  1  0.45690000  0.31810000  0.20903000  1.0 -0.0111886945
C  C3  1  0.38780000  0.28240000  0.25043000  1.0 -0.0979575241
C  C4  1  0.26790000  0.43390000  0.91103000  1.0 -0.0913577747
C  C5  1  0.32770000  0.57090000  0.92873000  1.0 0.6034473762
C  C6  1  0.30750000  0.49710000  0.96363000  1.0 -0.0151087772
C  C7  1  0.32760000  0.27300000  0.20383000  1.0 -0.1510717287
C  C8  1  0.25430000  0.36740000  0.93993000  1.0 -0.1414512641
C  C9  1  0.46270000  0.34400000  0.12163000  1.0 -0.0913577747
C  C10  1  0.26630000  0.28620000  0.06063000  1.0 -0.2787900532
C  C11  1  0.40170000  0.33470000  0.07633000  1.0 -0.1414512641
C  C12  1  0.31600000  0.42200000  0.07743000  1.0 -0.1291023744
C  C13  1  0.33270000  0.29730000  0.11633000  1.0 0.0744141163
C  C14  1  0.33100000  0.48930000  0.04773000  1.0 -0.0979575241
C  C15  1  0.27850000  0.35960000  0.02323000  1.0 0.0800486868
C  C16  1  0.25310000  0.22890000  0.98713000  1.0 0.6656242746
C  C17  1  0.19480000  0.25340000  0.11763000  1.0 0.6645499254
C  C18  1  0.80300000  0.47920000  0.59367000  1.0 0.5661859299
C  C19  1  0.86120000  0.54310000  0.54237000  1.0 -0.0111886945
C  C20  1  0.89460000  0.61220000  0.58377000  1.0 -0.0979575241
C  C21  1  0.16600000  0.73210000  0.24437000  1.0 -0.0913577747
C  C22  1  0.24320000  0.67230000  0.26207000  1.0 0.6034473762
C  C23  1  0.18960000  0.69250000  0.29697000  1.0 -0.0151087772
C  C24  1  0.94540000  0.67240000  0.53717000  1.0 -0.1510717287
C  C25  1  0.11310000  0.74570000  0.27327000  1.0 -0.1414512641
C  C26  1  0.88130000  0.53730000  0.45497000  1.0 -0.0913577747
C  C27  1  0.01990000  0.73370000  0.39397000  1.0 -0.2787900532
C  C28  1  0.93300000  0.59830000  0.40967000  1.0 -0.1414512641
C  C29  1  0.10600000  0.68400000  0.41077000  1.0 -0.1291023744
C  C30  1  0.96460000  0.66730000  0.44967000  1.0 0.0744141163
C  C31  1  0.15830000  0.66900000  0.38107000  1.0 -0.0979575241
C  C32  1  0.08110000  0.72150000  0.35657000  1.0 0.0800486868
C  C33  1  0.97580000  0.74690000  0.32047000  1.0 0.6656242746
C  C34  1  0.05860000  0.80520000  0.45097000  1.0 0.6645499254
C  C35  1  0.67620000  0.19700000  0.92700000  1.0 0.5661859299
C  C36  1  0.68190000  0.13880000  0.87570000  1.0 -0.0111886945
C  C37  1  0.71760000  0.10540000  0.91710000  1.0 -0.0979575241
C  C38  1  0.56610000  0.83400000  0.57770000  1.0 -0.0913577747
C  C39  1  0.42910000  0.75680000  0.59540000  1.0 0.6034473762
C  C40  1  0.50290000  0.81040000  0.63030000  1.0 -0.0151087772
C  C41  1  0.72700000  0.05460000  0.87050000  1.0 -0.1510717287
C  C42  1  0.63260000  0.88690000  0.60660000  1.0 -0.1414512641
C  C43  1  0.65600000  0.11870000  0.78830000  1.0 -0.0913577747
C  C44  1  0.71380000  0.98010000  0.72730000  1.0 -0.2787900532
C  C45  1  0.66530000  0.06700000  0.74300000  1.0 -0.1414512641
C  C46  1  0.57800000  0.89400000  0.74410000  1.0 -0.1291023744
C  C47  1  0.70270000  0.03540000  0.78300000  1.0 0.0744141163
C  C48  1  0.51070000  0.84170000  0.71440000  1.0 -0.0979575241
C  C49  1  0.64040000  0.91890000  0.68990000  1.0 0.0800486868
C  C50  1  0.77110000  0.02420000  0.65380000  1.0 0.6656242746
C  C51  1  0.74660000  0.94140000  0.78430000  1.0 0.6645499254
C  C52  1  0.47920000  0.67620000  0.76033000  1.0 0.5661859299
C  C53  1  0.54310000  0.68190000  0.70903000  1.0 -0.0111886945
C  C54  1  0.61220000  0.71760000  0.75043000  1.0 -0.0979575241
C  C55  1  0.73210000  0.56610000  0.41103000  1.0 -0.0913577747
C  C56  1  0.67230000  0.42910000  0.42873000  1.0 0.6034473762
C  C57  1  0.69250000  0.50290000  0.46363000  1.0 -0.0151087772
C  C58  1  0.67240000  0.72700000  0.70383000  1.0 -0.1510717287
C  C59  1  0.74570000  0.63260000  0.43993000  1.0 -0.1414512641
C  C60  1  0.53730000  0.65600000  0.62163000  1.0 -0.0913577747
C  C61  1  0.73370000  0.71380000  0.56063000  1.0 -0.2787900532
C  C62  1  0.59830000  0.66530000  0.57633000  1.0 -0.1414512641
C  C63  1  0.68400000  0.57800000  0.57743000  1.0 -0.1291023744
C  C64  1  0.66730000  0.70270000  0.61633000  1.0 0.0744141163
C  C65  1  0.66900000  0.51070000  0.54773000  1.0 -0.0979575241
C  C66  1  0.72150000  0.64040000  0.52323000  1.0 0.0800486868
C  C67  1  0.74690000  0.77110000  0.48713000  1.0 0.6656242746
C  C68  1  0.80520000  0.74660000  0.61763000  1.0 0.6656242746
C  C69  1  0.19700000  0.52080000  0.09367000  1.0 0.5661859299
C  C70  1  0.13880000  0.45690000  0.04237000  1.0 -0.0111886945
C  C71  1  0.10540000  0.38780000  0.08377000  1.0 -0.0979575241
C  C72  1  0.83400000  0.26790000  0.74437000  1.0 -0.0913577747
C  C73  1  0.75680000  0.32770000  0.76207000  1.0 0.6034473762
C  C74  1  0.81040000  0.30750000  0.79697000  1.0 -0.0151087772
C  C75  1  0.05460000  0.32760000  0.03717000  1.0 -0.1510717287
C  C76  1  0.88690000  0.25430000  0.77327000  1.0 -0.1414512641
C  C77  1  0.11870000  0.46270000  0.95497000  1.0 -0.0913577747
C  C78  1  0.98010000  0.26630000  0.89397000  1.0 -0.2787900532
C  C79  1  0.06700000  0.40170000  0.90967000  1.0 -0.1414512641
C  C80  1  0.89400000  0.31600000  0.91077000  1.0 -0.1291023744
C  C81  1  0.03540000  0.33270000  0.94967000  1.0 0.0744141163
C  C82  1  0.84170000  0.33100000  0.88107000  1.0 -0.0979575241
C  C83  1  0.91890000  0.27850000  0.85657000  1.0 0.0800486868
C  C84  1  0.02420000  0.25310000  0.82047000  1.0 0.6656242746
C  C85  1  0.94140000  0.19480000  0.95097000  1.0 0.6656242746
C  C86  1  0.32380000  0.80300000  0.42700000  1.0 0.5661859299
C  C87  1  0.31810000  0.86120000  0.37570000  1.0 -0.0111886945
C  C88  1  0.28240000  0.89460000  0.41710000  1.0 -0.0979575241
C  C89  1  0.43390000  0.16600000  0.07770000  1.0 -0.0913577747
C  C90  1  0.57090000  0.24320000  0.09540000  1.0 0.6034473762
C  C91  1  0.49710000  0.18960000  0.13030000  1.0 -0.0151087772
C  C92  1  0.27300000  0.94540000  0.37050000  1.0 -0.1510717287
C  C93  1  0.36740000  0.11310000  0.10660000  1.0 -0.1414512641
C  C94  1  0.34400000  0.88130000  0.28830000  1.0 -0.0913577747
C  C95  1  0.28620000  0.01990000  0.22730000  1.0 -0.2787900532
C  C96  1  0.33470000  0.93300000  0.24300000  1.0 -0.1414512641
C  C97  1  0.42200000  0.10600000  0.24410000  1.0 -0.1291023744
C  C98  1  0.29730000  0.96460000  0.28300000  1.0 0.0744141163
C  C99  1  0.48930000  0.15830000  0.21440000  1.0 -0.0979575241
C  C100  1  0.35960000  0.08110000  0.18990000  1.0 0.0800486868
C  C101  1  0.22890000  0.97580000  0.15380000  1.0 0.6656242746
C  C102  1  0.25340000  0.05860000  0.28430000  1.0 0.6656242746
C  C103  1  0.19700000  0.67620000  0.73967000  1.0 0.5661859299
C  C104  1  0.13880000  0.68190000  0.79097000  1.0 -0.0111886945
C  C105  1  0.10540000  0.71760000  0.74957000  1.0 -0.0979575241
C  C106  1  0.83400000  0.56610000  0.08897000  1.0 -0.0913577747
C  C107  1  0.75680000  0.42910000  0.07127000  1.0 0.6034473762
C  C108  1  0.81040000  0.50290000  0.03637000  1.0 -0.0151087772
C  C109  1  0.05460000  0.72700000  0.79617000  1.0 -0.1510717287
C  C110  1  0.88690000  0.63260000  0.06007000  1.0 -0.1414512641
C  C111  1  0.11870000  0.65600000  0.87837000  1.0 -0.0913577747
C  C112  1  0.98010000  0.71380000  0.93937000  1.0 -0.2787900532
C  C113  1  0.06700000  0.66530000  0.92367000  1.0 -0.1414512641
C  C114  1  0.89400000  0.57800000  0.92257000  1.0 -0.1291023744
C  C115  1  0.03540000  0.70270000  0.88367000  1.0 0.0744141163
C  C116  1  0.84170000  0.51070000  0.95227000  1.0 -0.0979575241
C  C117  1  0.91890000  0.64040000  0.97677000  1.0 0.0800486868
C  C118  1  0.02420000  0.77110000  0.01287000  1.0 0.6656242746
C  C119  1  0.94140000  0.74660000  0.88237000  1.0 0.6645499254
C  C120  1  0.32380000  0.52080000  0.40633000  1.0 0.5661859299
C  C121  1  0.31810000  0.45690000  0.45763000  1.0 -0.0111886945
C  C122  1  0.28240000  0.38780000  0.41623000  1.0 -0.0979575241
C  C123  1  0.43390000  0.26790000  0.75563000  1.0 -0.0913577747
C  C124  1  0.57090000  0.32770000  0.73793000  1.0 0.6034473762
C  C125  1  0.49710000  0.30750000  0.70303000  1.0 -0.0151087772
C  C126  1  0.27300000  0.32760000  0.46283000  1.0 -0.1510717287
C  C127  1  0.36740000  0.25430000  0.72673000  1.0 -0.1414512641
C  C128  1  0.34400000  0.46270000  0.54503000  1.0 -0.0913577747
C  C129  1  0.28620000  0.26630000  0.60603000  1.0 -0.2787900532
C  C130  1  0.33470000  0.40170000  0.59033000  1.0 -0.1414512641
C  C131  1  0.42200000  0.31600000  0.58923000  1.0 -0.1291023744
C  C132  1  0.29730000  0.33270000  0.55033000  1.0 0.0744141163
C  C133  1  0.48930000  0.33100000  0.61893000  1.0 -0.0979575241
C  C134  1  0.35960000  0.27850000  0.64343000  1.0 0.0800486868
C  C135  1  0.22890000  0.25310000  0.67953000  1.0 0.6656242746
C  C136  1  0.25340000  0.19480000  0.54903000  1.0 0.6656242746
C  C137  1  0.47920000  0.80300000  0.07300000  1.0 0.5661859299
C  C138  1  0.54310000  0.86120000  0.12430000  1.0 -0.0111886945
C  C139  1  0.61220000  0.89460000  0.08290000  1.0 -0.0979575241
C  C140  1  0.73210000  0.16600000  0.42230000  1.0 -0.0913577747
C  C141  1  0.67230000  0.24320000  0.40460000  1.0 0.6034473762
C  C142  1  0.69250000  0.18960000  0.36970000  1.0 -0.0151087772
C  C143  1  0.67240000  0.94540000  0.12950000  1.0 -0.1510717287
C  C144  1  0.74570000  0.11310000  0.39340000  1.0 -0.1414512641
C  C145  1  0.53730000  0.88130000  0.21170000  1.0 -0.0913577747
C  C146  1  0.73370000  0.01990000  0.27270000  1.0 -0.2787900532
C  C147  1  0.59830000  0.93300000  0.25700000  1.0 -0.1414512641
C  C148  1  0.68400000  0.10600000  0.25590000  1.0 -0.1291023744
C  C149  1  0.66730000  0.96460000  0.21700000  1.0 0.0744141163
C  C150  1  0.66900000  0.15830000  0.28560000  1.0 -0.0979575241
C  C151  1  0.72150000  0.08110000  0.31010000  1.0 0.0800486868
C  C152  1  0.74690000  0.97580000  0.34620000  1.0 0.6656242746
C  C153  1  0.80520000  0.05860000  0.21570000  1.0 0.6656242746
C  C154  1  0.80300000  0.32380000  0.23967000  1.0 0.5661859299
C  C155  1  0.86120000  0.31810000  0.29097000  1.0 -0.0111886945
C  C156  1  0.89460000  0.28240000  0.24957000  1.0 -0.0979575241
C  C157  1  0.16600000  0.43390000  0.58897000  1.0 -0.0913577747
C  C158  1  0.24320000  0.57090000  0.57127000  1.0 0.6034473762
C  C159  1  0.18960000  0.49710000  0.53637000  1.0 -0.0151087772
C  C160  1  0.94540000  0.27300000  0.29617000  1.0 -0.1510717287
C  C161  1  0.11310000  0.36740000  0.56007000  1.0 -0.1414512641
C  C162  1  0.88130000  0.34400000  0.37837000  1.0 -0.0913577747
C  C163  1  0.01990000  0.28620000  0.43937000  1.0 -0.2787900532
C  C164  1  0.93300000  0.33470000  0.42367000  1.0 -0.1414512641
C  C165  1  0.10600000  0.42200000  0.42257000  1.0 -0.1291023744
C  C166  1  0.96460000  0.29730000  0.38367000  1.0 0.0744141163
C  C167  1  0.15830000  0.48930000  0.45227000  1.0 -0.0979575241
C  C168  1  0.08110000  0.35960000  0.47677000  1.0 0.0800486868
C  C169  1  0.97580000  0.22890000  0.51287000  1.0 0.6656242746
C  C170  1  0.05860000  0.25340000  0.38237000  1.0 0.6645499254
C  C171  1  0.67620000  0.47920000  0.90633000  1.0 0.5661859299
C  C172  1  0.68190000  0.54310000  0.95763000  1.0 -0.0111886945
C  C173  1  0.71760000  0.61220000  0.91623000  1.0 -0.0979575241
C  C174  1  0.56610000  0.73210000  0.25563000  1.0 -0.0913577747
C  C175  1  0.42910000  0.67230000  0.23793000  1.0 0.6034473762
C  C176  1  0.50290000  0.69250000  0.20303000  1.0 -0.0151087772
C  C177  1  0.72700000  0.67240000  0.96283000  1.0 -0.1510717287
C  C178  1  0.63260000  0.74570000  0.22673000  1.0 -0.1414512641
C  C179  1  0.65600000  0.53730000  0.04503000  1.0 -0.0913577747
C  C180  1  0.71380000  0.73370000  0.10603000  1.0 -0.2787900532
C  C181  1  0.66530000  0.59830000  0.09033000  1.0 -0.1414512641
C  C182  1  0.57800000  0.68400000  0.08923000  1.0 -0.1291023744
C  C183  1  0.70270000  0.66730000  0.05033000  1.0 0.0744141163
C  C184  1  0.51070000  0.66900000  0.11893000  1.0 -0.0979575241
C  C185  1  0.64040000  0.72150000  0.14343000  1.0 0.0800486868
C  C186  1  0.77110000  0.74690000  0.17953000  1.0 0.6656242746
C  C187  1  0.74660000  0.80520000  0.04903000  1.0 0.6645499254
C  C188  1  0.52080000  0.19700000  0.57300000  1.0 0.5661859299
C  C189  1  0.45690000  0.13880000  0.62430000  1.0 -0.0111886945
C  C190  1  0.38780000  0.10540000  0.58290000  1.0 -0.0979575241
C  C191  1  0.26790000  0.83400000  0.92230000  1.0 -0.0913577747
C  C192  1  0.32770000  0.75680000  0.90460000  1.0 0.6034473762
C  C193  1  0.30750000  0.81040000  0.86970000  1.0 -0.0151087772
C  C194  1  0.32760000  0.05460000  0.62950000  1.0 -0.1510717287
C  C195  1  0.25430000  0.88690000  0.89340000  1.0 -0.1414512641
C  C196  1  0.46270000  0.11870000  0.71170000  1.0 -0.0913577747
C  C197  1  0.26630000  0.98010000  0.77270000  1.0 -0.2787900532
C  C198  1  0.40170000  0.06700000  0.75700000  1.0 -0.1414512641
C  C199  1  0.31600000  0.89400000  0.75590000  1.0 -0.1291023744
C  C200  1  0.33270000  0.03540000  0.71700000  1.0 0.0744141163
C  C201  1  0.33100000  0.84170000  0.78560000  1.0 -0.0979575241
C  C202  1  0.27850000  0.91890000  0.81010000  1.0 0.0800486868
C  C203  1  0.25310000  0.02420000  0.84620000  1.0 0.6656242746
C  C204  1  0.19480000  0.94140000  0.71570000  1.0 0.6645499254
O  O1  1  0.30670000  0.57520000  0.85253000  1.0 -0.5292440444
O  O2  1  0.57900000  0.34790000  0.22013000  1.0 -0.5292440444
O  O3  1  0.50750000  0.30340000  0.34003000  1.0 -0.5231683617
O  O4  1  0.36610000  0.62380000  0.98103000  1.0 -0.5885399098
O  O5  1  0.26850000  0.69330000  0.18587000  1.0 -0.5292440444
O  O6  1  0.76890000  0.42100000  0.55347000  1.0 -0.5292440444
O  O7  1  0.79590000  0.49250000  0.67337000  1.0 -0.5231683617
O  O8  1  0.25770000  0.63390000  0.31437000  1.0 -0.5885399098
O  O9  1  0.42480000  0.73150000  0.51920000  1.0 -0.5292440444
O  O10  1  0.65210000  0.23110000  0.88680000  1.0 -0.5292440444
O  O11  1  0.69660000  0.20410000  0.00670000  1.0 -0.5231683617
O  O12  1  0.37620000  0.74230000  0.64770000  1.0 -0.5885399098
O  O13  1  0.69330000  0.42480000  0.35253000  1.0 -0.5292440444
O  O14  1  0.42100000  0.65210000  0.72013000  1.0 -0.5292440444
O  O15  1  0.49250000  0.69660000  0.84003000  1.0 -0.5231683617
O  O16  1  0.63390000  0.37620000  0.48103000  1.0 -0.5885399098
O  O17  1  0.73150000  0.30670000  0.68587000  1.0 -0.5292440444
O  O18  1  0.23110000  0.57900000  0.05347000  1.0 -0.5292440444
O  O19  1  0.20410000  0.50750000  0.17337000  1.0 -0.5231683617
O  O20  1  0.74230000  0.36610000  0.81437000  1.0 -0.5885399098
O  O21  1  0.57520000  0.26850000  0.01920000  1.0 -0.5292440444
O  O22  1  0.34790000  0.76890000  0.38680000  1.0 -0.5292440444
O  O23  1  0.30340000  0.79590000  0.50670000  1.0 -0.5231683617
O  O24  1  0.62380000  0.25770000  0.14770000  1.0 -0.5885399098
O  O25  1  0.73150000  0.42480000  0.14747000  1.0 -0.5292440444
O  O26  1  0.23110000  0.65210000  0.77987000  1.0 -0.5292440444
O  O27  1  0.20410000  0.69660000  0.65997000  1.0 -0.5231683617
O  O28  1  0.74230000  0.37620000  0.01897000  1.0 -0.5885399098
O  O29  1  0.57520000  0.30670000  0.81413000  1.0 -0.5292440444
O  O30  1  0.34790000  0.57900000  0.44653000  1.0 -0.5292440444
O  O31  1  0.30340000  0.50750000  0.32663000  1.0 -0.5231683617
O  O32  1  0.62380000  0.36610000  0.68563000  1.0 -0.5885399098
O  O33  1  0.69330000  0.26850000  0.48080000  1.0 -0.5292440444
O  O34  1  0.42100000  0.76890000  0.11320000  1.0 -0.5292440444
O  O35  1  0.49250000  0.79590000  0.99330000  1.0 -0.5231683617
O  O36  1  0.63390000  0.25770000  0.35230000  1.0 -0.5885399098
O  O37  1  0.26850000  0.57520000  0.64747000  1.0 -0.5292440444
O  O38  1  0.76890000  0.34790000  0.27987000  1.0 -0.5292440444
O  O39  1  0.79590000  0.30340000  0.15997000  1.0 -0.5231683617
O  O40  1  0.25770000  0.62380000  0.51897000  1.0 -0.5885399098
O  O41  1  0.42480000  0.69330000  0.31413000  1.0 -0.5292440444
O  O42  1  0.65210000  0.42100000  0.94653000  1.0 -0.5292440444
O  O43  1  0.69660000  0.49250000  0.82663000  1.0 -0.5231683617
O  O44  1  0.37620000  0.63390000  0.18563000  1.0 -0.5885399098
O  O45  1  0.30670000  0.73150000  0.98080000  1.0 -0.5292440444
O  O46  1  0.57900000  0.23110000  0.61320000  1.0 -0.5292440444
O  O47  1  0.50750000  0.20410000  0.49330000  1.0 -0.5231683617
O  O48  1  0.36610000  0.74230000  0.85230000  1.0 -0.5885399098
F  F1  1  0.30680000  0.26040000  0.92343000  1.0 -0.1989484908
F  F2  1  0.13970000  0.25070000  0.07033000  1.0 -0.1904413885
F  F3  1  0.19120000  0.20340000  0.94393000  1.0 -0.1904413885
F  F4  1  0.17300000  0.18650000  0.14663000  1.0 -0.1989484908
F  F5  1  0.20380000  0.29570000  0.18723000  1.0 -0.1904413885
F  F6  1  0.25730000  0.17190000  0.02193000  1.0 -0.1989484908
F  F7  1  0.95360000  0.69320000  0.25677000  1.0 -0.1989484908
F  F8  1  0.11100000  0.86030000  0.40367000  1.0 -0.1904413885
F  F9  1  0.01220000  0.80880000  0.27727000  1.0 -0.1904413885
F  F10  1  0.01350000  0.82700000  0.47997000  1.0 -0.1989484908
F  F11  1  0.09190000  0.79620000  0.52057000  1.0 -0.1904413885
F  F12  1  0.91460000  0.74270000  0.35527000  1.0 -0.1989484908
F  F13  1  0.73960000  0.04640000  0.59010000  1.0 -0.1989484908
F  F14  1  0.74930000  0.88900000  0.73700000  1.0 -0.1904413885
F  F15  1  0.79660000  0.98780000  0.61060000  1.0 -0.1904413885
F  F16  1  0.81350000  0.98650000  0.81330000  1.0 -0.1989484908
F  F17  1  0.70430000  0.90810000  0.85390000  1.0 -0.1904413885
F  F18  1  0.82810000  0.08540000  0.68860000  1.0 -0.1989484908
F  F19  1  0.69320000  0.73960000  0.42343000  1.0 -0.1989484908
F  F20  1  0.86030000  0.74930000  0.57033000  1.0 -0.1904413885
F  F21  1  0.80880000  0.79660000  0.44393000  1.0 -0.1904413885
F  F22  1  0.82700000  0.81350000  0.64663000  1.0 -0.1989484908
F  F23  1  0.79620000  0.70430000  0.68723000  1.0 -0.1904413885
F  F24  1  0.74270000  0.82810000  0.52193000  1.0 -0.1989484908
F  F25  1  0.04640000  0.30680000  0.75677000  1.0 -0.1989484908
F  F26  1  0.88900000  0.13970000  0.90367000  1.0 -0.1904413885
F  F27  1  0.98780000  0.19120000  0.77727000  1.0 -0.1904413885
F  F28  1  0.98650000  0.17300000  0.97997000  1.0 -0.1989484908
F  F29  1  0.90810000  0.20380000  0.02057000  1.0 -0.1904413885
F  F30  1  0.08540000  0.25730000  0.85527000  1.0 -0.1989484908
F  F31  1  0.26040000  0.95360000  0.09010000  1.0 -0.1989484908
F  F32  1  0.25070000  0.11100000  0.23700000  1.0 -0.1904413885
F  F33  1  0.20340000  0.01220000  0.11060000  1.0 -0.1904413885
F  F34  1  0.18650000  0.01350000  0.31330000  1.0 -0.1989484908
F  F35  1  0.29570000  0.09190000  0.35390000  1.0 -0.1904413885
F  F36  1  0.17190000  0.91460000  0.18860000  1.0 -0.1989484908
F  F37  1  0.04640000  0.73960000  0.07657000  1.0 -0.1989484908
F  F38  1  0.88900000  0.74930000  0.92967000  1.0 -0.1904413885
F  F39  1  0.98780000  0.79660000  0.05607000  1.0 -0.1904413885
F  F40  1  0.98650000  0.81350000  0.85337000  1.0 -0.1989484908
F  F41  1  0.90810000  0.70430000  0.81277000  1.0 -0.1904413885
F  F42  1  0.08540000  0.82810000  0.97807000  1.0 -0.1989484908
F  F43  1  0.26040000  0.30680000  0.74323000  1.0 -0.1989484908
F  F44  1  0.25070000  0.13970000  0.59633000  1.0 -0.1904413885
F  F45  1  0.20340000  0.19120000  0.72273000  1.0 -0.1904413885
F  F46  1  0.18650000  0.17300000  0.52003000  1.0 -0.1989484908
F  F47  1  0.29570000  0.20380000  0.47943000  1.0 -0.1904413885
F  F48  1  0.17190000  0.25730000  0.64473000  1.0 -0.1989484908
F  F49  1  0.69320000  0.95360000  0.40990000  1.0 -0.1989484908
F  F50  1  0.86030000  0.11100000  0.26300000  1.0 -0.1904413885
F  F51  1  0.80880000  0.01220000  0.38940000  1.0 -0.1904413885
F  F52  1  0.82700000  0.01350000  0.18670000  1.0 -0.1989484908
F  F53  1  0.79620000  0.09190000  0.14610000  1.0 -0.1904413885
F  F54  1  0.74270000  0.91460000  0.31140000  1.0 -0.1989484908
F  F55  1  0.95360000  0.26040000  0.57657000  1.0 -0.1989484908
F  F56  1  0.11100000  0.25070000  0.42967000  1.0 -0.1904413885
F  F57  1  0.01220000  0.20340000  0.55607000  1.0 -0.1904413885
F  F58  1  0.01350000  0.18650000  0.35337000  1.0 -0.1989484908
F  F59  1  0.09190000  0.29570000  0.31277000  1.0 -0.1904413885
F  F60  1  0.91460000  0.17190000  0.47807000  1.0 -0.1989484908
F  F61  1  0.73960000  0.69320000  0.24323000  1.0 -0.1989484908
F  F62  1  0.74930000  0.86030000  0.09633000  1.0 -0.1904413885
F  F63  1  0.79660000  0.80880000  0.22273000  1.0 -0.1904413885
F  F64  1  0.81350000  0.82700000  0.02003000  1.0 -0.1989484908
F  F65  1  0.70430000  0.79620000  0.97943000  1.0 -0.1904413885
F  F66  1  0.82810000  0.74270000  0.14473000  1.0 -0.1989484908
F  F67  1  0.30680000  0.04640000  0.90990000  1.0 -0.1989484908
F  F68  1  0.13970000  0.88900000  0.76300000  1.0 -0.1904413885
F  F69  1  0.19120000  0.98780000  0.88940000  1.0 -0.1904413885
F  F70  1  0.17300000  0.98650000  0.68670000  1.0 -0.1989484908
F  F71  1  0.20380000  0.90810000  0.64610000  1.0 -0.1904413885
F  F72  1  0.25730000  0.08540000  0.81140000  1.0 -0.1989484908
