# DDEC6 charges by PACMAN v1.1 (https://github.com/mtap-research/PACMAN-charge/)
data_XEGVUD_FSR_pacman
_symmetry_space_group_name_H-M   'P 1'
_cell_length_a   21.28420000
_cell_length_b   21.28420000
_cell_length_c   15.10940000
_cell_angle_alpha   90.00000000
_cell_angle_beta   90.00000000
_cell_angle_gamma   120.00000000
_symmetry_Int_Tables_number   1
_chemical_formula_structural   MnZnCo2H16C34(O2F3)4
_chemical_formula_sum   'Mn6 Zn6 Co12 H96 C204 O48 F72'
_cell_volume   5927.78594575
_cell_formula_units_Z   6
loop_
 _symmetry_equiv_pos_site_id
 _symmetry_equiv_pos_as_xyz
  1  'x, y, z'
loop_
 _atom_site_type_symbol
 _atom_site_label
 _atom_site_symmetry_multiplicity
 _atom_site_fract_x
 _atom_site_fract_y
 _atom_site_fract_z
 _atom_site_occupancy
 _atom_site_charge
Mn  Mn1  1  0.64860000  0.32430000  0.58333000  1.0 0.9906262957
Mn  Mn2  1  0.67570000  0.35140000  0.25000000  1.0 0.9906262957
Mn  Mn3  1  0.67570000  0.32430000  0.91667000  1.0 0.9906262957
Mn  Mn4  1  0.35140000  0.67570000  0.08333000  1.0 0.9906262957
Mn  Mn5  1  0.32430000  0.64860000  0.75000000  1.0 0.9906262957
Mn  Mn6  1  0.32430000  0.67570000  0.41667000  1.0 0.9906262957
Zn  Zn1  1  0.71693000  0.43386000  0.75000000  1.0 0.8502724074
Zn  Zn2  1  0.71693000  0.28307000  0.41667000  1.0 0.8502724074
Zn  Zn3  1  0.56614000  0.28307000  0.08333000  1.0 0.8502724074
Zn  Zn4  1  0.28307000  0.56614000  0.25000000  1.0 0.8502724074
Zn  Zn5  1  0.28307000  0.71693000  0.91667000  1.0 0.8502724074
Zn  Zn6  1  0.43386000  0.71693000  0.58333000  1.0 0.8502724074
Co  Co1  1  0.71580000  0.43160000  0.75000000  1.0 0.7746408287
Co  Co2  1  0.71580000  0.28420000  0.41667000  1.0 0.7759245339
Co  Co3  1  0.56840000  0.28420000  0.08333000  1.0 0.7746408287
Co  Co4  1  0.28420000  0.56840000  0.25000000  1.0 0.7746408287
Co  Co5  1  0.28420000  0.71580000  0.91667000  1.0 0.7746408287
Co  Co6  1  0.43160000  0.71580000  0.58333000  1.0 0.7746408287
Co  Co7  1  0.65700000  0.32850000  0.58333000  1.0 0.8261641266
Co  Co8  1  0.67150000  0.34300000  0.25000000  1.0 0.8261641266
Co  Co9  1  0.67150000  0.32850000  0.91667000  1.0 0.8261641266
Co  Co10  1  0.34300000  0.67150000  0.08333000  1.0 0.8249429765
Co  Co11  1  0.32850000  0.65700000  0.75000000  1.0 0.8261641266
Co  Co12  1  0.32850000  0.67150000  0.41667000  1.0 0.8249429765
H  H1  1  0.90170000  0.22960000  0.75947000  1.0 0.1174591984
H  H2  1  0.91680000  0.33490000  0.53467000  1.0 0.1174591984
H  H3  1  0.11440000  0.37980000  0.35757000  1.0 0.1323971702
H  H4  1  0.81410000  0.25350000  0.80887000  1.0 0.1323971702
H  H5  1  0.05540000  0.40690000  0.64347000  1.0 0.1174591984
H  H6  1  0.03110000  0.27990000  0.43627000  1.0 0.1103707863
H  H7  1  0.82770000  0.35800000  0.58307000  1.0 0.1103707863
H  H8  1  0.14200000  0.50650000  0.56707000  1.0 0.1323971702
H  H9  1  0.32790000  0.09830000  0.42613000  1.0 0.1174591984
H  H10  1  0.41810000  0.08320000  0.20133000  1.0 0.1174591984
H  H11  1  0.26540000  0.88560000  0.02423000  1.0 0.1323971702
H  H12  1  0.43940000  0.18590000  0.47553000  1.0 0.1323971702
H  H13  1  0.35150000  0.94460000  0.31013000  1.0 0.1174591984
H  H14  1  0.24880000  0.96890000  0.10293000  1.0 0.1103707863
H  H15  1  0.53030000  0.17230000  0.24973000  1.0 0.1103707863
H  H16  1  0.36450000  0.85800000  0.23373000  1.0 0.1323971702
H  H17  1  0.77040000  0.67210000  0.09280000  1.0 0.1174591984
H  H18  1  0.66510000  0.58190000  0.86800000  1.0 0.1174591984
H  H19  1  0.62020000  0.73460000  0.69090000  1.0 0.1323971702
H  H20  1  0.74650000  0.56060000  0.14220000  1.0 0.1323971702
H  H21  1  0.59310000  0.64850000  0.97680000  1.0 0.1174591984
H  H22  1  0.72010000  0.75120000  0.76960000  1.0 0.1103707863
H  H23  1  0.64200000  0.46970000  0.91640000  1.0 0.1103707863
H  H24  1  0.49350000  0.63550000  0.90040000  1.0 0.1323971702
H  H25  1  0.09830000  0.77040000  0.25947000  1.0 0.1174591984
H  H26  1  0.08320000  0.66510000  0.03467000  1.0 0.1174591984
H  H27  1  0.88560000  0.62020000  0.85757000  1.0 0.1323971702
H  H28  1  0.18590000  0.74650000  0.30887000  1.0 0.1323971702
H  H29  1  0.94460000  0.59310000  0.14347000  1.0 0.1174591984
H  H30  1  0.96890000  0.72010000  0.93627000  1.0 0.1103707863
H  H31  1  0.17230000  0.64200000  0.08307000  1.0 0.1103707863
H  H32  1  0.85800000  0.49350000  0.06707000  1.0 0.1323971702
H  H33  1  0.67210000  0.90170000  0.92613000  1.0 0.1174591984
H  H34  1  0.58190000  0.91680000  0.70133000  1.0 0.1174591984
H  H35  1  0.73460000  0.11440000  0.52423000  1.0 0.1323971702
H  H36  1  0.56060000  0.81410000  0.97553000  1.0 0.1323971702
H  H37  1  0.64850000  0.05540000  0.81013000  1.0 0.1174591984
H  H38  1  0.75120000  0.03110000  0.60293000  1.0 0.1103707863
H  H39  1  0.46970000  0.82770000  0.74973000  1.0 0.1103707863
H  H40  1  0.63550000  0.14200000  0.73373000  1.0 0.1323971702
H  H41  1  0.22960000  0.32790000  0.59280000  1.0 0.1174591984
H  H42  1  0.33490000  0.41810000  0.36800000  1.0 0.1174591984
H  H43  1  0.37980000  0.26540000  0.19090000  1.0 0.1323971702
H  H44  1  0.25350000  0.43940000  0.64220000  1.0 0.1323971702
H  H45  1  0.40690000  0.35150000  0.47680000  1.0 0.1174591984
H  H46  1  0.27990000  0.24880000  0.26960000  1.0 0.1103707863
H  H47  1  0.35800000  0.53030000  0.41640000  1.0 0.1103707863
H  H48  1  0.50650000  0.36450000  0.40040000  1.0 0.1323971702
H  H49  1  0.67210000  0.77040000  0.24053000  1.0 0.1174591984
H  H50  1  0.58190000  0.66510000  0.46533000  1.0 0.1174591984
H  H51  1  0.73460000  0.62020000  0.64243000  1.0 0.1323971702
H  H52  1  0.56060000  0.74650000  0.19113000  1.0 0.1323971702
H  H53  1  0.64850000  0.59310000  0.35653000  1.0 0.1174591984
H  H54  1  0.75120000  0.72010000  0.56373000  1.0 0.1103707863
H  H55  1  0.46970000  0.64200000  0.41693000  1.0 0.1103707863
H  H56  1  0.63550000  0.49350000  0.43293000  1.0 0.1323971702
H  H57  1  0.22960000  0.90170000  0.57387000  1.0 0.1174591984
H  H58  1  0.33490000  0.91680000  0.79867000  1.0 0.1174591984
H  H59  1  0.37980000  0.11440000  0.97577000  1.0 0.1323971702
H  H60  1  0.25350000  0.81410000  0.52447000  1.0 0.1323971702
H  H61  1  0.40690000  0.05540000  0.68987000  1.0 0.1174591984
H  H62  1  0.27990000  0.03110000  0.89707000  1.0 0.1103707863
H  H63  1  0.35800000  0.82770000  0.75027000  1.0 0.1103707863
H  H64  1  0.50650000  0.14200000  0.76627000  1.0 0.1323971702
H  H65  1  0.09830000  0.32790000  0.90720000  1.0 0.1174591984
H  H66  1  0.08320000  0.41810000  0.13200000  1.0 0.1174591984
H  H67  1  0.88560000  0.26540000  0.30910000  1.0 0.1323971702
H  H68  1  0.18590000  0.43940000  0.85780000  1.0 0.1323971702
H  H69  1  0.94460000  0.35150000  0.02320000  1.0 0.1174591984
H  H70  1  0.96890000  0.24880000  0.23040000  1.0 0.1174591984
H  H71  1  0.17230000  0.53030000  0.08360000  1.0 0.1103707863
H  H72  1  0.85800000  0.36450000  0.09960000  1.0 0.1323971702
H  H73  1  0.32790000  0.22960000  0.74053000  1.0 0.1174591984
H  H74  1  0.41810000  0.33490000  0.96533000  1.0 0.1174591984
H  H75  1  0.26540000  0.37980000  0.14243000  1.0 0.1323971702
H  H76  1  0.43940000  0.25350000  0.69113000  1.0 0.1323971702
H  H77  1  0.35150000  0.40690000  0.85653000  1.0 0.1174591984
H  H78  1  0.24880000  0.27990000  0.06373000  1.0 0.1103707863
H  H79  1  0.53030000  0.35800000  0.91693000  1.0 0.1103707863
H  H80  1  0.36450000  0.50650000  0.93293000  1.0 0.1323971702
H  H81  1  0.77040000  0.09830000  0.07387000  1.0 0.1174591984
H  H82  1  0.66510000  0.08320000  0.29867000  1.0 0.1174591984
H  H83  1  0.62020000  0.88560000  0.47577000  1.0 0.1323971702
H  H84  1  0.74650000  0.18590000  0.02447000  1.0 0.1323971702
H  H85  1  0.59310000  0.94460000  0.18987000  1.0 0.1174591984
H  H86  1  0.72010000  0.96890000  0.39707000  1.0 0.1103707863
H  H87  1  0.64200000  0.17230000  0.25027000  1.0 0.1103707863
H  H88  1  0.49350000  0.85800000  0.26627000  1.0 0.1323971702
H  H89  1  0.90170000  0.67210000  0.40720000  1.0 0.1174591984
H  H90  1  0.91680000  0.58190000  0.63200000  1.0 0.1174591984
H  H91  1  0.11440000  0.73460000  0.80910000  1.0 0.1323971702
H  H92  1  0.81410000  0.56060000  0.35780000  1.0 0.1323971702
H  H93  1  0.05540000  0.64850000  0.52320000  1.0 0.1174591984
H  H94  1  0.03110000  0.75120000  0.73040000  1.0 0.1103707863
H  H95  1  0.82770000  0.46970000  0.58360000  1.0 0.1103707863
H  H96  1  0.14200000  0.63550000  0.59960000  1.0 0.1323971702
C  C1  1  0.19540000  0.51610000  0.40437000  1.0 0.4791418789
C  C2  1  0.88760000  0.25620000  0.72427000  1.0 -0.1505041426
C  C3  1  0.89640000  0.31880000  0.59037000  1.0 -0.1411989651
C  C4  1  0.75890000  0.32920000  0.73787000  1.0 0.4382925136
C  C5  1  0.10330000  0.38530000  0.41557000  1.0 -0.1035040127
C  C6  1  0.97930000  0.26730000  0.60457000  1.0 -0.2937095982
C  C7  1  0.81300000  0.31000000  0.70237000  1.0 -0.0012431339
C  C8  1  0.83510000  0.27040000  0.75377000  1.0 -0.1035040127
C  C9  1  0.06780000  0.40120000  0.58617000  1.0 -0.1505041426
C  C10  1  0.13740000  0.45300000  0.45457000  1.0 -0.0094067794
C  C11  1  0.92000000  0.28130000  0.64237000  1.0 0.0713499483
C  C12  1  0.02430000  0.25750000  0.67817000  1.0 0.6522189481
C  C13  1  0.03400000  0.33250000  0.54767000  1.0 0.0713499483
C  C14  1  0.05270000  0.32540000  0.46257000  1.0 -0.1624945388
C  C15  1  0.84320000  0.33300000  0.61927000  1.0 -0.1505041426
C  C16  1  0.93970000  0.19670000  0.55027000  1.0 0.6522189481
C  C17  1  0.11940000  0.46110000  0.54047000  1.0 -0.1135991722
C  C18  1  0.32070000  0.80460000  0.07103000  1.0 0.4791418789
C  C19  1  0.36860000  0.11240000  0.39093000  1.0 -0.1505041426
C  C20  1  0.42240000  0.10360000  0.25703000  1.0 -0.1411989651
C  C21  1  0.57030000  0.24110000  0.40453000  1.0 0.4382925136
C  C22  1  0.28200000  0.89670000  0.08223000  1.0 -0.1035040127
C  C23  1  0.28800000  0.02070000  0.27123000  1.0 -0.2937095982
C  C24  1  0.49700000  0.18700000  0.36903000  1.0 -0.0012431339
C  C25  1  0.43530000  0.16490000  0.42043000  1.0 -0.1035040127
C  C26  1  0.33340000  0.93220000  0.25283000  1.0 -0.1505041426
C  C27  1  0.31560000  0.86260000  0.12123000  1.0 -0.0094067794
C  C28  1  0.36130000  0.08000000  0.30903000  1.0 0.0713499483
C  C29  1  0.23320000  0.97570000  0.34483000  1.0 0.6522189481
C  C30  1  0.29850000  0.96600000  0.21433000  1.0 0.0713499483
C  C31  1  0.27270000  0.94730000  0.12923000  1.0 -0.1624945388
C  C32  1  0.48980000  0.15680000  0.28593000  1.0 -0.1505041426
C  C33  1  0.25700000  0.06030000  0.21693000  1.0 0.6522189481
C  C34  1  0.34170000  0.88060000  0.20713000  1.0 -0.1135991722
C  C35  1  0.48390000  0.67930000  0.73770000  1.0 0.4791418789
C  C36  1  0.74380000  0.63140000  0.05760000  1.0 -0.1505041426
C  C37  1  0.68120000  0.57760000  0.92370000  1.0 -0.1411989651
C  C38  1  0.67080000  0.42970000  0.07120000  1.0 0.4382925136
C  C39  1  0.61470000  0.71800000  0.74890000  1.0 -0.1035040127
C  C40  1  0.73270000  0.71200000  0.93790000  1.0 -0.2937095982
C  C41  1  0.69000000  0.50300000  0.03570000  1.0 -0.0012431339
C  C42  1  0.72960000  0.56470000  0.08710000  1.0 -0.1035040127
C  C43  1  0.59880000  0.66666667  0.91950000  1.0 -0.1505041426
C  C44  1  0.54700000  0.68440000  0.78790000  1.0 -0.0094067794
C  C45  1  0.71870000  0.63870000  0.97570000  1.0 0.0713499483
C  C46  1  0.74250000  0.76680000  0.01150000  1.0 0.6522189481
C  C47  1  0.66750000  0.70150000  0.88100000  1.0 0.0713499483
C  C48  1  0.67460000  0.72730000  0.79590000  1.0 -0.1624945388
C  C49  1  0.66700000  0.51020000  0.95260000  1.0 -0.1505041426
C  C50  1  0.80330000  0.74300000  0.88360000  1.0 0.6522189481
C  C51  1  0.53890000  0.65830000  0.87380000  1.0 -0.1135991722
C  C52  1  0.80460000  0.48390000  0.90437000  1.0 0.4791418789
C  C53  1  0.11240000  0.74380000  0.22427000  1.0 -0.1505041426
C  C54  1  0.10360000  0.68120000  0.09037000  1.0 -0.1411989651
C  C55  1  0.24110000  0.67080000  0.23787000  1.0 0.4382925136
C  C56  1  0.89670000  0.61470000  0.91557000  1.0 -0.1035040127
C  C57  1  0.02070000  0.73270000  0.10457000  1.0 -0.2937095982
C  C58  1  0.18700000  0.69000000  0.20237000  1.0 -0.0012431339
C  C59  1  0.16490000  0.72960000  0.25377000  1.0 -0.1035040127
C  C60  1  0.93220000  0.59880000  0.08617000  1.0 -0.1505041426
C  C61  1  0.86260000  0.54700000  0.95457000  1.0 -0.0094067794
C  C62  1  0.08000000  0.71870000  0.14237000  1.0 0.0713499483
C  C63  1  0.97570000  0.74250000  0.17817000  1.0 0.6522189481
C  C64  1  0.96600000  0.66750000  0.04767000  1.0 0.0713499483
C  C65  1  0.94730000  0.67460000  0.96257000  1.0 -0.1624945388
C  C66  1  0.15680000  0.66700000  0.11927000  1.0 -0.1505041426
C  C67  1  0.06030000  0.80330000  0.05027000  1.0 0.6522189481
C  C68  1  0.88060000  0.53890000  0.04047000  1.0 -0.1135991722
C  C69  1  0.67930000  0.19540000  0.57103000  1.0 0.4791418789
C  C70  1  0.63140000  0.88760000  0.89093000  1.0 -0.1505041426
C  C71  1  0.57760000  0.89640000  0.75703000  1.0 -0.1411989651
C  C72  1  0.42970000  0.75890000  0.90453000  1.0 0.4382925136
C  C73  1  0.71800000  0.10330000  0.58223000  1.0 -0.1035040127
C  C74  1  0.71200000  0.97930000  0.77123000  1.0 -0.2937095982
C  C75  1  0.50300000  0.81300000  0.86903000  1.0 -0.0012431339
C  C76  1  0.56470000  0.83510000  0.92043000  1.0 -0.1035040127
C  C77  1  0.66666667  0.06780000  0.75283000  1.0 -0.1505041426
C  C78  1  0.68440000  0.13740000  0.62123000  1.0 -0.0094067794
C  C79  1  0.63870000  0.92000000  0.80903000  1.0 0.0713499483
C  C80  1  0.76680000  0.02430000  0.84483000  1.0 0.6522189481
C  C81  1  0.70150000  0.03400000  0.71433000  1.0 0.0713499483
C  C82  1  0.72730000  0.05270000  0.62923000  1.0 -0.1624945388
C  C83  1  0.51020000  0.84320000  0.78593000  1.0 -0.1505041426
C  C84  1  0.74300000  0.93970000  0.71693000  1.0 0.6522189481
C  C85  1  0.65830000  0.11940000  0.70713000  1.0 -0.1135991722
C  C86  1  0.51610000  0.32070000  0.23770000  1.0 0.4791418789
C  C87  1  0.25620000  0.36860000  0.55760000  1.0 -0.1505041426
C  C88  1  0.31880000  0.42240000  0.42370000  1.0 -0.1411989651
C  C89  1  0.32920000  0.57030000  0.57120000  1.0 0.4382925136
C  C90  1  0.38530000  0.28200000  0.24890000  1.0 -0.1035040127
C  C91  1  0.26730000  0.28800000  0.43790000  1.0 -0.2937095982
C  C92  1  0.31000000  0.49700000  0.53570000  1.0 -0.0012431339
C  C93  1  0.27040000  0.43530000  0.58710000  1.0 -0.1035040127
C  C94  1  0.40120000  0.33340000  0.41950000  1.0 -0.1505041426
C  C95  1  0.45300000  0.31560000  0.28790000  1.0 -0.0094067794
C  C96  1  0.28130000  0.36130000  0.47570000  1.0 0.0713499483
C  C97  1  0.25750000  0.23320000  0.51150000  1.0 0.6522189481
C  C98  1  0.33250000  0.29850000  0.38100000  1.0 0.0713499483
C  C99  1  0.32540000  0.27270000  0.29590000  1.0 -0.1624945388
C  C100  1  0.33300000  0.48980000  0.45260000  1.0 -0.1505041426
C  C101  1  0.19670000  0.25700000  0.38360000  1.0 0.6522189481
C  C102  1  0.46110000  0.34170000  0.37380000  1.0 -0.1135991722
C  C103  1  0.67930000  0.48390000  0.59563000  1.0 0.4791418789
C  C104  1  0.63140000  0.74380000  0.27573000  1.0 -0.1505041426
C  C105  1  0.57760000  0.68120000  0.40963000  1.0 -0.1411989651
C  C106  1  0.42970000  0.67080000  0.26213000  1.0 0.4382925136
C  C107  1  0.71800000  0.61470000  0.58443000  1.0 -0.1035040127
C  C108  1  0.71200000  0.73270000  0.39543000  1.0 -0.2937095982
C  C109  1  0.50300000  0.69000000  0.29763000  1.0 -0.0012431339
C  C110  1  0.56470000  0.72960000  0.24623000  1.0 -0.1035040127
C  C111  1  0.66666667  0.59880000  0.41383000  1.0 -0.1505041426
C  C112  1  0.68440000  0.54700000  0.54543000  1.0 -0.0094067794
C  C113  1  0.63870000  0.71870000  0.35763000  1.0 0.0713499483
C  C114  1  0.76680000  0.74250000  0.32183000  1.0 0.6522189481
C  C115  1  0.70150000  0.66750000  0.45233000  1.0 0.0713499483
C  C116  1  0.72730000  0.67460000  0.53743000  1.0 -0.1624945388
C  C117  1  0.51020000  0.66700000  0.38073000  1.0 -0.1505041426
C  C118  1  0.74300000  0.80330000  0.44973000  1.0 0.6522189481
C  C119  1  0.65830000  0.53890000  0.45953000  1.0 -0.1135991722
C  C120  1  0.51610000  0.19540000  0.92897000  1.0 0.4791418789
C  C121  1  0.25620000  0.88760000  0.60907000  1.0 -0.1505041426
C  C122  1  0.31880000  0.89640000  0.74297000  1.0 -0.1411989651
C  C123  1  0.32920000  0.75890000  0.59547000  1.0 0.4382925136
C  C124  1  0.38530000  0.10330000  0.91777000  1.0 -0.1035040127
C  C125  1  0.26730000  0.97930000  0.72877000  1.0 -0.2937095982
C  C126  1  0.31000000  0.81300000  0.63097000  1.0 -0.0012431339
C  C127  1  0.27040000  0.83510000  0.57957000  1.0 -0.1035040127
C  C128  1  0.40120000  0.06780000  0.74717000  1.0 -0.1505041426
C  C129  1  0.45300000  0.13740000  0.87877000  1.0 -0.0094067794
C  C130  1  0.28130000  0.92000000  0.69097000  1.0 0.0713499483
C  C131  1  0.25750000  0.02430000  0.65517000  1.0 0.6522189481
C  C132  1  0.33250000  0.03400000  0.78567000  1.0 0.0713499483
C  C133  1  0.32540000  0.05270000  0.87077000  1.0 -0.1624945388
C  C134  1  0.33300000  0.84320000  0.71407000  1.0 -0.1505041426
C  C135  1  0.19670000  0.93970000  0.78307000  1.0 0.6522189481
C  C136  1  0.46110000  0.11940000  0.79287000  1.0 -0.1135991722
C  C137  1  0.80460000  0.32070000  0.26230000  1.0 0.4791418789
C  C138  1  0.11240000  0.36860000  0.94240000  1.0 -0.1505041426
C  C139  1  0.10360000  0.42240000  0.07630000  1.0 -0.1411989651
C  C140  1  0.24110000  0.57030000  0.92880000  1.0 0.4382925136
C  C141  1  0.89670000  0.28200000  0.25110000  1.0 -0.1035040127
C  C142  1  0.02070000  0.28800000  0.06210000  1.0 -0.2937095982
C  C143  1  0.18700000  0.49700000  0.96430000  1.0 -0.0012431339
C  C144  1  0.16490000  0.43530000  0.91290000  1.0 -0.1035040127
C  C145  1  0.93220000  0.33340000  0.08050000  1.0 -0.1505041426
C  C146  1  0.86260000  0.31560000  0.21210000  1.0 -0.0094067794
C  C147  1  0.08000000  0.36130000  0.02430000  1.0 0.0713499483
C  C148  1  0.97570000  0.23320000  0.98850000  1.0 0.6522189481
C  C149  1  0.96600000  0.29850000  0.11900000  1.0 0.0713499483
C  C150  1  0.94730000  0.27270000  0.20410000  1.0 -0.1624945388
C  C151  1  0.15680000  0.48980000  0.04740000  1.0 -0.1505041426
C  C152  1  0.06030000  0.25700000  0.11640000  1.0 0.6522189481
C  C153  1  0.88060000  0.34170000  0.12620000  1.0 -0.1135991722
C  C154  1  0.32070000  0.51610000  0.09563000  1.0 0.4791418789
C  C155  1  0.36860000  0.25620000  0.77573000  1.0 -0.1505041426
C  C156  1  0.42240000  0.31880000  0.90963000  1.0 -0.1411989651
C  C157  1  0.57030000  0.32920000  0.76213000  1.0 0.4382925136
C  C158  1  0.28200000  0.38530000  0.08443000  1.0 -0.1035040127
C  C159  1  0.28800000  0.26730000  0.89543000  1.0 -0.2937095982
C  C160  1  0.49700000  0.31000000  0.79763000  1.0 -0.0012431339
C  C161  1  0.43530000  0.27040000  0.74623000  1.0 -0.1035040127
C  C162  1  0.33340000  0.40120000  0.91383000  1.0 -0.1505041426
C  C163  1  0.31560000  0.45300000  0.04543000  1.0 -0.0094067794
C  C164  1  0.36130000  0.28130000  0.85763000  1.0 0.0713499483
C  C165  1  0.23320000  0.25750000  0.82183000  1.0 0.6522189481
C  C166  1  0.29850000  0.33250000  0.95233000  1.0 0.0713499483
C  C167  1  0.27270000  0.32540000  0.03743000  1.0 -0.1624945388
C  C168  1  0.48980000  0.33300000  0.88073000  1.0 -0.1505041426
C  C169  1  0.25700000  0.19670000  0.94973000  1.0 0.6522189481
C  C170  1  0.34170000  0.46110000  0.95953000  1.0 -0.1135991722
C  C171  1  0.48390000  0.80460000  0.42897000  1.0 0.4791418789
C  C172  1  0.74380000  0.11240000  0.10907000  1.0 -0.1505041426
C  C173  1  0.68120000  0.10360000  0.24297000  1.0 -0.1411989651
C  C174  1  0.67080000  0.24110000  0.09547000  1.0 0.4382925136
C  C175  1  0.61470000  0.89670000  0.41777000  1.0 -0.1035040127
C  C176  1  0.73270000  0.02070000  0.22877000  1.0 -0.2937095982
C  C177  1  0.69000000  0.18700000  0.13097000  1.0 -0.0012431339
C  C178  1  0.72960000  0.16490000  0.07957000  1.0 -0.1035040127
C  C179  1  0.59880000  0.93220000  0.24717000  1.0 -0.1505041426
C  C180  1  0.54700000  0.86260000  0.37877000  1.0 -0.0094067794
C  C181  1  0.71870000  0.08000000  0.19097000  1.0 0.0713499483
C  C182  1  0.74250000  0.97570000  0.15517000  1.0 0.6522189481
C  C183  1  0.66750000  0.96600000  0.28567000  1.0 0.0713499483
C  C184  1  0.67460000  0.94730000  0.37077000  1.0 -0.1624945388
C  C185  1  0.66700000  0.15680000  0.21407000  1.0 -0.1505041426
C  C186  1  0.80330000  0.06030000  0.28307000  1.0 0.6522189481
C  C187  1  0.53890000  0.88060000  0.29287000  1.0 -0.1135991722
C  C188  1  0.19540000  0.67930000  0.76230000  1.0 0.4791418789
C  C189  1  0.88760000  0.63140000  0.44240000  1.0 -0.1505041426
C  C190  1  0.89640000  0.57760000  0.57630000  1.0 -0.1411989651
C  C191  1  0.75890000  0.42970000  0.42880000  1.0 0.4382925136
C  C192  1  0.10330000  0.71800000  0.75110000  1.0 -0.1035040127
C  C193  1  0.97930000  0.71200000  0.56210000  1.0 -0.2937095982
C  C194  1  0.81300000  0.50300000  0.46430000  1.0 -0.0012431339
C  C195  1  0.83510000  0.56470000  0.41290000  1.0 -0.1035040127
C  C196  1  0.06780000  0.66666667  0.58050000  1.0 -0.1624945388
C  C197  1  0.13740000  0.68440000  0.71210000  1.0 -0.0094067794
C  C198  1  0.92000000  0.63870000  0.52430000  1.0 0.0713499483
C  C199  1  0.02430000  0.76680000  0.48850000  1.0 0.6522189481
C  C200  1  0.03400000  0.70150000  0.61900000  1.0 0.0713499483
C  C201  1  0.05270000  0.72730000  0.70410000  1.0 -0.1624945388
C  C202  1  0.84320000  0.51020000  0.54740000  1.0 -0.1505041426
C  C203  1  0.93970000  0.74300000  0.61640000  1.0 0.6522189481
C  C204  1  0.11940000  0.65830000  0.62620000  1.0 -0.1135991722
O  O1  1  0.74393000  0.36937000  0.68777000  1.0 -0.6986534593
O  O2  1  0.73303000  0.30819000  0.81247000  1.0 -0.5892515031
O  O3  1  0.23075000  0.57575000  0.44247000  1.0 -0.5997777677
O  O4  1  0.20490000  0.50350000  0.32537000  1.0 -0.5771937904
O  O5  1  0.62544000  0.25607000  0.35443000  1.0 -0.6986534593
O  O6  1  0.57516000  0.26697000  0.47913000  1.0 -0.5892515031
O  O7  1  0.34500000  0.76925000  0.10913000  1.0 -0.5997777677
O  O8  1  0.29860000  0.79510000  0.99203000  1.0 -0.5771937904
O  O9  1  0.63063000  0.37456000  0.02110000  1.0 -0.6986534593
O  O10  1  0.69181000  0.42484000  0.14580000  1.0 -0.5892515031
O  O11  1  0.42425000  0.65500000  0.77580000  1.0 -0.5997777677
O  O12  1  0.49650000  0.70140000  0.65870000  1.0 -0.5771937904
O  O13  1  0.25607000  0.63063000  0.18777000  1.0 -0.6986534593
O  O14  1  0.26697000  0.69181000  0.31247000  1.0 -0.5892515031
O  O15  1  0.76925000  0.42425000  0.94247000  1.0 -0.5997777677
O  O16  1  0.79510000  0.49650000  0.82537000  1.0 -0.5771937904
O  O17  1  0.37456000  0.74393000  0.85443000  1.0 -0.6986534593
O  O18  1  0.42484000  0.73303000  0.97913000  1.0 -0.5892515031
O  O19  1  0.65500000  0.23075000  0.60913000  1.0 -0.5997777677
O  O20  1  0.70140000  0.20490000  0.49203000  1.0 -0.5749919114
O  O21  1  0.36937000  0.62544000  0.52110000  1.0 -0.6986534593
O  O22  1  0.30819000  0.57516000  0.64580000  1.0 -0.5892515031
O  O23  1  0.57575000  0.34500000  0.27580000  1.0 -0.5997777677
O  O24  1  0.50350000  0.29860000  0.15870000  1.0 -0.5771937904
O  O25  1  0.37456000  0.63063000  0.31223000  1.0 -0.6986534593
O  O26  1  0.42484000  0.69181000  0.18753000  1.0 -0.5892515031
O  O27  1  0.65500000  0.42425000  0.55753000  1.0 -0.5997777677
O  O28  1  0.70140000  0.49650000  0.67463000  1.0 -0.5771937904
O  O29  1  0.36937000  0.74393000  0.64557000  1.0 -0.6986534593
O  O30  1  0.30819000  0.73303000  0.52087000  1.0 -0.5892515031
O  O31  1  0.57575000  0.23075000  0.89087000  1.0 -0.5997777677
O  O32  1  0.50350000  0.20490000  0.00797000  1.0 -0.5771937904
O  O33  1  0.25607000  0.62544000  0.97890000  1.0 -0.6986534593
O  O34  1  0.26697000  0.57516000  0.85420000  1.0 -0.5892515031
O  O35  1  0.76925000  0.34500000  0.22420000  1.0 -0.5997777677
O  O36  1  0.79510000  0.29860000  0.34130000  1.0 -0.5749919114
O  O37  1  0.62544000  0.36937000  0.81223000  1.0 -0.6986534593
O  O38  1  0.57516000  0.30819000  0.68753000  1.0 -0.5892515031
O  O39  1  0.34500000  0.57575000  0.05753000  1.0 -0.5997777677
O  O40  1  0.29860000  0.50350000  0.17463000  1.0 -0.5771937904
O  O41  1  0.63063000  0.25607000  0.14557000  1.0 -0.6986534593
O  O42  1  0.69181000  0.26697000  0.02087000  1.0 -0.5892515031
O  O43  1  0.42425000  0.76925000  0.39087000  1.0 -0.5997777677
O  O44  1  0.49650000  0.79510000  0.50797000  1.0 -0.5771937904
O  O45  1  0.74393000  0.37456000  0.47890000  1.0 -0.6986534593
O  O46  1  0.73303000  0.42484000  0.35420000  1.0 -0.5892515031
O  O47  1  0.23075000  0.65500000  0.72420000  1.0 -0.5997777677
O  O48  1  0.20490000  0.70140000  0.84130000  1.0 -0.5771937904
F  F1  1  0.90620000  0.20440000  0.48087000  1.0 -0.2007994535
F  F2  1  0.98420000  0.17390000  0.52057000  1.0 -0.2007994535
F  F3  1  0.04690000  0.30950000  0.73917000  1.0 -0.2065501955
F  F4  1  0.98770000  0.19450000  0.72107000  1.0 -0.2007994535
F  F5  1  0.08300000  0.25870000  0.64347000  1.0 -0.2007994535
F  F6  1  0.88890000  0.14260000  0.59907000  1.0 -0.2007994535
F  F7  1  0.29820000  0.09380000  0.14753000  1.0 -0.2007994535
F  F8  1  0.18970000  0.01580000  0.18723000  1.0 -0.2007994535
F  F9  1  0.26260000  0.95310000  0.40583000  1.0 -0.2065501955
F  F10  1  0.20680000  0.01230000  0.38773000  1.0 -0.2007994535
F  F11  1  0.17570000  0.91700000  0.31013000  1.0 -0.2007994535
F  F12  1  0.25370000  0.11110000  0.26573000  1.0 -0.2007994535
F  F13  1  0.79560000  0.70180000  0.81420000  1.0 -0.2007994535
F  F14  1  0.82610000  0.81030000  0.85390000  1.0 -0.2007994535
F  F15  1  0.69050000  0.73740000  0.07250000  1.0 -0.2065501955
F  F16  1  0.80550000  0.79320000  0.05440000  1.0 -0.2007994535
F  F17  1  0.74130000  0.82430000  0.97680000  1.0 -0.2007994535
F  F18  1  0.85740000  0.74630000  0.93240000  1.0 -0.2007994535
F  F19  1  0.09380000  0.79560000  0.98087000  1.0 -0.2007994535
F  F20  1  0.01580000  0.82610000  0.02057000  1.0 -0.2007994535
F  F21  1  0.95310000  0.69050000  0.23917000  1.0 -0.2065501955
F  F22  1  0.01230000  0.80550000  0.22107000  1.0 -0.2007994535
F  F23  1  0.91700000  0.74130000  0.14347000  1.0 -0.2007994535
F  F24  1  0.11110000  0.85740000  0.09907000  1.0 -0.2007994535
F  F25  1  0.70180000  0.90620000  0.64753000  1.0 -0.2007994535
F  F26  1  0.81030000  0.98420000  0.68723000  1.0 -0.2007994535
F  F27  1  0.73740000  0.04690000  0.90583000  1.0 -0.2065501955
F  F28  1  0.79320000  0.98770000  0.88773000  1.0 -0.2007994535
F  F29  1  0.82430000  0.08300000  0.81013000  1.0 -0.2007994535
F  F30  1  0.74630000  0.88890000  0.76573000  1.0 -0.2007994535
F  F31  1  0.20440000  0.29820000  0.31420000  1.0 -0.2007994535
F  F32  1  0.17390000  0.18970000  0.35390000  1.0 -0.2007994535
F  F33  1  0.30950000  0.26260000  0.57250000  1.0 -0.2065501955
F  F34  1  0.19450000  0.20680000  0.55440000  1.0 -0.2007994535
F  F35  1  0.25870000  0.17570000  0.47680000  1.0 -0.2007994535
F  F36  1  0.14260000  0.25370000  0.43240000  1.0 -0.2007994535
F  F37  1  0.70180000  0.79560000  0.51913000  1.0 -0.2007994535
F  F38  1  0.81030000  0.82610000  0.47943000  1.0 -0.2007994535
F  F39  1  0.73740000  0.69050000  0.26083000  1.0 -0.2065501955
F  F40  1  0.79320000  0.80550000  0.27893000  1.0 -0.2007994535
F  F41  1  0.82430000  0.74130000  0.35653000  1.0 -0.2007994535
F  F42  1  0.74630000  0.85740000  0.40093000  1.0 -0.2007994535
F  F43  1  0.20440000  0.90620000  0.85247000  1.0 -0.2007994535
F  F44  1  0.17390000  0.98420000  0.81277000  1.0 -0.2007994535
F  F45  1  0.30950000  0.04690000  0.59417000  1.0 -0.2065501955
F  F46  1  0.19450000  0.98770000  0.61227000  1.0 -0.2007994535
F  F47  1  0.25870000  0.08300000  0.68987000  1.0 -0.2007994535
F  F48  1  0.14260000  0.88890000  0.73427000  1.0 -0.2007994535
F  F49  1  0.09380000  0.29820000  0.18580000  1.0 -0.2007994535
F  F50  1  0.01580000  0.18970000  0.14610000  1.0 -0.2007994535
F  F51  1  0.95310000  0.26260000  0.92750000  1.0 -0.2065501955
F  F52  1  0.01230000  0.20680000  0.94560000  1.0 -0.2007994535
F  F53  1  0.91700000  0.17570000  0.02320000  1.0 -0.2007994535
F  F54  1  0.11110000  0.25370000  0.06760000  1.0 -0.2007994535
F  F55  1  0.29820000  0.20440000  0.01913000  1.0 -0.2007994535
F  F56  1  0.18970000  0.17390000  0.97943000  1.0 -0.2007994535
F  F57  1  0.26260000  0.30950000  0.76083000  1.0 -0.2065501955
F  F58  1  0.20680000  0.19450000  0.77893000  1.0 -0.2007994535
F  F59  1  0.17570000  0.25870000  0.85653000  1.0 -0.2007994535
F  F60  1  0.25370000  0.14260000  0.90093000  1.0 -0.2007994535
F  F61  1  0.79560000  0.09380000  0.35247000  1.0 -0.2007994535
F  F62  1  0.82610000  0.01580000  0.31277000  1.0 -0.2007994535
F  F63  1  0.69050000  0.95310000  0.09417000  1.0 -0.2065501955
F  F64  1  0.80550000  0.01230000  0.11227000  1.0 -0.2007994535
F  F65  1  0.74130000  0.91700000  0.18987000  1.0 -0.2007994535
F  F66  1  0.85740000  0.11110000  0.23427000  1.0 -0.2007994535
F  F67  1  0.90620000  0.70180000  0.68580000  1.0 -0.2007994535
F  F68  1  0.98420000  0.81030000  0.64610000  1.0 -0.2007994535
F  F69  1  0.04690000  0.73740000  0.42750000  1.0 -0.2065501955
F  F70  1  0.98770000  0.79320000  0.44560000  1.0 -0.2007994535
F  F71  1  0.08300000  0.82430000  0.52320000  1.0 -0.2007994535
F  F72  1  0.88890000  0.74630000  0.56760000  1.0 -0.2007994535
