# DDEC6 charges by PACMAN v1.1 (https://github.com/mtap-research/PACMAN-charge/)
data_XEGWUE_ASR_pacman
_symmetry_space_group_name_H-M   'P 1'
_cell_length_a   21.23160000
_cell_length_b   21.23160000
_cell_length_c   7.66040000
_cell_angle_alpha   90.00000000
_cell_angle_beta   90.00000000
_cell_angle_gamma   120.00000000
_symmetry_Int_Tables_number   1
_chemical_formula_structural   ZnCoH8C17(O2F3)2
_chemical_formula_sum   'Zn6 Co6 H48 C102 O24 F36'
_cell_volume   2990.52561329
_cell_formula_units_Z   6
loop_
 _symmetry_equiv_pos_site_id
 _symmetry_equiv_pos_as_xyz
  1  'x, y, z'
loop_
 _atom_site_type_symbol
 _atom_site_label
 _atom_site_symmetry_multiplicity
 _atom_site_fract_x
 _atom_site_fract_y
 _atom_site_fract_z
 _atom_site_occupancy
 _atom_site_charge
Zn  Zn1  1  0.29940000  0.70060000  0.16667000  1.0 0.8738388083
Zn  Zn2  1  0.40120000  0.70060000  0.83333000  1.0 0.8738388083
Zn  Zn3  1  0.29940000  0.59880000  0.50000000  1.0 0.8738388083
Zn  Zn4  1  0.70060000  0.29940000  0.16667000  1.0 0.8738388083
Zn  Zn5  1  0.59880000  0.29940000  0.83333000  1.0 0.8738388083
Zn  Zn6  1  0.70060000  0.40120000  0.50000000  1.0 0.8738388083
Co  Co1  1  0.30050000  0.69950000  0.16667000  1.0 0.7667624019
Co  Co2  1  0.39900000  0.69950000  0.83333000  1.0 0.7667624019
Co  Co3  1  0.30050000  0.60100000  0.50000000  1.0 0.7667624019
Co  Co4  1  0.69950000  0.30050000  0.16667000  1.0 0.7667624019
Co  Co5  1  0.60100000  0.30050000  0.83333000  1.0 0.7667624019
Co  Co6  1  0.69950000  0.39900000  0.50000000  1.0 0.7667624019
H  H1  1  0.59250000  0.84710000  0.05027000  1.0 0.1318352929
H  H2  1  0.58830000  0.93170000  0.60907000  1.0 0.1181255334
H  H3  1  0.48060000  0.84330000  0.47917000  1.0 0.1181255334
H  H4  1  0.69990000  0.93510000  0.17777000  1.0 0.1181255334
H  H5  1  0.25460000  0.40750000  0.71693000  1.0 0.1318352929
H  H6  1  0.34340000  0.41170000  0.27573000  1.0 0.1181255334
H  H7  1  0.36270000  0.51940000  0.14583000  1.0 0.1181255334
H  H8  1  0.23520000  0.30010000  0.84443000  1.0 0.1181255334
H  H9  1  0.15290000  0.74540000  0.38360000  1.0 0.1318352929
H  H10  1  0.06830000  0.65660000  0.94240000  1.0 0.1181255334
H  H11  1  0.15670000  0.63730000  0.81250000  1.0 0.1181255334
H  H12  1  0.06490000  0.76480000  0.51110000  1.0 0.1181255334
H  H13  1  0.40750000  0.15290000  0.05027000  1.0 0.1318352929
H  H14  1  0.41170000  0.06830000  0.60907000  1.0 0.1181255334
H  H15  1  0.51940000  0.15670000  0.47917000  1.0 0.1181255334
H  H16  1  0.30010000  0.06490000  0.17777000  1.0 0.1181255334
H  H17  1  0.74540000  0.59250000  0.71693000  1.0 0.1318352929
H  H18  1  0.65660000  0.58830000  0.27573000  1.0 0.1181255334
H  H19  1  0.63730000  0.48060000  0.14583000  1.0 0.1181255334
H  H20  1  0.76480000  0.69990000  0.84443000  1.0 0.1181255334
H  H21  1  0.84710000  0.25460000  0.38360000  1.0 0.1318352929
H  H22  1  0.93170000  0.34340000  0.94240000  1.0 0.1181255334
H  H23  1  0.84330000  0.36270000  0.81250000  1.0 0.1181255334
H  H24  1  0.93510000  0.23520000  0.51110000  1.0 0.1181255334
H  H25  1  0.74540000  0.15290000  0.94973000  1.0 0.1318352929
H  H26  1  0.65660000  0.06830000  0.39093000  1.0 0.1181255334
H  H27  1  0.63730000  0.15670000  0.52083000  1.0 0.1181255334
H  H28  1  0.76480000  0.06490000  0.82223000  1.0 0.1181255334
H  H29  1  0.84710000  0.59250000  0.28307000  1.0 0.1318352929
H  H30  1  0.93170000  0.58830000  0.72427000  1.0 0.1181255334
H  H31  1  0.84330000  0.48060000  0.85417000  1.0 0.1181255334
H  H32  1  0.93510000  0.69990000  0.15557000  1.0 0.1181255334
H  H33  1  0.40750000  0.25460000  0.61640000  1.0 0.1318352929
H  H34  1  0.41170000  0.34340000  0.05760000  1.0 0.1181255334
H  H35  1  0.51940000  0.36270000  0.18750000  1.0 0.1181255334
H  H36  1  0.30010000  0.23520000  0.48890000  1.0 0.1181255334
H  H37  1  0.25460000  0.84710000  0.94973000  1.0 0.1318352929
H  H38  1  0.34340000  0.93170000  0.39093000  1.0 0.1181255334
H  H39  1  0.36270000  0.84330000  0.52083000  1.0 0.1181255334
H  H40  1  0.23520000  0.93510000  0.82223000  1.0 0.1181255334
H  H41  1  0.15290000  0.40750000  0.28307000  1.0 0.1318352929
H  H42  1  0.06830000  0.41170000  0.72427000  1.0 0.1181255334
H  H43  1  0.15670000  0.51940000  0.85417000  1.0 0.1181255334
H  H44  1  0.06490000  0.30010000  0.15557000  1.0 0.1181255334
H  H45  1  0.59250000  0.74540000  0.61640000  1.0 0.1318352929
H  H46  1  0.58830000  0.65660000  0.05760000  1.0 0.1181255334
H  H47  1  0.48060000  0.63730000  0.18750000  1.0 0.1181255334
H  H48  1  0.69990000  0.76480000  0.48890000  1.0 0.1181255334
C  C1  1  0.45730000  0.78050000  0.16717000  1.0 0.4684373624
C  C2  1  0.59150000  0.86450000  0.16397000  1.0 -0.1031969079
C  C3  1  0.58940000  0.91490000  0.49487000  1.0 -0.1509411249
C  C4  1  0.52640000  0.83720000  0.25087000  1.0 -0.0115603559
C  C5  1  0.52530000  0.86220000  0.41767000  1.0 -0.1220235056
C  C6  1  0.65540000  0.91680000  0.23977000  1.0 -0.1587688328
C  C7  1  0.65510000  0.94290000  0.40607000  1.0 0.0754935107
C  C8  1  0.74570000  0.95670000  0.62837000  1.0 0.6560509465
C  C9  1  0.32320000  0.54270000  0.83383000  1.0 0.4684373624
C  C10  1  0.27300000  0.40850000  0.83063000  1.0 -0.1031969079
C  C11  1  0.32550000  0.41060000  0.16153000  1.0 -0.1509411249
C  C12  1  0.31080000  0.47360000  0.91753000  1.0 -0.0115603559
C  C13  1  0.33690000  0.47470000  0.08433000  1.0 -0.1220235056
C  C14  1  0.26140000  0.34460000  0.90643000  1.0 -0.1587688328
C  C15  1  0.28780000  0.34490000  0.07273000  1.0 0.0754935107
C  C16  1  0.21100000  0.25430000  0.29503000  1.0 0.6560509465
C  C17  1  0.21950000  0.67680000  0.50050000  1.0 0.4684373624
C  C18  1  0.13550000  0.72700000  0.49730000  1.0 -0.1031969079
C  C19  1  0.08510000  0.67450000  0.82820000  1.0 -0.1509411249
C  C20  1  0.16280000  0.68920000  0.58420000  1.0 -0.0115603559
C  C21  1  0.13780000  0.66310000  0.75100000  1.0 -0.1220235056
C  C22  1  0.08320000  0.73860000  0.57310000  1.0 -0.1587688328
C  C23  1  0.05710000  0.71220000  0.73940000  1.0 0.0754935107
C  C24  1  0.04330000  0.78900000  0.96170000  1.0 0.6560509465
C  C25  1  0.54270000  0.21950000  0.16717000  1.0 0.4684373624
C  C26  1  0.40850000  0.13550000  0.16397000  1.0 -0.1031969079
C  C27  1  0.41060000  0.08510000  0.49487000  1.0 -0.1509411249
C  C28  1  0.47360000  0.16280000  0.25087000  1.0 -0.0115603559
C  C29  1  0.47470000  0.13780000  0.41767000  1.0 -0.1220235056
C  C30  1  0.34460000  0.08320000  0.23977000  1.0 -0.1587688328
C  C31  1  0.34490000  0.05710000  0.40607000  1.0 0.0754935107
C  C32  1  0.25430000  0.04330000  0.62837000  1.0 0.6560509465
C  C33  1  0.67680000  0.45730000  0.83383000  1.0 0.4684373624
C  C34  1  0.72700000  0.59150000  0.83063000  1.0 -0.1031969079
C  C35  1  0.67450000  0.58940000  0.16153000  1.0 -0.1509411249
C  C36  1  0.68920000  0.52640000  0.91753000  1.0 -0.0115603559
C  C37  1  0.66310000  0.52530000  0.08433000  1.0 -0.1220235056
C  C38  1  0.73860000  0.65540000  0.90643000  1.0 -0.1587688328
C  C39  1  0.71220000  0.65510000  0.07273000  1.0 0.0754935107
C  C40  1  0.78900000  0.74570000  0.29503000  1.0 0.6560509465
C  C41  1  0.78050000  0.32320000  0.50050000  1.0 0.4684373624
C  C42  1  0.86450000  0.27300000  0.49730000  1.0 -0.1031969079
C  C43  1  0.91490000  0.32550000  0.82820000  1.0 -0.1509411249
C  C44  1  0.83720000  0.31080000  0.58420000  1.0 -0.0115603559
C  C45  1  0.86220000  0.33690000  0.75100000  1.0 -0.1220235056
C  C46  1  0.91680000  0.26140000  0.57310000  1.0 -0.1587688328
C  C47  1  0.94290000  0.28780000  0.73940000  1.0 0.0754935107
C  C48  1  0.95670000  0.21100000  0.96170000  1.0 0.6560509465
C  C49  1  0.67680000  0.21950000  0.83283000  1.0 0.4684373624
C  C50  1  0.72700000  0.13550000  0.83603000  1.0 -0.1031969079
C  C51  1  0.67450000  0.08510000  0.50513000  1.0 -0.1509411249
C  C52  1  0.68920000  0.16280000  0.74913000  1.0 -0.0115603559
C  C53  1  0.66310000  0.13780000  0.58233000  1.0 -0.1220235056
C  C54  1  0.73860000  0.08320000  0.76023000  1.0 -0.1587688328
C  C55  1  0.71220000  0.05710000  0.59393000  1.0 0.0754935107
C  C56  1  0.78900000  0.04330000  0.37163000  1.0 0.6560509465
C  C57  1  0.78050000  0.45730000  0.16617000  1.0 0.4684373624
C  C58  1  0.86450000  0.59150000  0.16937000  1.0 -0.1031969079
C  C59  1  0.91490000  0.58940000  0.83847000  1.0 -0.1509411249
C  C60  1  0.83720000  0.52640000  0.08247000  1.0 -0.0115603559
C  C61  1  0.86220000  0.52530000  0.91567000  1.0 -0.1220235056
C  C62  1  0.91680000  0.65540000  0.09357000  1.0 -0.1587688328
C  C63  1  0.94290000  0.65510000  0.92727000  1.0 0.0748968831
C  C64  1  0.95670000  0.74570000  0.70497000  1.0 0.6560509465
C  C65  1  0.54270000  0.32320000  0.49950000  1.0 0.4684373624
C  C66  1  0.40850000  0.27300000  0.50270000  1.0 -0.1031969079
C  C67  1  0.41060000  0.32550000  0.17180000  1.0 -0.1509411249
C  C68  1  0.47360000  0.31080000  0.41580000  1.0 -0.0115603559
C  C69  1  0.47470000  0.33690000  0.24900000  1.0 -0.1220235056
C  C70  1  0.34460000  0.26140000  0.42690000  1.0 -0.1587688328
C  C71  1  0.34490000  0.28780000  0.26060000  1.0 0.0754935107
C  C72  1  0.25430000  0.21100000  0.03830000  1.0 0.6560509465
C  C73  1  0.32320000  0.78050000  0.83283000  1.0 0.4684373624
C  C74  1  0.27300000  0.86450000  0.83603000  1.0 -0.1031969079
C  C75  1  0.32550000  0.91490000  0.50513000  1.0 -0.1509411249
C  C76  1  0.31080000  0.83720000  0.74913000  1.0 -0.0115603559
C  C77  1  0.33690000  0.86220000  0.58233000  1.0 -0.1220235056
C  C78  1  0.26140000  0.91680000  0.76023000  1.0 -0.1587688328
C  C79  1  0.28780000  0.94290000  0.59393000  1.0 0.0754935107
C  C80  1  0.21100000  0.95670000  0.37163000  1.0 0.6560509465
C  C81  1  0.21950000  0.54270000  0.16617000  1.0 0.4684373624
C  C82  1  0.13550000  0.40850000  0.16937000  1.0 -0.1031969079
C  C83  1  0.08510000  0.41060000  0.83847000  1.0 -0.1509411249
C  C84  1  0.16280000  0.47360000  0.08247000  1.0 -0.0115603559
C  C85  1  0.13780000  0.47470000  0.91567000  1.0 -0.1220235056
C  C86  1  0.08320000  0.34460000  0.09357000  1.0 -0.1587688328
C  C87  1  0.05710000  0.34490000  0.92727000  1.0 0.0748968831
C  C88  1  0.04330000  0.25430000  0.70497000  1.0 0.6560509465
C  C89  1  0.45730000  0.67680000  0.49950000  1.0 0.4684373624
C  C90  1  0.59150000  0.72700000  0.50270000  1.0 -0.1031969079
C  C91  1  0.58940000  0.67450000  0.17180000  1.0 -0.1509411249
C  C92  1  0.52640000  0.68920000  0.41580000  1.0 -0.0115603559
C  C93  1  0.52530000  0.66310000  0.24900000  1.0 -0.1220235056
C  C94  1  0.65540000  0.73860000  0.42690000  1.0 -0.1587688328
C  C95  1  0.65510000  0.71220000  0.26060000  1.0 0.0754935107
C  C96  1  0.74570000  0.78900000  0.03830000  1.0 0.6560509465
C  C97  1  0.72480000  0.00000000  0.50000000  1.0 -0.2928836682
C  C98  1  0.27520000  0.27520000  0.16667000  1.0 -0.2928836682
C  C99  1  0.00000000  0.72480000  0.83333000  1.0 -0.2928836682
C  C100  1  0.27520000  0.00000000  0.50000000  1.0 -0.2928836682
C  C101  1  0.72480000  0.72480000  0.16667000  1.0 -0.2928836682
C  C102  1  0.00000000  0.27520000  0.83333000  1.0 -0.2928836682
O  O1  1  0.39891000  0.76008000  0.24427000  1.0 -0.5954760252
O  O2  1  0.46420000  0.75810000  0.01987000  1.0 -0.6078505405
O  O3  1  0.36117000  0.60109000  0.91093000  1.0 -0.5954760252
O  O4  1  0.29390000  0.53580000  0.68653000  1.0 -0.6078505405
O  O5  1  0.23992000  0.63883000  0.57760000  1.0 -0.5954760252
O  O6  1  0.24190000  0.70610000  0.35320000  1.0 -0.6078505405
O  O7  1  0.60109000  0.23992000  0.24427000  1.0 -0.5945862868
O  O8  1  0.53580000  0.24190000  0.01987000  1.0 -0.6078505405
O  O9  1  0.63883000  0.39891000  0.91093000  1.0 -0.5954760252
O  O10  1  0.70610000  0.46420000  0.68653000  1.0 -0.6078505405
O  O11  1  0.76008000  0.36117000  0.57760000  1.0 -0.5954760252
O  O12  1  0.75810000  0.29390000  0.35320000  1.0 -0.6078505405
O  O13  1  0.63883000  0.23992000  0.75573000  1.0 -0.5954760252
O  O14  1  0.70610000  0.24190000  0.98013000  1.0 -0.6078505405
O  O15  1  0.76008000  0.39891000  0.08907000  1.0 -0.5945862868
O  O16  1  0.75810000  0.46420000  0.31347000  1.0 -0.6078505405
O  O17  1  0.60109000  0.36117000  0.42240000  1.0 -0.5954760252
O  O18  1  0.53580000  0.29390000  0.64680000  1.0 -0.6078505405
O  O19  1  0.36117000  0.76008000  0.75573000  1.0 -0.5954760252
O  O20  1  0.29390000  0.75810000  0.98013000  1.0 -0.6078505405
O  O21  1  0.23992000  0.60109000  0.08907000  1.0 -0.5954760252
O  O22  1  0.24190000  0.53580000  0.31347000  1.0 -0.6078505405
O  O23  1  0.39891000  0.63883000  0.42240000  1.0 -0.5945862868
O  O24  1  0.46420000  0.70610000  0.64680000  1.0 -0.6078505405
F  F1  1  0.81210000  0.99741000  0.69647000  1.0 -0.2057523635
F  F2  1  0.74600000  0.90118000  0.54717000  1.0 -0.2016130217
F  F3  1  0.69870000  0.92860000  0.75867000  1.0 -0.2016130217
F  F4  1  0.18531000  0.18790000  0.36313000  1.0 -0.2057523635
F  F5  1  0.15518000  0.25400000  0.21383000  1.0 -0.2016130217
F  F6  1  0.22990000  0.30130000  0.42533000  1.0 -0.2016130217
F  F7  1  0.00259000  0.81469000  0.02980000  1.0 -0.2057523635
F  F8  1  0.09882000  0.84482000  0.88050000  1.0 -0.2016130217
F  F9  1  0.07140000  0.77010000  0.09200000  1.0 -0.2016130217
F  F10  1  0.18790000  0.00259000  0.69647000  1.0 -0.2057523635
F  F11  1  0.25400000  0.09882000  0.54717000  1.0 -0.2016130217
F  F12  1  0.30130000  0.07140000  0.75867000  1.0 -0.2057523635
F  F13  1  0.81469000  0.81210000  0.36313000  1.0 -0.2057523635
F  F14  1  0.84482000  0.74600000  0.21383000  1.0 -0.2016130217
F  F15  1  0.77010000  0.69870000  0.42533000  1.0 -0.2016130217
F  F16  1  0.99741000  0.18531000  0.02980000  1.0 -0.2057523635
F  F17  1  0.90118000  0.15518000  0.88050000  1.0 -0.2016130217
F  F18  1  0.92860000  0.22990000  0.09200000  1.0 -0.2057523635
F  F19  1  0.81469000  0.00259000  0.30353000  1.0 -0.2057523635
F  F20  1  0.84482000  0.09882000  0.45283000  1.0 -0.2016130217
F  F21  1  0.77010000  0.07140000  0.24133000  1.0 -0.2016130217
F  F22  1  0.99741000  0.81210000  0.63687000  1.0 -0.2057523635
F  F23  1  0.90118000  0.74600000  0.78617000  1.0 -0.2016130217
F  F24  1  0.92860000  0.69870000  0.57467000  1.0 -0.2016130217
F  F25  1  0.18790000  0.18531000  0.97020000  1.0 -0.2057523635
F  F26  1  0.25400000  0.15518000  0.11950000  1.0 -0.2016130217
F  F27  1  0.30130000  0.22990000  0.90800000  1.0 -0.2057523635
F  F28  1  0.18531000  0.99741000  0.30353000  1.0 -0.2057523635
F  F29  1  0.15518000  0.90118000  0.45283000  1.0 -0.2016130217
F  F30  1  0.22990000  0.92860000  0.24133000  1.0 -0.2016130217
F  F31  1  0.00259000  0.18790000  0.63687000  1.0 -0.2057523635
F  F32  1  0.09882000  0.25400000  0.78617000  1.0 -0.2016130217
F  F33  1  0.07140000  0.30130000  0.57467000  1.0 -0.2057523635
F  F34  1  0.81210000  0.81469000  0.97020000  1.0 -0.2057523635
F  F35  1  0.74600000  0.84482000  0.11950000  1.0 -0.2016130217
F  F36  1  0.69870000  0.77010000  0.90800000  1.0 -0.2016130217
