# DDEC6 charges by PACMAN v1.1 (https://github.com/mtap-research/PACMAN-charge/)
data_XEGXAL_FSR_pacman
_chemical_formula_sum              "C204 O48 H96 F72 Co30"
_cell_length_a       21.2052
_cell_length_b       21.2052
_cell_length_c       15.265
_cell_angle_alpha    90
_cell_angle_beta     90
_cell_angle_gamma    120

_symmetry_space_group_name_H-M    "P 1"
_symmetry_Int_Tables_number       1

loop_
  _symmetry_equiv_pos_as_xyz
  'x, y, z'

loop_
  _atom_site_type_symbol
  _atom_site_label
  _atom_site_symmetry_multiplicity
  _atom_site_fract_x
  _atom_site_fract_y
  _atom_site_fract_z
  _atom_site_occupancy
 _atom_site_charge
C   C1        1.0  0.67810  0.46110  0.41740  1.0000 0.2796550947
O   O1        1.0  0.64320  0.40330  0.45650  1.0000 -0.3791661971
O   O2        1.0  0.70560  0.46680  0.34150  1.0000 -0.3143688056
O   O3        1.0  0.45810  0.70470  0.82150  1.0000 -0.4483181078
C   C2        1.0  0.68820  0.53120  0.45810  1.0000 0.0306126375
O   O4        1.0  0.39190  0.63730  0.70620  1.0000 -0.572410555
C   C3        1.0  0.72540  0.59450  0.41520  1.0000 -0.0827686344
H   H1        1.0  0.74080  0.59460  0.35670  1.0000 0.1269183127
F   F1        1.0  0.76000  0.69680  0.71810  1.0000 -0.1860050871
C   C4        1.0  0.78530  0.74440  0.65700  1.0000 0.6630741841
C   C5        1.0  0.72060  0.72630  0.58910  1.0000 -0.2642382596
C   C6        1.0  0.45390  0.67890  0.75030  1.0000 0.5649806049
C   C7        1.0  0.71060  0.65750  0.53520  1.0000 0.0935951563
F   F2        1.0  0.84120  0.74540  0.61390  1.0000 -0.2031339694
C   C8        1.0  0.67280  0.59280  0.58420  1.0000 -0.1624223616
H   H2        1.0  0.65430  0.59280  0.64090  1.0000 0.1188456372
C   C9        1.0  0.58850  0.72810  0.74880  1.0000 -0.0827686344
H   H3        1.0  0.58840  0.74370  0.80710  1.0000 0.1188456372
C   C10       1.0  0.66320  0.52600  0.54500  1.0000 -0.108736824
H   H4        1.0  0.64120  0.48130  0.57620  1.0000 0.1269183127
C   C11       1.0  0.52430  0.69370  0.70670  1.0000 -0.0144603994
C   C12       1.0  0.74170  0.65970  0.45430  1.0000 -0.1415291405
H   H5        1.0  0.77330  0.70490  0.42660  1.0000 0.1188456372
F   F3        1.0  0.80960  0.81200  0.69260  1.0000 -0.2087484959
F   F4        1.0  0.69940  0.77580  0.45780  1.0000 -0.2031339694
C   C13       1.0  0.65350  0.71670  0.62970  1.0000 0.0781220805
C   C14       1.0  0.74780  0.79750  0.52520  1.0000 0.6702490286
C   C15       1.0  0.58820  0.67390  0.58550  1.0000 -0.1465396299
H   H6        1.0  0.58820  0.65070  0.53230  1.0000 0.1188456372
F   F5        1.0  0.74750  0.84930  0.56650  1.0000 -0.1784155234
C   C16       1.0  0.65810  0.74360  0.71260  1.0000 -0.1624223616
H   H7        1.0  0.70280  0.77000  0.74340  1.0000 0.1112416566
C   C17       1.0  0.51910  0.66430  0.62050  1.0000 -0.108736824
H   H8        1.0  0.47470  0.64060  0.58860  1.0000 0.1112416566
F   F6        1.0  0.81340  0.82080  0.49110  1.0000 -0.2031339694
Co  Co1       1.0  0.71810  0.43710  0.22230  1.0000 0.2274238454
C   C18       1.0  0.53890  0.21700  0.08407  1.0000 0.2739828986
O   O5        1.0  0.59670  0.23990  0.12317  1.0000 -0.3791661971
O   O6        1.0  0.53320  0.23880  0.00817  1.0000 -0.3167854872
O   O7        1.0  0.29530  0.75340  0.48817  1.0000 -0.4483181078
C   C19       1.0  0.46880  0.15700  0.12477  1.0000 0.0306126375
O   O8        1.0  0.36270  0.75460  0.37287  1.0000 -0.572410555
C   C20       1.0  0.40550  0.13090  0.08187  1.0000 -0.0827686344
H   H9        1.0  0.40540  0.14620  0.02337  1.0000 0.1269183127
F   F7        1.0  0.30320  0.06320  0.38477  1.0000 -0.1860050871
C   C21       1.0  0.25560  0.04090  0.32367  1.0000 0.6630741841
C   C22       1.0  0.27370  0.99430  0.25577  1.0000 -0.2642382596
C   C23       1.0  0.32110  0.77500  0.41697  1.0000 0.5654512432
C   C24       1.0  0.34250  0.05310  0.20187  1.0000 0.0935951563
F   F8        1.0  0.25460  0.09580  0.28057  1.0000 -0.2031339694
C   C25       1.0  0.40720  0.08000  0.25087  1.0000 -0.1624223616
H   H10       1.0  0.40720  0.06150  0.30757  1.0000 0.1188456372
C   C26       1.0  0.27190  0.86040  0.41547  1.0000 -0.0827686344
H   H11       1.0  0.25630  0.84470  0.47377  1.0000 0.1188456372
C   C27       1.0  0.47400  0.13720  0.21167  1.0000 -0.108736824
H   H12       1.0  0.51870  0.15990  0.24287  1.0000 0.1269183127
C   C28       1.0  0.30630  0.83060  0.37337  1.0000 -0.0144603994
C   C29       1.0  0.34030  0.08200  0.12097  1.0000 -0.1415291405
H   H13       1.0  0.29510  0.06840  0.09327  1.0000 0.1188456372
F   F9        1.0  0.18800  0.99760  0.35927  1.0000 -0.2087484959
F   F10       1.0  0.22420  0.92360  0.12447  1.0000 -0.2031339694
C   C30       1.0  0.28330  0.93680  0.29637  1.0000 0.0781220805
C   C31       1.0  0.20250  0.95030  0.19187  1.0000 0.6702490286
C   C32       1.0  0.32610  0.91430  0.25217  1.0000 -0.1465396299
H   H14       1.0  0.34930  0.93750  0.19897  1.0000 0.1188456372
F   F11       1.0  0.15070  0.89820  0.23317  1.0000 -0.1784155234
C   C33       1.0  0.25640  0.91450  0.37927  1.0000 -0.1624223616
H   H15       1.0  0.23000  0.93280  0.41007  1.0000 0.1112416566
C   C34       1.0  0.33570  0.85480  0.28717  1.0000 -0.1151206184
H   H16       1.0  0.35940  0.83410  0.25527  1.0000 0.1112416566
F   F12       1.0  0.17920  0.99260  0.15777  1.0000 -0.2031339694
Co  Co2       1.0  0.56290  0.28100  0.88897  1.0000 0.2274238454
C   C35       1.0  0.78300  0.32190  0.75073  1.0000 0.2796550947
O   O9        1.0  0.76010  0.35680  0.78983  1.0000 -0.3791661971
O   O10       1.0  0.76120  0.29440  0.67483  1.0000 -0.3143688056
O   O11       1.0  0.24660  0.54190  0.15483  1.0000 -0.4483181078
C   C36       1.0  0.84300  0.31180  0.79143  1.0000 0.0306126375
O   O12       1.0  0.24540  0.60810  0.03953  1.0000 -0.572410555
C   C37       1.0  0.86910  0.27460  0.74853  1.0000 -0.0827686344
H   H17       1.0  0.85380  0.25920  0.69003  1.0000 0.1269183127
F   F13       1.0  0.93680  0.24000  0.05143  1.0000 -0.1860050871
C   C38       1.0  0.95910  0.21470  0.99033  1.0000 0.6630741841
C   C39       1.0  0.00570  0.27940  0.92243  1.0000 -0.2652154777
C   C40       1.0  0.22500  0.54610  0.08363  1.0000 0.5649806049
C   C41       1.0  0.94690  0.28940  0.86853  1.0000 0.0935951563
F   F14       1.0  0.90420  0.15880  0.94723  1.0000 -0.2031339694
C   C42       1.0  0.92000  0.32720  0.91753  1.0000 -0.1624223616
H   H18       1.0  0.93850  0.34570  0.97423  1.0000 0.1188456372
C   C43       1.0  0.13960  0.41150  0.08213  1.0000 -0.0827686344
H   H19       1.0  0.15530  0.41160  0.14043  1.0000 0.1188456372
C   C44       1.0  0.86280  0.33680  0.87833  1.0000 -0.108736824
H   H20       1.0  0.84010  0.35880  0.90953  1.0000 0.1269183127
C   C45       1.0  0.16940  0.47570  0.04003  1.0000 -0.0144603994
C   C46       1.0  0.91800  0.25830  0.78763  1.0000 -0.1415291405
H   H21       1.0  0.93160  0.22670  0.75993  1.0000 0.1188456372
F   F15       1.0  0.00240  0.19040  0.02593  1.0000 -0.2087484959
F   F16       1.0  0.07640  0.30060  0.79113  1.0000 -0.2031339694
C   C47       1.0  0.06320  0.34650  0.96303  1.0000 0.0781220805
C   C48       1.0  0.04970  0.25220  0.85853  1.0000 0.6702490286
C   C49       1.0  0.08570  0.41180  0.91883  1.0000 -0.1465396299
H   H22       1.0  0.06250  0.41180  0.86563  1.0000 0.1188456372
F   F17       1.0  0.10180  0.25250  0.89983  1.0000 -0.1784155234
C   C50       1.0  0.08550  0.34190  0.04593  1.0000 -0.1624223616
H   H23       1.0  0.06720  0.29720  0.07673  1.0000 0.1112416566
C   C51       1.0  0.14520  0.48090  0.95383  1.0000 -0.1151206184
H   H24       1.0  0.16590  0.52530  0.92193  1.0000 0.1112416566
F   F18       1.0  0.00740  0.18660  0.82443  1.0000 -0.2031339694
Co  Co3       1.0  0.71900  0.28190  0.55563  1.0000 0.2274238454
C   C52       1.0  0.32190  0.53890  0.91740  1.0000 0.2739828986
O   O13       1.0  0.35680  0.59670  0.95650  1.0000 -0.3791661971
O   O14       1.0  0.29440  0.53320  0.84150  1.0000 -0.3167854872
O   O15       1.0  0.54190  0.29530  0.32150  1.0000 -0.4483181078
C   C53       1.0  0.31180  0.46880  0.95810  1.0000 0.0306126375
O   O16       1.0  0.60810  0.36270  0.20620  1.0000 -0.572410555
C   C54       1.0  0.27460  0.40550  0.91520  1.0000 -0.0827686344
H   H25       1.0  0.25920  0.40540  0.85670  1.0000 0.1269183127
F   F19       1.0  0.24000  0.30320  0.21810  1.0000 -0.1860050871
C   C55       1.0  0.21470  0.25560  0.15700  1.0000 0.6630741841
C   C56       1.0  0.27940  0.27370  0.08910  1.0000 -0.2652154777
C   C57       1.0  0.54610  0.32110  0.25030  1.0000 0.5649806049
C   C58       1.0  0.28940  0.34250  0.03520  1.0000 0.0935951563
F   F20       1.0  0.15880  0.25460  0.11390  1.0000 -0.2031339694
C   C59       1.0  0.32720  0.40720  0.08420  1.0000 -0.1624223616
H   H26       1.0  0.34570  0.40720  0.14090  1.0000 0.1188456372
C   C60       1.0  0.41150  0.27190  0.24880  1.0000 -0.0827686344
H   H27       1.0  0.41160  0.25630  0.30710  1.0000 0.1188456372
C   C61       1.0  0.33680  0.47400  0.04500  1.0000 -0.108736824
H   H28       1.0  0.35880  0.51870  0.07620  1.0000 0.1269183127
C   C62       1.0  0.47570  0.30630  0.20670  1.0000 -0.0144603994
C   C63       1.0  0.25830  0.34030  0.95430  1.0000 -0.1415291405
H   H29       1.0  0.22670  0.29510  0.92660  1.0000 0.1188456372
F   F21       1.0  0.19040  0.18800  0.19260  1.0000 -0.2087484959
F   F22       1.0  0.30060  0.22420  0.95780  1.0000 -0.2031339694
C   C64       1.0  0.34650  0.28330  0.12970  1.0000 0.0781220805
C   C65       1.0  0.25220  0.20250  0.02520  1.0000 0.6702490286
C   C66       1.0  0.41180  0.32610  0.08550  1.0000 -0.1465396299
H   H30       1.0  0.41180  0.34930  0.03230  1.0000 0.1188456372
F   F23       1.0  0.25250  0.15070  0.06650  1.0000 -0.1784155234
C   C67       1.0  0.34190  0.25640  0.21260  1.0000 -0.1624223616
H   H31       1.0  0.29720  0.23000  0.24340  1.0000 0.1112416566
C   C68       1.0  0.48090  0.33570  0.12050  1.0000 -0.108736824
H   H32       1.0  0.52530  0.35940  0.08860  1.0000 0.1112416566
F   F24       1.0  0.18660  0.17920  0.99110  1.0000 -0.2031339694
Co  Co4       1.0  0.28190  0.56290  0.72230  1.0000 0.2274238454
C   C69       1.0  0.46110  0.78300  0.58407  1.0000 0.2739828986
O   O17       1.0  0.40330  0.76010  0.62317  1.0000 -0.3791661971
O   O18       1.0  0.46680  0.76120  0.50817  1.0000 -0.3167854872
O   O19       1.0  0.70470  0.24660  0.98817  1.0000 -0.4483181078
C   C70       1.0  0.53120  0.84300  0.62477  1.0000 0.0306126375
O   O20       1.0  0.63730  0.24540  0.87287  1.0000 -0.572410555
C   C71       1.0  0.59450  0.86910  0.58187  1.0000 -0.0827686344
H   H33       1.0  0.59460  0.85380  0.52337  1.0000 0.1269183127
F   F25       1.0  0.69680  0.93680  0.88477  1.0000 -0.1860050871
C   C72       1.0  0.74440  0.95910  0.82367  1.0000 0.6630741841
C   C73       1.0  0.72630  0.00570  0.75577  1.0000 -0.2642382596
C   C74       1.0  0.67890  0.22500  0.91697  1.0000 0.5649806049
C   C75       1.0  0.65750  0.94690  0.70187  1.0000 0.0935951563
F   F26       1.0  0.74540  0.90420  0.78057  1.0000 -0.2031339694
C   C76       1.0  0.59280  0.92000  0.75087  1.0000 -0.1624223616
H   H34       1.0  0.59280  0.93850  0.80757  1.0000 0.1188456372
C   C77       1.0  0.72810  0.13960  0.91547  1.0000 -0.0827686344
H   H35       1.0  0.74370  0.15530  0.97377  1.0000 0.1188456372
C   C78       1.0  0.52600  0.86280  0.71167  1.0000 -0.108736824
H   H36       1.0  0.48130  0.84010  0.74287  1.0000 0.1269183127
C   C79       1.0  0.69370  0.16940  0.87337  1.0000 -0.0144603994
C   C80       1.0  0.65970  0.91800  0.62097  1.0000 -0.1415291405
H   H37       1.0  0.70490  0.93160  0.59327  1.0000 0.1188456372
F   F27       1.0  0.81200  0.00240  0.85927  1.0000 -0.2087484959
F   F28       1.0  0.77580  0.07640  0.62447  1.0000 -0.2031339694
C   C81       1.0  0.71670  0.06320  0.79637  1.0000 0.0781220805
C   C82       1.0  0.79750  0.04970  0.69187  1.0000 0.6702490286
C   C83       1.0  0.67390  0.08570  0.75217  1.0000 -0.1465396299
H   H38       1.0  0.65070  0.06250  0.69897  1.0000 0.1188456372
F   F29       1.0  0.84930  0.10180  0.73317  1.0000 -0.1784155234
C   C84       1.0  0.74360  0.08550  0.87927  1.0000 -0.1624223616
H   H39       1.0  0.77000  0.06720  0.91007  1.0000 0.1112416566
C   C85       1.0  0.66430  0.14520  0.78717  1.0000 -0.108736824
H   H40       1.0  0.64060  0.16590  0.75527  1.0000 0.1112416566
F   F30       1.0  0.82080  0.00740  0.65777  1.0000 -0.2031339694
Co  Co5       1.0  0.43710  0.71900  0.38897  1.0000 0.2274238454
C   C86       1.0  0.21700  0.67810  0.25073  1.0000 0.2739828986
O   O21       1.0  0.23990  0.64320  0.28983  1.0000 -0.3791661971
O   O22       1.0  0.23880  0.70560  0.17483  1.0000 -0.3167854872
O   O23       1.0  0.75340  0.45810  0.65483  1.0000 -0.4483181078
C   C87       1.0  0.15700  0.68820  0.29143  1.0000 0.0306126375
O   O24       1.0  0.75460  0.39190  0.53953  1.0000 -0.572410555
C   C88       1.0  0.13090  0.72540  0.24853  1.0000 -0.0827686344
H   H41       1.0  0.14620  0.74080  0.19003  1.0000 0.1269183127
F   F31       1.0  0.06320  0.76000  0.55143  1.0000 -0.1860050871
C   C89       1.0  0.04090  0.78530  0.49033  1.0000 0.6630741841
C   C90       1.0  0.99430  0.72060  0.42243  1.0000 -0.2642382596
C   C91       1.0  0.77500  0.45390  0.58363  1.0000 0.5649806049
C   C92       1.0  0.05310  0.71060  0.36853  1.0000 0.0935951563
F   F32       1.0  0.09580  0.84120  0.44723  1.0000 -0.2031339694
C   C93       1.0  0.08000  0.67280  0.41753  1.0000 -0.1624223616
H   H42       1.0  0.06150  0.65430  0.47423  1.0000 0.1188456372
C   C94       1.0  0.86040  0.58850  0.58213  1.0000 -0.0827686344
H   H43       1.0  0.84470  0.58840  0.64043  1.0000 0.1188456372
C   C95       1.0  0.13720  0.66320  0.37833  1.0000 -0.108736824
H   H44       1.0  0.15990  0.64120  0.40953  1.0000 0.1269183127
C   C96       1.0  0.83060  0.52430  0.54003  1.0000 -0.0144603994
C   C97       1.0  0.08200  0.74170  0.28763  1.0000 -0.1415291405
H   H45       1.0  0.06840  0.77330  0.25993  1.0000 0.1188456372
F   F33       1.0  0.99760  0.80960  0.52593  1.0000 -0.2087484959
F   F34       1.0  0.92360  0.69940  0.29113  1.0000 -0.2031339694
C   C98       1.0  0.93680  0.65350  0.46303  1.0000 0.0781220805
C   C99       1.0  0.95030  0.74780  0.35853  1.0000 0.6702490286
C   C100      1.0  0.91430  0.58820  0.41883  1.0000 -0.1465396299
H   H46       1.0  0.93750  0.58820  0.36563  1.0000 0.1188456372
F   F35       1.0  0.89820  0.74750  0.39983  1.0000 -0.1784155234
C   C101      1.0  0.91450  0.65810  0.54593  1.0000 -0.1624223616
H   H47       1.0  0.93280  0.70280  0.57673  1.0000 0.1112416566
C   C102      1.0  0.85480  0.51910  0.45383  1.0000 -0.108736824
H   H48       1.0  0.83410  0.47470  0.42193  1.0000 0.1112416566
F   F36       1.0  0.99260  0.81340  0.32443  1.0000 -0.2031339694
Co  Co6       1.0  0.28100  0.71810  0.05563  1.0000 0.2274238454
C   C103      1.0  0.46110  0.67810  0.24927  1.0000 0.2739828986
O   O25       1.0  0.40330  0.64320  0.21017  1.0000 -0.3791661971
O   O26       1.0  0.46680  0.70560  0.32517  1.0000 -0.3167854872
O   O27       1.0  0.70470  0.45810  0.84517  1.0000 -0.4483181078
C   C104      1.0  0.53120  0.68820  0.20857  1.0000 0.0306126375
O   O28       1.0  0.63730  0.39190  0.96047  1.0000 -0.572410555
C   C105      1.0  0.59450  0.72540  0.25147  1.0000 -0.0827686344
H   H49       1.0  0.59460  0.74080  0.30997  1.0000 0.1269183127
F   F37       1.0  0.69680  0.76000  0.94857  1.0000 -0.1860050871
C   C106      1.0  0.74440  0.78530  0.00967  1.0000 0.6630741841
C   C107      1.0  0.72630  0.72060  0.07757  1.0000 -0.2652154777
C   C108      1.0  0.67890  0.45390  0.91637  1.0000 0.5649806049
C   C109      1.0  0.65750  0.71060  0.13147  1.0000 0.0935951563
F   F38       1.0  0.74540  0.84120  0.05277  1.0000 -0.2031339694
C   C110      1.0  0.59280  0.67280  0.08247  1.0000 -0.1624223616
H   H50       1.0  0.59280  0.65430  0.02577  1.0000 0.1188456372
C   C111      1.0  0.72810  0.58850  0.91787  1.0000 -0.0827686344
H   H51       1.0  0.74370  0.58840  0.85957  1.0000 0.1188456372
C   C112      1.0  0.52600  0.66320  0.12167  1.0000 -0.108736824
H   H52       1.0  0.48130  0.64120  0.09047  1.0000 0.1269183127
C   C113      1.0  0.69370  0.52430  0.95997  1.0000 -0.0144603994
C   C114      1.0  0.65970  0.74170  0.21237  1.0000 -0.1415291405
H   H53       1.0  0.70490  0.77330  0.24007  1.0000 0.1188456372
F   F39       1.0  0.81200  0.80960  0.97407  1.0000 -0.2087484959
F   F40       1.0  0.77580  0.69940  0.20887  1.0000 -0.2031339694
C   C115      1.0  0.71670  0.65350  0.03697  1.0000 0.0781220805
C   C116      1.0  0.79750  0.74780  0.14147  1.0000 0.6702490286
C   C117      1.0  0.67390  0.58820  0.08117  1.0000 -0.1465396299
H   H54       1.0  0.65070  0.58820  0.13437  1.0000 0.1188456372
F   F41       1.0  0.84930  0.74750  0.10017  1.0000 -0.1784155234
C   C118      1.0  0.74360  0.65810  0.95407  1.0000 -0.1624223616
H   H55       1.0  0.77000  0.70280  0.92327  1.0000 0.1112416566
C   C119      1.0  0.66430  0.51910  0.04617  1.0000 -0.108736824
H   H56       1.0  0.64060  0.47470  0.07807  1.0000 0.1112416566
F   F42       1.0  0.82080  0.81340  0.17557  1.0000 -0.2031339694
Co  Co7       1.0  0.43710  0.71810  0.44437  1.0000 0.2274238454
C   C120      1.0  0.21700  0.53890  0.58260  1.0000 0.2739828986
O   O29       1.0  0.23990  0.59670  0.54350  1.0000 -0.3791661971
O   O30       1.0  0.23880  0.53320  0.65850  1.0000 -0.3167854872
O   O31       1.0  0.75340  0.29530  0.17850  1.0000 -0.4483181078
C   C121      1.0  0.15700  0.46880  0.54190  1.0000 0.0306126375
O   O32       1.0  0.75460  0.36270  0.29380  1.0000 -0.572410555
C   C122      1.0  0.13090  0.40550  0.58480  1.0000 -0.0827686344
H   H57       1.0  0.14620  0.40540  0.64330  1.0000 0.1269183127
F   F43       1.0  0.06320  0.30320  0.28190  1.0000 -0.1860050871
C   C123      1.0  0.04090  0.25560  0.34300  1.0000 0.6630741841
C   C124      1.0  0.99430  0.27370  0.41090  1.0000 -0.2642382596
C   C125      1.0  0.77500  0.32110  0.24970  1.0000 0.5649806049
C   C126      1.0  0.05310  0.34250  0.46480  1.0000 0.0935951563
F   F44       1.0  0.09580  0.25460  0.38610  1.0000 -0.2031339694
C   C127      1.0  0.08000  0.40720  0.41580  1.0000 -0.1624223616
H   H58       1.0  0.06150  0.40720  0.35910  1.0000 0.1188456372
C   C128      1.0  0.86040  0.27190  0.25120  1.0000 -0.0827686344
H   H59       1.0  0.84470  0.25630  0.19290  1.0000 0.1188456372
C   C129      1.0  0.13720  0.47400  0.45500  1.0000 -0.108736824
H   H60       1.0  0.15990  0.51870  0.42380  1.0000 0.1269183127
C   C130      1.0  0.83060  0.30630  0.29330  1.0000 -0.0144603994
C   C131      1.0  0.08200  0.34030  0.54570  1.0000 -0.1415291405
H   H61       1.0  0.06840  0.29510  0.57340  1.0000 0.1188456372
F   F45       1.0  0.99760  0.18800  0.30740  1.0000 -0.2087484959
F   F46       1.0  0.92360  0.22420  0.54220  1.0000 -0.2031339694
C   C132      1.0  0.93680  0.28330  0.37030  1.0000 0.0781220805
C   C133      1.0  0.95030  0.20250  0.47480  1.0000 0.6702490286
C   C134      1.0  0.91430  0.32610  0.41450  1.0000 -0.1465396299
H   H62       1.0  0.93750  0.34930  0.46770  1.0000 0.1188456372
F   F47       1.0  0.89820  0.15070  0.43350  1.0000 -0.1784155234
C   C135      1.0  0.91450  0.25640  0.28740  1.0000 -0.1624223616
H   H63       1.0  0.93280  0.23000  0.25660  1.0000 0.1112416566
C   C136      1.0  0.85480  0.33570  0.37950  1.0000 -0.108736824
H   H64       1.0  0.83410  0.35940  0.41140  1.0000 0.1112416566
F   F48       1.0  0.99260  0.17920  0.50890  1.0000 -0.2031339694
Co  Co8       1.0  0.28100  0.56290  0.77770  1.0000 0.2274238454
C   C137      1.0  0.32190  0.78300  0.91593  1.0000 0.2739828986
O   O33       1.0  0.35680  0.76010  0.87683  1.0000 -0.3791661971
O   O34       1.0  0.29440  0.76120  0.99183  1.0000 -0.3167854872
O   O35       1.0  0.54190  0.24660  0.51183  1.0000 -0.4483181078
C   C138      1.0  0.31180  0.84300  0.87523  1.0000 0.0306126375
O   O36       1.0  0.60810  0.24540  0.62713  1.0000 -0.572410555
C   C139      1.0  0.27460  0.86910  0.91813  1.0000 -0.0827686344
H   H65       1.0  0.25920  0.85380  0.97663  1.0000 0.1269183127
F   F49       1.0  0.24000  0.93680  0.61523  1.0000 -0.1860050871
C   C140      1.0  0.21470  0.95910  0.67633  1.0000 0.6630741841
C   C141      1.0  0.27940  0.00570  0.74423  1.0000 -0.2642382596
C   C142      1.0  0.54610  0.22500  0.58303  1.0000 0.5649806049
C   C143      1.0  0.28940  0.94690  0.79813  1.0000 0.0935951563
F   F50       1.0  0.15880  0.90420  0.71943  1.0000 -0.2031339694
C   C144      1.0  0.32720  0.92000  0.74913  1.0000 -0.1624223616
H   H66       1.0  0.34570  0.93850  0.69243  1.0000 0.1188456372
C   C145      1.0  0.41150  0.13960  0.58453  1.0000 -0.0827686344
H   H67       1.0  0.41160  0.15530  0.52623  1.0000 0.1188456372
C   C146      1.0  0.33680  0.86280  0.78833  1.0000 -0.108736824
H   H68       1.0  0.35880  0.84010  0.75713  1.0000 0.1269183127
C   C147      1.0  0.47570  0.16940  0.62663  1.0000 -0.0144603994
C   C148      1.0  0.25830  0.91800  0.87903  1.0000 -0.1415291405
H   H69       1.0  0.22670  0.93160  0.90673  1.0000 0.1188456372
F   F51       1.0  0.19040  0.00240  0.64073  1.0000 -0.2087484959
F   F52       1.0  0.30060  0.07640  0.87553  1.0000 -0.2031339694
C   C149      1.0  0.34650  0.06320  0.70363  1.0000 0.0781220805
C   C150      1.0  0.25220  0.04970  0.80813  1.0000 0.6702490286
C   C151      1.0  0.41180  0.08570  0.74783  1.0000 -0.1465396299
H   H70       1.0  0.41180  0.06250  0.80103  1.0000 0.1188456372
F   F53       1.0  0.25250  0.10180  0.76683  1.0000 -0.1784155234
C   C152      1.0  0.34190  0.08550  0.62073  1.0000 -0.1624223616
H   H71       1.0  0.29720  0.06720  0.58993  1.0000 0.1112416566
C   C153      1.0  0.48090  0.14520  0.71283  1.0000 -0.108736824
H   H72       1.0  0.52530  0.16590  0.74473  1.0000 0.1112416566
F   F54       1.0  0.18660  0.00740  0.84223  1.0000 -0.2031339694
Co  Co9       1.0  0.28190  0.71900  0.11103  1.0000 0.2274238454
C   C154      1.0  0.53890  0.32190  0.74927  1.0000 0.2796550947
O   O37       1.0  0.59670  0.35680  0.71017  1.0000 -0.3791661971
O   O38       1.0  0.53320  0.29440  0.82517  1.0000 -0.3143688056
O   O39       1.0  0.29530  0.54190  0.34517  1.0000 -0.4483181078
C   C155      1.0  0.46880  0.31180  0.70857  1.0000 0.0306126375
O   O40       1.0  0.36270  0.60810  0.46047  1.0000 -0.572410555
C   C156      1.0  0.40550  0.27460  0.75147  1.0000 -0.0827686344
H   H73       1.0  0.40540  0.25920  0.80997  1.0000 0.1269183127
F   F55       1.0  0.30320  0.24000  0.44857  1.0000 -0.1860050871
C   C157      1.0  0.25560  0.21470  0.50967  1.0000 0.6630741841
C   C158      1.0  0.27370  0.27940  0.57757  1.0000 -0.2652154777
C   C159      1.0  0.32110  0.54610  0.41637  1.0000 0.5649806049
C   C160      1.0  0.34250  0.28940  0.63147  1.0000 0.0935951563
F   F56       1.0  0.25460  0.15880  0.55277  1.0000 -0.2031339694
C   C161      1.0  0.40720  0.32720  0.58247  1.0000 -0.1624223616
H   H74       1.0  0.40720  0.34570  0.52577  1.0000 0.1188456372
C   C162      1.0  0.27190  0.41150  0.41787  1.0000 -0.0827686344
H   H75       1.0  0.25630  0.41160  0.35957  1.0000 0.1188456372
C   C163      1.0  0.47400  0.33680  0.62167  1.0000 -0.108736824
H   H76       1.0  0.51870  0.35880  0.59047  1.0000 0.1269183127
C   C164      1.0  0.30630  0.47570  0.45997  1.0000 -0.0144603994
C   C165      1.0  0.34030  0.25830  0.71237  1.0000 -0.1415291405
H   H77       1.0  0.29510  0.22670  0.74007  1.0000 0.1188456372
F   F57       1.0  0.18800  0.19040  0.47407  1.0000 -0.2087484959
F   F58       1.0  0.22420  0.30060  0.70887  1.0000 -0.2031339694
C   C166      1.0  0.28330  0.34650  0.53697  1.0000 0.0781220805
C   C167      1.0  0.20250  0.25220  0.64147  1.0000 0.6702490286
C   C168      1.0  0.32610  0.41180  0.58117  1.0000 -0.1465396299
H   H78       1.0  0.34930  0.41180  0.63437  1.0000 0.1188456372
F   F59       1.0  0.15070  0.25250  0.60017  1.0000 -0.1784155234
C   C169      1.0  0.25640  0.34190  0.45407  1.0000 -0.1624223616
H   H79       1.0  0.23000  0.29720  0.42327  1.0000 0.1112416566
C   C170      1.0  0.33570  0.48090  0.54617  1.0000 -0.1151206184
H   H80       1.0  0.35940  0.52530  0.57807  1.0000 0.1112416566
F   F60       1.0  0.17920  0.18660  0.67557  1.0000 -0.2031339694
Co  Co10      1.0  0.56290  0.28190  0.94437  1.0000 0.2274238454
C   C171      1.0  0.78300  0.46110  0.08260  1.0000 0.2796550947
O   O41       1.0  0.76010  0.40330  0.04350  1.0000 -0.3791661971
O   O42       1.0  0.76120  0.46680  0.15850  1.0000 -0.3167854872
O   O43       1.0  0.24660  0.70470  0.67850  1.0000 -0.4483181078
C   C172      1.0  0.84300  0.53120  0.04190  1.0000 0.0306126375
O   O44       1.0  0.24540  0.63730  0.79380  1.0000 -0.572410555
C   C173      1.0  0.86910  0.59450  0.08480  1.0000 -0.0827686344
H   H81       1.0  0.85380  0.59460  0.14330  1.0000 0.1269183127
F   F61       1.0  0.93680  0.69680  0.78190  1.0000 -0.1860050871
C   C174      1.0  0.95910  0.74440  0.84300  1.0000 0.6630741841
C   C175      1.0  0.00570  0.72630  0.91090  1.0000 -0.2642382596
C   C176      1.0  0.22500  0.67890  0.74970  1.0000 0.5649806049
C   C177      1.0  0.94690  0.65750  0.96480  1.0000 0.0935951563
F   F62       1.0  0.90420  0.74540  0.88610  1.0000 -0.2031339694
C   C178      1.0  0.92000  0.59280  0.91580  1.0000 -0.1624223616
H   H82       1.0  0.93850  0.59280  0.85910  1.0000 0.1188456372
C   C179      1.0  0.13960  0.72810  0.75120  1.0000 -0.0827686344
H   H83       1.0  0.15530  0.74370  0.69290  1.0000 0.1188456372
C   C180      1.0  0.86280  0.52600  0.95500  1.0000 -0.108736824
H   H84       1.0  0.84010  0.48130  0.92380  1.0000 0.1269183127
C   C181      1.0  0.16940  0.69370  0.79330  1.0000 -0.0144603994
C   C182      1.0  0.91800  0.65970  0.04570  1.0000 -0.1415291405
H   H85       1.0  0.93160  0.70490  0.07340  1.0000 0.1188456372
F   F63       1.0  0.00240  0.81200  0.80740  1.0000 -0.2087484959
F   F64       1.0  0.07640  0.77580  0.04220  1.0000 -0.2031339694
C   C183      1.0  0.06320  0.71670  0.87030  1.0000 0.0781220805
C   C184      1.0  0.04970  0.79750  0.97480  1.0000 0.6702490286
C   C185      1.0  0.08570  0.67390  0.91450  1.0000 -0.1465396299
H   H86       1.0  0.06250  0.65070  0.96770  1.0000 0.1188456372
F   F65       1.0  0.10180  0.84930  0.93350  1.0000 -0.1784155234
C   C186      1.0  0.08550  0.74360  0.78740  1.0000 -0.1624223616
H   H87       1.0  0.06720  0.77000  0.75660  1.0000 0.1112416566
C   C187      1.0  0.14520  0.66430  0.87950  1.0000 -0.1151206184
H   H88       1.0  0.16590  0.64060  0.91140  1.0000 0.1112416566
F   F66       1.0  0.00740  0.82080  0.00890  1.0000 -0.2031339694
Co  Co11      1.0  0.71900  0.43710  0.27770  1.0000 0.2274238454
C   C188      1.0  0.67810  0.21700  0.41593  1.0000 0.2739828986
O   O45       1.0  0.64320  0.23990  0.37683  1.0000 -0.3791661971
O   O46       1.0  0.70560  0.23880  0.49183  1.0000 -0.3143688056
O   O47       1.0  0.45810  0.75340  0.01183  1.0000 -0.4483181078
C   C189      1.0  0.68820  0.15700  0.37523  1.0000 0.0306126375
O   O48       1.0  0.39190  0.75460  0.12713  1.0000 -0.572410555
C   C190      1.0  0.72540  0.13090  0.41813  1.0000 -0.0827686344
H   H89       1.0  0.74080  0.14620  0.47663  1.0000 0.1269183127
F   F67       1.0  0.76000  0.06320  0.11523  1.0000 -0.1860050871
C   C191      1.0  0.78530  0.04090  0.17633  1.0000 0.6630741841
C   C192      1.0  0.72060  0.99430  0.24423  1.0000 -0.2652154777
C   C193      1.0  0.45390  0.77500  0.08303  1.0000 0.5649806049
C   C194      1.0  0.71060  0.05310  0.29813  1.0000 0.0935951563
F   F68       1.0  0.84120  0.09580  0.21943  1.0000 -0.2031339694
C   C195      1.0  0.67280  0.08000  0.24913  1.0000 -0.1624223616
H   H90       1.0  0.65430  0.06150  0.19243  1.0000 0.1188456372
C   C196      1.0  0.58850  0.86040  0.08453  1.0000 -0.0827686344
H   H91       1.0  0.58840  0.84470  0.02623  1.0000 0.1188456372
C   C197      1.0  0.66320  0.13720  0.28833  1.0000 -0.1044824112
H   H92       1.0  0.64120  0.15990  0.25713  1.0000 0.1269183127
C   C198      1.0  0.52430  0.83060  0.12663  1.0000 -0.0144603994
C   C199      1.0  0.74170  0.08200  0.37903  1.0000 -0.1415291405
H   H93       1.0  0.77330  0.06840  0.40673  1.0000 0.1188456372
F   F69       1.0  0.80960  0.99760  0.14073  1.0000 -0.2087484959
F   F70       1.0  0.69940  0.92360  0.37553  1.0000 -0.2031339694
C   C200      1.0  0.65350  0.93680  0.20363  1.0000 0.0781220805
C   C201      1.0  0.74780  0.95030  0.30813  1.0000 0.6702490286
C   C202      1.0  0.58820  0.91430  0.24783  1.0000 -0.1465396299
H   H94       1.0  0.58820  0.93750  0.30103  1.0000 0.1188456372
F   F71       1.0  0.74750  0.89820  0.26683  1.0000 -0.1784155234
C   C203      1.0  0.65810  0.91450  0.12073  1.0000 -0.1624223616
H   H95       1.0  0.70280  0.93280  0.08993  1.0000 0.1112416566
C   C204      1.0  0.51910  0.85480  0.21283  1.0000 -0.1151206184
H   H96       1.0  0.47470  0.83410  0.24473  1.0000 0.1112416566
F   F72       1.0  0.81340  0.99260  0.34223  1.0000 -0.2031339694
Co  Co12      1.0  0.71810  0.28100  0.61103  1.0000 0.2274238454
Co  Co13      1.0  0.70150  0.40300  0.25000  1.0000 0.2796550947
Co  Co14      1.0  0.59700  0.29850  0.91667  1.0000 0.2796550947
Co  Co15      1.0  0.70150  0.29850  0.58333  1.0000 0.2796550947
Co  Co16      1.0  0.29850  0.59700  0.75000  1.0000 0.2897589094
Co  Co17      1.0  0.40300  0.70150  0.41667  1.0000 0.2897589094
Co  Co18      1.0  0.29850  0.70150  0.08333  1.0000 0.2897589094
Co  Co19      1.0  0.60030  0.30015  0.41667  1.0000 0.6221008685
Co  Co20      1.0  0.64300  0.32150  0.41667  1.0000 0.3334092286
Co  Co21      1.0  0.69985  0.30015  0.08333  1.0000 0.6221008685
Co  Co22      1.0  0.67850  0.32150  0.08333  1.0000 0.3334092286
Co  Co23      1.0  0.69985  0.39970  0.75000  1.0000 0.6221008685
Co  Co24      1.0  0.67850  0.35700  0.75000  1.0000 0.3334092286
Co  Co25      1.0  0.39970  0.69985  0.91667  1.0000 0.6221008685
Co  Co26      1.0  0.35700  0.67850  0.91667  1.0000 0.3334092286
Co  Co27      1.0  0.30015  0.69985  0.58333  1.0000 0.6221008685
Co  Co28      1.0  0.32150  0.67850  0.58333  1.0000 0.3334092286
Co  Co29      1.0  0.30015  0.60030  0.25000  1.0000 0.6221008685
Co  Co30      1.0  0.32150  0.64300  0.25000  1.0000 0.3334092286
  Zn  Zn1       1.0  0.70150  0.40300  0.25000  1.0000
  Zn  Zn2       1.0  0.59700  0.29850  0.91667  1.0000
  Zn  Zn3       1.0  0.70150  0.29850  0.58333  1.0000
  Zn  Zn4       1.0  0.29850  0.59700  0.75000  1.0000
  Zn  Zn5       1.0  0.40300  0.70150  0.41667  1.0000
  Zn  Zn6       1.0  0.29850  0.70150  0.08333  1.0000
  Zn  Zn7       1.0  0.60030  0.30015  0.41667  1.0000
  Zn  Zn8       1.0  0.69985  0.30015  0.08333  1.0000
  Zn  Zn9       1.0  0.69985  0.39970  0.75000  1.0000
  Zn  Zn10      1.0  0.39970  0.69985  0.91667  1.0000
  Zn  Zn11      1.0  0.30015  0.69985  0.58333  1.0000
  Zn  Zn12      1.0  0.30015  0.60030  0.25000  1.0000
