# DDEC6 charges by PACMAN v1.1 (https://github.com/mtap-research/PACMAN-charge/)
data_XEHDEV_FSR_pacman
_symmetry_space_group_name_H-M   'P 1'
_cell_length_a   18.60350000
_cell_length_b   18.60350000
_cell_length_c   18.60350000
_cell_angle_alpha   114.99400000
_cell_angle_beta   114.99400000
_cell_angle_gamma   114.99400000
_symmetry_Int_Tables_number   1
_chemical_formula_structural   Be3P4(HO3)4
_chemical_formula_sum   'Be18 P24 H24 O72'
_cell_volume   3605.31978462
_cell_formula_units_Z   6
loop_
 _symmetry_equiv_pos_site_id
 _symmetry_equiv_pos_as_xyz
  1  'x, y, z'
loop_
 _atom_site_type_symbol
 _atom_site_label
 _atom_site_symmetry_multiplicity
 _atom_site_fract_x
 _atom_site_fract_y
 _atom_site_fract_z
 _atom_site_occupancy
 _atom_site_charge
Be  Be1  1  0.83618000  0.33708000  0.82688000  1.0 0.9212095884
Be  Be2  1  0.33708000  0.82688000  0.83618000  1.0 0.9212095884
Be  Be3  1  0.82688000  0.83618000  0.33708000  1.0 0.9212095884
Be  Be4  1  0.16382000  0.66292000  0.17312000  1.0 0.9298781436
Be  Be5  1  0.66292000  0.17312000  0.16382000  1.0 0.9298781436
Be  Be6  1  0.17312000  0.16382000  0.66292000  1.0 0.9298781436
Be  Be7  1  0.59027000  0.01280000  0.46983000  1.0 0.8820963301
Be  Be8  1  0.01280000  0.46983000  0.59027000  1.0 0.8820963301
Be  Be9  1  0.46983000  0.59027000  0.01280000  1.0 0.8854370661
Be  Be10  1  0.40973000  0.98720000  0.53017000  1.0 0.8571340191
Be  Be11  1  0.98720000  0.53017000  0.40973000  1.0 0.8820963301
Be  Be12  1  0.53017000  0.40973000  0.98720000  1.0 0.8820963301
Be  Be13  1  0.20498000  0.62244000  0.90898000  1.0 0.9298781436
Be  Be14  1  0.62244000  0.90898000  0.20498000  1.0 0.9298781436
Be  Be15  1  0.90898000  0.20498000  0.62244000  1.0 0.9298781436
Be  Be16  1  0.79502000  0.37756000  0.09102000  1.0 0.9298781436
Be  Be17  1  0.37756000  0.09102000  0.79502000  1.0 0.9298781436
Be  Be18  1  0.09102000  0.79502000  0.37756000  1.0 0.9298781436
P  P1  1  0.69432000  0.08738000  0.40748000  1.0 1.0202221222
P  P2  1  0.08738000  0.40748000  0.69432000  1.0 1.0202221222
P  P3  1  0.40748000  0.69432000  0.08738000  1.0 1.0202221222
P  P4  1  0.30568000  0.91262000  0.59252000  1.0 1.0202221222
P  P5  1  0.91262000  0.59252000  0.30568000  1.0 1.0202221222
P  P6  1  0.59252000  0.30568000  0.91262000  1.0 1.0202221222
P  P7  1  0.07613000  0.52077000  0.94624000  1.0 0.9099621721
P  P8  1  0.52077000  0.94624000  0.07613000  1.0 0.9212095884
P  P9  1  0.94624000  0.07613000  0.52077000  1.0 0.9099621721
P  P10  1  0.92387000  0.47923000  0.05376000  1.0 0.9212095884
P  P11  1  0.47923000  0.05376000  0.92387000  1.0 0.9099621721
P  P12  1  0.05376000  0.92387000  0.47923000  1.0 0.9212095884
P  P13  1  0.60349000  0.18195000  0.60573000  1.0 0.9022469588
P  P14  1  0.18195000  0.60573000  0.60349000  1.0 0.9022469588
P  P15  1  0.60573000  0.60349000  0.18195000  1.0 0.9022469588
P  P16  1  0.39651000  0.81805000  0.39427000  1.0 0.9099621721
P  P17  1  0.81805000  0.39427000  0.39651000  1.0 0.9022469588
P  P18  1  0.39427000  0.39651000  0.81805000  1.0 0.9022469588
P  P19  1  0.80842000  0.14755000  0.69713000  1.0 0.8571340191
P  P20  1  0.14755000  0.69713000  0.80842000  1.0 0.8571340191
P  P21  1  0.69713000  0.80842000  0.14755000  1.0 0.8571340191
P  P22  1  0.19158000  0.85245000  0.30287000  1.0 0.8571340191
P  P23  1  0.85245000  0.30287000  0.19158000  1.0 0.8537524291
P  P24  1  0.30287000  0.19158000  0.85245000  1.0 0.8571340191
H  H1  1  0.65640000  0.13750000  0.37950000  1.0 -0.1164698951
H  H2  1  0.13750000  0.37950000  0.65640000  1.0 -0.1164698951
H  H3  1  0.37950000  0.65640000  0.13750000  1.0 -0.1164698951
H  H4  1  0.34360000  0.86250000  0.62050000  1.0 -0.1164698951
H  H5  1  0.86250000  0.62050000  0.34360000  1.0 -0.1164698951
H  H6  1  0.62050000  0.34360000  0.86250000  1.0 -0.1164698951
H  H7  1  0.09680000  0.45280000  0.93900000  1.0 -0.1412680845
H  H8  1  0.45280000  0.93900000  0.09680000  1.0 -0.1412680845
H  H9  1  0.93900000  0.09680000  0.45280000  1.0 -0.1412680845
H  H10  1  0.90320000  0.54720000  0.06100000  1.0 -0.1412680845
H  H11  1  0.54720000  0.06100000  0.90320000  1.0 -0.1412680845
H  H12  1  0.06100000  0.90320000  0.54720000  1.0 -0.1412680845
H  H13  1  0.54980000  0.20730000  0.56450000  1.0 -0.1454404421
H  H14  1  0.20730000  0.56450000  0.54980000  1.0 -0.1412680845
H  H15  1  0.56450000  0.54980000  0.20730000  1.0 -0.1412680845
H  H16  1  0.45020000  0.79270000  0.43550000  1.0 -0.1412680845
H  H17  1  0.79270000  0.43550000  0.45020000  1.0 -0.1412680845
H  H18  1  0.43550000  0.45020000  0.79270000  1.0 -0.1412680845
H  H19  1  0.83160000  0.10700000  0.73370000  1.0 -0.1720238281
H  H20  1  0.10700000  0.73370000  0.83160000  1.0 -0.1720238281
H  H21  1  0.73370000  0.83160000  0.10700000  1.0 -0.1720238281
H  H22  1  0.16840000  0.89300000  0.26630000  1.0 -0.1720238281
H  H23  1  0.89300000  0.26630000  0.16840000  1.0 -0.1720238281
H  H24  1  0.26630000  0.16840000  0.89300000  1.0 -0.1720238281
O  O1  1  0.81047000  0.18761000  0.53427000  1.0 -0.5106529198
O  O2  1  0.18761000  0.53427000  0.81047000  1.0 -0.5106529198
O  O3  1  0.53427000  0.81047000  0.18761000  1.0 -0.5106529198
O  O4  1  0.18953000  0.81239000  0.46573000  1.0 -0.5106529198
O  O5  1  0.81239000  0.46573000  0.18953000  1.0 -0.5106529198
O  O6  1  0.46573000  0.18953000  0.81239000  1.0 -0.5106529198
O  O7  1  0.60134000  0.99647000  0.38299000  1.0 -0.4906688301
O  O8  1  0.99647000  0.38299000  0.60134000  1.0 -0.4906688301
O  O9  1  0.38299000  0.60134000  0.99647000  1.0 -0.4906688301
O  O10  1  0.39866000  0.00353000  0.61701000  1.0 -0.4906688301
O  O11  1  0.00353000  0.61701000  0.39866000  1.0 -0.4906688301
O  O12  1  0.61701000  0.39866000  0.00353000  1.0 -0.4906688301
O  O13  1  0.70362000  0.03554000  0.32873000  1.0 -0.4809901754
O  O14  1  0.03554000  0.32873000  0.70362000  1.0 -0.4809901754
O  O15  1  0.32873000  0.70362000  0.03554000  1.0 -0.4809901754
O  O16  1  0.29638000  0.96446000  0.67127000  1.0 -0.4809901754
O  O17  1  0.96446000  0.67127000  0.29638000  1.0 -0.4809901754
O  O18  1  0.67127000  0.29638000  0.96446000  1.0 -0.4809901754
O  O19  1  0.10060000  0.55511000  0.89259000  1.0 -0.4706929825
O  O20  1  0.55511000  0.89259000  0.10060000  1.0 -0.4706929825
O  O21  1  0.89259000  0.10060000  0.55511000  1.0 -0.4706929825
O  O22  1  0.89940000  0.44489000  0.10741000  1.0 -0.4706929825
O  O23  1  0.44489000  0.10741000  0.89940000  1.0 -0.4706929825
O  O24  1  0.10741000  0.89940000  0.44489000  1.0 -0.4706929825
O  O25  1  0.94940000  0.44407000  0.87403000  1.0 -0.4906688301
O  O26  1  0.44407000  0.87403000  0.94940000  1.0 -0.4906688301
O  O27  1  0.87403000  0.94940000  0.44407000  1.0 -0.4906688301
O  O28  1  0.05060000  0.55593000  0.12597000  1.0 -0.4906688301
O  O29  1  0.55593000  0.12597000  0.05060000  1.0 -0.4906688301
O  O30  1  0.12597000  0.05060000  0.55593000  1.0 -0.4906688301
O  O31  1  0.15748000  0.62658000  0.07264000  1.0 -0.4809901754
O  O32  1  0.62658000  0.07264000  0.15748000  1.0 -0.4809901754
O  O33  1  0.07264000  0.15748000  0.62658000  1.0 -0.4809901754
O  O34  1  0.84252000  0.37342000  0.92736000  1.0 -0.4809901754
O  O35  1  0.37342000  0.92736000  0.84252000  1.0 -0.4809901754
O  O36  1  0.92736000  0.84252000  0.37342000  1.0 -0.4809901754
O  O37  1  0.72695000  0.29778000  0.72227000  1.0 -0.4706929825
O  O38  1  0.29778000  0.72227000  0.72695000  1.0 -0.4706929825
O  O39  1  0.72227000  0.72695000  0.29778000  1.0 -0.4706929825
O  O40  1  0.27305000  0.70222000  0.27773000  1.0 -0.4706929825
O  O41  1  0.70222000  0.27773000  0.27305000  1.0 -0.4706929825
O  O42  1  0.27773000  0.27305000  0.70222000  1.0 -0.4706929825
O  O43  1  0.59559000  0.11176000  0.51675000  1.0 -0.4994417133
O  O44  1  0.11176000  0.51675000  0.59559000  1.0 -0.4994417133
O  O45  1  0.51675000  0.59559000  0.11176000  1.0 -0.4994417133
O  O46  1  0.40441000  0.88824000  0.48325000  1.0 -0.4994417133
O  O47  1  0.88824000  0.48325000  0.40441000  1.0 -0.4994417133
O  O48  1  0.48325000  0.40441000  0.88824000  1.0 -0.4994417133
O  O49  1  0.53779000  0.11520000  0.61761000  1.0 -0.5106529198
O  O50  1  0.11520000  0.61761000  0.53779000  1.0 -0.5106529198
O  O51  1  0.61761000  0.53779000  0.11520000  1.0 -0.5106529198
O  O52  1  0.46221000  0.88480000  0.38239000  1.0 -0.5106529198
O  O53  1  0.88480000  0.38239000  0.46221000  1.0 -0.5106529198
O  O54  1  0.38239000  0.46221000  0.88480000  1.0 -0.5106529198
O  O55  1  0.68873000  0.04200000  0.57257000  1.0 -0.4809901754
O  O56  1  0.04200000  0.57257000  0.68873000  1.0 -0.4809901754
O  O57  1  0.57257000  0.68873000  0.04200000  1.0 -0.4809901754
O  O58  1  0.31127000  0.95800000  0.42743000  1.0 -0.4809901754
O  O59  1  0.95800000  0.42743000  0.31127000  1.0 -0.4809901754
O  O60  1  0.42743000  0.31127000  0.95800000  1.0 -0.4809901754
O  O61  1  0.81366000  0.22582000  0.77742000  1.0 -0.4809901754
O  O62  1  0.22582000  0.77742000  0.81366000  1.0 -0.4809901754
O  O63  1  0.77742000  0.81366000  0.22582000  1.0 -0.4809901754
O  O64  1  0.18634000  0.77418000  0.22258000  1.0 -0.4809901754
O  O65  1  0.77418000  0.22258000  0.18634000  1.0 -0.4809901754
O  O66  1  0.22258000  0.18634000  0.77418000  1.0 -0.4809901754
O  O67  1  0.90351000  0.21492000  0.71047000  1.0 -0.4906688301
O  O68  1  0.21492000  0.71047000  0.90351000  1.0 -0.4906688301
O  O69  1  0.71047000  0.90351000  0.21492000  1.0 -0.4906688301
O  O70  1  0.09649000  0.78508000  0.28953000  1.0 -0.4906688301
O  O71  1  0.78508000  0.28953000  0.09649000  1.0 -0.4906688301
O  O72  1  0.28953000  0.09649000  0.78508000  1.0 -0.4906688301
