# DDEC6 charges by PACMAN v1.1 (https://github.com/mtap-research/PACMAN-charge/)
data_XEKDOI_FSR_pacman
_symmetry_space_group_name_H-M   'P 1'
_cell_length_a   7.70200000
_cell_length_b   29.10200000
_cell_length_c   9.33400000
_cell_angle_alpha   90.00000000
_cell_angle_beta   108.39500000
_cell_angle_gamma   90.00000000
_symmetry_Int_Tables_number   1
_chemical_formula_structural   Cu3H20C28(N7O4)2
_chemical_formula_sum   'Cu6 H40 C56 N28 O16'
_cell_volume   1985.25464241
_cell_formula_units_Z   2
loop_
 _symmetry_equiv_pos_site_id
 _symmetry_equiv_pos_as_xyz
  1  'x, y, z'
loop_
 _atom_site_type_symbol
 _atom_site_label
 _atom_site_symmetry_multiplicity
 _atom_site_fract_x
 _atom_site_fract_y
 _atom_site_fract_z
 _atom_site_occupancy
 _atom_site_charge
Cu  Cu1  1  0.50000000  0.00000000  0.00000000  1.0 0.8604853831
Cu  Cu2  1  0.00000000  0.50000000  0.00000000  1.0 0.8604853831
Cu  Cu3  1  0.48481000  0.00164000  0.33093000  1.0 0.8400098763
Cu  Cu4  1  0.01519000  0.50164000  0.66907000  1.0 0.8400098763
Cu  Cu5  1  0.51519000  0.99836000  0.66907000  1.0 0.8400098763
Cu  Cu6  1  0.98481000  0.49836000  0.33093000  1.0 0.8400098763
H  H1  1  0.46490000  0.84320000  0.33700000  1.0 0.1309094371
H  H2  1  0.03510000  0.34320000  0.66300000  1.0 0.1309094371
H  H3  1  0.53510000  0.15680000  0.66300000  1.0 0.1309094371
H  H4  1  0.96490000  0.65680000  0.33700000  1.0 0.1309094371
H  H5  1  0.47440000  0.76520000  0.31040000  1.0 0.1179934159
H  H6  1  0.02560000  0.26520000  0.68960000  1.0 0.1179934159
H  H7  1  0.52560000  0.23480000  0.68960000  1.0 0.1179934159
H  H8  1  0.97440000  0.73480000  0.31040000  1.0 0.1179934159
H  H9  1  0.47120000  0.78130000  0.88600000  1.0 0.1179934159
H  H10  1  0.02880000  0.28130000  0.11400000  1.0 0.1179934159
H  H11  1  0.52880000  0.21870000  0.11400000  1.0 0.1179934159
H  H12  1  0.97120000  0.71870000  0.88600000  1.0 0.1179934159
H  H13  1  0.46780000  0.85930000  0.91170000  1.0 0.1309094371
H  H14  1  0.03220000  0.35930000  0.08830000  1.0 0.1309094371
H  H15  1  0.53220000  0.14070000  0.08830000  1.0 0.1309094371
H  H16  1  0.96780000  0.64070000  0.91170000  1.0 0.1309094371
H  H17  1  0.42820000  0.69640000  0.27450000  1.0 0.1309094371
H  H18  1  0.07180000  0.19640000  0.72550000  1.0 0.1309094371
H  H19  1  0.57180000  0.30360000  0.72550000  1.0 0.1309094371
H  H20  1  0.92820000  0.80360000  0.27450000  1.0 0.1309094371
H  H21  1  0.40340000  0.61820000  0.23590000  1.0 0.1309094371
H  H22  1  0.09660000  0.11820000  0.76410000  1.0 0.1309094371
H  H23  1  0.59660000  0.38180000  0.76410000  1.0 0.1309094371
H  H24  1  0.90340000  0.88180000  0.23590000  1.0 0.1309094371
H  H25  1  0.51130000  0.63270000  0.85460000  1.0 0.1179934159
H  H26  1  0.98870000  0.13270000  0.14540000  1.0 0.1179934159
H  H27  1  0.48870000  0.36730000  0.14540000  1.0 0.1179934159
H  H28  1  0.01130000  0.86730000  0.85460000  1.0 0.1179934159
H  H29  1  0.52640000  0.71070000  0.87860000  1.0 0.139143546
H  H30  1  0.97360000  0.21070000  0.12140000  1.0 0.139143546
H  H31  1  0.47360000  0.28930000  0.12140000  1.0 0.139143546
H  H32  1  0.02640000  0.78930000  0.87860000  1.0 0.139143546
H  H33  1  0.41190000  0.55340000  0.09640000  1.0 0.1538332187
H  H34  1  0.08810000  0.05340000  0.90360000  1.0 0.1538332187
H  H35  1  0.58810000  0.44660000  0.90360000  1.0 0.1538332187
H  H36  1  0.91190000  0.94660000  0.09640000  1.0 0.1538332187
H  H37  1  0.54130000  0.55610000  0.99620000  1.0 0.1610505775
H  H38  1  0.95870000  0.05610000  0.00380000  1.0 0.1610505775
H  H39  1  0.45870000  0.44390000  0.00380000  1.0 0.1610505775
H  H40  1  0.04130000  0.94390000  0.99620000  1.0 0.1610505775
C  C1  1  0.46830000  0.91180000  0.14910000  1.0 0.5746454083
C  C2  1  0.03170000  0.41180000  0.85090000  1.0 0.5746454083
C  C3  1  0.53170000  0.08820000  0.85090000  1.0 0.5746454083
C  C4  1  0.96830000  0.58820000  0.14910000  1.0 0.5746454083
C  C5  1  0.46730000  0.86010000  0.12690000  1.0 -0.023626323
C  C6  1  0.03270000  0.36010000  0.87310000  1.0 -0.023626323
C  C7  1  0.53270000  0.13990000  0.87310000  1.0 -0.023626323
C  C8  1  0.96730000  0.63990000  0.12690000  1.0 -0.023626323
C  C9  1  0.46760000  0.83090000  0.24580000  1.0 -0.1086002227
C  C10  1  0.03240000  0.33090000  0.75420000  1.0 -0.1086002227
C  C11  1  0.53240000  0.16910000  0.75420000  1.0 -0.1086002227
C  C12  1  0.96760000  0.66910000  0.24580000  1.0 -0.1086002227
C  C13  1  0.47180000  0.78390000  0.22890000  1.0 -0.1601707853
C  C14  1  0.02820000  0.28390000  0.77110000  1.0 -0.1601707853
C  C15  1  0.52820000  0.21610000  0.77110000  1.0 -0.1601707853
C  C16  1  0.97180000  0.71610000  0.22890000  1.0 -0.1601707853
C  C17  1  0.47230000  0.76340000  0.09510000  1.0 0.0501985096
C  C18  1  0.02770000  0.26340000  0.90490000  1.0 0.0501985096
C  C19  1  0.52770000  0.23660000  0.90490000  1.0 0.0501985096
C  C20  1  0.97230000  0.73660000  0.09510000  1.0 0.0501985096
C  C21  1  0.47070000  0.79360000  0.97790000  1.0 -0.1601707853
C  C22  1  0.02930000  0.29360000  0.02210000  1.0 -0.1601707853
C  C23  1  0.52930000  0.20640000  0.02210000  1.0 -0.1601707853
C  C24  1  0.97070000  0.70640000  0.97790000  1.0 -0.1601707853
C  C25  1  0.46850000  0.84060000  0.99260000  1.0 -0.0948318161
C  C26  1  0.03150000  0.34060000  0.00740000  1.0 -0.0948318161
C  C27  1  0.53150000  0.15940000  0.00740000  1.0 -0.0948318161
C  C28  1  0.96850000  0.65940000  0.99260000  1.0 -0.0948318161
C  C29  1  0.47030000  0.71370000  0.07730000  1.0 0.1179934159
C  C30  1  0.02970000  0.21370000  0.92270000  1.0 0.1179934159
C  C31  1  0.52970000  0.28630000  0.92270000  1.0 0.1179934159
C  C32  1  0.97030000  0.78630000  0.07730000  1.0 0.1179934159
C  C33  1  0.44040000  0.68410000  0.18620000  1.0 -0.1938380089
C  C34  1  0.05960000  0.18410000  0.81380000  1.0 -0.1938380089
C  C35  1  0.55960000  0.31590000  0.81380000  1.0 -0.1938380089
C  C36  1  0.94040000  0.81590000  0.18620000  1.0 -0.1938380089
C  C37  1  0.42870000  0.63710000  0.16470000  1.0 0.0444985189
C  C38  1  0.07130000  0.13710000  0.83530000  1.0 0.0444985189
C  C39  1  0.57130000  0.36290000  0.83530000  1.0 0.0444985189
C  C40  1  0.92870000  0.86290000  0.16470000  1.0 0.0501985096
C  C41  1  0.49100000  0.64610000  0.93840000  1.0 0.0675276991
C  C42  1  0.00900000  0.14610000  0.06160000  1.0 0.0675276991
C  C43  1  0.50900000  0.35390000  0.06160000  1.0 0.0675276991
C  C44  1  0.99100000  0.85390000  0.93840000  1.0 0.0675276991
C  C45  1  0.50040000  0.69290000  0.95200000  1.0 -0.1938380089
C  C46  1  0.99960000  0.19290000  0.04800000  1.0 -0.1938380089
C  C47  1  0.49960000  0.30710000  0.04800000  1.0 -0.1938380089
C  C48  1  0.00040000  0.80710000  0.95200000  1.0 -0.1938380089
C  C49  1  0.43070000  0.56850000  0.00980000  1.0 -0.26101043
C  C50  1  0.06930000  0.06850000  0.99020000  1.0 -0.26101043
C  C51  1  0.56930000  0.43150000  0.99020000  1.0 -0.26101043
C  C52  1  0.93070000  0.93150000  0.00980000  1.0 -0.26101043
C  C53  1  0.26790000  0.55830000  0.86910000  1.0 0.6205135666
C  C54  1  0.23210000  0.05830000  0.13090000  1.0 0.6205135666
C  C55  1  0.73210000  0.44170000  0.13090000  1.0 0.6205135666
C  C56  1  0.76790000  0.94170000  0.86910000  1.0 0.6205135666
N  N1  1  0.45420000  0.61860000  0.03960000  1.0 0.1179934159
N  N2  1  0.04580000  0.11860000  0.96040000  1.0 0.1179934159
N  N3  1  0.54580000  0.38140000  0.96040000  1.0 0.1179934159
N  N4  1  0.95420000  0.88140000  0.03960000  1.0 0.1179934159
N  N5  1  0.65100000  0.01104000  0.21200000  1.0 -0.5412017323
N  N6  1  0.84900000  0.51104000  0.78800000  1.0 -0.5412017323
N  N7  1  0.34900000  0.98896000  0.78800000  1.0 -0.5412017323
N  N8  1  0.15100000  0.48896000  0.21200000  1.0 -0.5412017323
N  N9  1  0.76460000  0.04060000  0.23850000  1.0 0.434969642
N  N10  1  0.73540000  0.54060000  0.76150000  1.0 0.434969642
N  N11  1  0.23540000  0.95940000  0.76150000  1.0 0.434969642
N  N12  1  0.26460000  0.45940000  0.23850000  1.0 0.434969642
N  N13  1  0.87560000  0.07120000  0.26690000  1.0 -0.3514657907
N  N14  1  0.62440000  0.57120000  0.73310000  1.0 -0.3514657907
N  N15  1  0.12440000  0.92880000  0.73310000  1.0 -0.3514657907
N  N16  1  0.37560000  0.42880000  0.26690000  1.0 -0.3514657907
N  N17  1  0.32720000  0.99900000  0.46490000  1.0 -0.5412017323
N  N18  1  0.17280000  0.49900000  0.53510000  1.0 -0.5412017323
N  N19  1  0.67280000  0.00100000  0.53510000  1.0 -0.5412017323
N  N20  1  0.82720000  0.50100000  0.46490000  1.0 -0.5412017323
N  N21  1  0.18190000  0.98010000  0.42250000  1.0 0.4507418357
N  N22  1  0.31810000  0.48010000  0.57750000  1.0 0.4507418357
N  N23  1  0.81810000  0.01990000  0.57750000  1.0 0.4507418357
N  N24  1  0.68190000  0.51990000  0.42250000  1.0 0.4507418357
N  N25  1  0.04140000  0.96300000  0.38150000  1.0 -0.2996894486
N  N26  1  0.45860000  0.46300000  0.61850000  1.0 -0.2996894486
N  N27  1  0.95860000  0.03700000  0.61850000  1.0 -0.2996894486
N  N28  1  0.54140000  0.53700000  0.38150000  1.0 -0.2996894486
O  O1  1  0.48840000  0.93433000  0.03890000  1.0 -0.530950697
O  O2  1  0.01160000  0.43433000  0.96110000  1.0 -0.5244554398
O  O3  1  0.51160000  0.06567000  0.96110000  1.0 -0.5244554398
O  O4  1  0.98840000  0.56567000  0.03890000  1.0 -0.530950697
O  O5  1  0.45180000  0.92753000  0.26670000  1.0 -0.530950697
O  O6  1  0.04820000  0.42753000  0.73330000  1.0 -0.530950697
O  O7  1  0.54820000  0.07247000  0.73330000  1.0 -0.530950697
O  O8  1  0.95180000  0.57247000  0.26670000  1.0 -0.530950697
O  O9  1  0.22620000  0.51581000  0.85760000  1.0 -0.5696506269
O  O10  1  0.27380000  0.01581000  0.14240000  1.0 -0.5696506269
O  O11  1  0.77380000  0.48419000  0.14240000  1.0 -0.5696506269
O  O12  1  0.72620000  0.98419000  0.85760000  1.0 -0.5696506269
O  O13  1  0.19230000  0.58908000  0.78230000  1.0 -0.5244554398
O  O14  1  0.30770000  0.08908000  0.21770000  1.0 -0.5244554398
O  O15  1  0.80770000  0.41092000  0.21770000  1.0 -0.5244554398
O  O16  1  0.69230000  0.91092000  0.78230000  1.0 -0.5244554398
