# DDEC6 charges by PACMAN v1.1 (https://github.com/mtap-research/PACMAN-charge/)
data_XEPRAO_ASR_pacman
_symmetry_space_group_name_H-M   'P 1'
_cell_length_a   26.05100000
_cell_length_b   26.05100000
_cell_length_c   26.05100000
_cell_angle_alpha   137.92000000
_cell_angle_beta   115.45200000
_cell_angle_gamma   80.09720000
_symmetry_Int_Tables_number   1
_chemical_formula_structural   Cu3H32C59N5O18
_chemical_formula_sum   'Cu12 H128 C236 N20 O72'
_cell_volume   10377.95514888
_cell_formula_units_Z   4
loop_
 _symmetry_equiv_pos_site_id
 _symmetry_equiv_pos_as_xyz
  1  'x, y, z'
loop_
 _atom_site_type_symbol
 _atom_site_label
 _atom_site_symmetry_multiplicity
 _atom_site_fract_x
 _atom_site_fract_y
 _atom_site_fract_z
 _atom_site_occupancy
 _atom_site_charge
Cu  Cu1  1  0.54977000  0.55396000  0.56621000  1.0 0.8514923822
Cu  Cu2  1  0.01225000  0.44604000  0.99581000  1.0 0.8514923822
Cu  Cu3  1  0.98775000  0.98356000  0.43379000  1.0 0.8514923822
Cu  Cu4  1  0.45023000  0.01644000  0.00419000  1.0 0.8514923822
Cu  Cu5  1  0.45023000  0.44604000  0.43379000  1.0 0.8514923822
Cu  Cu6  1  0.98775000  0.55396000  0.00419000  1.0 0.8514923822
Cu  Cu7  1  0.01225000  0.01644000  0.56621000  1.0 0.8514923822
Cu  Cu8  1  0.54977000  0.98356000  0.99581000  1.0 0.8514923822
Cu  Cu9  1  0.67496000  0.67496000  0.00000000  1.0 0.8197604191
Cu  Cu10  1  0.60900000  0.60900000  0.00000000  1.0 0.8282792341
Cu  Cu11  1  0.32504000  0.32504000  0.00000000  1.0 0.8197604191
Cu  Cu12  1  0.39100000  0.39100000  0.00000000  1.0 0.8282792341
H  H1  1  0.57760000  0.53770000  0.73050000  1.0 0.1517147741
H  H2  1  0.44230000  0.34860000  0.51110000  1.0 0.1186181293
H  H3  1  0.50010000  0.41090000  0.72460000  1.0 0.1186181293
H  H4  1  0.34550000  0.14930000  0.39300000  1.0 0.0900036825
H  H5  1  0.41700000  0.26460000  0.51240000  1.0 0.1620238494
H  H6  1  0.66790000  0.41450000  0.46880000  1.0 0.1517147741
H  H7  1  0.75870000  0.30090000  0.40380000  1.0 0.1113164347
H  H8  1  0.85770000  0.48230000  0.48960000  1.0 0.1186181293
H  H9  1  0.56980000  0.54770000  0.73590000  1.0 0.1517147741
H  H10  1  0.42930000  0.36670000  0.51940000  1.0 0.1186181293
H  H11  1  0.48590000  0.42940000  0.73330000  1.0 0.1186181293
H  H12  1  0.29900000  0.16440000  0.36640000  1.0 0.0900036825
H  H13  1  0.39920000  0.33900000  0.61140000  1.0 0.2179974985
H  H14  1  0.19280000  0.46230000  0.03990000  1.0 0.1517147741
H  H15  1  0.16250000  0.65140000  0.09370000  1.0 0.1186181293
H  H16  1  0.31370000  0.58910000  0.08920000  1.0 0.1186181293
H  H17  1  0.24370000  0.85070000  0.19620000  1.0 0.0900036825
H  H18  1  0.24780000  0.73540000  0.15240000  1.0 0.1620238494
H  H19  1  0.05430000  0.58550000  0.25340000  1.0 0.1517147741
H  H20  1  0.10290000  0.69910000  0.45780000  1.0 0.1113164347
H  H21  1  0.00730000  0.51770000  0.37540000  1.0 0.1186181293
H  H22  1  0.18820000  0.45230000  0.02210000  1.0 0.1517147741
H  H23  1  0.15270000  0.63330000  0.06260000  1.0 0.1186181293
H  H24  1  0.30390000  0.57060000  0.05650000  1.0 0.1186181293
H  H25  1  0.20200000  0.83560000  0.13460000  1.0 0.0900036825
H  H26  1  0.27240000  0.66100000  0.06020000  1.0 0.2179974985
H  H27  1  0.80720000  0.84710000  0.26950000  1.0 0.1517147741
H  H28  1  0.83750000  0.93120000  0.48890000  1.0 0.1186181293
H  H29  1  0.68630000  0.77550000  0.27540000  1.0 0.1186181293
H  H30  1  0.75630000  0.95250000  0.60700000  1.0 0.0900036825
H  H31  1  0.75220000  0.90460000  0.48760000  1.0 0.1620238494
H  H32  1  0.94570000  0.19910000  0.53120000  1.0 0.1517147741
H  H33  1  0.89710000  0.35490000  0.59620000  1.0 0.1113164347
H  H34  1  0.99270000  0.36810000  0.51040000  1.0 0.1186181293
H  H35  1  0.81180000  0.83390000  0.26410000  1.0 0.1517147741
H  H36  1  0.84730000  0.90990000  0.48060000  1.0 0.1186181293
H  H37  1  0.69610000  0.75260000  0.26670000  1.0 0.1186181293
H  H38  1  0.79800000  0.93260000  0.63360000  1.0 0.0900036825
H  H39  1  0.72760000  0.78780000  0.38860000  1.0 0.2179974985
H  H40  1  0.42240000  0.15290000  0.96010000  1.0 0.1517147741
H  H41  1  0.55770000  0.06880000  0.90630000  1.0 0.1186181293
H  H42  1  0.49990000  0.22450000  0.91080000  1.0 0.1186181293
H  H43  1  0.65450000  0.04750000  0.80380000  1.0 0.0900036825
H  H44  1  0.58300000  0.09540000  0.84760000  1.0 0.1620238494
H  H45  1  0.33210000  0.80090000  0.74660000  1.0 0.1517147741
H  H46  1  0.24130000  0.64510000  0.54220000  1.0 0.1113164347
H  H47  1  0.14230000  0.63190000  0.62460000  1.0 0.1186181293
H  H48  1  0.43020000  0.16610000  0.97790000  1.0 0.1517147741
H  H49  1  0.57070000  0.09010000  0.93740000  1.0 0.1186181293
H  H50  1  0.51410000  0.24740000  0.94350000  1.0 0.1186181293
H  H51  1  0.70100000  0.06740000  0.86540000  1.0 0.0900036825
H  H52  1  0.60080000  0.21220000  0.93980000  1.0 0.2179974985
H  H53  1  0.42240000  0.46230000  0.26950000  1.0 0.1517147741
H  H54  1  0.55770000  0.65140000  0.48890000  1.0 0.1186181293
H  H55  1  0.49990000  0.58910000  0.27540000  1.0 0.1186181293
H  H56  1  0.65450000  0.85070000  0.60700000  1.0 0.0900036825
H  H57  1  0.58300000  0.73540000  0.48760000  1.0 0.1620238494
H  H58  1  0.33210000  0.58550000  0.53120000  1.0 0.1517147741
H  H59  1  0.24130000  0.69910000  0.59620000  1.0 0.1113164347
H  H60  1  0.14230000  0.51770000  0.51040000  1.0 0.1186181293
H  H61  1  0.43020000  0.45230000  0.26410000  1.0 0.1517147741
H  H62  1  0.57070000  0.63330000  0.48060000  1.0 0.1186181293
H  H63  1  0.51410000  0.57060000  0.26670000  1.0 0.1186181293
H  H64  1  0.70100000  0.83560000  0.63360000  1.0 0.0900036825
H  H65  1  0.60080000  0.66100000  0.38860000  1.0 0.2179974985
H  H66  1  0.80720000  0.53770000  0.96010000  1.0 0.1517147741
H  H67  1  0.83750000  0.34860000  0.90630000  1.0 0.1186181293
H  H68  1  0.68630000  0.41090000  0.91080000  1.0 0.1186181293
H  H69  1  0.75630000  0.14930000  0.80380000  1.0 0.0900036825
H  H70  1  0.75220000  0.26460000  0.84760000  1.0 0.1620238494
H  H71  1  0.94570000  0.41450000  0.74660000  1.0 0.1517147741
H  H72  1  0.89710000  0.30090000  0.54220000  1.0 0.1113164347
H  H73  1  0.99270000  0.48230000  0.62460000  1.0 0.1186181293
H  H74  1  0.81180000  0.54770000  0.97790000  1.0 0.1517147741
H  H75  1  0.84730000  0.36670000  0.93740000  1.0 0.1186181293
H  H76  1  0.69610000  0.42940000  0.94350000  1.0 0.1186181293
H  H77  1  0.79800000  0.16440000  0.86540000  1.0 0.0900036825
H  H78  1  0.72760000  0.33900000  0.93980000  1.0 0.2179974985
H  H79  1  0.19280000  0.15290000  0.73050000  1.0 0.1517147741
H  H80  1  0.16250000  0.06880000  0.51110000  1.0 0.1186181293
H  H81  1  0.31370000  0.22450000  0.72460000  1.0 0.1186181293
H  H82  1  0.24370000  0.04750000  0.39300000  1.0 0.0900036825
H  H83  1  0.24780000  0.09540000  0.51240000  1.0 0.1620238494
H  H84  1  0.05430000  0.80090000  0.46880000  1.0 0.1517147741
H  H85  1  0.10290000  0.64510000  0.40380000  1.0 0.1113164347
H  H86  1  0.00730000  0.63190000  0.48960000  1.0 0.1186181293
H  H87  1  0.18820000  0.16610000  0.73590000  1.0 0.1517147741
H  H88  1  0.15270000  0.09010000  0.51940000  1.0 0.1186181293
H  H89  1  0.30390000  0.24740000  0.73330000  1.0 0.1186181293
H  H90  1  0.20200000  0.06740000  0.36640000  1.0 0.0900036825
H  H91  1  0.27240000  0.21220000  0.61140000  1.0 0.2179974985
H  H92  1  0.57760000  0.84710000  0.03990000  1.0 0.1517147741
H  H93  1  0.44230000  0.93120000  0.09370000  1.0 0.1186181293
H  H94  1  0.50010000  0.77550000  0.08920000  1.0 0.1186181293
H  H95  1  0.34550000  0.95250000  0.19620000  1.0 0.0900036825
H  H96  1  0.41700000  0.90460000  0.15240000  1.0 0.1620238494
H  H97  1  0.66790000  0.19910000  0.25340000  1.0 0.1517147741
H  H98  1  0.75870000  0.35490000  0.45780000  1.0 0.1113164347
H  H99  1  0.85770000  0.36810000  0.37540000  1.0 0.1186181293
H  H100  1  0.56980000  0.83390000  0.02210000  1.0 0.1517147741
H  H101  1  0.42930000  0.90990000  0.06260000  1.0 0.1186181293
H  H102  1  0.48590000  0.75260000  0.05650000  1.0 0.1186181293
H  H103  1  0.29900000  0.93260000  0.13460000  1.0 0.0900036825
H  H104  1  0.39920000  0.78780000  0.06020000  1.0 0.2179974985
H  H105  1  0.27410000  0.04110000  0.31520000  1.0 0.0900036825
H  H106  1  0.34780000  0.25870000  0.60650000  1.0 0.14009832
H  H107  1  0.22610000  0.07770000  0.30380000  1.0 0.1045353944
H  H108  1  0.33670000  0.24960000  0.58630000  1.0 0.1295868279
H  H109  1  0.27410000  0.95890000  0.23300000  1.0 0.0900036825
H  H110  1  0.34780000  0.74130000  0.08910000  1.0 0.14009832
H  H111  1  0.22610000  0.92230000  0.14840000  1.0 0.1045353944
H  H112  1  0.33670000  0.75040000  0.08710000  1.0 0.1295868279
H  H113  1  0.72590000  0.95890000  0.68480000  1.0 0.0900036825
H  H114  1  0.65220000  0.74130000  0.39350000  1.0 0.14009832
H  H115  1  0.77390000  0.92230000  0.69620000  1.0 0.1045353944
H  H116  1  0.66330000  0.75040000  0.41370000  1.0 0.1295868279
H  H117  1  0.72590000  0.04110000  0.76700000  1.0 0.0900036825
H  H118  1  0.65220000  0.25870000  0.91090000  1.0 0.14009832
H  H119  1  0.77390000  0.07770000  0.85160000  1.0 0.1045353944
H  H120  1  0.66330000  0.24960000  0.91290000  1.0 0.1295868279
H  H121  1  0.51650000  0.25040000  0.26610000  1.0 0.1517147741
H  H122  1  0.01570000  0.74960000  0.26610000  1.0 0.1517147741
H  H123  1  0.98430000  0.25040000  0.73390000  1.0 0.1517147741
H  H124  1  0.48350000  0.74960000  0.73390000  1.0 0.1517147741
H  H125  1  0.83830000  0.33830000  0.50000000  1.0 0.0523122527
H  H126  1  0.95470000  0.45470000  0.50000000  1.0 0.0900036825
H  H127  1  0.16170000  0.66170000  0.50000000  1.0 0.0523122527
H  H128  1  0.04530000  0.54530000  0.50000000  1.0 0.0900036825
C  C1  1  0.57742000  0.54746000  0.84092000  1.0 0.4389245209
C  C2  1  0.54210000  0.48610000  0.74400000  1.0 0.0198788644
C  C3  1  0.54760000  0.49780000  0.70140000  1.0 -0.1484894653
C  C4  1  0.50830000  0.44990000  0.61680000  1.0 0.0018136623
C  C5  1  0.46670000  0.38400000  0.56990000  1.0 -0.1201419461
C  C6  1  0.46260000  0.37290000  0.61290000  1.0 0.1186181293
C  C7  1  0.50130000  0.42140000  0.69790000  1.0 -0.1201419461
C  C8  1  0.39531000  0.28981000  0.57670000  1.0 0.1517147741
C  C9  1  0.35214000  0.21114000  0.50460000  1.0 -0.0078707006
C  C10  1  0.33204000  0.15014000  0.42130000  1.0 -0.1110553489
C  C11  1  0.50520000  0.46943000  0.57369000  1.0 0.4389245209
C  C12  1  0.55461000  0.39896000  0.42235000  1.0 0.5784845871
C  C13  1  0.58750000  0.34121000  0.37491000  1.0 -0.0155415455
C  C14  1  0.64764000  0.36396000  0.41282000  1.0 -0.1656125359
C  C15  1  0.77218000  0.39888000  0.44850000  1.0 0.2349751514
C  C16  1  0.83564000  0.40704000  0.48520000  1.0 0.0198788644
C  C17  1  0.87051000  0.44761000  0.49110000  1.0 -0.0825004256
C  C18  1  0.53430000  0.49650000  0.74880000  1.0 0.0128372564
C  C19  1  0.53972000  0.50772000  0.70660000  1.0 -0.1484894653
C  C20  1  0.50039000  0.45899000  0.62060000  1.0 0.0018136623
C  C21  1  0.45560000  0.39930000  0.57690000  1.0 -0.1201419461
C  C22  1  0.45022000  0.38812000  0.61910000  1.0 0.1295868279
C  C23  1  0.48955000  0.43685000  0.70510000  1.0 -0.1110553489
C  C24  1  0.37263000  0.26833000  0.50650000  1.0 0.1045353944
C  C25  1  0.32792000  0.21992000  0.48940000  1.0 0.038097446
C  C26  1  0.29169000  0.16389000  0.39800000  1.0 -0.0633472496
C  C27  1  0.29346000  0.45254000  0.02996000  1.0 0.4389245209
C  C28  1  0.25790000  0.51390000  0.05600000  1.0 0.0198788644
C  C29  1  0.20360000  0.50220000  0.04980000  1.0 -0.1484894653
C  C30  1  0.16690000  0.55010000  0.05840000  1.0 -0.0009144364
C  C31  1  0.18590000  0.61600000  0.08270000  1.0 -0.1201419461
C  C32  1  0.24000000  0.62710000  0.08970000  1.0 0.1186181293
C  C33  1  0.27650000  0.57860000  0.07990000  1.0 -0.1201419461
C  C34  1  0.28689000  0.71019000  0.10550000  1.0 0.1517147741
C  C35  1  0.29346000  0.78886000  0.14100000  1.0 -0.0078707006
C  C36  1  0.27116000  0.84986000  0.18190000  1.0 -0.1110553489
C  C37  1  0.10426000  0.53057000  0.03577000  1.0 0.4389245209
C  C38  1  0.02339000  0.60104000  0.15565000  1.0 0.5784845871
C  C39  1  0.03370000  0.65879000  0.24629000  1.0 -0.0155415455
C  C40  1  0.04886000  0.63604000  0.28368000  1.0 -0.1656125359
C  C41  1  0.04962000  0.60112000  0.37330000  1.0 0.2357715141
C  C42  1  0.07816000  0.59296000  0.42860000  1.0 0.0198788644
C  C43  1  0.04349000  0.55239000  0.42290000  1.0 -0.0825004256
C  C44  1  0.25230000  0.50350000  0.03780000  1.0 0.0128372564
C  C45  1  0.19888000  0.49228000  0.03200000  1.0 -0.1484894653
C  C46  1  0.16161000  0.54101000  0.04140000  1.0 -0.0009144364
C  C47  1  0.17760000  0.60070000  0.05630000  1.0 -0.1201419461
C  C48  1  0.23098000  0.61188000  0.06210000  1.0 0.1295868279
C  C49  1  0.26825000  0.56315000  0.05270000  1.0 -0.1110553489
C  C50  1  0.23817000  0.73167000  0.10430000  1.0 0.1045353944
C  C51  1  0.26948000  0.78008000  0.10800000  1.0 0.038097446
C  C52  1  0.23411000  0.83611000  0.12780000  1.0 -0.0633472496
C  C53  1  0.70654000  0.73650000  0.15908000  1.0 0.4389245209
C  C54  1  0.74210000  0.79810000  0.25600000  1.0 0.0198788644
C  C55  1  0.79640000  0.84620000  0.29860000  1.0 -0.1484894653
C  C56  1  0.83310000  0.89150000  0.38320000  1.0 0.0018136623
C  C57  1  0.81410000  0.89680000  0.43010000  1.0 -0.1201419461
C  C58  1  0.76000000  0.84970000  0.38710000  1.0 0.1186181293
C  C59  1  0.72350000  0.80340000  0.30210000  1.0 -0.1201419461
C  C60  1  0.71311000  0.81861000  0.42330000  1.0 0.1517147741
C  C61  1  0.70654000  0.84754000  0.49540000  1.0 -0.0078707006
C  C62  1  0.72884000  0.91074000  0.57870000  1.0 -0.1110553489
C  C63  1  0.89574000  0.93151000  0.42631000  1.0 0.4389245209
C  C64  1  0.97661000  0.13226000  0.57765000  1.0 0.5784845871
C  C65  1  0.96630000  0.21259000  0.62509000  1.0 -0.0155415455
C  C66  1  0.95114000  0.23482000  0.58718000  1.0 -0.1656125359
C  C67  1  0.95038000  0.32368000  0.55150000  1.0 0.2349751514
C  C68  1  0.92184000  0.35044000  0.51480000  1.0 0.0198788644
C  C69  1  0.95651000  0.37941000  0.50890000  1.0 -0.0825004256
C  C70  1  0.74770000  0.78550000  0.25120000  1.0 0.0128372564
C  C71  1  0.80112000  0.83312000  0.29340000  1.0 -0.1484894653
C  C72  1  0.83839000  0.87979000  0.37940000  1.0 -0.0009144364
C  C73  1  0.82240000  0.87870000  0.42310000  1.0 -0.1201419461
C  C74  1  0.76902000  0.83112000  0.38090000  1.0 0.1295868279
C  C75  1  0.73175000  0.78445000  0.29490000  1.0 -0.1110553489
C  C76  1  0.76183000  0.86613000  0.49350000  1.0 0.1113164347
C  C77  1  0.73052000  0.83852000  0.51060000  1.0 0.038097446
C  C78  1  0.76589000  0.89369000  0.60200000  1.0 -0.0633472496
C  C79  1  0.42258000  0.26350000  0.97004000  1.0 0.4389245209
C  C80  1  0.45790000  0.20190000  0.94400000  1.0 0.0198788644
C  C81  1  0.45240000  0.15380000  0.95020000  1.0 -0.1484894653
C  C82  1  0.49170000  0.10850000  0.94160000  1.0 0.0018136623
C  C83  1  0.53330000  0.10320000  0.91730000  1.0 -0.1201419461
C  C84  1  0.53740000  0.15030000  0.91030000  1.0 0.1186181293
C  C85  1  0.49870000  0.19660000  0.92010000  1.0 -0.1201419461
C  C86  1  0.60469000  0.18139000  0.89450000  1.0 0.1517147741
C  C87  1  0.64786000  0.15246000  0.85900000  1.0 -0.0078707006
C  C88  1  0.66796000  0.08926000  0.81810000  1.0 -0.1110553489
C  C89  1  0.49480000  0.06849000  0.96423000  1.0 0.4389245209
C  C90  1  0.44539000  0.86774000  0.84435000  1.0 0.5784845871
C  C91  1  0.41250000  0.78741000  0.75371000  1.0 -0.0155415455
C  C92  1  0.35236000  0.76518000  0.71632000  1.0 -0.1656125359
C  C93  1  0.22782000  0.67632000  0.62670000  1.0 0.2357715141
C  C94  1  0.16436000  0.64956000  0.57140000  1.0 0.0198788644
C  C95  1  0.12949000  0.62059000  0.57710000  1.0 -0.0825004256
C  C96  1  0.46570000  0.21450000  0.96220000  1.0 0.0128372564
C  C97  1  0.46028000  0.16688000  0.96800000  1.0 -0.1484894653
C  C98  1  0.49961000  0.12021000  0.95860000  1.0 0.0018136623
C  C99  1  0.54440000  0.12130000  0.94370000  1.0 -0.1201419461
C  C100  1  0.54978000  0.16888000  0.93790000  1.0 0.1295868279
C  C101  1  0.51045000  0.21555000  0.94730000  1.0 -0.1110553489
C  C102  1  0.62737000  0.13387000  0.89570000  1.0 0.1045353944
C  C103  1  0.67208000  0.16148000  0.89200000  1.0 0.038097446
C  C104  1  0.70831000  0.10631000  0.87220000  1.0 -0.0633472496
C  C105  1  0.42258000  0.45254000  0.15908000  1.0 0.4389245209
C  C106  1  0.45790000  0.51390000  0.25600000  1.0 0.0198788644
C  C107  1  0.45240000  0.50220000  0.29860000  1.0 -0.1484894653
C  C108  1  0.49170000  0.55010000  0.38320000  1.0 0.0018136623
C  C109  1  0.53330000  0.61600000  0.43010000  1.0 -0.1201419461
C  C110  1  0.53740000  0.62710000  0.38710000  1.0 0.1186181293
C  C111  1  0.49870000  0.57860000  0.30210000  1.0 -0.1201419461
C  C112  1  0.60469000  0.71019000  0.42330000  1.0 0.1517147741
C  C113  1  0.64786000  0.78886000  0.49540000  1.0 -0.0078707006
C  C114  1  0.66796000  0.84986000  0.57870000  1.0 -0.1110553489
C  C115  1  0.49480000  0.53057000  0.42631000  1.0 0.4389245209
C  C116  1  0.44539000  0.60104000  0.57765000  1.0 0.5784845871
C  C117  1  0.41250000  0.65879000  0.62509000  1.0 -0.0155415455
C  C118  1  0.35236000  0.63604000  0.58718000  1.0 -0.1656125359
C  C119  1  0.22782000  0.60112000  0.55150000  1.0 0.2357715141
C  C120  1  0.16436000  0.59296000  0.51480000  1.0 0.0198788644
C  C121  1  0.12949000  0.55239000  0.50890000  1.0 -0.0825004256
C  C122  1  0.46570000  0.50350000  0.25120000  1.0 0.0128372564
C  C123  1  0.46028000  0.49228000  0.29340000  1.0 -0.1484894653
C  C124  1  0.49961000  0.54101000  0.37940000  1.0 0.0018136623
C  C125  1  0.54440000  0.60070000  0.42310000  1.0 -0.1201419461
C  C126  1  0.54978000  0.61188000  0.38090000  1.0 0.1295868279
C  C127  1  0.51045000  0.56315000  0.29490000  1.0 -0.1110553489
C  C128  1  0.62737000  0.73167000  0.49350000  1.0 0.1045353944
C  C129  1  0.67208000  0.78008000  0.51060000  1.0 0.038097446
C  C130  1  0.70831000  0.83611000  0.60200000  1.0 -0.0633472496
C  C131  1  0.70654000  0.54746000  0.97004000  1.0 0.4389245209
C  C132  1  0.74210000  0.48610000  0.94400000  1.0 0.0198788644
C  C133  1  0.79640000  0.49780000  0.95020000  1.0 -0.1484894653
C  C134  1  0.83310000  0.44990000  0.94160000  1.0 0.0018136623
C  C135  1  0.81410000  0.38400000  0.91730000  1.0 -0.1201419461
C  C136  1  0.76000000  0.37290000  0.91030000  1.0 0.1186181293
C  C137  1  0.72350000  0.42140000  0.92010000  1.0 -0.1201419461
C  C138  1  0.71311000  0.28981000  0.89450000  1.0 0.1517147741
C  C139  1  0.70654000  0.21114000  0.85900000  1.0 -0.0078707006
C  C140  1  0.72884000  0.15014000  0.81810000  1.0 -0.1110553489
C  C141  1  0.89574000  0.46943000  0.96423000  1.0 0.4389245209
C  C142  1  0.97661000  0.39896000  0.84435000  1.0 0.5784845871
C  C143  1  0.96630000  0.34121000  0.75371000  1.0 -0.0155415455
C  C144  1  0.95114000  0.36396000  0.71632000  1.0 -0.1656125359
C  C145  1  0.95038000  0.39888000  0.62670000  1.0 0.2349751514
C  C146  1  0.92184000  0.40704000  0.57140000  1.0 0.0198788644
C  C147  1  0.95651000  0.44761000  0.57710000  1.0 -0.0825004256
C  C148  1  0.74770000  0.49650000  0.96220000  1.0 0.0128372564
C  C149  1  0.80112000  0.50772000  0.96800000  1.0 -0.1484894653
C  C150  1  0.83839000  0.45899000  0.95860000  1.0 0.0018136623
C  C151  1  0.82240000  0.39930000  0.94370000  1.0 -0.1201419461
C  C152  1  0.76902000  0.38812000  0.93790000  1.0 0.1295868279
C  C153  1  0.73175000  0.43685000  0.94730000  1.0 -0.1110553489
C  C154  1  0.76183000  0.26833000  0.89570000  1.0 0.1045353944
C  C155  1  0.73052000  0.21992000  0.89200000  1.0 0.038097446
C  C156  1  0.76589000  0.16389000  0.87220000  1.0 -0.0633472496
C  C157  1  0.29346000  0.26350000  0.84092000  1.0 0.4389245209
C  C158  1  0.25790000  0.20190000  0.74400000  1.0 0.0198788644
C  C159  1  0.20360000  0.15380000  0.70140000  1.0 -0.1484894653
C  C160  1  0.16690000  0.10850000  0.61680000  1.0 0.0018136623
C  C161  1  0.18590000  0.10320000  0.56990000  1.0 -0.1201419461
C  C162  1  0.24000000  0.15030000  0.61290000  1.0 0.1186181293
C  C163  1  0.27650000  0.19660000  0.69790000  1.0 -0.1201419461
C  C164  1  0.28689000  0.18139000  0.57670000  1.0 0.1517147741
C  C165  1  0.29346000  0.15246000  0.50460000  1.0 -0.0078707006
C  C166  1  0.27116000  0.08926000  0.42130000  1.0 -0.1110553489
C  C167  1  0.10426000  0.06849000  0.57369000  1.0 0.4389245209
C  C168  1  0.02339000  0.86774000  0.42235000  1.0 0.5784845871
C  C169  1  0.03370000  0.78741000  0.37491000  1.0 -0.0155415455
C  C170  1  0.04886000  0.76518000  0.41282000  1.0 -0.1656125359
C  C171  1  0.04962000  0.67632000  0.44850000  1.0 0.2357715141
C  C172  1  0.07816000  0.64956000  0.48520000  1.0 0.0198788644
C  C173  1  0.04349000  0.62059000  0.49110000  1.0 -0.0825004256
C  C174  1  0.25230000  0.21450000  0.74880000  1.0 0.0128372564
C  C175  1  0.19888000  0.16688000  0.70660000  1.0 -0.1484894653
C  C176  1  0.16161000  0.12021000  0.62060000  1.0 0.0018136623
C  C177  1  0.17760000  0.12130000  0.57690000  1.0 -0.1201419461
C  C178  1  0.23098000  0.16888000  0.61910000  1.0 0.1295868279
C  C179  1  0.26825000  0.21555000  0.70510000  1.0 -0.1110553489
C  C180  1  0.23817000  0.13387000  0.50650000  1.0 0.1045353944
C  C181  1  0.26948000  0.16148000  0.48940000  1.0 0.038097446
C  C182  1  0.23411000  0.10631000  0.39800000  1.0 -0.0633472496
C  C183  1  0.57742000  0.73650000  0.02996000  1.0 0.4389245209
C  C184  1  0.54210000  0.79810000  0.05600000  1.0 0.0198788644
C  C185  1  0.54760000  0.84620000  0.04980000  1.0 -0.1484894653
C  C186  1  0.50830000  0.89150000  0.05840000  1.0 0.0018136623
C  C187  1  0.46670000  0.89680000  0.08270000  1.0 -0.1201419461
C  C188  1  0.46260000  0.84970000  0.08970000  1.0 0.1186181293
C  C189  1  0.50130000  0.80340000  0.07990000  1.0 -0.1201419461
C  C190  1  0.39531000  0.81861000  0.10550000  1.0 0.1517147741
C  C191  1  0.35214000  0.84754000  0.14100000  1.0 -0.0078707006
C  C192  1  0.33204000  0.91074000  0.18190000  1.0 -0.1110553489
C  C193  1  0.50520000  0.93151000  0.03577000  1.0 0.4389245209
C  C194  1  0.55461000  0.13226000  0.15565000  1.0 0.5784845871
C  C195  1  0.58750000  0.21259000  0.24629000  1.0 -0.0155415455
C  C196  1  0.64764000  0.23482000  0.28368000  1.0 -0.1656125359
C  C197  1  0.77218000  0.32368000  0.37330000  1.0 0.2349751514
C  C198  1  0.83564000  0.35044000  0.42860000  1.0 0.0198788644
C  C199  1  0.87051000  0.37941000  0.42290000  1.0 -0.0825004256
C  C200  1  0.53430000  0.78550000  0.03780000  1.0 0.0128372564
C  C201  1  0.53972000  0.83312000  0.03200000  1.0 -0.1484894653
C  C202  1  0.50039000  0.87979000  0.04140000  1.0 -0.0009144364
C  C203  1  0.45560000  0.87870000  0.05630000  1.0 -0.1201419461
C  C204  1  0.45022000  0.83112000  0.06210000  1.0 0.1295868279
C  C205  1  0.48955000  0.78445000  0.05270000  1.0 -0.1110553489
C  C206  1  0.37263000  0.86613000  0.10430000  1.0 0.1045353944
C  C207  1  0.32792000  0.83852000  0.10800000  1.0 0.038097446
C  C208  1  0.29169000  0.89369000  0.12780000  1.0 -0.0633472496
C  C209  1  0.28950000  0.08510000  0.37460000  1.0 -0.0385706115
C  C210  1  0.33320000  0.21390000  0.54710000  1.0 -0.0825004256
C  C211  1  0.24910000  0.11370000  0.36280000  1.0 -0.0906931687
C  C212  1  0.31350000  0.21370000  0.52720000  1.0 -0.0692360293
C  C213  1  0.28950000  0.91490000  0.20440000  1.0 -0.0385706115
C  C214  1  0.33320000  0.78610000  0.11930000  1.0 -0.0825004256
C  C215  1  0.24910000  0.88630000  0.13540000  1.0 -0.0906931687
C  C216  1  0.31350000  0.78630000  0.09980000  1.0 -0.0692360293
C  C217  1  0.71050000  0.91490000  0.62540000  1.0 -0.0385706115
C  C218  1  0.66680000  0.78610000  0.45290000  1.0 -0.0825004256
C  C219  1  0.75090000  0.88630000  0.63720000  1.0 -0.0906931687
C  C220  1  0.68650000  0.78630000  0.47280000  1.0 -0.0692360293
C  C221  1  0.71050000  0.08510000  0.79560000  1.0 -0.0385706115
C  C222  1  0.66680000  0.21390000  0.88070000  1.0 -0.0825004256
C  C223  1  0.75090000  0.11370000  0.86460000  1.0 -0.0906931687
C  C224  1  0.68650000  0.21370000  0.90020000  1.0 -0.0692360293
C  C225  1  0.67810000  0.31107000  0.36703000  1.0 0.14009832
C  C226  1  0.55701000  0.26552000  0.29149000  1.0 -0.1265568998
C  C227  1  0.05596000  0.68893000  0.36703000  1.0 0.14009832
C  C228  1  0.02597000  0.73448000  0.29149000  1.0 -0.1265568998
C  C229  1  0.94404000  0.31107000  0.63297000  1.0 0.14009832
C  C230  1  0.97403000  0.26552000  0.70851000  1.0 -0.1265568998
C  C231  1  0.32190000  0.68893000  0.63297000  1.0 0.14009832
C  C232  1  0.44299000  0.73448000  0.70851000  1.0 -0.1265568998
C  C233  1  0.86165000  0.36165000  0.50000000  1.0 -0.0825004256
C  C234  1  0.93130000  0.43130000  0.50000000  1.0 0.0128372564
C  C235  1  0.13835000  0.63835000  0.50000000  1.0 -0.0825004256
C  C236  1  0.06870000  0.56870000  0.50000000  1.0 0.0128372564
N  N1  1  0.42170000  0.30420000  0.56430000  1.0 -0.0385706115
N  N2  1  0.40512000  0.32772000  0.57420000  1.0 -0.032137229
N  N3  1  0.26010000  0.69580000  0.11750000  1.0 -0.0385706115
N  N4  1  0.24648000  0.67228000  0.07740000  1.0 -0.032137229
N  N5  1  0.73990000  0.85740000  0.43570000  1.0 -0.0385706115
N  N6  1  0.75352000  0.83092000  0.42580000  1.0 -0.032137229
N  N7  1  0.57830000  0.14260000  0.88250000  1.0 -0.0385706115
N  N8  1  0.59488000  0.16908000  0.92260000  1.0 -0.032137229
N  N9  1  0.57830000  0.69580000  0.43570000  1.0 -0.0385706115
N  N10  1  0.59488000  0.67228000  0.42580000  1.0 -0.032137229
N  N11  1  0.73990000  0.30420000  0.88250000  1.0 -0.0385706115
N  N12  1  0.75352000  0.32772000  0.92260000  1.0 -0.032137229
N  N13  1  0.26010000  0.14260000  0.56430000  1.0 -0.0385706115
N  N14  1  0.24648000  0.16908000  0.57420000  1.0 -0.032137229
N  N15  1  0.42170000  0.85740000  0.11750000  1.0 -0.0385706115
N  N16  1  0.40512000  0.83092000  0.07740000  1.0 -0.032137229
N  N17  1  0.74011000  0.33321000  0.40690000  1.0 -0.1974860061
N  N18  1  0.07369000  0.66679000  0.40690000  1.0 -0.1974860061
N  N19  1  0.92631000  0.33321000  0.59310000  1.0 -0.1974860061
N  N20  1  0.25989000  0.66679000  0.59310000  1.0 -0.1974860061
O  O1  1  0.41020000  0.33040000  0.65440000  1.0 -0.3488156128
O  O2  1  0.61996000  0.59614000  0.87596000  1.0 -0.4687543776
O  O3  1  0.56438000  0.54019000  0.87659000  1.0 -0.4792906273
O  O4  1  0.54778000  0.52134000  0.61344000  1.0 -0.4792906273
O  O5  1  0.46411000  0.42940000  0.50061000  1.0 -0.4687543776
O  O6  1  0.58475000  0.46705000  0.49712000  1.0 -0.4974246998
O  O7  1  0.49974000  0.37530000  0.38388000  1.0 -0.4898294512
O  O8  1  0.75096000  0.44956000  0.46020000  1.0 -0.359623127
O  O9  1  0.37079000  0.25289000  0.44270000  1.0 -0.4898294512
O  O10  1  0.32400000  0.66960000  0.07980000  1.0 -0.3488156128
O  O11  1  0.27982000  0.40386000  0.02382000  1.0 -0.4687543776
O  O12  1  0.33640000  0.45981000  0.02419000  1.0 -0.4792906273
O  O13  1  0.09210000  0.47866000  0.02644000  1.0 -0.4792906273
O  O14  1  0.07121000  0.57060000  0.03471000  1.0 -0.4687543776
O  O15  1  0.03007000  0.53295000  0.11770000  1.0 -0.4974246998
O  O16  1  0.00858000  0.62470000  0.12444000  1.0 -0.4898294512
O  O17  1  0.01064000  0.55044000  0.30140000  1.0 -0.359623127
O  O18  1  0.18981000  0.74711000  0.11790000  1.0 -0.4898294512
O  O19  1  0.67600000  0.75580000  0.34560000  1.0 -0.3488156128
O  O20  1  0.72018000  0.74400000  0.12404000  1.0 -0.4687543776
O  O21  1  0.66360000  0.68779000  0.12341000  1.0 -0.4792906273
O  O22  1  0.90790000  0.93434000  0.38656000  1.0 -0.4792906273
O  O23  1  0.92879000  0.96350000  0.49939000  1.0 -0.4687543776
O  O24  1  0.96993000  0.08763000  0.50288000  1.0 -0.4974246998
O  O25  1  0.99142000  0.11586000  0.61612000  1.0 -0.4898294512
O  O26  1  0.98936000  0.29076000  0.53980000  1.0 -0.359623127
O  O27  1  0.81019000  0.92809000  0.55730000  1.0 -0.4898294512
O  O28  1  0.58980000  0.24420000  0.92020000  1.0 -0.3488156128
O  O29  1  0.38004000  0.25600000  0.97618000  1.0 -0.4687543776
O  O30  1  0.43562000  0.31221000  0.97581000  1.0 -0.4792906273
O  O31  1  0.45222000  0.06566000  0.97356000  1.0 -0.4792906273
O  O32  1  0.53589000  0.03650000  0.96529000  1.0 -0.4687543776
O  O33  1  0.41525000  0.91237000  0.88230000  1.0 -0.4974246998
O  O34  1  0.50026000  0.88414000  0.87556000  1.0 -0.4898294512
O  O35  1  0.24904000  0.70924000  0.69860000  1.0 -0.359623127
O  O36  1  0.62921000  0.07191000  0.88210000  1.0 -0.4898294512
O  O37  1  0.58980000  0.66960000  0.34560000  1.0 -0.3488156128
O  O38  1  0.38004000  0.40386000  0.12404000  1.0 -0.4687543776
O  O39  1  0.43562000  0.45981000  0.12341000  1.0 -0.4792906273
O  O40  1  0.45222000  0.47866000  0.38656000  1.0 -0.4792906273
O  O41  1  0.53589000  0.57060000  0.49939000  1.0 -0.4687543776
O  O42  1  0.41525000  0.53295000  0.50288000  1.0 -0.4974246998
O  O43  1  0.50026000  0.62470000  0.61612000  1.0 -0.4898294512
O  O44  1  0.24904000  0.55044000  0.53980000  1.0 -0.359623127
O  O45  1  0.62921000  0.74711000  0.55730000  1.0 -0.4898294512
O  O46  1  0.67600000  0.33040000  0.92020000  1.0 -0.3488156128
O  O47  1  0.72018000  0.59614000  0.97618000  1.0 -0.4687543776
O  O48  1  0.66360000  0.54019000  0.97581000  1.0 -0.4792906273
O  O49  1  0.90790000  0.52134000  0.97356000  1.0 -0.4792906273
O  O50  1  0.92879000  0.42940000  0.96529000  1.0 -0.4687543776
O  O51  1  0.96993000  0.46705000  0.88230000  1.0 -0.4974246998
O  O52  1  0.99142000  0.37530000  0.87556000  1.0 -0.4898294512
O  O53  1  0.98936000  0.44956000  0.69860000  1.0 -0.359623127
O  O54  1  0.81019000  0.25289000  0.88210000  1.0 -0.4898294512
O  O55  1  0.32400000  0.24420000  0.65440000  1.0 -0.3488156128
O  O56  1  0.27982000  0.25600000  0.87596000  1.0 -0.4687543776
O  O57  1  0.33640000  0.31221000  0.87659000  1.0 -0.4792906273
O  O58  1  0.09210000  0.06566000  0.61344000  1.0 -0.4792906273
O  O59  1  0.07121000  0.03650000  0.50061000  1.0 -0.4687543776
O  O60  1  0.03007000  0.91237000  0.49712000  1.0 -0.4974246998
O  O61  1  0.00858000  0.88414000  0.38388000  1.0 -0.4898294512
O  O62  1  0.01064000  0.70924000  0.46020000  1.0 -0.359623127
O  O63  1  0.18981000  0.07191000  0.44270000  1.0 -0.4898294512
O  O64  1  0.41020000  0.75580000  0.07980000  1.0 -0.3488156128
O  O65  1  0.61996000  0.74400000  0.02382000  1.0 -0.4687543776
O  O66  1  0.56438000  0.68779000  0.02419000  1.0 -0.4792906273
O  O67  1  0.54778000  0.93434000  0.02644000  1.0 -0.4792906273
O  O68  1  0.46411000  0.96350000  0.03471000  1.0 -0.4687543776
O  O69  1  0.58475000  0.08763000  0.11770000  1.0 -0.4974246998
O  O70  1  0.49974000  0.11586000  0.12444000  1.0 -0.4898294512
O  O71  1  0.75096000  0.29076000  0.30140000  1.0 -0.359623127
O  O72  1  0.37079000  0.92809000  0.11790000  1.0 -0.4898294512
