# DDEC6 charges by PACMAN v1.1 (https://github.com/mtap-research/PACMAN-charge/)
data_XEQGAC_ASR_pacman
_symmetry_space_group_name_H-M   'P 1'
_cell_length_a   7.04650000
_cell_length_b   15.64600000
_cell_length_c   17.39600000
_cell_angle_alpha   90.00000000
_cell_angle_beta   90.00000000
_cell_angle_gamma   90.00000000
_symmetry_Int_Tables_number   1
_chemical_formula_structural   V2P2H4C4O11
_chemical_formula_sum   'V8 P8 H16 C16 O44'
_cell_volume   1917.90098044
_cell_formula_units_Z   4
loop_
 _symmetry_equiv_pos_site_id
 _symmetry_equiv_pos_as_xyz
  1  'x, y, z'
loop_
 _atom_site_type_symbol
 _atom_site_label
 _atom_site_symmetry_multiplicity
 _atom_site_fract_x
 _atom_site_fract_y
 _atom_site_fract_z
 _atom_site_occupancy
 _atom_site_charge
V  V1  1  0.24690000  0.25000000  0.25000000  1.0 1.6252894244
V  V2  1  0.25310000  0.75000000  0.25000000  1.0 1.6252894244
V  V3  1  0.75310000  0.75000000  0.75000000  1.0 1.6243875266
V  V4  1  0.74690000  0.25000000  0.75000000  1.0 1.6252894244
V  V5  1  0.50000000  0.00000000  0.50000000  1.0 1.9225447418
V  V6  1  0.00000000  0.00000000  0.50000000  1.0 1.9225447418
V  V7  1  0.00000000  0.50000000  0.00000000  1.0 1.9253916384
V  V8  1  0.50000000  0.50000000  0.00000000  1.0 1.9253916384
P  P1  1  0.25330000  0.13322000  0.40057000  1.0 1.4383303912
P  P2  1  0.24670000  0.86678000  0.40057000  1.0 1.4383303912
P  P3  1  0.24670000  0.63322000  0.09943000  1.0 1.4383303912
P  P4  1  0.25330000  0.36678000  0.09943000  1.0 1.4383303912
P  P5  1  0.74670000  0.86678000  0.59943000  1.0 1.4383303912
P  P6  1  0.75330000  0.13322000  0.59943000  1.0 1.4383303912
P  P7  1  0.75330000  0.36678000  0.90057000  1.0 1.4383303912
P  P8  1  0.74670000  0.63322000  0.90057000  1.0 1.4383303912
H  H1  1  0.04680000  0.24240000  0.42750000  1.0 0.1968455554
H  H2  1  0.45320000  0.75760000  0.42750000  1.0 0.1968455554
H  H3  1  0.45320000  0.74240000  0.07250000  1.0 0.1968455554
H  H4  1  0.04680000  0.25760000  0.07250000  1.0 0.1968455554
H  H5  1  0.95320000  0.75760000  0.57250000  1.0 0.1968455554
H  H6  1  0.54680000  0.24240000  0.57250000  1.0 0.1968455554
H  H7  1  0.54680000  0.25760000  0.92750000  1.0 0.1968455554
H  H8  1  0.95320000  0.74240000  0.92750000  1.0 0.1968455554
H  H9  1  0.18830000  0.23020000  0.49580000  1.0 0.2068548889
H  H10  1  0.31170000  0.76980000  0.49580000  1.0 0.2068548889
H  H11  1  0.31170000  0.73020000  0.00420000  1.0 0.2068548889
H  H12  1  0.18830000  0.26980000  0.00420000  1.0 0.2068548889
H  H13  1  0.81170000  0.76980000  0.50420000  1.0 0.2068548889
H  H14  1  0.68830000  0.23020000  0.50420000  1.0 0.2068548889
H  H15  1  0.68830000  0.26980000  0.99580000  1.0 0.2068548889
H  H16  1  0.81170000  0.73020000  0.99580000  1.0 0.2068548889
C  C1  1  0.28900000  0.31160000  0.41430000  1.0 0.6837816329
C  C2  1  0.21100000  0.68840000  0.41430000  1.0 0.6837816329
C  C3  1  0.21100000  0.81160000  0.08570000  1.0 0.6837816329
C  C4  1  0.28900000  0.18840000  0.08570000  1.0 0.6837816329
C  C5  1  0.71100000  0.68840000  0.58570000  1.0 0.6837816329
C  C6  1  0.78900000  0.31160000  0.58570000  1.0 0.6837816329
C  C7  1  0.78900000  0.18840000  0.91430000  1.0 0.6837816329
C  C8  1  0.71100000  0.81160000  0.91430000  1.0 0.6837816329
C  C9  1  0.17940000  0.23380000  0.44030000  1.0 -0.6587009488
C  C10  1  0.32060000  0.76620000  0.44030000  1.0 -0.6587009488
C  C11  1  0.32060000  0.73380000  0.05970000  1.0 -0.6587009488
C  C12  1  0.17940000  0.26620000  0.05970000  1.0 -0.6587009488
C  C13  1  0.82060000  0.76620000  0.55970000  1.0 -0.6587009488
C  C14  1  0.67940000  0.23380000  0.55970000  1.0 -0.6587009488
C  C15  1  0.67940000  0.26620000  0.94030000  1.0 -0.6587009488
C  C16  1  0.82060000  0.73380000  0.94030000  1.0 -0.6587009488
O  O1  1  0.29240000  0.14630000  0.31510000  1.0 -0.7741476058
O  O2  1  0.20760000  0.85370000  0.31510000  1.0 -0.7755637525
O  O3  1  0.20760000  0.64630000  0.18490000  1.0 -0.7755637525
O  O4  1  0.29240000  0.35370000  0.18490000  1.0 -0.7755637525
O  O5  1  0.70760000  0.85370000  0.68490000  1.0 -0.7755637525
O  O6  1  0.79240000  0.14630000  0.68490000  1.0 -0.7741476058
O  O7  1  0.79240000  0.35370000  0.81510000  1.0 -0.7755637525
O  O8  1  0.70760000  0.64630000  0.81510000  1.0 -0.7755637525
O  O9  1  0.43430000  0.10430000  0.44170000  1.0 -0.7497150695
O  O10  1  0.06570000  0.89570000  0.44170000  1.0 -0.7497150695
O  O11  1  0.06570000  0.60430000  0.05830000  1.0 -0.7497150695
O  O12  1  0.43430000  0.39570000  0.05830000  1.0 -0.7497150695
O  O13  1  0.56570000  0.89570000  0.55830000  1.0 -0.7497150695
O  O14  1  0.93430000  0.10430000  0.55830000  1.0 -0.7497150695
O  O15  1  0.93430000  0.39570000  0.94170000  1.0 -0.7497150695
O  O16  1  0.56570000  0.60430000  0.94170000  1.0 -0.7497150695
O  O17  1  0.09020000  0.07110000  0.41260000  1.0 -0.7497150695
O  O18  1  0.40980000  0.92890000  0.41260000  1.0 -0.7497150695
O  O19  1  0.40980000  0.57110000  0.08740000  1.0 -0.7497150695
O  O20  1  0.09020000  0.42890000  0.08740000  1.0 -0.7497150695
O  O21  1  0.90980000  0.92890000  0.58740000  1.0 -0.7497150695
O  O22  1  0.59020000  0.07110000  0.58740000  1.0 -0.7497150695
O  O23  1  0.59020000  0.42890000  0.91260000  1.0 -0.7497150695
O  O24  1  0.90980000  0.57110000  0.91260000  1.0 -0.7497150695
O  O25  1  0.35940000  0.35990000  0.46080000  1.0 -0.3282750605
O  O26  1  0.14060000  0.64010000  0.46080000  1.0 -0.3282750605
O  O27  1  0.14060000  0.85990000  0.03920000  1.0 -0.3282750605
O  O28  1  0.35940000  0.14010000  0.03920000  1.0 -0.3282750605
O  O29  1  0.64060000  0.64010000  0.53920000  1.0 -0.3282750605
O  O30  1  0.85940000  0.35990000  0.53920000  1.0 -0.3282750605
O  O31  1  0.85940000  0.14010000  0.96080000  1.0 -0.3282750605
O  O32  1  0.64060000  0.85990000  0.96080000  1.0 -0.3282750605
O  O33  1  0.29910000  0.32490000  0.34170000  1.0 -0.5662761612
O  O34  1  0.20090000  0.67510000  0.34170000  1.0 -0.5662761612
O  O35  1  0.20090000  0.82490000  0.15830000  1.0 -0.5662761612
O  O36  1  0.29910000  0.17510000  0.15830000  1.0 -0.5662761612
O  O37  1  0.70090000  0.67510000  0.65830000  1.0 -0.5662761612
O  O38  1  0.79910000  0.32490000  0.65830000  1.0 -0.5662761612
O  O39  1  0.79910000  0.17510000  0.84170000  1.0 -0.5662761612
O  O40  1  0.70090000  0.82490000  0.84170000  1.0 -0.5662761612
O  O41  1  0.75000000  0.00000000  0.45820000  1.0 -0.9491423129
O  O42  1  0.75000000  0.50000000  0.04180000  1.0 -0.9406037389
O  O43  1  0.25000000  0.00000000  0.54180000  1.0 -0.9491423129
O  O44  1  0.25000000  0.50000000  0.95820000  1.0 -0.9406037389
