# DDEC6 charges by PACMAN v1.1 (https://github.com/mtap-research/PACMAN-charge/)
data_XESGOS_ASR_pacman
_symmetry_space_group_name_H-M   'P 1'
_cell_length_a   8.55520000
_cell_length_b   10.11330000
_cell_length_c   16.70250000
_cell_angle_alpha   90.00000000
_cell_angle_beta   94.94000000
_cell_angle_gamma   90.00000000
_symmetry_Int_Tables_number   1
_chemical_formula_structural   Al3P3(O6F)2
_chemical_formula_sum   'Al12 P12 O48 F8'
_cell_volume   1439.75406278
_cell_formula_units_Z   4
loop_
 _symmetry_equiv_pos_site_id
 _symmetry_equiv_pos_as_xyz
  1  'x, y, z'
loop_
 _atom_site_type_symbol
 _atom_site_label
 _atom_site_symmetry_multiplicity
 _atom_site_fract_x
 _atom_site_fract_y
 _atom_site_fract_z
 _atom_site_occupancy
 _atom_site_charge
Al  Al1  1  0.16680000  0.74215000  0.65013000  1.0 1.7703131884
Al  Al2  1  0.83320000  0.24215000  0.34987000  1.0 1.7703131884
Al  Al3  1  0.01940000  0.76830000  0.45160000  1.0 1.7991174012
Al  Al4  1  0.98060000  0.26830000  0.54840000  1.0 1.7991174012
Al  Al5  1  0.33560000  0.44190000  0.84887000  1.0 1.7703131884
Al  Al6  1  0.66440000  0.94190000  0.15113000  1.0 1.7703131884
Al  Al7  1  0.52090000  0.91300000  0.95137000  1.0 1.7936033159
Al  Al8  1  0.47910000  0.41300000  0.04863000  1.0 1.7936033159
Al  Al9  1  0.67520000  0.92330000  0.48114000  1.0 1.8146299869
Al  Al10  1  0.32480000  0.42330000  0.51886000  1.0 1.8184694796
Al  Al11  1  0.17587000  0.75885000  0.98048000  1.0 1.8257636577
Al  Al12  1  0.82413000  0.25885000  0.01952000  1.0 1.8184694796
P  P1  1  0.34438000  0.73230000  0.82205000  1.0 1.5882809907
P  P2  1  0.65562000  0.23230000  0.17795000  1.0 1.5812604219
P  P3  1  0.52610000  0.21184000  0.91625000  1.0 1.5625049621
P  P4  1  0.47390000  0.71184000  0.08375000  1.0 1.5625049621
P  P5  1  0.37516000  0.73192000  0.50733000  1.0 1.5812604219
P  P6  1  0.62484000  0.23192000  0.49267000  1.0 1.5812604219
P  P7  1  0.15687000  0.44975000  0.67748000  1.0 1.5882809907
P  P8  1  0.84313000  0.94975000  0.32252000  1.0 1.5812604219
P  P9  1  0.97470000  0.96921000  0.58412000  1.0 1.5675526013
P  P10  1  0.02530000  0.46921000  0.41588000  1.0 1.5675526013
P  P11  1  0.12481000  0.45042000  0.99101000  1.0 1.5812604219
P  P12  1  0.87519000  0.95042000  0.00899000  1.0 1.5675526013
O  O1  1  0.33010000  0.76850000  0.59270000  1.0 -0.7786376626
O  O2  1  0.66990000  0.26850000  0.40730000  1.0 -0.7701628059
O  O3  1  0.21250000  0.72090000  0.87930000  1.0 -0.8104856908
O  O4  1  0.78750000  0.22090000  0.12070000  1.0 -0.8104856908
O  O5  1  0.16920000  0.41730000  0.90620000  1.0 -0.7786376626
O  O6  1  0.83080000  0.91730000  0.09380000  1.0 -0.7786376626
O  O7  1  0.28300000  0.79810000  0.74210000  1.0 -0.7311783433
O  O8  1  0.71700000  0.29810000  0.25790000  1.0 -0.7311783433
O  O9  1  0.70640000  0.22740000  0.92870000  1.0 -0.7881277651
O  O10  1  0.29360000  0.72740000  0.07130000  1.0 -0.7881277651
O  O11  1  0.79530000  0.95220000  0.57410000  1.0 -0.7881277651
O  O12  1  0.20470000  0.45220000  0.42590000  1.0 -0.7881277651
O  O13  1  0.07010000  0.59590000  0.99280000  1.0 -0.7407773476
O  O14  1  0.92990000  0.09590000  0.00720000  1.0 -0.7407773476
O  O15  1  0.24050000  0.75860000  0.44370000  1.0 -0.7701628059
O  O16  1  0.75950000  0.25860000  0.55630000  1.0 -0.7701628059
O  O17  1  0.46450000  0.29870000  0.84440000  1.0 -0.7407773476
O  O18  1  0.53550000  0.79870000  0.15560000  1.0 -0.7407773476
O  O19  1  0.26170000  0.42510000  0.05620000  1.0 -0.7701628059
O  O20  1  0.73830000  0.92510000  0.94380000  1.0 -0.7786376626
O  O21  1  0.48300000  0.81510000  0.85770000  1.0 -0.7407773476
O  O22  1  0.51700000  0.31510000  0.14230000  1.0 -0.7407773476
O  O23  1  0.48450000  0.06940000  0.89500000  1.0 -0.7106673568
O  O24  1  0.51550000  0.56940000  0.10500000  1.0 -0.7106673568
O  O25  1  0.43250000  0.58700000  0.50790000  1.0 -0.7407773476
O  O26  1  0.56750000  0.08700000  0.49210000  1.0 -0.7407773476
O  O27  1  0.45070000  0.25240000  0.99240000  1.0 -0.7407773476
O  O28  1  0.54930000  0.75240000  0.00760000  1.0 -0.749301904
O  O29  1  0.09830000  0.59230000  0.69370000  1.0 -0.7701628059
O  O30  1  0.90170000  0.09230000  0.30630000  1.0 -0.7701628059
O  O31  1  0.01850000  0.36400000  0.64290000  1.0 -0.749301904
O  O32  1  0.98150000  0.86400000  0.35710000  1.0 -0.749301904
O  O33  1  0.03750000  0.88000000  0.65550000  1.0 -0.7311783433
O  O34  1  0.96250000  0.38000000  0.34450000  1.0 -0.7311783433
O  O35  1  0.40140000  0.59140000  0.80620000  1.0 -0.7701628059
O  O36  1  0.59860000  0.09140000  0.19380000  1.0 -0.7701628059
O  O37  1  0.22800000  0.38730000  0.75502000  1.0 -0.7189351916
O  O38  1  0.77200000  0.88730000  0.24498000  1.0 -0.7189351916
O  O39  1  0.51080000  0.82580000  0.49050000  1.0 -0.7407773476
O  O40  1  0.48920000  0.32580000  0.50950000  1.0 -0.7407773476
O  O41  1  0.98920000  0.36340000  0.01060000  1.0 -0.749301904
O  O42  1  0.01080000  0.86340000  0.98940000  1.0 -0.749301904
O  O43  1  0.01680000  0.11260000  0.60650000  1.0 -0.7189351916
O  O44  1  0.98320000  0.61260000  0.39350000  1.0 -0.7189351916
O  O45  1  0.04760000  0.92690000  0.50800000  1.0 -0.749301904
O  O46  1  0.95240000  0.42690000  0.49200000  1.0 -0.749301904
O  O47  1  0.28580000  0.46500000  0.61860000  1.0 -0.8104856908
O  O48  1  0.71420000  0.96500000  0.38140000  1.0 -0.8104856908
F  F1  1  0.45050000  0.49610000  0.94800000  1.0 -0.5372957885
F  F2  1  0.54950000  0.99610000  0.05200000  1.0 -0.5372957885
F  F3  1  0.80250000  0.76990000  0.46990000  1.0 -0.5094294101
F  F4  1  0.19750000  0.26990000  0.53010000  1.0 -0.5094294101
F  F5  1  0.04970000  0.68320000  0.55258000  1.0 -0.5372957885
F  F6  1  0.95030000  0.18320000  0.44742000  1.0 -0.5372957885
F  F7  1  0.30650000  0.91240000  0.96930000  1.0 -0.5003783554
F  F8  1  0.69350000  0.41240000  0.03070000  1.0 -0.5003783554
