# DDEC6 charges by PACMAN v1.1 (https://github.com/mtap-research/PACMAN-charge/)
data_XESKIR_ASR_pacman
_symmetry_space_group_name_H-M   'P 1'
_cell_length_a   6.42650000
_cell_length_b   16.63990000
_cell_length_c   16.63990000
_cell_angle_alpha   61.63150000
_cell_angle_beta   82.60340000
_cell_angle_gamma   97.39660000
_symmetry_Int_Tables_number   1
_chemical_formula_structural   MnPH4C3NO3
_chemical_formula_sum   'Mn6 P6 H24 C18 N6 O18'
_cell_volume   1515.47422661
_cell_formula_units_Z   6
loop_
 _symmetry_equiv_pos_site_id
 _symmetry_equiv_pos_as_xyz
  1  'x, y, z'
loop_
 _atom_site_type_symbol
 _atom_site_label
 _atom_site_symmetry_multiplicity
 _atom_site_fract_x
 _atom_site_fract_y
 _atom_site_fract_z
 _atom_site_occupancy
 _atom_site_charge
Mn  Mn1  1  0.52649000  0.24414000  0.42157000  1.0 1.0082455212
Mn  Mn2  1  0.94806000  0.42157000  0.33429000  1.0 1.0082455212
Mn  Mn3  1  0.28235000  0.33429000  0.24414000  1.0 1.0082455212
Mn  Mn4  1  0.47351000  0.75586000  0.57843000  1.0 1.0082455212
Mn  Mn5  1  0.05194000  0.57843000  0.66571000  1.0 1.0082455212
Mn  Mn6  1  0.71765000  0.66571000  0.75586000  1.0 1.0082455212
P  P1  1  0.78276000  0.35156000  0.19227000  1.0 1.2452894781
P  P2  1  0.97503000  0.19227000  0.45617000  1.0 1.2452894781
P  P3  1  0.43120000  0.45617000  0.35156000  1.0 1.2452894781
P  P4  1  0.21724000  0.64844000  0.80773000  1.0 1.2452894781
P  P5  1  0.02497000  0.80773000  0.54383000  1.0 1.2452894781
P  P6  1  0.56880000  0.54383000  0.64844000  1.0 1.2452894781
H  H1  1  0.27703000  0.56048000  0.02433000  1.0 0.0855095992
H  H2  1  0.48835000  0.60590000  0.06872000  1.0 0.1069150452
H  H3  1  0.39123000  0.32522000  0.10452000  1.0 0.0616367953
H  H4  1  0.22497000  0.40992000  0.04236000  1.0 0.1014138693
H  H5  1  0.30137000  0.02433000  0.41519000  1.0 0.083384929
H  H6  1  0.55707000  0.06872000  0.32537000  1.0 0.1069150452
H  H7  1  0.49575000  0.10452000  0.57027000  1.0 0.0616367953
H  H8  1  0.26733000  0.04236000  0.54772000  1.0 0.1014138693
H  H9  1  0.71656000  0.41519000  0.56048000  1.0 0.083384929
H  H10  1  0.88245000  0.32537000  0.60590000  1.0 0.1069150452
H  H11  1  0.06602000  0.57027000  0.32522000  1.0 0.0616367953
H  H12  1  0.81505000  0.54772000  0.40992000  1.0 0.1014138693
H  H13  1  0.51125000  0.39514000  0.93023000  1.0 0.1069150452
H  H14  1  0.72217000  0.43823000  0.97646000  1.0 0.083384929
H  H15  1  0.77510000  0.58933000  0.95711000  1.0 0.1014138693
H  H16  1  0.60961000  0.67506000  0.89635000  1.0 0.0616367953
H  H17  1  0.44148000  0.93023000  0.67463000  1.0 0.1069150452
H  H18  1  0.69863000  0.97646000  0.58531000  1.0 0.083384929
H  H19  1  0.73222000  0.95711000  0.45355000  1.0 0.1014138693
H  H20  1  0.50596000  0.89635000  0.42859000  1.0 0.0616367953
H  H21  1  0.11611000  0.67463000  0.39514000  1.0 0.1069150452
H  H22  1  0.28395000  0.58531000  0.43823000  1.0 0.083384929
H  H23  1  0.18577000  0.45355000  0.58933000  1.0 0.1014138693
H  H24  1  0.93455000  0.42859000  0.67506000  1.0 0.0616367953
C  C1  1  0.70071000  0.45496000  0.10409000  1.0 -0.3733782883
C  C2  1  0.44753000  0.56036000  0.03657000  1.0 -0.0300336387
C  C3  1  0.39241000  0.40203000  0.05620000  1.0 -0.0776479806
C  C4  1  0.80480000  0.10409000  0.44095000  1.0 -0.3733782883
C  C5  1  0.48410000  0.03657000  0.40307000  1.0 -0.0300336387
C  C6  1  0.44861000  0.05620000  0.54177000  1.0 -0.0776479806
C  C7  1  0.24575000  0.44095000  0.45496000  1.0 -0.3733782883
C  C8  1  0.88717000  0.40307000  0.56036000  1.0 -0.0300336387
C  C9  1  0.99038000  0.54177000  0.40203000  1.0 -0.0776479806
C  C10  1  0.29929000  0.54504000  0.89591000  1.0 -0.3733782883
C  C11  1  0.55247000  0.43964000  0.96343000  1.0 -0.0300336387
C  C12  1  0.60759000  0.59797000  0.94380000  1.0 -0.0776479806
C  C13  1  0.19520000  0.89591000  0.55905000  1.0 -0.3733782883
C  C14  1  0.51590000  0.96343000  0.59693000  1.0 -0.0300336387
C  C15  1  0.55139000  0.94380000  0.45823000  1.0 -0.0776479806
C  C16  1  0.75425000  0.55905000  0.54504000  1.0 -0.3733782883
C  C17  1  0.11283000  0.59693000  0.43964000  1.0 -0.0300336387
C  C18  1  0.00962000  0.45823000  0.59797000  1.0 -0.0776479806
N  N1  1  0.46907000  0.46010000  0.09987000  1.0 0.0487893438
N  N2  1  0.56894000  0.09987000  0.44003000  1.0 0.0487893438
N  N3  1  0.00897000  0.44003000  0.46010000  1.0 0.0487893438
N  N4  1  0.53093000  0.53990000  0.90013000  1.0 0.0487893438
N  N5  1  0.43106000  0.90013000  0.55997000  1.0 0.0487893438
N  N6  1  0.99103000  0.55997000  0.53990000  1.0 0.0487893438
O  O1  1  0.84828000  0.29495000  0.14901000  1.0 -0.7084618474
O  O2  1  0.58724000  0.29234000  0.26892000  1.0 -0.7284679677
O  O3  1  0.95385000  0.36963000  0.23872000  1.0 -0.738039371
O  O4  1  0.99729000  0.14901000  0.55604000  1.0 -0.7084618474
O  O5  1  0.85616000  0.26892000  0.43874000  1.0 -0.7284679677
O  O6  1  0.19257000  0.23872000  0.39165000  1.0 -0.738039371
O  O7  1  0.55333000  0.55604000  0.29495000  1.0 -0.7084618474
O  O8  1  0.29490000  0.43874000  0.29234000  1.0 -0.7284679677
O  O9  1  0.58422000  0.39165000  0.36963000  1.0 -0.738039371
O  O10  1  0.15172000  0.70505000  0.85099000  1.0 -0.7084618474
O  O11  1  0.41276000  0.70766000  0.73108000  1.0 -0.7284679677
O  O12  1  0.04615000  0.63037000  0.76128000  1.0 -0.738039371
O  O13  1  0.00271000  0.85099000  0.44396000  1.0 -0.7084618474
O  O14  1  0.14384000  0.73108000  0.56126000  1.0 -0.7284679677
O  O15  1  0.80743000  0.76128000  0.60835000  1.0 -0.738039371
O  O16  1  0.44667000  0.44396000  0.70505000  1.0 -0.7084618474
O  O17  1  0.70510000  0.56126000  0.70766000  1.0 -0.7284679677
O  O18  1  0.41578000  0.60835000  0.63037000  1.0 -0.738039371
