# DDEC6 charges by PACMAN v1.1 (https://github.com/mtap-research/PACMAN-charge/)
data_XEVHAJ_ASR_pacman
_symmetry_space_group_name_H-M   'P 1'
_cell_length_a   12.69470000
_cell_length_b   12.69470000
_cell_length_c   17.83300000
_cell_angle_alpha   90.00000000
_cell_angle_beta   90.00000000
_cell_angle_gamma   120.00000000
_symmetry_Int_Tables_number   1
_chemical_formula_structural   Tb2Cd3H48(C6O5)6
_chemical_formula_sum   'Tb4 Cd6 H96 C72 O60'
_cell_volume   2488.85689142
_cell_formula_units_Z   2
loop_
 _symmetry_equiv_pos_site_id
 _symmetry_equiv_pos_as_xyz
  1  'x, y, z'
loop_
 _atom_site_type_symbol
 _atom_site_label
 _atom_site_symmetry_multiplicity
 _atom_site_fract_x
 _atom_site_fract_y
 _atom_site_fract_z
 _atom_site_occupancy
 _atom_site_charge
Tb  Tb1  1  0.66666667  0.33333333  0.25000000  1.0 1.7730415698
Tb  Tb2  1  0.33333333  0.66666667  0.25000000  1.0 1.7730415698
Tb  Tb3  1  0.33333333  0.66666667  0.75000000  1.0 1.7730415698
Tb  Tb4  1  0.66666667  0.33333333  0.75000000  1.0 1.7730415698
Cd  Cd1  1  0.00000000  0.50000000  0.00000000  1.0 1.0638388332
Cd  Cd2  1  0.50000000  0.50000000  0.00000000  1.0 1.0638388332
Cd  Cd3  1  0.50000000  0.00000000  0.00000000  1.0 1.0664703186
Cd  Cd4  1  0.50000000  0.00000000  0.50000000  1.0 1.0664703186
Cd  Cd5  1  0.50000000  0.50000000  0.50000000  1.0 1.0638388332
Cd  Cd6  1  0.00000000  0.50000000  0.50000000  1.0 1.0638388332
H  H1  1  0.75740000  0.13710000  0.14970000  1.0 0.1170832088
H  H2  1  0.86290000  0.62030000  0.14970000  1.0 0.1170832088
H  H3  1  0.37970000  0.24260000  0.14970000  1.0 0.1170832088
H  H4  1  0.24260000  0.86290000  0.14970000  1.0 0.1170832088
H  H5  1  0.13710000  0.37970000  0.14970000  1.0 0.1170832088
H  H6  1  0.62030000  0.75740000  0.14970000  1.0 0.1170832088
H  H7  1  0.13710000  0.75740000  0.35030000  1.0 0.1170832088
H  H8  1  0.62030000  0.86290000  0.35030000  1.0 0.1170832088
H  H9  1  0.24260000  0.37970000  0.35030000  1.0 0.1170832088
H  H10  1  0.86290000  0.24260000  0.35030000  1.0 0.1170832088
H  H11  1  0.37970000  0.13710000  0.35030000  1.0 0.1170832088
H  H12  1  0.75740000  0.62030000  0.35030000  1.0 0.1170832088
H  H13  1  0.24260000  0.86290000  0.85030000  1.0 0.1170832088
H  H14  1  0.13710000  0.37970000  0.85030000  1.0 0.1170832088
H  H15  1  0.62030000  0.75740000  0.85030000  1.0 0.1170832088
H  H16  1  0.75740000  0.13710000  0.85030000  1.0 0.1170832088
H  H17  1  0.86290000  0.62030000  0.85030000  1.0 0.1170832088
H  H18  1  0.37970000  0.24260000  0.85030000  1.0 0.1170832088
H  H19  1  0.86290000  0.24260000  0.64970000  1.0 0.1170832088
H  H20  1  0.37970000  0.13710000  0.64970000  1.0 0.1170832088
H  H21  1  0.75740000  0.62030000  0.64970000  1.0 0.1170832088
H  H22  1  0.13710000  0.75740000  0.64970000  1.0 0.1170832088
H  H23  1  0.62030000  0.86290000  0.64970000  1.0 0.1170832088
H  H24  1  0.24260000  0.37970000  0.64970000  1.0 0.1170832088
H  H25  1  0.88740000  0.18230000  0.18530000  1.0 0.0711364534
H  H26  1  0.81770000  0.70510000  0.18530000  1.0 0.0711364534
H  H27  1  0.29490000  0.11260000  0.18530000  1.0 0.0711364534
H  H28  1  0.11260000  0.81770000  0.18530000  1.0 0.0711364534
H  H29  1  0.18230000  0.29490000  0.18530000  1.0 0.0711364534
H  H30  1  0.70510000  0.88740000  0.18530000  1.0 0.0711364534
H  H31  1  0.18230000  0.88740000  0.31470000  1.0 0.0711364534
H  H32  1  0.70510000  0.81770000  0.31470000  1.0 0.0711364534
H  H33  1  0.11260000  0.29490000  0.31470000  1.0 0.0711364534
H  H34  1  0.81770000  0.11260000  0.31470000  1.0 0.0711364534
H  H35  1  0.29490000  0.18230000  0.31470000  1.0 0.0711364534
H  H36  1  0.88740000  0.70510000  0.31470000  1.0 0.0711364534
H  H37  1  0.11260000  0.81770000  0.81470000  1.0 0.0711364534
H  H38  1  0.18230000  0.29490000  0.81470000  1.0 0.0711364534
H  H39  1  0.70510000  0.88740000  0.81470000  1.0 0.0711364534
H  H40  1  0.88740000  0.18230000  0.81470000  1.0 0.0711364534
H  H41  1  0.81770000  0.70510000  0.81470000  1.0 0.0711364534
H  H42  1  0.29490000  0.11260000  0.81470000  1.0 0.0711364534
H  H43  1  0.81770000  0.11260000  0.68530000  1.0 0.0711364534
H  H44  1  0.29490000  0.18230000  0.68530000  1.0 0.0711364534
H  H45  1  0.88740000  0.70510000  0.68530000  1.0 0.0711364534
H  H46  1  0.18230000  0.88740000  0.68530000  1.0 0.0711364534
H  H47  1  0.70510000  0.81770000  0.68530000  1.0 0.0711364534
H  H48  1  0.11260000  0.29490000  0.68530000  1.0 0.0711364534
H  H49  1  0.91890000  0.21630000  0.19420000  1.0 0.0803183194
H  H50  1  0.78370000  0.70260000  0.19420000  1.0 0.0803183194
H  H51  1  0.29740000  0.08110000  0.19420000  1.0 0.0803183194
H  H52  1  0.08110000  0.78370000  0.19420000  1.0 0.0803183194
H  H53  1  0.21630000  0.29740000  0.19420000  1.0 0.0803183194
H  H54  1  0.70260000  0.91890000  0.19420000  1.0 0.0803183194
H  H55  1  0.21630000  0.91890000  0.30580000  1.0 0.0803183194
H  H56  1  0.70260000  0.78370000  0.30580000  1.0 0.0803183194
H  H57  1  0.08110000  0.29740000  0.30580000  1.0 0.0803183194
H  H58  1  0.78370000  0.08110000  0.30580000  1.0 0.0803183194
H  H59  1  0.29740000  0.21630000  0.30580000  1.0 0.0803183194
H  H60  1  0.91890000  0.70260000  0.30580000  1.0 0.0803183194
H  H61  1  0.08110000  0.78370000  0.80580000  1.0 0.0803183194
H  H62  1  0.21630000  0.29740000  0.80580000  1.0 0.0803183194
H  H63  1  0.70260000  0.91890000  0.80580000  1.0 0.0803183194
H  H64  1  0.91890000  0.21630000  0.80580000  1.0 0.0803183194
H  H65  1  0.78370000  0.70260000  0.80580000  1.0 0.0803183194
H  H66  1  0.29740000  0.08110000  0.80580000  1.0 0.0803183194
H  H67  1  0.78370000  0.08110000  0.69420000  1.0 0.0803183194
H  H68  1  0.29740000  0.21630000  0.69420000  1.0 0.0803183194
H  H69  1  0.91890000  0.70260000  0.69420000  1.0 0.0803183194
H  H70  1  0.21630000  0.91890000  0.69420000  1.0 0.0803183194
H  H71  1  0.70260000  0.78370000  0.69420000  1.0 0.0803183194
H  H72  1  0.08110000  0.29740000  0.69420000  1.0 0.0803183194
H  H73  1  0.96250000  0.33910000  0.23850000  1.0 0.0803183194
H  H74  1  0.66090000  0.62340000  0.23850000  1.0 0.0803183194
H  H75  1  0.37660000  0.03750000  0.23850000  1.0 0.0803183194
H  H76  1  0.03750000  0.66090000  0.23850000  1.0 0.0803183194
H  H77  1  0.33910000  0.37660000  0.23850000  1.0 0.0803183194
H  H78  1  0.62340000  0.96250000  0.23850000  1.0 0.0803183194
H  H79  1  0.33910000  0.96250000  0.26150000  1.0 0.0803183194
H  H80  1  0.62340000  0.66090000  0.26150000  1.0 0.0803183194
H  H81  1  0.03750000  0.37660000  0.26150000  1.0 0.0803183194
H  H82  1  0.66090000  0.03750000  0.26150000  1.0 0.0803183194
H  H83  1  0.37660000  0.33910000  0.26150000  1.0 0.0803183194
H  H84  1  0.96250000  0.62340000  0.26150000  1.0 0.0803183194
H  H85  1  0.03750000  0.66090000  0.76150000  1.0 0.0803183194
H  H86  1  0.33910000  0.37660000  0.76150000  1.0 0.0803183194
H  H87  1  0.62340000  0.96250000  0.76150000  1.0 0.0803183194
H  H88  1  0.96250000  0.33910000  0.76150000  1.0 0.0803183194
H  H89  1  0.66090000  0.62340000  0.76150000  1.0 0.0803183194
H  H90  1  0.37660000  0.03750000  0.76150000  1.0 0.0803183194
H  H91  1  0.66090000  0.03750000  0.73850000  1.0 0.0803183194
H  H92  1  0.37660000  0.33910000  0.73850000  1.0 0.0803183194
H  H93  1  0.96250000  0.62340000  0.73850000  1.0 0.0803183194
H  H94  1  0.33910000  0.96250000  0.73850000  1.0 0.0803183194
H  H95  1  0.62340000  0.66090000  0.73850000  1.0 0.0803183194
H  H96  1  0.03750000  0.37660000  0.73850000  1.0 0.0803183194
C  C1  1  0.87200000  0.33150000  0.14030000  1.0 0.51196127
C  C2  1  0.66850000  0.54050000  0.14030000  1.0 0.51196127
C  C3  1  0.45950000  0.12800000  0.14030000  1.0 0.51196127
C  C4  1  0.12800000  0.66850000  0.14030000  1.0 0.51196127
C  C5  1  0.33150000  0.45950000  0.14030000  1.0 0.51196127
C  C6  1  0.54050000  0.87200000  0.14030000  1.0 0.51196127
C  C7  1  0.33150000  0.87200000  0.35970000  1.0 0.51196127
C  C8  1  0.54050000  0.66850000  0.35970000  1.0 0.51196127
C  C9  1  0.12800000  0.45950000  0.35970000  1.0 0.51196127
C  C10  1  0.66850000  0.12800000  0.35970000  1.0 0.51196127
C  C11  1  0.45950000  0.33150000  0.35970000  1.0 0.51196127
C  C12  1  0.87200000  0.54050000  0.35970000  1.0 0.51196127
C  C13  1  0.12800000  0.66850000  0.85970000  1.0 0.51196127
C  C14  1  0.33150000  0.45950000  0.85970000  1.0 0.51196127
C  C15  1  0.54050000  0.87200000  0.85970000  1.0 0.51196127
C  C16  1  0.87200000  0.33150000  0.85970000  1.0 0.51196127
C  C17  1  0.66850000  0.54050000  0.85970000  1.0 0.51196127
C  C18  1  0.45950000  0.12800000  0.85970000  1.0 0.51196127
C  C19  1  0.66850000  0.12800000  0.64030000  1.0 0.51196127
C  C20  1  0.45950000  0.33150000  0.64030000  1.0 0.51196127
C  C21  1  0.87200000  0.54050000  0.64030000  1.0 0.51196127
C  C22  1  0.33150000  0.87200000  0.64030000  1.0 0.51196127
C  C23  1  0.54050000  0.66850000  0.64030000  1.0 0.51196127
C  C24  1  0.12800000  0.45950000  0.64030000  1.0 0.51196127
C  C25  1  0.82300000  0.20100000  0.17860000  1.0 -0.1119505445
C  C26  1  0.79900000  0.62200000  0.17860000  1.0 -0.1119505445
C  C27  1  0.37800000  0.17700000  0.17860000  1.0 -0.1119505445
C  C28  1  0.17700000  0.79900000  0.17860000  1.0 -0.1119505445
C  C29  1  0.20100000  0.37800000  0.17860000  1.0 -0.1119505445
C  C30  1  0.62200000  0.82300000  0.17860000  1.0 -0.1119505445
C  C31  1  0.20100000  0.82300000  0.32140000  1.0 -0.1119505445
C  C32  1  0.62200000  0.79900000  0.32140000  1.0 -0.1119505445
C  C33  1  0.17700000  0.37800000  0.32140000  1.0 -0.1119505445
C  C34  1  0.79900000  0.17700000  0.32140000  1.0 -0.1119505445
C  C35  1  0.37800000  0.20100000  0.32140000  1.0 -0.1119505445
C  C36  1  0.82300000  0.62200000  0.32140000  1.0 -0.1119505445
C  C37  1  0.17700000  0.79900000  0.82140000  1.0 -0.1119505445
C  C38  1  0.20100000  0.37800000  0.82140000  1.0 -0.1119505445
C  C39  1  0.62200000  0.82300000  0.82140000  1.0 -0.1119505445
C  C40  1  0.82300000  0.20100000  0.82140000  1.0 -0.1119505445
C  C41  1  0.79900000  0.62200000  0.82140000  1.0 -0.1119505445
C  C42  1  0.37800000  0.17700000  0.82140000  1.0 -0.1119505445
C  C43  1  0.79900000  0.17700000  0.67860000  1.0 -0.1119505445
C  C44  1  0.37800000  0.20100000  0.67860000  1.0 -0.1119505445
C  C45  1  0.82300000  0.62200000  0.67860000  1.0 -0.1119505445
C  C46  1  0.20100000  0.82300000  0.67860000  1.0 -0.1119505445
C  C47  1  0.62200000  0.79900000  0.67860000  1.0 -0.1119505445
C  C48  1  0.17700000  0.37800000  0.67860000  1.0 -0.1119505445
C  C49  1  0.89700000  0.27700000  0.20850000  1.0 -0.1119505445
C  C50  1  0.72300000  0.62000000  0.20850000  1.0 -0.1119505445
C  C51  1  0.38000000  0.10300000  0.20850000  1.0 -0.1119505445
C  C52  1  0.10300000  0.72300000  0.20850000  1.0 -0.1119505445
C  C53  1  0.27700000  0.38000000  0.20850000  1.0 -0.1119505445
C  C54  1  0.62000000  0.89700000  0.20850000  1.0 -0.1119505445
C  C55  1  0.27700000  0.89700000  0.29150000  1.0 -0.1119505445
C  C56  1  0.62000000  0.72300000  0.29150000  1.0 -0.1119505445
C  C57  1  0.10300000  0.38000000  0.29150000  1.0 -0.1119505445
C  C58  1  0.72300000  0.10300000  0.29150000  1.0 -0.1119505445
C  C59  1  0.38000000  0.27700000  0.29150000  1.0 -0.1119505445
C  C60  1  0.89700000  0.62000000  0.29150000  1.0 -0.1119505445
C  C61  1  0.10300000  0.72300000  0.79150000  1.0 -0.1119505445
C  C62  1  0.27700000  0.38000000  0.79150000  1.0 -0.1119505445
C  C63  1  0.62000000  0.89700000  0.79150000  1.0 -0.1119505445
C  C64  1  0.89700000  0.27700000  0.79150000  1.0 -0.1119505445
C  C65  1  0.72300000  0.62000000  0.79150000  1.0 -0.1119505445
C  C66  1  0.38000000  0.10300000  0.79150000  1.0 -0.1119505445
C  C67  1  0.72300000  0.10300000  0.70850000  1.0 -0.1119505445
C  C68  1  0.38000000  0.27700000  0.70850000  1.0 -0.1119505445
C  C69  1  0.89700000  0.62000000  0.70850000  1.0 -0.1119505445
C  C70  1  0.27700000  0.89700000  0.70850000  1.0 -0.1119505445
C  C71  1  0.62000000  0.72300000  0.70850000  1.0 -0.1119505445
C  C72  1  0.10300000  0.38000000  0.70850000  1.0 -0.1119505445
O  O1  1  0.93880000  0.34910000  0.08430000  1.0 -0.5189110204
O  O2  1  0.65090000  0.58970000  0.08430000  1.0 -0.5189110204
O  O3  1  0.41030000  0.06120000  0.08430000  1.0 -0.5189110204
O  O4  1  0.06120000  0.65090000  0.08430000  1.0 -0.5189110204
O  O5  1  0.34910000  0.41030000  0.08430000  1.0 -0.5189110204
O  O6  1  0.58970000  0.93880000  0.08430000  1.0 -0.5189110204
O  O7  1  0.34910000  0.93880000  0.41570000  1.0 -0.5189110204
O  O8  1  0.58970000  0.65090000  0.41570000  1.0 -0.5189110204
O  O9  1  0.06120000  0.41030000  0.41570000  1.0 -0.5189110204
O  O10  1  0.65090000  0.06120000  0.41570000  1.0 -0.5189110204
O  O11  1  0.41030000  0.34910000  0.41570000  1.0 -0.5189110204
O  O12  1  0.93880000  0.58970000  0.41570000  1.0 -0.5189110204
O  O13  1  0.06120000  0.65090000  0.91570000  1.0 -0.5189110204
O  O14  1  0.34910000  0.41030000  0.91570000  1.0 -0.5189110204
O  O15  1  0.58970000  0.93880000  0.91570000  1.0 -0.5189110204
O  O16  1  0.93880000  0.34910000  0.91570000  1.0 -0.5189110204
O  O17  1  0.65090000  0.58970000  0.91570000  1.0 -0.5189110204
O  O18  1  0.41030000  0.06120000  0.91570000  1.0 -0.5189110204
O  O19  1  0.65090000  0.06120000  0.58430000  1.0 -0.5189110204
O  O20  1  0.41030000  0.34910000  0.58430000  1.0 -0.5189110204
O  O21  1  0.93880000  0.58970000  0.58430000  1.0 -0.5189110204
O  O22  1  0.34910000  0.93880000  0.58430000  1.0 -0.5189110204
O  O23  1  0.58970000  0.65090000  0.58430000  1.0 -0.5189110204
O  O24  1  0.06120000  0.41030000  0.58430000  1.0 -0.5189110204
O  O25  1  0.81970000  0.38870000  0.15560000  1.0 -0.5841505591
O  O26  1  0.61130000  0.43100000  0.15560000  1.0 -0.5841505591
O  O27  1  0.56900000  0.18030000  0.15560000  1.0 -0.5841505591
O  O28  1  0.18030000  0.61130000  0.15560000  1.0 -0.5841505591
O  O29  1  0.38870000  0.56900000  0.15560000  1.0 -0.5841505591
O  O30  1  0.43100000  0.81970000  0.15560000  1.0 -0.5841505591
O  O31  1  0.38870000  0.81970000  0.34440000  1.0 -0.5841505591
O  O32  1  0.43100000  0.61130000  0.34440000  1.0 -0.5841505591
O  O33  1  0.18030000  0.56900000  0.34440000  1.0 -0.5841505591
O  O34  1  0.61130000  0.18030000  0.34440000  1.0 -0.5841505591
O  O35  1  0.56900000  0.38870000  0.34440000  1.0 -0.5841505591
O  O36  1  0.81970000  0.43100000  0.34440000  1.0 -0.5841505591
O  O37  1  0.18030000  0.61130000  0.84440000  1.0 -0.5841505591
O  O38  1  0.38870000  0.56900000  0.84440000  1.0 -0.5841505591
O  O39  1  0.43100000  0.81970000  0.84440000  1.0 -0.5841505591
O  O40  1  0.81970000  0.38870000  0.84440000  1.0 -0.5841505591
O  O41  1  0.61130000  0.43100000  0.84440000  1.0 -0.5841505591
O  O42  1  0.56900000  0.18030000  0.84440000  1.0 -0.5841505591
O  O43  1  0.61130000  0.18030000  0.65560000  1.0 -0.5841505591
O  O44  1  0.56900000  0.38870000  0.65560000  1.0 -0.5841505591
O  O45  1  0.81970000  0.43100000  0.65560000  1.0 -0.5841505591
O  O46  1  0.38870000  0.81970000  0.65560000  1.0 -0.5841505591
O  O47  1  0.43100000  0.61130000  0.65560000  1.0 -0.5841505591
O  O48  1  0.18030000  0.56900000  0.65560000  1.0 -0.5841505591
O  O49  1  0.77970000  0.22030000  0.25000000  1.0 -0.1910816594
O  O50  1  0.77970000  0.55940000  0.25000000  1.0 -0.1910816594
O  O51  1  0.44060000  0.22030000  0.25000000  1.0 -0.1910816594
O  O52  1  0.22030000  0.77970000  0.25000000  1.0 -0.1910816594
O  O53  1  0.22030000  0.44060000  0.25000000  1.0 -0.1910816594
O  O54  1  0.55940000  0.77970000  0.25000000  1.0 -0.1910816594
O  O55  1  0.22030000  0.77970000  0.75000000  1.0 -0.1910816594
O  O56  1  0.22030000  0.44060000  0.75000000  1.0 -0.1910816594
O  O57  1  0.55940000  0.77970000  0.75000000  1.0 -0.1910816594
O  O58  1  0.77970000  0.22030000  0.75000000  1.0 -0.1910816594
O  O59  1  0.77970000  0.55940000  0.75000000  1.0 -0.1910816594
O  O60  1  0.44060000  0.22030000  0.75000000  1.0 -0.1910816594
