# DDEC6 charges by PACMAN v1.1 (https://github.com/mtap-research/PACMAN-charge/)
data_XEVHEN_FSR_pacman
_symmetry_space_group_name_H-M   'P 1'
_cell_length_a   12.75590000
_cell_length_b   12.75590000
_cell_length_c   17.74100000
_cell_angle_alpha   90.00000000
_cell_angle_beta   90.00000000
_cell_angle_gamma   120.00000000
_symmetry_Int_Tables_number   1
_chemical_formula_structural   Gd2Cd3H72(CO)36
_chemical_formula_sum   'Gd4 Cd6 H144 C72 O72'
_cell_volume   2499.94779388
_cell_formula_units_Z   2
loop_
 _symmetry_equiv_pos_site_id
 _symmetry_equiv_pos_as_xyz
  1  'x, y, z'
loop_
 _atom_site_type_symbol
 _atom_site_label
 _atom_site_symmetry_multiplicity
 _atom_site_fract_x
 _atom_site_fract_y
 _atom_site_fract_z
 _atom_site_occupancy
 _atom_site_charge
Gd  Gd1  1  0.66666667  0.33333333  0.25000000  1.0 1.6700290445
Gd  Gd2  1  0.33333333  0.66666667  0.25000000  1.0 1.6700290445
Gd  Gd3  1  0.33333333  0.66666667  0.75000000  1.0 1.6700290445
Gd  Gd4  1  0.66666667  0.33333333  0.75000000  1.0 1.6700290445
Cd  Cd1  1  0.00000000  0.50000000  0.00000000  1.0 0.9751278365
Cd  Cd2  1  0.50000000  0.50000000  0.00000000  1.0 0.9751278365
Cd  Cd3  1  0.50000000  0.00000000  0.00000000  1.0 0.9751278365
Cd  Cd4  1  0.50000000  0.00000000  0.50000000  1.0 0.9751278365
Cd  Cd5  1  0.50000000  0.50000000  0.50000000  1.0 0.9751278365
Cd  Cd6  1  0.00000000  0.50000000  0.50000000  1.0 0.9751278365
H  H1  1  0.79510000  0.49780000  0.05000000  1.0 0.2241854553
H  H2  1  0.50220000  0.29730000  0.05000000  1.0 0.2241854553
H  H3  1  0.70270000  0.20490000  0.05000000  1.0 0.2241854553
H  H4  1  0.20490000  0.50220000  0.05000000  1.0 0.2241854553
H  H5  1  0.49780000  0.70270000  0.05000000  1.0 0.2241854553
H  H6  1  0.29730000  0.79510000  0.05000000  1.0 0.2241854553
H  H7  1  0.49780000  0.79510000  0.45000000  1.0 0.2241854553
H  H8  1  0.29730000  0.50220000  0.45000000  1.0 0.2241854553
H  H9  1  0.20490000  0.70270000  0.45000000  1.0 0.2241854553
H  H10  1  0.50220000  0.20490000  0.45000000  1.0 0.2241854553
H  H11  1  0.70270000  0.49780000  0.45000000  1.0 0.2241854553
H  H12  1  0.79510000  0.29730000  0.45000000  1.0 0.2241854553
H  H13  1  0.20490000  0.50220000  0.95000000  1.0 0.2241854553
H  H14  1  0.49780000  0.70270000  0.95000000  1.0 0.2241854553
H  H15  1  0.29730000  0.79510000  0.95000000  1.0 0.2241854553
H  H16  1  0.79510000  0.49780000  0.95000000  1.0 0.2241854553
H  H17  1  0.50220000  0.29730000  0.95000000  1.0 0.2241854553
H  H18  1  0.70270000  0.20490000  0.95000000  1.0 0.2241854553
H  H19  1  0.50220000  0.20490000  0.55000000  1.0 0.2241854553
H  H20  1  0.70270000  0.49780000  0.55000000  1.0 0.2241854553
H  H21  1  0.79510000  0.29730000  0.55000000  1.0 0.2241854553
H  H22  1  0.49780000  0.79510000  0.55000000  1.0 0.2241854553
H  H23  1  0.29730000  0.50220000  0.55000000  1.0 0.2241854553
H  H24  1  0.20490000  0.70270000  0.55000000  1.0 0.2241854553
H  H25  1  0.75910000  0.13860000  0.14830000  1.0 0.1085889406
H  H26  1  0.86140000  0.62050000  0.14830000  1.0 0.1085889406
H  H27  1  0.37950000  0.24090000  0.14830000  1.0 0.1085889406
H  H28  1  0.24090000  0.86140000  0.14830000  1.0 0.1085889406
H  H29  1  0.13860000  0.37950000  0.14830000  1.0 0.1085889406
H  H30  1  0.62050000  0.75910000  0.14830000  1.0 0.1085889406
H  H31  1  0.13860000  0.75910000  0.35170000  1.0 0.1085889406
H  H32  1  0.62050000  0.86140000  0.35170000  1.0 0.1085889406
H  H33  1  0.24090000  0.37950000  0.35170000  1.0 0.1085889406
H  H34  1  0.86140000  0.24090000  0.35170000  1.0 0.1085889406
H  H35  1  0.37950000  0.13860000  0.35170000  1.0 0.1085889406
H  H36  1  0.75910000  0.62050000  0.35170000  1.0 0.1085889406
H  H37  1  0.24090000  0.86140000  0.85170000  1.0 0.1085889406
H  H38  1  0.13860000  0.37950000  0.85170000  1.0 0.1085889406
H  H39  1  0.62050000  0.75910000  0.85170000  1.0 0.1085889406
H  H40  1  0.75910000  0.13860000  0.85170000  1.0 0.1085889406
H  H41  1  0.86140000  0.62050000  0.85170000  1.0 0.1085889406
H  H42  1  0.37950000  0.24090000  0.85170000  1.0 0.1085889406
H  H43  1  0.86140000  0.24090000  0.64830000  1.0 0.1085889406
H  H44  1  0.37950000  0.13860000  0.64830000  1.0 0.1085889406
H  H45  1  0.75910000  0.62050000  0.64830000  1.0 0.1085889406
H  H46  1  0.13860000  0.75910000  0.64830000  1.0 0.1085889406
H  H47  1  0.62050000  0.86140000  0.64830000  1.0 0.1085889406
H  H48  1  0.24090000  0.37950000  0.64830000  1.0 0.1085889406
H  H49  1  0.88820000  0.18310000  0.18410000  1.0 0.0765333344
H  H50  1  0.81690000  0.70510000  0.18410000  1.0 0.0765333344
H  H51  1  0.29490000  0.11180000  0.18410000  1.0 0.0765333344
H  H52  1  0.11180000  0.81690000  0.18410000  1.0 0.0765333344
H  H53  1  0.18310000  0.29490000  0.18410000  1.0 0.0765333344
H  H54  1  0.70510000  0.88820000  0.18410000  1.0 0.0765333344
H  H55  1  0.18310000  0.88820000  0.31590000  1.0 0.0765333344
H  H56  1  0.70510000  0.81690000  0.31590000  1.0 0.0765333344
H  H57  1  0.11180000  0.29490000  0.31590000  1.0 0.0765333344
H  H58  1  0.81690000  0.11180000  0.31590000  1.0 0.0765333344
H  H59  1  0.29490000  0.18310000  0.31590000  1.0 0.0765333344
H  H60  1  0.88820000  0.70510000  0.31590000  1.0 0.0765333344
H  H61  1  0.11180000  0.81690000  0.81590000  1.0 0.0765333344
H  H62  1  0.18310000  0.29490000  0.81590000  1.0 0.0765333344
H  H63  1  0.70510000  0.88820000  0.81590000  1.0 0.0765333344
H  H64  1  0.88820000  0.18310000  0.81590000  1.0 0.0765333344
H  H65  1  0.81690000  0.70510000  0.81590000  1.0 0.0765333344
H  H66  1  0.29490000  0.11180000  0.81590000  1.0 0.0765333344
H  H67  1  0.81690000  0.11180000  0.68410000  1.0 0.0765333344
H  H68  1  0.29490000  0.18310000  0.68410000  1.0 0.0765333344
H  H69  1  0.88820000  0.70510000  0.68410000  1.0 0.0765333344
H  H70  1  0.18310000  0.88820000  0.68410000  1.0 0.0765333344
H  H71  1  0.70510000  0.81690000  0.68410000  1.0 0.0765333344
H  H72  1  0.11180000  0.29490000  0.68410000  1.0 0.0765333344
H  H73  1  0.92080000  0.21810000  0.19420000  1.0 0.0860249323
H  H74  1  0.78190000  0.70270000  0.19420000  1.0 0.0860249323
H  H75  1  0.29730000  0.07920000  0.19420000  1.0 0.0860249323
H  H76  1  0.07920000  0.78190000  0.19420000  1.0 0.0860249323
H  H77  1  0.21810000  0.29730000  0.19420000  1.0 0.0860249323
H  H78  1  0.70270000  0.92080000  0.19420000  1.0 0.0860249323
H  H79  1  0.21810000  0.92080000  0.30580000  1.0 0.0860249323
H  H80  1  0.70270000  0.78190000  0.30580000  1.0 0.0860249323
H  H81  1  0.07920000  0.29730000  0.30580000  1.0 0.0860249323
H  H82  1  0.78190000  0.07920000  0.30580000  1.0 0.0860249323
H  H83  1  0.29730000  0.21810000  0.30580000  1.0 0.0860249323
H  H84  1  0.92080000  0.70270000  0.30580000  1.0 0.0860249323
H  H85  1  0.07920000  0.78190000  0.80580000  1.0 0.0860249323
H  H86  1  0.21810000  0.29730000  0.80580000  1.0 0.0860249323
H  H87  1  0.70270000  0.92080000  0.80580000  1.0 0.0860249323
H  H88  1  0.92080000  0.21810000  0.80580000  1.0 0.0860249323
H  H89  1  0.78190000  0.70270000  0.80580000  1.0 0.0860249323
H  H90  1  0.29730000  0.07920000  0.80580000  1.0 0.0860249323
H  H91  1  0.78190000  0.07920000  0.69420000  1.0 0.0860249323
H  H92  1  0.29730000  0.21810000  0.69420000  1.0 0.0860249323
H  H93  1  0.92080000  0.70270000  0.69420000  1.0 0.0860249323
H  H94  1  0.21810000  0.92080000  0.69420000  1.0 0.0860249323
H  H95  1  0.70270000  0.78190000  0.69420000  1.0 0.0860249323
H  H96  1  0.07920000  0.29730000  0.69420000  1.0 0.0860249323
H  H97  1  0.96220000  0.34030000  0.23820000  1.0 0.0860249323
H  H98  1  0.65970000  0.62190000  0.23820000  1.0 0.0860249323
H  H99  1  0.37810000  0.03780000  0.23820000  1.0 0.0860249323
H  H100  1  0.03780000  0.65970000  0.23820000  1.0 0.0860249323
H  H101  1  0.34030000  0.37810000  0.23820000  1.0 0.0860249323
H  H102  1  0.62190000  0.96220000  0.23820000  1.0 0.0860249323
H  H103  1  0.34030000  0.96220000  0.26180000  1.0 0.0860249323
H  H104  1  0.62190000  0.65970000  0.26180000  1.0 0.0860249323
H  H105  1  0.03780000  0.37810000  0.26180000  1.0 0.0860249323
H  H106  1  0.65970000  0.03780000  0.26180000  1.0 0.0860249323
H  H107  1  0.37810000  0.34030000  0.26180000  1.0 0.0860249323
H  H108  1  0.96220000  0.62190000  0.26180000  1.0 0.0860249323
H  H109  1  0.03780000  0.65970000  0.76180000  1.0 0.0860249323
H  H110  1  0.34030000  0.37810000  0.76180000  1.0 0.0860249323
H  H111  1  0.62190000  0.96220000  0.76180000  1.0 0.0860249323
H  H112  1  0.96220000  0.34030000  0.76180000  1.0 0.0860249323
H  H113  1  0.65970000  0.62190000  0.76180000  1.0 0.0860249323
H  H114  1  0.37810000  0.03780000  0.76180000  1.0 0.0860249323
H  H115  1  0.65970000  0.03780000  0.73820000  1.0 0.0860249323
H  H116  1  0.37810000  0.34030000  0.73820000  1.0 0.0860249323
H  H117  1  0.96220000  0.62190000  0.73820000  1.0 0.0860249323
H  H118  1  0.34030000  0.96220000  0.73820000  1.0 0.0860249323
H  H119  1  0.62190000  0.65970000  0.73820000  1.0 0.0860249323
H  H120  1  0.03780000  0.37810000  0.73820000  1.0 0.0860249323
H  H121  1  0.81460000  0.54260000  0.96620000  1.0 0.1275961267
H  H122  1  0.45740000  0.27200000  0.96620000  1.0 0.1275961267
H  H123  1  0.72800000  0.18540000  0.96620000  1.0 0.1275961267
H  H124  1  0.18540000  0.45740000  0.96620000  1.0 0.1275961267
H  H125  1  0.54260000  0.72800000  0.96620000  1.0 0.1275961267
H  H126  1  0.27200000  0.81460000  0.96620000  1.0 0.1275961267
H  H127  1  0.54260000  0.81460000  0.53380000  1.0 0.1275961267
H  H128  1  0.27200000  0.45740000  0.53380000  1.0 0.1275961267
H  H129  1  0.18540000  0.72800000  0.53380000  1.0 0.1275961267
H  H130  1  0.45740000  0.18540000  0.53380000  1.0 0.1275961267
H  H131  1  0.72800000  0.54260000  0.53380000  1.0 0.1275961267
H  H132  1  0.81460000  0.27200000  0.53380000  1.0 0.1275961267
H  H133  1  0.18540000  0.45740000  0.03380000  1.0 0.1275961267
H  H134  1  0.54260000  0.72800000  0.03380000  1.0 0.1275961267
H  H135  1  0.27200000  0.81460000  0.03380000  1.0 0.1275961267
H  H136  1  0.81460000  0.54260000  0.03380000  1.0 0.1275961267
H  H137  1  0.45740000  0.27200000  0.03380000  1.0 0.1275961267
H  H138  1  0.72800000  0.18540000  0.03380000  1.0 0.1275961267
H  H139  1  0.45740000  0.18540000  0.46620000  1.0 0.1275961267
H  H140  1  0.72800000  0.54260000  0.46620000  1.0 0.1275961267
H  H141  1  0.81460000  0.27200000  0.46620000  1.0 0.1275961267
H  H142  1  0.54260000  0.81460000  0.46620000  1.0 0.1275961267
H  H143  1  0.27200000  0.45740000  0.46620000  1.0 0.1275961267
H  H144  1  0.18540000  0.72800000  0.46620000  1.0 0.1275961267
C  C1  1  0.87260000  0.33000000  0.13980000  1.0 0.445909021
C  C2  1  0.67000000  0.54260000  0.13980000  1.0 0.445909021
C  C3  1  0.45740000  0.12740000  0.13980000  1.0 0.445909021
C  C4  1  0.12740000  0.67000000  0.13980000  1.0 0.445909021
C  C5  1  0.33000000  0.45740000  0.13980000  1.0 0.445909021
C  C6  1  0.54260000  0.87260000  0.13980000  1.0 0.445909021
C  C7  1  0.33000000  0.87260000  0.36020000  1.0 0.4442124669
C  C8  1  0.54260000  0.67000000  0.36020000  1.0 0.4442124669
C  C9  1  0.12740000  0.45740000  0.36020000  1.0 0.445909021
C  C10  1  0.67000000  0.12740000  0.36020000  1.0 0.445909021
C  C11  1  0.45740000  0.33000000  0.36020000  1.0 0.445909021
C  C12  1  0.87260000  0.54260000  0.36020000  1.0 0.445909021
C  C13  1  0.12740000  0.67000000  0.86020000  1.0 0.445909021
C  C14  1  0.33000000  0.45740000  0.86020000  1.0 0.445909021
C  C15  1  0.54260000  0.87260000  0.86020000  1.0 0.445909021
C  C16  1  0.87260000  0.33000000  0.86020000  1.0 0.445909021
C  C17  1  0.67000000  0.54260000  0.86020000  1.0 0.445909021
C  C18  1  0.45740000  0.12740000  0.86020000  1.0 0.445909021
C  C19  1  0.67000000  0.12740000  0.63980000  1.0 0.445909021
C  C20  1  0.45740000  0.33000000  0.63980000  1.0 0.445909021
C  C21  1  0.87260000  0.54260000  0.63980000  1.0 0.445909021
C  C22  1  0.33000000  0.87260000  0.63980000  1.0 0.445909021
C  C23  1  0.54260000  0.67000000  0.63980000  1.0 0.445909021
C  C24  1  0.12740000  0.45740000  0.63980000  1.0 0.445909021
C  C25  1  0.82400000  0.20200000  0.17750000  1.0 -0.1275167539
C  C26  1  0.79800000  0.62200000  0.17750000  1.0 -0.1275167539
C  C27  1  0.37800000  0.17600000  0.17750000  1.0 -0.1275167539
C  C28  1  0.17600000  0.79800000  0.17750000  1.0 -0.1275167539
C  C29  1  0.20200000  0.37800000  0.17750000  1.0 -0.1275167539
C  C30  1  0.62200000  0.82400000  0.17750000  1.0 -0.1275167539
C  C31  1  0.20200000  0.82400000  0.32250000  1.0 -0.1275167539
C  C32  1  0.62200000  0.79800000  0.32250000  1.0 -0.1275167539
C  C33  1  0.17600000  0.37800000  0.32250000  1.0 -0.1275167539
C  C34  1  0.79800000  0.17600000  0.32250000  1.0 -0.1275167539
C  C35  1  0.37800000  0.20200000  0.32250000  1.0 -0.1275167539
C  C36  1  0.82400000  0.62200000  0.32250000  1.0 -0.1275167539
C  C37  1  0.17600000  0.79800000  0.82250000  1.0 -0.1275167539
C  C38  1  0.20200000  0.37800000  0.82250000  1.0 -0.1275167539
C  C39  1  0.62200000  0.82400000  0.82250000  1.0 -0.1275167539
C  C40  1  0.82400000  0.20200000  0.82250000  1.0 -0.1275167539
C  C41  1  0.79800000  0.62200000  0.82250000  1.0 -0.1275167539
C  C42  1  0.37800000  0.17600000  0.82250000  1.0 -0.1275167539
C  C43  1  0.79800000  0.17600000  0.67750000  1.0 -0.1275167539
C  C44  1  0.37800000  0.20200000  0.67750000  1.0 -0.1275167539
C  C45  1  0.82400000  0.62200000  0.67750000  1.0 -0.1275167539
C  C46  1  0.20200000  0.82400000  0.67750000  1.0 -0.1275167539
C  C47  1  0.62200000  0.79800000  0.67750000  1.0 -0.1275167539
C  C48  1  0.17600000  0.37800000  0.67750000  1.0 -0.1275167539
C  C49  1  0.89800000  0.27800000  0.20820000  1.0 -0.096269275
C  C50  1  0.72200000  0.62000000  0.20820000  1.0 -0.096269275
C  C51  1  0.38000000  0.10200000  0.20820000  1.0 -0.096269275
C  C52  1  0.10200000  0.72200000  0.20820000  1.0 -0.096269275
C  C53  1  0.27800000  0.38000000  0.20820000  1.0 -0.096269275
C  C54  1  0.62000000  0.89800000  0.20820000  1.0 -0.096269275
C  C55  1  0.27800000  0.89800000  0.29180000  1.0 -0.096269275
C  C56  1  0.62000000  0.72200000  0.29180000  1.0 -0.096269275
C  C57  1  0.10200000  0.38000000  0.29180000  1.0 -0.096269275
C  C58  1  0.72200000  0.10200000  0.29180000  1.0 -0.096269275
C  C59  1  0.38000000  0.27800000  0.29180000  1.0 -0.096269275
C  C60  1  0.89800000  0.62000000  0.29180000  1.0 -0.096269275
C  C61  1  0.10200000  0.72200000  0.79180000  1.0 -0.096269275
C  C62  1  0.27800000  0.38000000  0.79180000  1.0 -0.096269275
C  C63  1  0.62000000  0.89800000  0.79180000  1.0 -0.096269275
C  C64  1  0.89800000  0.27800000  0.79180000  1.0 -0.096269275
C  C65  1  0.72200000  0.62000000  0.79180000  1.0 -0.096269275
C  C66  1  0.38000000  0.10200000  0.79180000  1.0 -0.096269275
C  C67  1  0.72200000  0.10200000  0.70820000  1.0 -0.096269275
C  C68  1  0.38000000  0.27800000  0.70820000  1.0 -0.096269275
C  C69  1  0.89800000  0.62000000  0.70820000  1.0 -0.096269275
C  C70  1  0.27800000  0.89800000  0.70820000  1.0 -0.096269275
C  C71  1  0.62000000  0.72200000  0.70820000  1.0 -0.096269275
C  C72  1  0.10200000  0.38000000  0.70820000  1.0 -0.096269275
O  O1  1  0.94020000  0.34900000  0.08420000  1.0 -0.509917676
O  O2  1  0.65100000  0.59120000  0.08420000  1.0 -0.509917676
O  O3  1  0.40880000  0.05980000  0.08420000  1.0 -0.509917676
O  O4  1  0.05980000  0.65100000  0.08420000  1.0 -0.509917676
O  O5  1  0.34900000  0.40880000  0.08420000  1.0 -0.509917676
O  O6  1  0.59120000  0.94020000  0.08420000  1.0 -0.509917676
O  O7  1  0.34900000  0.94020000  0.41580000  1.0 -0.509917676
O  O8  1  0.59120000  0.65100000  0.41580000  1.0 -0.509917676
O  O9  1  0.05980000  0.40880000  0.41580000  1.0 -0.509917676
O  O10  1  0.65100000  0.05980000  0.41580000  1.0 -0.509917676
O  O11  1  0.40880000  0.34900000  0.41580000  1.0 -0.509917676
O  O12  1  0.94020000  0.59120000  0.41580000  1.0 -0.509917676
O  O13  1  0.05980000  0.65100000  0.91580000  1.0 -0.509917676
O  O14  1  0.34900000  0.40880000  0.91580000  1.0 -0.509917676
O  O15  1  0.59120000  0.94020000  0.91580000  1.0 -0.509917676
O  O16  1  0.94020000  0.34900000  0.91580000  1.0 -0.509917676
O  O17  1  0.65100000  0.59120000  0.91580000  1.0 -0.509917676
O  O18  1  0.40880000  0.05980000  0.91580000  1.0 -0.509917676
O  O19  1  0.65100000  0.05980000  0.58420000  1.0 -0.509917676
O  O20  1  0.40880000  0.34900000  0.58420000  1.0 -0.509917676
O  O21  1  0.94020000  0.59120000  0.58420000  1.0 -0.509917676
O  O22  1  0.34900000  0.94020000  0.58420000  1.0 -0.509917676
O  O23  1  0.59120000  0.65100000  0.58420000  1.0 -0.509917676
O  O24  1  0.05980000  0.40880000  0.58420000  1.0 -0.509917676
O  O25  1  0.82010000  0.38730000  0.15450000  1.0 -0.5668238795
O  O26  1  0.61270000  0.43280000  0.15450000  1.0 -0.5668238795
O  O27  1  0.56720000  0.17990000  0.15450000  1.0 -0.5668238795
O  O28  1  0.17990000  0.61270000  0.15450000  1.0 -0.5668238795
O  O29  1  0.38730000  0.56720000  0.15450000  1.0 -0.5668238795
O  O30  1  0.43280000  0.82010000  0.15450000  1.0 -0.5668238795
O  O31  1  0.38730000  0.82010000  0.34550000  1.0 -0.5668238795
O  O32  1  0.43280000  0.61270000  0.34550000  1.0 -0.5668238795
O  O33  1  0.17990000  0.56720000  0.34550000  1.0 -0.5668238795
O  O34  1  0.61270000  0.17990000  0.34550000  1.0 -0.5668238795
O  O35  1  0.56720000  0.38730000  0.34550000  1.0 -0.5668238795
O  O36  1  0.82010000  0.43280000  0.34550000  1.0 -0.5668238795
O  O37  1  0.17990000  0.61270000  0.84550000  1.0 -0.5668238795
O  O38  1  0.38730000  0.56720000  0.84550000  1.0 -0.5668238795
O  O39  1  0.43280000  0.82010000  0.84550000  1.0 -0.5668238795
O  O40  1  0.82010000  0.38730000  0.84550000  1.0 -0.5668238795
O  O41  1  0.61270000  0.43280000  0.84550000  1.0 -0.5668238795
O  O42  1  0.56720000  0.17990000  0.84550000  1.0 -0.5668238795
O  O43  1  0.61270000  0.17990000  0.65450000  1.0 -0.5668238795
O  O44  1  0.56720000  0.38730000  0.65450000  1.0 -0.5668238795
O  O45  1  0.82010000  0.43280000  0.65450000  1.0 -0.5668238795
O  O46  1  0.38730000  0.82010000  0.65450000  1.0 -0.5668238795
O  O47  1  0.43280000  0.61270000  0.65450000  1.0 -0.5668238795
O  O48  1  0.17990000  0.56720000  0.65450000  1.0 -0.5668238795
O  O49  1  0.78040000  0.21960000  0.25000000  1.0 -0.1858039445
O  O50  1  0.78040000  0.56080000  0.25000000  1.0 -0.1858039445
O  O51  1  0.43920000  0.21960000  0.25000000  1.0 -0.1858039445
O  O52  1  0.21960000  0.78040000  0.25000000  1.0 -0.1858039445
O  O53  1  0.21960000  0.43920000  0.25000000  1.0 -0.1858039445
O  O54  1  0.56080000  0.78040000  0.25000000  1.0 -0.1858039445
O  O55  1  0.21960000  0.78040000  0.75000000  1.0 -0.1858039445
O  O56  1  0.21960000  0.43920000  0.75000000  1.0 -0.1858039445
O  O57  1  0.56080000  0.78040000  0.75000000  1.0 -0.1858039445
O  O58  1  0.78040000  0.21960000  0.75000000  1.0 -0.1858039445
O  O59  1  0.78040000  0.56080000  0.75000000  1.0 -0.1858039445
O  O60  1  0.43920000  0.21960000  0.75000000  1.0 -0.1858039445
O  O61  1  0.81400000  0.48360000  0.00000000  1.0 -0.5668238795
O  O62  1  0.51640000  0.33040000  0.00000000  1.0 -0.5668238795
O  O63  1  0.66960000  0.18600000  0.00000000  1.0 -0.5668238795
O  O64  1  0.18600000  0.51640000  0.00000000  1.0 -0.5668238795
O  O65  1  0.48360000  0.66960000  0.00000000  1.0 -0.5668238795
O  O66  1  0.33040000  0.81400000  0.00000000  1.0 -0.5668238795
O  O67  1  0.48360000  0.81400000  0.50000000  1.0 -0.5668238795
O  O68  1  0.33040000  0.51640000  0.50000000  1.0 -0.5668238795
O  O69  1  0.18600000  0.66960000  0.50000000  1.0 -0.5668238795
O  O70  1  0.51640000  0.18600000  0.50000000  1.0 -0.5668238795
O  O71  1  0.66960000  0.48360000  0.50000000  1.0 -0.5668238795
O  O72  1  0.81400000  0.33040000  0.50000000  1.0 -0.5668238795
