# DDEC6 charges by PACMAN v1.1 (https://github.com/mtap-research/PACMAN-charge/)
data_XEVZAC03_FSR_pacman
_symmetry_space_group_name_H-M   'P 1'
_cell_length_a   9.70440000
_cell_length_b   13.25050000
_cell_length_c   22.14720000
_cell_angle_alpha   90.00000000
_cell_angle_beta   90.00000000
_cell_angle_gamma   90.00000000
_symmetry_Int_Tables_number   1
_chemical_formula_structural   ZnH14C20(NO)4
_chemical_formula_sum   'Zn4 H56 C80 N16 O16'
_cell_volume   2847.86752440
_cell_formula_units_Z   4
loop_
 _symmetry_equiv_pos_site_id
 _symmetry_equiv_pos_as_xyz
  1  'x, y, z'
loop_
 _atom_site_type_symbol
 _atom_site_label
 _atom_site_symmetry_multiplicity
 _atom_site_fract_x
 _atom_site_fract_y
 _atom_site_fract_z
 _atom_site_occupancy
 _atom_site_charge
Zn  Zn1  1  0.68067000  0.21533000  0.25000000  1.0 0.7347740072
Zn  Zn2  1  0.31933000  0.78467000  0.75000000  1.0 0.7347740072
Zn  Zn3  1  0.18067000  0.28467000  0.75000000  1.0 0.7347740072
Zn  Zn4  1  0.81933000  0.71533000  0.25000000  1.0 0.7347740072
H  H1  1  0.81600000  0.57180000  0.35830000  1.0 0.1405261296
H  H2  1  0.69890000  0.58350000  0.40780000  1.0 0.1285116586
H  H3  1  0.51770000  0.26360000  0.37470000  1.0 0.1285116586
H  H4  1  0.55410000  0.42180000  0.43310000  1.0 0.1285116586
H  H5  1  0.83030000  0.40300000  0.30360000  1.0 0.1186282661
H  H6  1  0.18400000  0.42820000  0.85830000  1.0 0.1405261296
H  H7  1  0.30110000  0.41650000  0.90780000  1.0 0.1285116586
H  H8  1  0.48230000  0.73640000  0.87470000  1.0 0.1285116586
H  H9  1  0.44590000  0.57820000  0.93310000  1.0 0.1285116586
H  H10  1  0.16970000  0.59700000  0.80360000  1.0 0.1186282661
H  H11  1  0.18400000  0.42820000  0.64170000  1.0 0.1405261296
H  H12  1  0.30110000  0.41650000  0.59220000  1.0 0.1285116586
H  H13  1  0.48230000  0.73640000  0.62530000  1.0 0.1285116586
H  H14  1  0.44590000  0.57820000  0.56690000  1.0 0.1285116586
H  H15  1  0.16970000  0.59700000  0.69640000  1.0 0.1186282661
H  H16  1  0.81600000  0.57180000  0.14170000  1.0 0.1405261296
H  H17  1  0.69890000  0.58350000  0.09220000  1.0 0.1285116586
H  H18  1  0.51770000  0.26360000  0.12530000  1.0 0.1285116586
H  H19  1  0.55410000  0.42180000  0.06690000  1.0 0.1285116586
H  H20  1  0.83030000  0.40300000  0.19640000  1.0 0.1186282661
H  H21  1  0.22460000  0.19120000  0.25000000  1.0 0.1186282661
H  H22  1  0.95150000  0.96400000  0.25000000  1.0 0.1002578724
H  H23  1  0.13030000  0.84910000  0.25000000  1.0 0.1002578724
H  H24  1  0.35640000  0.90570000  0.25000000  1.0 0.1285116586
H  H25  1  0.77540000  0.80880000  0.75000000  1.0 0.1186282661
H  H26  1  0.04850000  0.03600000  0.75000000  1.0 0.1002578724
H  H27  1  0.86970000  0.15090000  0.75000000  1.0 0.1002578724
H  H28  1  0.64360000  0.09430000  0.75000000  1.0 0.1285116586
H  H29  1  0.31600000  0.92820000  0.64170000  1.0 0.1405261296
H  H30  1  0.19890000  0.91650000  0.59220000  1.0 0.1285116586
H  H31  1  0.01770000  0.23640000  0.62530000  1.0 0.1285116586
H  H32  1  0.05410000  0.07820000  0.56690000  1.0 0.1285116586
H  H33  1  0.33030000  0.09700000  0.69640000  1.0 0.1186282661
H  H34  1  0.68400000  0.07180000  0.14170000  1.0 0.1405261296
H  H35  1  0.80110000  0.08350000  0.09220000  1.0 0.1285116586
H  H36  1  0.98230000  0.76360000  0.12530000  1.0 0.1285116586
H  H37  1  0.94590000  0.92180000  0.06690000  1.0 0.1285116586
H  H38  1  0.66970000  0.90300000  0.19640000  1.0 0.1186282661
H  H39  1  0.68400000  0.07180000  0.35830000  1.0 0.1405261296
H  H40  1  0.80110000  0.08350000  0.40780000  1.0 0.1285116586
H  H41  1  0.98230000  0.76360000  0.37470000  1.0 0.1285116586
H  H42  1  0.94590000  0.92180000  0.43310000  1.0 0.1285116586
H  H43  1  0.66970000  0.90300000  0.30360000  1.0 0.1186282661
H  H44  1  0.31600000  0.92820000  0.85830000  1.0 0.1405261296
H  H45  1  0.19890000  0.91650000  0.90780000  1.0 0.1285116586
H  H46  1  0.01770000  0.23640000  0.87470000  1.0 0.1285116586
H  H47  1  0.05410000  0.07820000  0.93310000  1.0 0.1285116586
H  H48  1  0.33030000  0.09700000  0.80360000  1.0 0.1186282661
H  H49  1  0.72460000  0.30880000  0.75000000  1.0 0.1186282661
H  H50  1  0.45150000  0.53600000  0.75000000  1.0 0.1002578724
H  H51  1  0.63030000  0.65090000  0.75000000  1.0 0.1002578724
H  H52  1  0.85640000  0.59430000  0.75000000  1.0 0.1285116586
H  H53  1  0.27540000  0.69120000  0.25000000  1.0 0.1186282661
H  H54  1  0.54850000  0.46400000  0.25000000  1.0 0.1002578724
H  H55  1  0.36970000  0.34910000  0.25000000  1.0 0.1002578724
H  H56  1  0.14360000  0.40570000  0.25000000  1.0 0.1285116586
C  C1  1  0.75600000  0.38720000  0.32850000  1.0 0.1148994553
C  C2  1  0.77170000  0.54020000  0.39260000  1.0 -0.124666461
C  C3  1  0.87410000  0.52590000  0.43940000  1.0 -0.0721643905
C  C4  1  0.95490000  0.50920000  0.47780000  1.0 -0.0533504759
C  C5  1  0.60460000  0.39910000  0.40020000  1.0 -0.1019767236
C  C6  1  0.58550000  0.31170000  0.36730000  1.0 -0.0297667191
C  C7  1  0.24400000  0.61280000  0.82850000  1.0 0.1186282661
C  C8  1  0.22830000  0.45980000  0.89260000  1.0 -0.124666461
C  C9  1  0.12590000  0.47410000  0.93940000  1.0 -0.0721643905
C  C10  1  0.04510000  0.49080000  0.97780000  1.0 -0.0533504759
C  C11  1  0.39540000  0.60090000  0.90020000  1.0 -0.1019767236
C  C12  1  0.41450000  0.68830000  0.86730000  1.0 -0.0297667191
C  C13  1  0.24400000  0.61280000  0.67150000  1.0 0.1186282661
C  C14  1  0.22830000  0.45980000  0.60740000  1.0 -0.124666461
C  C15  1  0.12590000  0.47410000  0.56060000  1.0 -0.0721643905
C  C16  1  0.04510000  0.49080000  0.52220000  1.0 -0.0533504759
C  C17  1  0.39540000  0.60090000  0.59980000  1.0 -0.1019767236
C  C18  1  0.41450000  0.68830000  0.63270000  1.0 -0.0297667191
C  C19  1  0.75600000  0.38720000  0.17150000  1.0 0.1148994553
C  C20  1  0.77170000  0.54020000  0.10740000  1.0 -0.124666461
C  C21  1  0.87410000  0.52590000  0.06060000  1.0 -0.0721643905
C  C22  1  0.95490000  0.50920000  0.02220000  1.0 -0.0533504759
C  C23  1  0.60460000  0.39910000  0.09980000  1.0 -0.1019767236
C  C24  1  0.58550000  0.31170000  0.13270000  1.0 -0.0297667191
C  C25  1  0.46070000  0.08810000  0.25000000  1.0 0.4998365778
C  C26  1  0.31240000  0.05270000  0.25000000  1.0 -0.0134522517
C  C27  1  0.28410000  0.95190000  0.25000000  1.0 -0.1019767236
C  C28  1  0.14880000  0.91780000  0.25000000  1.0 -0.0900241521
C  C29  1  0.04230000  0.98650000  0.25000000  1.0 -0.1132905197
C  C30  1  0.06910000  0.08840000  0.25000000  1.0 -0.0232187056
C  C31  1  0.20570000  0.12240000  0.25000000  1.0 -0.1396499735
C  C32  1  0.95150000  0.16030000  0.25000000  1.0 0.544450118
C  C33  1  0.53930000  0.91190000  0.75000000  1.0 0.4998365778
C  C34  1  0.68760000  0.94730000  0.75000000  1.0 -0.0134522517
C  C35  1  0.71590000  0.04810000  0.75000000  1.0 -0.1019767236
C  C36  1  0.85120000  0.08220000  0.75000000  1.0 -0.0900241521
C  C37  1  0.95770000  0.01350000  0.75000000  1.0 -0.1132905197
C  C38  1  0.93090000  0.91160000  0.75000000  1.0 -0.0232187056
C  C39  1  0.79430000  0.87760000  0.75000000  1.0 -0.1396499735
C  C40  1  0.04850000  0.83970000  0.75000000  1.0 0.544450118
C  C41  1  0.25600000  0.11280000  0.67150000  1.0 0.1148994553
C  C42  1  0.27170000  0.95980000  0.60740000  1.0 -0.124666461
C  C43  1  0.37410000  0.97410000  0.56060000  1.0 -0.0721643905
C  C44  1  0.45490000  0.99080000  0.52220000  1.0 -0.0533504759
C  C45  1  0.10460000  0.10090000  0.59980000  1.0 -0.1019767236
C  C46  1  0.08550000  0.18830000  0.63270000  1.0 -0.0297667191
C  C47  1  0.74400000  0.88720000  0.17150000  1.0 0.1148994553
C  C48  1  0.72830000  0.04020000  0.10740000  1.0 -0.124666461
C  C49  1  0.62590000  0.02590000  0.06060000  1.0 -0.0721643905
C  C50  1  0.54510000  0.00920000  0.02220000  1.0 -0.0533504759
C  C51  1  0.89540000  0.89910000  0.09980000  1.0 -0.1019767236
C  C52  1  0.91450000  0.81170000  0.13270000  1.0 -0.0297667191
C  C53  1  0.74400000  0.88720000  0.32850000  1.0 0.1186282661
C  C54  1  0.72830000  0.04020000  0.39260000  1.0 -0.124666461
C  C55  1  0.62590000  0.02590000  0.43940000  1.0 -0.0721643905
C  C56  1  0.54510000  0.00920000  0.47780000  1.0 -0.0533504759
C  C57  1  0.89540000  0.89910000  0.40020000  1.0 -0.1019767236
C  C58  1  0.91450000  0.81170000  0.36730000  1.0 -0.0297667191
C  C59  1  0.25600000  0.11280000  0.82850000  1.0 0.1186282661
C  C60  1  0.27170000  0.95980000  0.89260000  1.0 -0.124666461
C  C61  1  0.37410000  0.97410000  0.93940000  1.0 -0.0721643905
C  C62  1  0.45490000  0.99080000  0.97780000  1.0 -0.0533504759
C  C63  1  0.10460000  0.10090000  0.90020000  1.0 -0.1019767236
C  C64  1  0.08550000  0.18830000  0.86730000  1.0 -0.0297667191
C  C65  1  0.96070000  0.41190000  0.75000000  1.0 0.4998365778
C  C66  1  0.81240000  0.44730000  0.75000000  1.0 -0.0134522517
C  C67  1  0.78410000  0.54810000  0.75000000  1.0 -0.1019767236
C  C68  1  0.64880000  0.58220000  0.75000000  1.0 -0.0900241521
C  C69  1  0.54230000  0.51350000  0.75000000  1.0 -0.1132905197
C  C70  1  0.56910000  0.41160000  0.75000000  1.0 -0.0232187056
C  C71  1  0.70570000  0.37760000  0.75000000  1.0 -0.1396499735
C  C72  1  0.45150000  0.33970000  0.75000000  1.0 0.544450118
C  C73  1  0.03930000  0.58810000  0.25000000  1.0 0.4998365778
C  C74  1  0.18760000  0.55270000  0.25000000  1.0 -0.0134522517
C  C75  1  0.21590000  0.45190000  0.25000000  1.0 -0.1019767236
C  C76  1  0.35120000  0.41780000  0.25000000  1.0 -0.0900241521
C  C77  1  0.45770000  0.48650000  0.25000000  1.0 -0.1132905197
C  C78  1  0.43090000  0.58840000  0.25000000  1.0 -0.0232187056
C  C79  1  0.29430000  0.62240000  0.25000000  1.0 -0.1396499735
C  C80  1  0.54850000  0.66030000  0.25000000  1.0 0.544450118
N  N1  1  0.68070000  0.30530000  0.32280000  1.0 -0.2967101496
N  N2  1  0.71310000  0.44440000  0.37270000  1.0 0.053924199
N  N3  1  0.31930000  0.69470000  0.82280000  1.0 -0.2967101496
N  N4  1  0.28690000  0.55560000  0.87270000  1.0 0.053924199
N  N5  1  0.31930000  0.69470000  0.67720000  1.0 -0.2967101496
N  N6  1  0.28690000  0.55560000  0.62730000  1.0 0.053924199
N  N7  1  0.68070000  0.30530000  0.17720000  1.0 -0.2967101496
N  N8  1  0.71310000  0.44440000  0.12730000  1.0 0.053924199
N  N9  1  0.18070000  0.19470000  0.67720000  1.0 -0.2967101496
N  N10  1  0.21310000  0.05560000  0.62730000  1.0 0.053924199
N  N11  1  0.81930000  0.80530000  0.17720000  1.0 -0.2967101496
N  N12  1  0.78690000  0.94440000  0.12730000  1.0 0.053924199
N  N13  1  0.81930000  0.80530000  0.32280000  1.0 -0.2967101496
N  N14  1  0.78690000  0.94440000  0.37270000  1.0 0.053924199
N  N15  1  0.18070000  0.19470000  0.82280000  1.0 -0.2967101496
N  N16  1  0.21310000  0.05560000  0.87270000  1.0 0.053924199
O  O1  1  0.48650000  0.17480000  0.25000000  1.0 -0.4391981151
O  O2  1  0.54950000  0.02940000  0.25000000  1.0 -0.4391981151
O  O3  1  0.83220000  0.12060000  0.25000000  1.0 -0.5634563428
O  O4  1  0.97260000  0.25400000  0.25000000  1.0 -0.5767364961
O  O5  1  0.51350000  0.82520000  0.75000000  1.0 -0.4391981151
O  O6  1  0.45050000  0.97060000  0.75000000  1.0 -0.4391981151
O  O7  1  0.16780000  0.87940000  0.75000000  1.0 -0.5634563428
O  O8  1  0.02740000  0.74600000  0.75000000  1.0 -0.5767364961
O  O9  1  0.98650000  0.32520000  0.75000000  1.0 -0.4391981151
O  O10  1  0.04950000  0.47060000  0.75000000  1.0 -0.4391981151
O  O11  1  0.33220000  0.37940000  0.75000000  1.0 -0.5634563428
O  O12  1  0.47260000  0.24600000  0.75000000  1.0 -0.5767364961
O  O13  1  0.01350000  0.67480000  0.25000000  1.0 -0.4391981151
O  O14  1  0.95050000  0.52940000  0.25000000  1.0 -0.4391981151
O  O15  1  0.66780000  0.62060000  0.25000000  1.0 -0.5634563428
O  O16  1  0.52740000  0.75400000  0.25000000  1.0 -0.5767364961
