# DDEC6 charges by PACMAN v1.1 (https://github.com/mtap-research/PACMAN-charge/)
data_XEWCUA_FSR_pacman
_symmetry_space_group_name_H-M   'P 1'
_cell_length_a   16.89120000
_cell_length_b   16.89120000
_cell_length_c   6.66970000
_cell_angle_alpha   90.00000000
_cell_angle_beta   90.00000000
_cell_angle_gamma   120.00000000
_symmetry_Int_Tables_number   1
_chemical_formula_structural   Al(CO)5
_chemical_formula_sum   'Al6 C30 O30'
_cell_volume   1648.00278053
_cell_formula_units_Z   6
loop_
 _symmetry_equiv_pos_site_id
 _symmetry_equiv_pos_as_xyz
  1  'x, y, z'
loop_
 _atom_site_type_symbol
 _atom_site_label
 _atom_site_symmetry_multiplicity
 _atom_site_fract_x
 _atom_site_fract_y
 _atom_site_fract_z
 _atom_site_occupancy
 _atom_site_charge
Al  Al1  1  0.50000000  0.00000000  0.00000000  1.0 1.5576158464
Al  Al2  1  0.50000000  0.50000000  0.00000000  1.0 1.5576158464
Al  Al3  1  0.00000000  0.50000000  0.00000000  1.0 1.5576158464
Al  Al4  1  0.50000000  0.00000000  0.50000000  1.0 1.579292665
Al  Al5  1  0.50000000  0.50000000  0.50000000  1.0 1.579292665
Al  Al6  1  0.00000000  0.50000000  0.50000000  1.0 1.579292665
C  C1  1  0.44694000  0.33988000  0.74890000  1.0 0.583938559
C  C2  1  0.47666000  0.11858000  0.76106000  1.0 0.6362152398
C  C3  1  0.48728000  0.21399000  0.76710000  1.0 -0.0229280152
C  C4  1  0.42767000  0.24205000  0.78010000  1.0 -0.1485822796
C  C5  1  0.32902000  0.17562000  0.76390000  1.0 0.0899873203
C  C6  1  0.89294000  0.55306000  0.74890000  1.0 0.583938559
C  C7  1  0.64192000  0.52334000  0.76106000  1.0 0.6345950068
C  C8  1  0.72671000  0.51272000  0.76710000  1.0 -0.0278467578
C  C9  1  0.81438000  0.57233000  0.78010000  1.0 -0.1401621152
C  C10  1  0.84660000  0.67098000  0.76390000  1.0 0.0899873203
C  C11  1  0.66012000  0.10706000  0.74890000  1.0 0.583938559
C  C12  1  0.88142000  0.35808000  0.76106000  1.0 0.6362152398
C  C13  1  0.78601000  0.27329000  0.76710000  1.0 -0.0229280152
C  C14  1  0.75795000  0.18562000  0.78010000  1.0 -0.1485822796
C  C15  1  0.82438000  0.15340000  0.76390000  1.0 0.0899873203
C  C16  1  0.55306000  0.66012000  0.25110000  1.0 0.5864214799
C  C17  1  0.52334000  0.88142000  0.23894000  1.0 0.6345950068
C  C18  1  0.51272000  0.78601000  0.23290000  1.0 -0.0278467578
C  C19  1  0.57233000  0.75795000  0.21990000  1.0 -0.1401621152
C  C20  1  0.67098000  0.82438000  0.23610000  1.0 0.0899873203
C  C21  1  0.10706000  0.44694000  0.25110000  1.0 0.5864214799
C  C22  1  0.35808000  0.47666000  0.23894000  1.0 0.6345950068
C  C23  1  0.27329000  0.48728000  0.23290000  1.0 -0.0229280152
C  C24  1  0.18562000  0.42767000  0.21990000  1.0 -0.1401621152
C  C25  1  0.15340000  0.32902000  0.23610000  1.0 0.0899873203
C  C26  1  0.33988000  0.89294000  0.25110000  1.0 0.583938559
C  C27  1  0.11858000  0.64192000  0.23894000  1.0 0.6362152398
C  C28  1  0.21399000  0.72671000  0.23290000  1.0 -0.0229280152
C  C29  1  0.24205000  0.81438000  0.21990000  1.0 -0.1485822796
C  C30  1  0.17562000  0.84660000  0.23610000  1.0 0.0837766728
O  O1  1  0.46125000  0.94836000  0.75136000  1.0 -0.6412111619
O  O2  1  0.48660000  0.10140000  0.58424000  1.0 -0.5371612767
O  O3  1  0.47589000  0.09629000  0.93849000  1.0 -0.5506362914
O  O4  1  0.44448000  0.37576000  0.90701000  1.0 -0.4856070677
O  O5  1  0.44868000  0.37918000  0.59335000  1.0 -0.4802275266
O  O6  1  0.48711000  0.53875000  0.75136000  1.0 -0.6477535466
O  O7  1  0.61480000  0.51340000  0.58424000  1.0 -0.5371612767
O  O8  1  0.62040000  0.52411000  0.93849000  1.0 -0.5506362914
O  O9  1  0.93128000  0.55552000  0.90701000  1.0 -0.4802275266
O  O10  1  0.93050000  0.55132000  0.59335000  1.0 -0.4802275266
O  O11  1  0.05164000  0.51289000  0.75136000  1.0 -0.6638703147
O  O12  1  0.89860000  0.38520000  0.58424000  1.0 -0.5371612767
O  O13  1  0.90371000  0.37960000  0.93849000  1.0 -0.5506362914
O  O14  1  0.62424000  0.06872000  0.90701000  1.0 -0.4856070677
O  O15  1  0.62082000  0.06950000  0.59335000  1.0 -0.4802275266
O  O16  1  0.53875000  0.05164000  0.24864000  1.0 -0.6658641794
O  O17  1  0.51340000  0.89860000  0.41576000  1.0 -0.5371612767
O  O18  1  0.52411000  0.90371000  0.06151000  1.0 -0.5506362914
O  O19  1  0.55552000  0.62424000  0.09299000  1.0 -0.4802275266
O  O20  1  0.55132000  0.62082000  0.40665000  1.0 -0.4802275266
O  O21  1  0.51289000  0.46125000  0.24864000  1.0 -0.6658641794
O  O22  1  0.38520000  0.48660000  0.41576000  1.0 -0.5349012116
O  O23  1  0.37960000  0.47589000  0.06151000  1.0 -0.5506362914
O  O24  1  0.06872000  0.44448000  0.09299000  1.0 -0.4802275266
O  O25  1  0.06950000  0.44868000  0.40665000  1.0 -0.4802275266
O  O26  1  0.94836000  0.48711000  0.24864000  1.0 -0.6638703147
O  O27  1  0.10140000  0.61480000  0.41576000  1.0 -0.5371612767
O  O28  1  0.09629000  0.62040000  0.06151000  1.0 -0.5506362914
O  O29  1  0.37576000  0.93128000  0.09299000  1.0 -0.4856070677
O  O30  1  0.37918000  0.93050000  0.40665000  1.0 -0.4802275266
