# DDEC6 charges by PACMAN v1.1 (https://github.com/mtap-research/PACMAN-charge/)
data_XEWZAD_ASR_pacman
_symmetry_space_group_name_H-M   'P 1'
_cell_length_a   20.14660000
_cell_length_b   20.14660000
_cell_length_c   25.01100000
_cell_angle_alpha   57.15570000
_cell_angle_beta   122.84400000
_cell_angle_gamma   126.28600000
_symmetry_Int_Tables_number   1
_chemical_formula_structural   Co14H151C85(N2O9)6
_chemical_formula_sum   'Co28 H302 C170 N24 O108'
_cell_volume   6497.17775429
_cell_formula_units_Z   2
loop_
 _symmetry_equiv_pos_site_id
 _symmetry_equiv_pos_as_xyz
  1  'x, y, z'
loop_
 _atom_site_type_symbol
 _atom_site_label
 _atom_site_symmetry_multiplicity
 _atom_site_fract_x
 _atom_site_fract_y
 _atom_site_fract_z
 _atom_site_occupancy
 _atom_site_charge
Co  Co1  1  0.32486000  0.03124000  0.21535000  1.0 0.8284067662
Co  Co2  1  0.50244000  0.13338000  0.18756000  1.0 0.8117355408
Co  Co3  1  0.35967000  0.96567000  0.15535000  1.0 0.6648689808
Co  Co4  1  0.15854000  0.93338000  0.24274000  1.0 0.6864874066
Co  Co5  1  0.46016000  0.19374000  0.24989000  1.0 0.6967297645
Co  Co6  1  0.29250000  0.09982000  0.28327000  1.0 0.8864344807
Co  Co7  1  0.18298000  0.85944000  0.17785000  1.0 0.8641835751
Co  Co8  1  0.03124000  0.32486000  0.28465000  1.0 0.8284067662
Co  Co9  1  0.13338000  0.50244000  0.31244000  1.0 0.8117355408
Co  Co10  1  0.96567000  0.35967000  0.34465000  1.0 0.6670573057
Co  Co11  1  0.93338000  0.15854000  0.25726000  1.0 0.6837713422
Co  Co12  1  0.19374000  0.46016000  0.25011000  1.0 0.6967297645
Co  Co13  1  0.09982000  0.29250000  0.21673000  1.0 0.8864344807
Co  Co14  1  0.85944000  0.18298000  0.32215000  1.0 0.8641835751
Co  Co15  1  0.67514000  0.96876000  0.78465000  1.0 0.8284067662
Co  Co16  1  0.49756000  0.86662000  0.81244000  1.0 0.8117355408
Co  Co17  1  0.64033000  0.03433000  0.84465000  1.0 0.6648689808
Co  Co18  1  0.84146000  0.06662000  0.75726000  1.0 0.6837713422
Co  Co19  1  0.53984000  0.80626000  0.75011000  1.0 0.6967297645
Co  Co20  1  0.70750000  0.90018000  0.71673000  1.0 0.8864344807
Co  Co21  1  0.81702000  0.14056000  0.82215000  1.0 0.8641835751
Co  Co22  1  0.96876000  0.67514000  0.71535000  1.0 0.8284067662
Co  Co23  1  0.86662000  0.49756000  0.68756000  1.0 0.8117355408
Co  Co24  1  0.03433000  0.64033000  0.65535000  1.0 0.6648689808
Co  Co25  1  0.06662000  0.84146000  0.74274000  1.0 0.6837713422
Co  Co26  1  0.80626000  0.53984000  0.74989000  1.0 0.6967297645
Co  Co27  1  0.90018000  0.70750000  0.78327000  1.0 0.8864344807
Co  Co28  1  0.14056000  0.81702000  0.67785000  1.0 0.8641835751
H  H1  1  0.10370000  0.77670000  0.28630000  1.0 0.2577773818
H  H2  1  0.50560000  0.97680000  0.20150000  1.0 0.2577773818
H  H3  1  0.24120000  0.90500000  0.06780000  1.0 0.2523458303
H  H4  1  0.51610000  0.96710000  0.30940000  1.0 0.100873527
H  H5  1  0.42650000  0.90530000  0.32310000  1.0 0.100873527
H  H6  1  0.17920000  0.00320000  0.03970000  1.0 0.100873527
H  H7  1  0.25240000  0.09400000  0.04900000  1.0 0.100873527
H  H8  1  0.32260000  0.30820000  0.15740000  1.0 0.100873527
H  H9  1  0.43330000  0.03290000  0.39710000  1.0 0.100873527
H  H10  1  0.46360000  0.00580000  0.36870000  1.0 0.1100553213
H  H11  1  0.04190000  0.88890000  0.31480000  1.0 0.1196826362
H  H12  1  0.94710000  0.81790000  0.29750000  1.0 0.1100553213
H  H13  1  0.38370000  0.16350000  0.02960000  1.0 0.100873527
H  H14  1  0.41460000  0.11780000  0.01810000  1.0 0.100873527
H  H15  1  0.25730000  0.79570000  0.33500000  1.0 0.100873527
H  H16  1  0.32300000  0.87680000  0.36000000  1.0 0.1100553213
H  H17  1  0.06420000  0.96740000  0.07320000  1.0 0.100873527
H  H18  1  0.98840000  0.90080000  0.10430000  1.0 0.100873527
H  H19  1  0.28590000  0.00230000  0.46570000  1.0 0.1196826362
H  H20  1  0.31850000  0.81570000  0.12310000  1.0 0.129332473
H  H21  1  0.37070000  0.83170000  0.08540000  1.0 0.1196826362
H  H22  1  0.09190000  0.01670000  0.22160000  1.0 0.2696031631
H  H23  1  0.53540000  0.31320000  0.17030000  1.0 0.2577773818
H  H24  1  0.12670000  0.65890000  0.36580000  1.0 0.341699511
H  H25  1  0.48340000  0.19460000  0.35480000  1.0 0.2577773818
H  H26  1  0.25390000  0.04650000  0.58610000  1.0 0.1196826362
H  H27  1  0.28710000  0.92130000  0.40710000  1.0 0.1100553213
H  H28  1  0.19080000  0.88740000  0.40110000  1.0 0.1100553213
H  H29  1  0.32810000  0.77750000  0.29140000  1.0 0.100873527
H  H30  1  0.33370000  0.76230000  0.23890000  1.0 0.100873527
H  H31  1  0.17300000  0.68560000  0.23600000  1.0 0.1100553213
H  H32  1  0.19390000  0.11410000  0.93690000  1.0 0.2942746283
H  H33  1  0.64680000  0.14020000  0.35430000  1.0 0.100873527
H  H34  1  0.64860000  0.28460000  0.38080000  1.0 0.100873527
H  H35  1  0.58190000  0.31990000  0.35570000  1.0 0.1196826362
H  H36  1  0.95310000  0.86510000  0.19160000  1.0 0.1100553213
H  H37  1  0.95070000  0.92910000  0.20730000  1.0 0.1100553213
H  H38  1  0.52050000  0.74010000  0.33570000  1.0 0.1805358941
H  H39  1  0.39570000  0.24390000  0.46600000  1.0 0.100873527
H  H40  1  0.44900000  0.43220000  0.00110000  1.0 0.298973173
H  H41  1  0.04840000  0.76220000  0.36590000  1.0 0.100873527
H  H42  1  0.98980000  0.73700000  0.30020000  1.0 0.1100553213
H  H43  1  0.15960000  0.73380000  0.44520000  1.0 0.1100553213
H  H44  1  0.25140000  0.74980000  0.45540000  1.0 0.1196826362
H  H45  1  0.58490000  0.43590000  0.18700000  1.0 0.092275863
H  H46  1  0.52160000  0.39060000  0.22700000  1.0 0.1100553213
H  H47  1  0.71230000  0.15450000  0.46090000  1.0 0.2264974566
H  H48  1  0.45900000  0.83300000  0.19340000  1.0 0.0842109892
H  H49  1  0.49660000  0.92480000  0.14230000  1.0 0.100873527
H  H50  1  0.30230000  0.91630000  0.00840000  1.0 0.092275863
H  H51  1  0.39390000  0.98330000  0.03960000  1.0 0.100873527
H  H52  1  0.00980000  0.14200000  0.09310000  1.0 0.3108731808
H  H53  1  0.19330000  0.99590000  0.94760000  1.0 0.1196826362
H  H54  1  0.28260000  0.06080000  0.93410000  1.0 0.100873527
H  H55  1  0.16520000  0.13440000  0.13490000  1.0 0.1100553213
H  H56  1  0.17070000  0.09870000  0.09580000  1.0 0.100873527
H  H57  1  0.50870000  0.82070000  0.36070000  1.0 0.1100553213
H  H58  1  0.56030000  0.87410000  0.31030000  1.0 0.092275863
H  H59  1  0.59160000  0.05420000  0.47000000  1.0 0.129332473
H  H60  1  0.57090000  0.11810000  0.46980000  1.0 0.1100553213
H  H61  1  0.94230000  0.00210000  0.07300000  1.0 0.092275863
H  H62  1  0.01350000  0.09070000  0.04390000  1.0 0.092275863
H  H63  1  0.43690000  0.43630000  0.09210000  1.0 0.100873527
H  H64  1  0.36260000  0.38220000  0.04300000  1.0 0.092275863
H  H65  1  0.33260000  0.19300000  0.54250000  1.0 0.100873527
H  H66  1  0.40390000  0.25150000  0.08020000  1.0 0.100873527
H  H67  1  0.31610000  0.21010000  0.09210000  1.0 0.1100553213
H  H68  1  0.67180000  0.41220000  0.29310000  1.0 0.1100553213
H  H69  1  0.65000000  0.33680000  0.27530000  1.0 0.1196826362
H  H70  1  0.48170000  0.77510000  0.31450000  1.0 0.0842109892
H  H71  1  0.51320000  0.82520000  0.36080000  1.0 0.1100553213
H  H72  1  0.65570000  0.15930000  0.45560000  1.0 0.100873527
H  H73  1  0.60120000  0.05880000  0.46850000  1.0 0.129332473
H  H74  1  0.52950000  0.13890000  0.46110000  1.0 0.2399334909
H  H75  1  0.58310000  0.86950000  0.27990000  1.0 0.2139251681
H  H76  1  0.77670000  0.10370000  0.21370000  1.0 0.2577773818
H  H77  1  0.97680000  0.50560000  0.29850000  1.0 0.2577773818
H  H78  1  0.90500000  0.24120000  0.43220000  1.0 0.2523458303
H  H79  1  0.96710000  0.51610000  0.19060000  1.0 0.100873527
H  H80  1  0.90530000  0.42650000  0.17690000  1.0 0.100873527
H  H81  1  0.00320000  0.17920000  0.46030000  1.0 0.100873527
H  H82  1  0.09400000  0.25240000  0.45100000  1.0 0.100873527
H  H83  1  0.30820000  0.32260000  0.34260000  1.0 0.100873527
H  H84  1  0.03290000  0.43330000  0.10290000  1.0 0.100873527
H  H85  1  0.00580000  0.46360000  0.13130000  1.0 0.1100553213
H  H86  1  0.88890000  0.04190000  0.18520000  1.0 0.1196826362
H  H87  1  0.81790000  0.94710000  0.20250000  1.0 0.1100553213
H  H88  1  0.16350000  0.38370000  0.47040000  1.0 0.100873527
H  H89  1  0.11780000  0.41460000  0.48190000  1.0 0.100873527
H  H90  1  0.79570000  0.25730000  0.16500000  1.0 0.100873527
H  H91  1  0.87680000  0.32300000  0.14000000  1.0 0.1100553213
H  H92  1  0.96740000  0.06420000  0.42680000  1.0 0.100873527
H  H93  1  0.90080000  0.98840000  0.39570000  1.0 0.100873527
H  H94  1  0.00230000  0.28590000  0.03430000  1.0 0.1196826362
H  H95  1  0.81570000  0.31850000  0.37690000  1.0 0.129332473
H  H96  1  0.83170000  0.37070000  0.41460000  1.0 0.1196826362
H  H97  1  0.01670000  0.09190000  0.27840000  1.0 0.2696031631
H  H98  1  0.31320000  0.53540000  0.32970000  1.0 0.2577773818
H  H99  1  0.65890000  0.12670000  0.13420000  1.0 0.341699511
H  H100  1  0.19460000  0.48340000  0.14520000  1.0 0.2577773818
H  H101  1  0.04650000  0.25390000  0.91390000  1.0 0.1196826362
H  H102  1  0.92130000  0.28710000  0.09290000  1.0 0.1100553213
H  H103  1  0.88740000  0.19080000  0.09890000  1.0 0.1100553213
H  H104  1  0.77750000  0.32810000  0.20860000  1.0 0.100873527
H  H105  1  0.76230000  0.33370000  0.26110000  1.0 0.100873527
H  H106  1  0.68560000  0.17300000  0.26400000  1.0 0.1100553213
H  H107  1  0.11410000  0.19390000  0.56310000  1.0 0.2942746283
H  H108  1  0.14020000  0.64680000  0.14570000  1.0 0.100873527
H  H109  1  0.28460000  0.64860000  0.11920000  1.0 0.100873527
H  H110  1  0.31990000  0.58190000  0.14430000  1.0 0.1196826362
H  H111  1  0.86510000  0.95310000  0.30840000  1.0 0.1100553213
H  H112  1  0.92910000  0.95070000  0.29270000  1.0 0.1100553213
H  H113  1  0.74010000  0.52050000  0.16430000  1.0 0.1805358941
H  H114  1  0.24390000  0.39570000  0.03400000  1.0 0.100873527
H  H115  1  0.43220000  0.44900000  0.49890000  1.0 0.298973173
H  H116  1  0.76220000  0.04840000  0.13410000  1.0 0.100873527
H  H117  1  0.73700000  0.98980000  0.19980000  1.0 0.1100553213
H  H118  1  0.73380000  0.15960000  0.05480000  1.0 0.1100553213
H  H119  1  0.74980000  0.25140000  0.04460000  1.0 0.1196826362
H  H120  1  0.43590000  0.58490000  0.31300000  1.0 0.092275863
H  H121  1  0.39060000  0.52160000  0.27300000  1.0 0.1100553213
H  H122  1  0.15450000  0.71230000  0.03910000  1.0 0.2264974566
H  H123  1  0.83300000  0.45900000  0.30660000  1.0 0.0842109892
H  H124  1  0.92480000  0.49660000  0.35770000  1.0 0.100873527
H  H125  1  0.91630000  0.30230000  0.49160000  1.0 0.092275863
H  H126  1  0.98330000  0.39390000  0.46040000  1.0 0.100873527
H  H127  1  0.14200000  0.00980000  0.40690000  1.0 0.3108731808
H  H128  1  0.99590000  0.19330000  0.55240000  1.0 0.1196826362
H  H129  1  0.06080000  0.28260000  0.56590000  1.0 0.100873527
H  H130  1  0.13440000  0.16520000  0.36510000  1.0 0.1100553213
H  H131  1  0.09870000  0.17070000  0.40420000  1.0 0.100873527
H  H132  1  0.82070000  0.50870000  0.13930000  1.0 0.1100553213
H  H133  1  0.87410000  0.56030000  0.18970000  1.0 0.092275863
H  H134  1  0.05420000  0.59160000  0.03000000  1.0 0.129332473
H  H135  1  0.11810000  0.57090000  0.03020000  1.0 0.1100553213
H  H136  1  0.00210000  0.94230000  0.42700000  1.0 0.092275863
H  H137  1  0.09070000  0.01350000  0.45610000  1.0 0.092275863
H  H138  1  0.43630000  0.43690000  0.40790000  1.0 0.100873527
H  H139  1  0.38220000  0.36260000  0.45700000  1.0 0.092275863
H  H140  1  0.19300000  0.33260000  0.95750000  1.0 0.100873527
H  H141  1  0.25150000  0.40390000  0.41980000  1.0 0.100873527
H  H142  1  0.21010000  0.31610000  0.40790000  1.0 0.1100553213
H  H143  1  0.41220000  0.67180000  0.20690000  1.0 0.1100553213
H  H144  1  0.33680000  0.65000000  0.22470000  1.0 0.1196826362
H  H145  1  0.77510000  0.48170000  0.18550000  1.0 0.0842109892
H  H146  1  0.82520000  0.51320000  0.13920000  1.0 0.1100553213
H  H147  1  0.15930000  0.65570000  0.04440000  1.0 0.100873527
H  H148  1  0.05880000  0.60120000  0.03150000  1.0 0.129332473
H  H149  1  0.13890000  0.52950000  0.03890000  1.0 0.2399334909
H  H150  1  0.86950000  0.58310000  0.22010000  1.0 0.2139251681
H  H151  1  0.89630000  0.22330000  0.71370000  1.0 0.2577773818
H  H152  1  0.49440000  0.02320000  0.79850000  1.0 0.2577773818
H  H153  1  0.75880000  0.09500000  0.93220000  1.0 0.2523458303
H  H154  1  0.48390000  0.03290000  0.69060000  1.0 0.100873527
H  H155  1  0.57350000  0.09470000  0.67690000  1.0 0.100873527
H  H156  1  0.82080000  0.99680000  0.96030000  1.0 0.100873527
H  H157  1  0.74760000  0.90600000  0.95100000  1.0 0.100873527
H  H158  1  0.67740000  0.69180000  0.84260000  1.0 0.100873527
H  H159  1  0.56670000  0.96710000  0.60290000  1.0 0.100873527
H  H160  1  0.53640000  0.99420000  0.63130000  1.0 0.1100553213
H  H161  1  0.95810000  0.11110000  0.68520000  1.0 0.1196826362
H  H162  1  0.05290000  0.18210000  0.70250000  1.0 0.1100553213
H  H163  1  0.61630000  0.83650000  0.97040000  1.0 0.100873527
H  H164  1  0.58540000  0.88220000  0.98190000  1.0 0.100873527
H  H165  1  0.74270000  0.20430000  0.66500000  1.0 0.100873527
H  H166  1  0.67700000  0.12320000  0.64000000  1.0 0.1100553213
H  H167  1  0.93580000  0.03260000  0.92680000  1.0 0.100873527
H  H168  1  0.01160000  0.09920000  0.89570000  1.0 0.100873527
H  H169  1  0.71410000  0.99770000  0.53430000  1.0 0.1196826362
H  H170  1  0.68150000  0.18430000  0.87690000  1.0 0.129332473
H  H171  1  0.62930000  0.16830000  0.91460000  1.0 0.1196826362
H  H172  1  0.90810000  0.98330000  0.77840000  1.0 0.2696031631
H  H173  1  0.46460000  0.68680000  0.82970000  1.0 0.2577773818
H  H174  1  0.87330000  0.34110000  0.63420000  1.0 0.341699511
H  H175  1  0.51660000  0.80540000  0.64520000  1.0 0.2577773818
H  H176  1  0.74610000  0.95350000  0.41390000  1.0 0.1196826362
H  H177  1  0.71290000  0.07870000  0.59290000  1.0 0.1100553213
H  H178  1  0.80920000  0.11260000  0.59890000  1.0 0.1100553213
H  H179  1  0.67190000  0.22250000  0.70860000  1.0 0.100873527
H  H180  1  0.66630000  0.23770000  0.76110000  1.0 0.100873527
H  H181  1  0.82700000  0.31440000  0.76400000  1.0 0.1100553213
H  H182  1  0.80610000  0.88590000  0.06310000  1.0 0.2942746283
H  H183  1  0.35320000  0.85980000  0.64570000  1.0 0.100873527
H  H184  1  0.35140000  0.71540000  0.61920000  1.0 0.100873527
H  H185  1  0.41810000  0.68010000  0.64430000  1.0 0.1196826362
H  H186  1  0.04690000  0.13490000  0.80840000  1.0 0.1100553213
H  H187  1  0.04930000  0.07090000  0.79270000  1.0 0.1100553213
H  H188  1  0.47950000  0.25990000  0.66430000  1.0 0.1805358941
H  H189  1  0.60430000  0.75610000  0.53400000  1.0 0.100873527
H  H190  1  0.55100000  0.56780000  0.99890000  1.0 0.298973173
H  H191  1  0.95160000  0.23780000  0.63410000  1.0 0.100873527
H  H192  1  0.01020000  0.26300000  0.69980000  1.0 0.1100553213
H  H193  1  0.84040000  0.26620000  0.55480000  1.0 0.1100553213
H  H194  1  0.74860000  0.25020000  0.54460000  1.0 0.1196826362
H  H195  1  0.41510000  0.56410000  0.81300000  1.0 0.092275863
H  H196  1  0.47840000  0.60940000  0.77300000  1.0 0.1100553213
H  H197  1  0.28770000  0.84550000  0.53910000  1.0 0.2264974566
H  H198  1  0.54100000  0.16700000  0.80660000  1.0 0.0842109892
H  H199  1  0.50340000  0.07520000  0.85770000  1.0 0.100873527
H  H200  1  0.69770000  0.08370000  0.99160000  1.0 0.092275863
H  H201  1  0.60610000  0.01670000  0.96040000  1.0 0.100873527
H  H202  1  0.99020000  0.85800000  0.90690000  1.0 0.3108731808
H  H203  1  0.80670000  0.00410000  0.05240000  1.0 0.1196826362
H  H204  1  0.71740000  0.93920000  0.06590000  1.0 0.100873527
H  H205  1  0.83480000  0.86560000  0.86510000  1.0 0.1100553213
H  H206  1  0.82930000  0.90130000  0.90420000  1.0 0.100873527
H  H207  1  0.49130000  0.17930000  0.63930000  1.0 0.1100553213
H  H208  1  0.43970000  0.12590000  0.68970000  1.0 0.092275863
H  H209  1  0.40840000  0.94580000  0.53000000  1.0 0.129332473
H  H210  1  0.42910000  0.88190000  0.53020000  1.0 0.1100553213
H  H211  1  0.05770000  0.99790000  0.92700000  1.0 0.092275863
H  H212  1  0.98650000  0.90930000  0.95610000  1.0 0.092275863
H  H213  1  0.56310000  0.56370000  0.90790000  1.0 0.100873527
H  H214  1  0.63740000  0.61780000  0.95700000  1.0 0.092275863
H  H215  1  0.66740000  0.80700000  0.45750000  1.0 0.100873527
H  H216  1  0.59610000  0.74850000  0.91980000  1.0 0.100873527
H  H217  1  0.68390000  0.78990000  0.90790000  1.0 0.1100553213
H  H218  1  0.32820000  0.58780000  0.70690000  1.0 0.1100553213
H  H219  1  0.35000000  0.66320000  0.72470000  1.0 0.1196826362
H  H220  1  0.51830000  0.22490000  0.68550000  1.0 0.0842109892
H  H221  1  0.48680000  0.17480000  0.63920000  1.0 0.1100553213
H  H222  1  0.34430000  0.84070000  0.54440000  1.0 0.100873527
H  H223  1  0.39880000  0.94120000  0.53150000  1.0 0.129332473
H  H224  1  0.47050000  0.86110000  0.53890000  1.0 0.2399334909
H  H225  1  0.41690000  0.13050000  0.72010000  1.0 0.2139251681
H  H226  1  0.22330000  0.89630000  0.78630000  1.0 0.2577773818
H  H227  1  0.02320000  0.49440000  0.70150000  1.0 0.2577773818
H  H228  1  0.09500000  0.75880000  0.56780000  1.0 0.2523458303
H  H229  1  0.03290000  0.48390000  0.80940000  1.0 0.100873527
H  H230  1  0.09470000  0.57350000  0.82310000  1.0 0.100873527
H  H231  1  0.99680000  0.82080000  0.53970000  1.0 0.100873527
H  H232  1  0.90600000  0.74760000  0.54900000  1.0 0.100873527
H  H233  1  0.69180000  0.67740000  0.65740000  1.0 0.100873527
H  H234  1  0.96710000  0.56670000  0.89710000  1.0 0.100873527
H  H235  1  0.99420000  0.53640000  0.86870000  1.0 0.1100553213
H  H236  1  0.11110000  0.95810000  0.81480000  1.0 0.1196826362
H  H237  1  0.18210000  0.05290000  0.79750000  1.0 0.1100553213
H  H238  1  0.83650000  0.61630000  0.52960000  1.0 0.100873527
H  H239  1  0.88220000  0.58540000  0.51810000  1.0 0.100873527
H  H240  1  0.20430000  0.74270000  0.83500000  1.0 0.100873527
H  H241  1  0.12320000  0.67700000  0.86000000  1.0 0.1100553213
H  H242  1  0.03260000  0.93580000  0.57320000  1.0 0.100873527
H  H243  1  0.09920000  0.01160000  0.60430000  1.0 0.100873527
H  H244  1  0.99770000  0.71410000  0.96570000  1.0 0.1196826362
H  H245  1  0.18430000  0.68150000  0.62310000  1.0 0.129332473
H  H246  1  0.16830000  0.62930000  0.58540000  1.0 0.1196826362
H  H247  1  0.98330000  0.90810000  0.72160000  1.0 0.2696031631
H  H248  1  0.68680000  0.46460000  0.67030000  1.0 0.2577773818
H  H249  1  0.34110000  0.87330000  0.86580000  1.0 0.341699511
H  H250  1  0.80540000  0.51660000  0.85480000  1.0 0.2577773818
H  H251  1  0.95350000  0.74610000  0.08610000  1.0 0.1196826362
H  H252  1  0.07870000  0.71290000  0.90710000  1.0 0.1100553213
H  H253  1  0.11260000  0.80920000  0.90110000  1.0 0.1100553213
H  H254  1  0.22250000  0.67190000  0.79140000  1.0 0.100873527
H  H255  1  0.23770000  0.66630000  0.73890000  1.0 0.100873527
H  H256  1  0.31440000  0.82700000  0.73600000  1.0 0.1100553213
H  H257  1  0.88590000  0.80610000  0.43690000  1.0 0.2942746283
H  H258  1  0.85980000  0.35320000  0.85430000  1.0 0.100873527
H  H259  1  0.71540000  0.35140000  0.88080000  1.0 0.100873527
H  H260  1  0.68010000  0.41810000  0.85570000  1.0 0.1196826362
H  H261  1  0.13490000  0.04690000  0.69160000  1.0 0.1100553213
H  H262  1  0.07090000  0.04930000  0.70730000  1.0 0.1100553213
H  H263  1  0.25990000  0.47950000  0.83570000  1.0 0.1805358941
H  H264  1  0.75610000  0.60430000  0.96600000  1.0 0.100873527
H  H265  1  0.56780000  0.55100000  0.50110000  1.0 0.298973173
H  H266  1  0.23780000  0.95160000  0.86590000  1.0 0.100873527
H  H267  1  0.26300000  0.01020000  0.80020000  1.0 0.1100553213
H  H268  1  0.26620000  0.84040000  0.94520000  1.0 0.1100553213
H  H269  1  0.25020000  0.74860000  0.95540000  1.0 0.1196826362
H  H270  1  0.56410000  0.41510000  0.68700000  1.0 0.092275863
H  H271  1  0.60940000  0.47840000  0.72700000  1.0 0.1100553213
H  H272  1  0.84550000  0.28770000  0.96090000  1.0 0.2264974566
H  H273  1  0.16700000  0.54100000  0.69340000  1.0 0.0842109892
H  H274  1  0.07520000  0.50340000  0.64230000  1.0 0.100873527
H  H275  1  0.08370000  0.69770000  0.50840000  1.0 0.092275863
H  H276  1  0.01670000  0.60610000  0.53960000  1.0 0.100873527
H  H277  1  0.85800000  0.99020000  0.59310000  1.0 0.3108731808
H  H278  1  0.00410000  0.80670000  0.44760000  1.0 0.1196826362
H  H279  1  0.93920000  0.71740000  0.43410000  1.0 0.100873527
H  H280  1  0.86560000  0.83480000  0.63490000  1.0 0.1100553213
H  H281  1  0.90130000  0.82930000  0.59580000  1.0 0.100873527
H  H282  1  0.17930000  0.49130000  0.86070000  1.0 0.1100553213
H  H283  1  0.12590000  0.43970000  0.81030000  1.0 0.092275863
H  H284  1  0.94580000  0.40840000  0.97000000  1.0 0.129332473
H  H285  1  0.88190000  0.42910000  0.96980000  1.0 0.1100553213
H  H286  1  0.99790000  0.05770000  0.57300000  1.0 0.092275863
H  H287  1  0.90930000  0.98650000  0.54390000  1.0 0.092275863
H  H288  1  0.56370000  0.56310000  0.59210000  1.0 0.100873527
H  H289  1  0.61780000  0.63740000  0.54300000  1.0 0.092275863
H  H290  1  0.80700000  0.66740000  0.04250000  1.0 0.100873527
H  H291  1  0.74850000  0.59610000  0.58020000  1.0 0.100873527
H  H292  1  0.78990000  0.68390000  0.59210000  1.0 0.1100553213
H  H293  1  0.58780000  0.32820000  0.79310000  1.0 0.1100553213
H  H294  1  0.66320000  0.35000000  0.77530000  1.0 0.1196826362
H  H295  1  0.22490000  0.51830000  0.81450000  1.0 0.0842109892
H  H296  1  0.17480000  0.48680000  0.86080000  1.0 0.1100553213
H  H297  1  0.84070000  0.34430000  0.95560000  1.0 0.100873527
H  H298  1  0.94120000  0.39880000  0.96850000  1.0 0.129332473
H  H299  1  0.86110000  0.47050000  0.96110000  1.0 0.2399334909
H  H300  1  0.13050000  0.41690000  0.77990000  1.0 0.2139251681
H  H301  1  0.24110000  0.24110000  0.25000000  1.0 0.1196826362
H  H302  1  0.75890000  0.75890000  0.75000000  1.0 0.1196826362
C  C1  1  0.45390000  0.93670000  0.28910000  1.0 -0.1234236731
C  C2  1  0.24120000  0.03520000  0.05900000  1.0 -0.1234236731
C  C3  1  0.35860000  0.28260000  0.17310000  1.0 -0.0999066744
C  C4  1  0.45680000  0.05320000  0.36320000  1.0 -0.1109855422
C  C5  1  0.19900000  0.82540000  0.36220000  1.0 0.1722748393
C  C6  1  0.00150000  0.84930000  0.28890000  1.0 -0.2283498066
C  C7  1  0.41490000  0.30710000  0.13640000  1.0 0.1605124103
C  C8  1  0.34710000  0.12910000  0.45750000  1.0 -0.0315572911
C  C9  1  0.38480000  0.10900000  0.04300000  1.0 -0.080322119
C  C10  1  0.26380000  0.84860000  0.33310000  1.0 -0.0885198863
C  C11  1  0.29170000  0.03790000  0.02820000  1.0 0.1722748393
C  C12  1  0.04940000  0.94120000  0.11340000  1.0 -0.0885198863
C  C13  1  0.29660000  0.04060000  0.48210000  1.0 -0.1714988051
C  C14  1  0.36560000  0.85900000  0.10440000  1.0 -0.238105554
C  C15  1  0.26210000  0.00870000  0.53050000  1.0 -0.0436759068
C  C16  1  0.27670000  0.06690000  0.55340000  1.0 -0.1109855422
C  C17  1  0.22680000  0.90320000  0.37810000  1.0 -0.0885198863
C  C18  1  0.34300000  0.80620000  0.25090000  1.0 -0.0999066744
C  C19  1  0.13030000  0.67290000  0.24920000  1.0 0.4322321715
C  C20  1  0.59540000  0.14620000  0.33520000  1.0 -0.1967894172
C  C21  1  0.43710000  0.87150000  0.26330000  1.0 0.1542732829
C  C22  1  0.38230000  0.16230000  0.40400000  1.0 0.550012529
C  C23  1  0.59840000  0.29440000  0.34380000  1.0 -0.0710031678
C  C24  1  0.98560000  0.90180000  0.21920000  1.0 -0.080322119
C  C25  1  0.36120000  0.18480000  0.48140000  1.0 -0.129275482
C  C26  1  0.03570000  0.78510000  0.31750000  1.0 -0.080322119
C  C27  1  0.19340000  0.74300000  0.42340000  1.0 -0.0885198863
C  C28  1  0.55730000  0.38210000  0.21850000  1.0 -0.0710031678
C  C29  1  0.44878000  0.88458000  0.16050000  1.0 -0.0885198863
C  C30  1  0.34190000  0.93210000  0.04900000  1.0 -0.0710031678
C  C31  1  0.24440000  0.04960000  0.95310000  1.0 -0.0999066744
C  C32  1  0.06600000  0.01140000  0.13200000  1.0 0.1805358941
C  C33  1  0.15930000  0.08290000  0.13500000  1.0 -0.0999066744
C  C34  1  0.50370000  0.83210000  0.31600000  1.0 -0.0315572911
C  C35  1  0.59700000  0.11340000  0.44950000  1.0 -0.064522879
C  C36  1  0.99930000  0.04850000  0.08490000  1.0 -0.1109855422
C  C37  1  0.41970000  0.39130000  0.07720000  1.0 -0.0710031678
C  C38  1  0.32460000  0.15420000  0.52810000  1.0 -0.129275482
C  C39  1  0.37880000  0.23120000  0.11310000  1.0 -0.0885198863
C  C40  1  0.54610000  0.13070000  0.37370000  1.0 0.1374098809
C  C41  1  0.62540000  0.35900000  0.28300000  1.0 -0.2283498066
C  C42  1  0.20680000  0.91300000  0.55610000  1.0 0.550012529
C  C43  1  0.93670000  0.45390000  0.21090000  1.0 -0.1234236731
C  C44  1  0.03520000  0.24120000  0.44100000  1.0 -0.1234236731
C  C45  1  0.28260000  0.35860000  0.32690000  1.0 -0.0999066744
C  C46  1  0.05320000  0.45680000  0.13680000  1.0 -0.1109855422
C  C47  1  0.82540000  0.19900000  0.13780000  1.0 0.1722748393
C  C48  1  0.84930000  0.00150000  0.21110000  1.0 -0.2283498066
C  C49  1  0.30710000  0.41490000  0.36360000  1.0 0.1605124103
C  C50  1  0.12910000  0.34710000  0.04250000  1.0 -0.0315572911
C  C51  1  0.10900000  0.38480000  0.45700000  1.0 -0.080322119
C  C52  1  0.84860000  0.26380000  0.16690000  1.0 -0.0885198863
C  C53  1  0.03790000  0.29170000  0.47180000  1.0 0.1722748393
C  C54  1  0.94120000  0.04940000  0.38660000  1.0 -0.0885198863
C  C55  1  0.04060000  0.29660000  0.01790000  1.0 -0.1714988051
C  C56  1  0.85900000  0.36560000  0.39560000  1.0 -0.238105554
C  C57  1  0.00870000  0.26210000  0.96950000  1.0 -0.0436759068
C  C58  1  0.06690000  0.27670000  0.94660000  1.0 -0.1109855422
C  C59  1  0.90320000  0.22680000  0.12190000  1.0 -0.0885198863
C  C60  1  0.80620000  0.34300000  0.24910000  1.0 -0.0999066744
C  C61  1  0.67290000  0.13030000  0.25080000  1.0 0.4322321715
C  C62  1  0.14620000  0.59540000  0.16480000  1.0 -0.1967894172
C  C63  1  0.87150000  0.43710000  0.23670000  1.0 0.1542732829
C  C64  1  0.16230000  0.38230000  0.09600000  1.0 0.550012529
C  C65  1  0.29440000  0.59840000  0.15620000  1.0 -0.0710031678
C  C66  1  0.90180000  0.98560000  0.28080000  1.0 -0.080322119
C  C67  1  0.18480000  0.36120000  0.01860000  1.0 -0.129275482
C  C68  1  0.78510000  0.03570000  0.18250000  1.0 -0.080322119
C  C69  1  0.74300000  0.19340000  0.07660000  1.0 -0.0885198863
C  C70  1  0.38210000  0.55730000  0.28150000  1.0 -0.0710031678
C  C71  1  0.88458000  0.44878000  0.33950000  1.0 -0.0885198863
C  C72  1  0.93210000  0.34190000  0.45100000  1.0 -0.0710031678
C  C73  1  0.04960000  0.24440000  0.54690000  1.0 -0.0999066744
C  C74  1  0.01140000  0.06600000  0.36800000  1.0 0.1805358941
C  C75  1  0.08290000  0.15930000  0.36500000  1.0 -0.0999066744
C  C76  1  0.83210000  0.50370000  0.18400000  1.0 -0.0315572911
C  C77  1  0.11340000  0.59700000  0.05050000  1.0 -0.064522879
C  C78  1  0.04850000  0.99930000  0.41510000  1.0 -0.1109855422
C  C79  1  0.39130000  0.41970000  0.42280000  1.0 -0.0710031678
C  C80  1  0.15420000  0.32460000  0.97190000  1.0 -0.129275482
C  C81  1  0.23120000  0.37880000  0.38690000  1.0 -0.0885198863
C  C82  1  0.13070000  0.54610000  0.12630000  1.0 0.1374098809
C  C83  1  0.35900000  0.62540000  0.21700000  1.0 -0.2283498066
C  C84  1  0.91300000  0.20680000  0.94390000  1.0 0.550012529
C  C85  1  0.54610000  0.06330000  0.71090000  1.0 -0.1234236731
C  C86  1  0.75880000  0.96480000  0.94100000  1.0 -0.1234236731
C  C87  1  0.64140000  0.71740000  0.82690000  1.0 -0.0999066744
C  C88  1  0.54320000  0.94680000  0.63680000  1.0 -0.1109855422
C  C89  1  0.80100000  0.17460000  0.63780000  1.0 0.1722748393
C  C90  1  0.99850000  0.15070000  0.71110000  1.0 -0.2283498066
C  C91  1  0.58510000  0.69290000  0.86360000  1.0 0.1605124103
C  C92  1  0.65290000  0.87090000  0.54250000  1.0 -0.0315572911
C  C93  1  0.61520000  0.89100000  0.95700000  1.0 -0.080322119
C  C94  1  0.73620000  0.15140000  0.66690000  1.0 -0.0885198863
C  C95  1  0.70830000  0.96210000  0.97180000  1.0 0.1722748393
C  C96  1  0.95060000  0.05880000  0.88660000  1.0 -0.0885198863
C  C97  1  0.70340000  0.95940000  0.51790000  1.0 -0.1714988051
C  C98  1  0.63440000  0.14100000  0.89560000  1.0 -0.238105554
C  C99  1  0.73790000  0.99130000  0.46950000  1.0 -0.0436759068
C  C100  1  0.72330000  0.93310000  0.44660000  1.0 -0.1109855422
C  C101  1  0.77320000  0.09680000  0.62190000  1.0 -0.0885198863
C  C102  1  0.65700000  0.19380000  0.74910000  1.0 -0.0999066744
C  C103  1  0.86970000  0.32710000  0.75080000  1.0 0.4322321715
C  C104  1  0.40460000  0.85380000  0.66480000  1.0 -0.1967894172
C  C105  1  0.56290000  0.12850000  0.73670000  1.0 0.1542732829
C  C106  1  0.61770000  0.83770000  0.59600000  1.0 0.550012529
C  C107  1  0.40160000  0.70560000  0.65620000  1.0 -0.0710031678
C  C108  1  0.01440000  0.09820000  0.78080000  1.0 -0.080322119
C  C109  1  0.63880000  0.81520000  0.51860000  1.0 -0.129275482
C  C110  1  0.96430000  0.21490000  0.68250000  1.0 -0.080322119
C  C111  1  0.80660000  0.25700000  0.57660000  1.0 -0.0885198863
C  C112  1  0.44270000  0.61790000  0.78150000  1.0 -0.0710031678
C  C113  1  0.55122000  0.11542000  0.83950000  1.0 -0.0885198863
C  C114  1  0.65810000  0.06790000  0.95100000  1.0 -0.0710031678
C  C115  1  0.75560000  0.95040000  0.04690000  1.0 -0.0999066744
C  C116  1  0.93400000  0.98860000  0.86800000  1.0 0.1805358941
C  C117  1  0.84070000  0.91710000  0.86500000  1.0 -0.0999066744
C  C118  1  0.49630000  0.16790000  0.68400000  1.0 -0.0315572911
C  C119  1  0.40300000  0.88660000  0.55050000  1.0 -0.064522879
C  C120  1  0.00070000  0.95150000  0.91510000  1.0 -0.1109855422
C  C121  1  0.58030000  0.60870000  0.92280000  1.0 -0.0710031678
C  C122  1  0.67540000  0.84580000  0.47190000  1.0 -0.129275482
C  C123  1  0.62120000  0.76880000  0.88690000  1.0 -0.0885198863
C  C124  1  0.45390000  0.86930000  0.62630000  1.0 0.1374098809
C  C125  1  0.37460000  0.64100000  0.71700000  1.0 -0.2283498066
C  C126  1  0.79320000  0.08700000  0.44390000  1.0 0.550012529
C  C127  1  0.06330000  0.54610000  0.78910000  1.0 -0.1234236731
C  C128  1  0.96480000  0.75880000  0.55900000  1.0 -0.1234236731
C  C129  1  0.71740000  0.64140000  0.67310000  1.0 -0.0999066744
C  C130  1  0.94680000  0.54320000  0.86320000  1.0 -0.1109855422
C  C131  1  0.17460000  0.80100000  0.86220000  1.0 0.1722748393
C  C132  1  0.15070000  0.99850000  0.78890000  1.0 -0.2283498066
C  C133  1  0.69290000  0.58510000  0.63640000  1.0 0.1605124103
C  C134  1  0.87090000  0.65290000  0.95750000  1.0 -0.0315572911
C  C135  1  0.89100000  0.61520000  0.54300000  1.0 -0.080322119
C  C136  1  0.15140000  0.73620000  0.83310000  1.0 -0.0885198863
C  C137  1  0.96210000  0.70830000  0.52820000  1.0 0.1722748393
C  C138  1  0.05880000  0.95060000  0.61340000  1.0 -0.0885198863
C  C139  1  0.95940000  0.70340000  0.98210000  1.0 -0.1714988051
C  C140  1  0.14100000  0.63440000  0.60440000  1.0 -0.238105554
C  C141  1  0.99130000  0.73790000  0.03050000  1.0 -0.0436759068
C  C142  1  0.93310000  0.72330000  0.05340000  1.0 -0.1109855422
C  C143  1  0.09680000  0.77320000  0.87810000  1.0 -0.0885198863
C  C144  1  0.19380000  0.65700000  0.75090000  1.0 -0.0999066744
C  C145  1  0.32710000  0.86970000  0.74920000  1.0 0.4322321715
C  C146  1  0.85380000  0.40460000  0.83520000  1.0 -0.1967894172
C  C147  1  0.12850000  0.56290000  0.76330000  1.0 0.1542732829
C  C148  1  0.83770000  0.61770000  0.90400000  1.0 0.550012529
C  C149  1  0.70560000  0.40160000  0.84380000  1.0 -0.0710031678
C  C150  1  0.09820000  0.01440000  0.71920000  1.0 -0.080322119
C  C151  1  0.81520000  0.63880000  0.98140000  1.0 -0.129275482
C  C152  1  0.21490000  0.96430000  0.81750000  1.0 -0.080322119
C  C153  1  0.25700000  0.80660000  0.92340000  1.0 -0.0885198863
C  C154  1  0.61790000  0.44270000  0.71850000  1.0 -0.0710031678
C  C155  1  0.11542000  0.55122000  0.66050000  1.0 -0.0885198863
C  C156  1  0.06790000  0.65810000  0.54900000  1.0 -0.0710031678
C  C157  1  0.95040000  0.75560000  0.45310000  1.0 -0.0999066744
C  C158  1  0.98860000  0.93400000  0.63200000  1.0 0.1805358941
C  C159  1  0.91710000  0.84070000  0.63500000  1.0 -0.0999066744
C  C160  1  0.16790000  0.49630000  0.81600000  1.0 -0.0315572911
C  C161  1  0.88660000  0.40300000  0.94950000  1.0 -0.064522879
C  C162  1  0.95150000  0.00070000  0.58490000  1.0 -0.1109855422
C  C163  1  0.60870000  0.58030000  0.57720000  1.0 -0.0710031678
C  C164  1  0.84580000  0.67540000  0.02810000  1.0 -0.129275482
C  C165  1  0.76880000  0.62120000  0.61310000  1.0 -0.0885198863
C  C166  1  0.86930000  0.45390000  0.87370000  1.0 0.1374098809
C  C167  1  0.64100000  0.37460000  0.78300000  1.0 -0.2283498066
C  C168  1  0.08700000  0.79320000  0.05610000  1.0 0.550012529
C  C169  1  0.19000000  0.19000000  0.25000000  1.0 0.4711214008
C  C170  1  0.81000000  0.81000000  0.75000000  1.0 0.4711214008
N  N1  1  0.11570000  0.81710000  0.30400000  1.0 -0.3376546798
N  N2  1  0.44926000  0.92634000  0.19550000  1.0 -0.3291129894
N  N3  1  0.29960000  0.95220000  0.06880000  1.0 -0.3291129894
N  N4  1  0.06881000  0.97019000  0.20500000  1.0 -0.3214435003
N  N5  1  0.50193000  0.31007000  0.18960000  1.0 -0.3214435003
N  N6  1  0.52513000  0.20807000  0.33760000  1.0 -0.3214435003
N  N7  1  0.81710000  0.11570000  0.19600000  1.0 -0.3376546798
N  N8  1  0.92634000  0.44926000  0.30450000  1.0 -0.3214435003
N  N9  1  0.95220000  0.29960000  0.43120000  1.0 -0.3291129894
N  N10  1  0.97019000  0.06881000  0.29500000  1.0 -0.3214435003
N  N11  1  0.31007000  0.50193000  0.31040000  1.0 -0.3214435003
N  N12  1  0.20807000  0.52513000  0.16240000  1.0 -0.3214435003
N  N13  1  0.88430000  0.18290000  0.69600000  1.0 -0.3376546798
N  N14  1  0.55074000  0.07366000  0.80450000  1.0 -0.3291129894
N  N15  1  0.70040000  0.04780000  0.93120000  1.0 -0.3291129894
N  N16  1  0.93119000  0.02981000  0.79500000  1.0 -0.3214435003
N  N17  1  0.49807000  0.68993000  0.81040000  1.0 -0.3214435003
N  N18  1  0.47487000  0.79193000  0.66240000  1.0 -0.3214435003
N  N19  1  0.18290000  0.88430000  0.80400000  1.0 -0.3376546798
N  N20  1  0.07366000  0.55074000  0.69550000  1.0 -0.3291129894
N  N21  1  0.04780000  0.70040000  0.56880000  1.0 -0.3291129894
N  N22  1  0.02981000  0.93119000  0.70500000  1.0 -0.3214435003
N  N23  1  0.68993000  0.49807000  0.68960000  1.0 -0.3214435003
N  N24  1  0.79193000  0.47487000  0.83760000  1.0 -0.3214435003
O  O1  1  0.11858000  0.73502000  0.23420000  1.0 -0.481084097
O  O2  1  0.19260000  0.12800000  0.25420000  1.0 -0.481084097
O  O3  1  0.35600000  0.11080000  0.37670000  1.0 -0.5621213812
O  O4  1  0.43780000  0.23880000  0.39020000  1.0 -0.5621213812
O  O5  1  0.15370000  0.66950000  0.40410000  1.0 -0.4486643
O  O6  1  0.24798000  0.90520000  0.26497000  1.0 -0.4970873831
O  O7  1  0.21702000  0.97178000  0.31670000  1.0 -0.4700378801
O  O8  1  0.10112000  0.89648000  0.16750000  1.0 -0.4626873194
O  O9  1  0.22152000  0.05184000  0.19562000  1.0 -0.4892974039
O  O10  1  0.21870000  0.11850000  0.91710000  1.0 -0.429482214
O  O11  1  0.26890000  0.99330000  0.13109000  1.0 -0.4892974039
O  O12  1  0.42889000  0.08091000  0.11380000  1.0 -0.4892974039
O  O13  1  0.41929000  0.99825000  0.23437000  1.0 -0.4700378801
O  O14  1  0.29003000  0.85037000  0.19790000  1.0 -0.4970873831
O  O15  1  0.48040000  0.75520000  0.31080000  1.0 -0.376614116
O  O16  1  0.48030000  0.41830000  0.04940000  1.0 -0.4700378801
O  O17  1  0.37030000  0.21530000  0.23410000  1.0 -0.481084097
O  O18  1  0.40066000  0.16182000  0.17057000  1.0 -0.4892974039
O  O19  1  0.68600000  0.17100000  0.46380000  1.0 -0.4213992952
O  O20  1  0.54924000  0.17076000  0.26600000  1.0 -0.4892974039
O  O21  1  0.39782000  0.07626000  0.29832000  1.0 -0.481084097
O  O22  1  0.99650000  0.09010000  0.11530000  1.0 -0.4486643
O  O23  1  0.20600000  0.86140000  0.54270000  1.0 -0.546340972
O  O24  1  0.16340000  0.89060000  0.58870000  1.0 -0.5621213812
O  O25  1  0.09195000  0.59485000  0.27980000  1.0 -0.4970873831
O  O26  1  0.55720000  0.10900000  0.48650000  1.0 -0.4213992952
O  O27  1  0.58200000  0.88800000  0.30200000  1.0 -0.3577817453
O  O28  1  0.73502000  0.11858000  0.26580000  1.0 -0.481084097
O  O29  1  0.12800000  0.19260000  0.24580000  1.0 -0.481084097
O  O30  1  0.11080000  0.35600000  0.12330000  1.0 -0.5621213812
O  O31  1  0.23880000  0.43780000  0.10980000  1.0 -0.5621213812
O  O32  1  0.66950000  0.15370000  0.09590000  1.0 -0.4486643
O  O33  1  0.90520000  0.24798000  0.23503000  1.0 -0.4970873831
O  O34  1  0.97178000  0.21702000  0.18330000  1.0 -0.4700378801
O  O35  1  0.89648000  0.10112000  0.33250000  1.0 -0.4626873194
O  O36  1  0.05184000  0.22152000  0.30438000  1.0 -0.4892974039
O  O37  1  0.11850000  0.21870000  0.58290000  1.0 -0.429482214
O  O38  1  0.99330000  0.26890000  0.36891000  1.0 -0.4892974039
O  O39  1  0.08091000  0.42889000  0.38620000  1.0 -0.4892974039
O  O40  1  0.99825000  0.41929000  0.26563000  1.0 -0.4700378801
O  O41  1  0.85037000  0.29003000  0.30210000  1.0 -0.4970873831
O  O42  1  0.75520000  0.48040000  0.18920000  1.0 -0.376614116
O  O43  1  0.41830000  0.48030000  0.45060000  1.0 -0.4700378801
O  O44  1  0.21530000  0.37030000  0.26590000  1.0 -0.481084097
O  O45  1  0.16182000  0.40066000  0.32943000  1.0 -0.4892974039
O  O46  1  0.17100000  0.68600000  0.03620000  1.0 -0.4213992952
O  O47  1  0.17076000  0.54924000  0.23400000  1.0 -0.4970873831
O  O48  1  0.07626000  0.39782000  0.20168000  1.0 -0.481084097
O  O49  1  0.09010000  0.99650000  0.38470000  1.0 -0.4486643
O  O50  1  0.86140000  0.20600000  0.95730000  1.0 -0.546340972
O  O51  1  0.89060000  0.16340000  0.91130000  1.0 -0.5621213812
O  O52  1  0.59485000  0.09195000  0.22020000  1.0 -0.4970873831
O  O53  1  0.10900000  0.55720000  0.01350000  1.0 -0.4213992952
O  O54  1  0.88800000  0.58200000  0.19800000  1.0 -0.3577817453
O  O55  1  0.88142000  0.26498000  0.76580000  1.0 -0.481084097
O  O56  1  0.80740000  0.87200000  0.74580000  1.0 -0.481084097
O  O57  1  0.64400000  0.88920000  0.62330000  1.0 -0.5621213812
O  O58  1  0.56220000  0.76120000  0.60980000  1.0 -0.5621213812
O  O59  1  0.84630000  0.33050000  0.59590000  1.0 -0.4486643
O  O60  1  0.75202000  0.09480000  0.73503000  1.0 -0.4970873831
O  O61  1  0.78298000  0.02822000  0.68330000  1.0 -0.4700378801
O  O62  1  0.89888000  0.10352000  0.83250000  1.0 -0.4626873194
O  O63  1  0.77848000  0.94816000  0.80438000  1.0 -0.4892974039
O  O64  1  0.78130000  0.88150000  0.08290000  1.0 -0.429482214
O  O65  1  0.73110000  0.00670000  0.86891000  1.0 -0.4892974039
O  O66  1  0.57111000  0.91909000  0.88620000  1.0 -0.4892974039
O  O67  1  0.58071000  0.00175000  0.76563000  1.0 -0.4700378801
O  O68  1  0.70997000  0.14963000  0.80210000  1.0 -0.4970873831
O  O69  1  0.51960000  0.24480000  0.68920000  1.0 -0.376614116
O  O70  1  0.51970000  0.58170000  0.95060000  1.0 -0.4700378801
O  O71  1  0.62970000  0.78470000  0.76590000  1.0 -0.481084097
O  O72  1  0.59934000  0.83818000  0.82943000  1.0 -0.4892974039
O  O73  1  0.31400000  0.82900000  0.53620000  1.0 -0.4213992952
O  O74  1  0.45076000  0.82924000  0.73400000  1.0 -0.4970873831
O  O75  1  0.60218000  0.92374000  0.70168000  1.0 -0.481084097
O  O76  1  0.00350000  0.90990000  0.88470000  1.0 -0.4486643
O  O77  1  0.79400000  0.13860000  0.45730000  1.0 -0.546340972
O  O78  1  0.83660000  0.10940000  0.41130000  1.0 -0.5621213812
O  O79  1  0.90805000  0.40515000  0.72020000  1.0 -0.4970873831
O  O80  1  0.44280000  0.89100000  0.51350000  1.0 -0.4213992952
O  O81  1  0.41800000  0.11200000  0.69800000  1.0 -0.3577817453
O  O82  1  0.26498000  0.88142000  0.73420000  1.0 -0.481084097
O  O83  1  0.87200000  0.80740000  0.75420000  1.0 -0.481084097
O  O84  1  0.88920000  0.64400000  0.87670000  1.0 -0.5621213812
O  O85  1  0.76120000  0.56220000  0.89020000  1.0 -0.5621213812
O  O86  1  0.33050000  0.84630000  0.90410000  1.0 -0.4486643
O  O87  1  0.09480000  0.75202000  0.76497000  1.0 -0.4970873831
O  O88  1  0.02822000  0.78298000  0.81670000  1.0 -0.4626873194
O  O89  1  0.10352000  0.89888000  0.66750000  1.0 -0.4626873194
O  O90  1  0.94816000  0.77848000  0.69562000  1.0 -0.4892974039
O  O91  1  0.88150000  0.78130000  0.41710000  1.0 -0.429482214
O  O92  1  0.00670000  0.73110000  0.63109000  1.0 -0.4892974039
O  O93  1  0.91909000  0.57111000  0.61380000  1.0 -0.4892974039
O  O94  1  0.00175000  0.58071000  0.73437000  1.0 -0.4700378801
O  O95  1  0.14963000  0.70997000  0.69790000  1.0 -0.4970873831
O  O96  1  0.24480000  0.51960000  0.81080000  1.0 -0.376614116
O  O97  1  0.58170000  0.51970000  0.54940000  1.0 -0.4700378801
O  O98  1  0.78470000  0.62970000  0.73410000  1.0 -0.481084097
O  O99  1  0.83818000  0.59934000  0.67057000  1.0 -0.4892974039
O  O100  1  0.82900000  0.31400000  0.96380000  1.0 -0.4213992952
O  O101  1  0.82924000  0.45076000  0.76600000  1.0 -0.4970873831
O  O102  1  0.92374000  0.60218000  0.79832000  1.0 -0.481084097
O  O103  1  0.90990000  0.00350000  0.61530000  1.0 -0.4486643
O  O104  1  0.13860000  0.79400000  0.04270000  1.0 -0.546340972
O  O105  1  0.10940000  0.83660000  0.08870000  1.0 -0.5621213812
O  O106  1  0.40515000  0.90805000  0.77980000  1.0 -0.4970873831
O  O107  1  0.89100000  0.44280000  0.98650000  1.0 -0.4213992952
O  O108  1  0.11200000  0.41800000  0.80200000  1.0 -0.3577817453
