# DDEC6 charges by PACMAN v1.1 (https://github.com/mtap-research/PACMAN-charge/)
data_XEXLAQ_FSR_pacman
_symmetry_space_group_name_H-M   'P 1'
_cell_length_a   33.79300000
_cell_length_b   33.79300000
_cell_length_c   33.79300000
_cell_angle_alpha   47.28210000
_cell_angle_beta   47.28210000
_cell_angle_gamma   47.28210000
_symmetry_Int_Tables_number   1
_chemical_formula_structural   Zn2B2H42C42N14O5
_chemical_formula_sum   'Zn24 B24 H504 C504 N168 O60'
_cell_volume   19053.29992330
_cell_formula_units_Z   12
loop_
 _symmetry_equiv_pos_site_id
 _symmetry_equiv_pos_as_xyz
  1  'x, y, z'
loop_
 _atom_site_type_symbol
 _atom_site_label
 _atom_site_symmetry_multiplicity
 _atom_site_fract_x
 _atom_site_fract_y
 _atom_site_fract_z
 _atom_site_occupancy
 _atom_site_charge
Zn  Zn1  1  0.47783000  0.77841000  0.15691000  1.0 0.7299990499
Zn  Zn2  1  0.70952000  0.90060000  0.11074000  1.0 0.6459350431
Zn  Zn3  1  0.77841000  0.15691000  0.47783000  1.0 0.7299990499
Zn  Zn4  1  0.90060000  0.11074000  0.70952000  1.0 0.6459350431
Zn  Zn5  1  0.15691000  0.47783000  0.77841000  1.0 0.7299990499
Zn  Zn6  1  0.11074000  0.70952000  0.90060000  1.0 0.6459350431
Zn  Zn7  1  0.02217000  0.34309000  0.72159000  1.0 0.7299990499
Zn  Zn8  1  0.79048000  0.38926000  0.59940000  1.0 0.6459350431
Zn  Zn9  1  0.72159000  0.02217000  0.34309000  1.0 0.7299990499
Zn  Zn10  1  0.59940000  0.79048000  0.38926000  1.0 0.6459350431
Zn  Zn11  1  0.34309000  0.72159000  0.02217000  1.0 0.7299990499
Zn  Zn12  1  0.38926000  0.59940000  0.79048000  1.0 0.6459350431
Zn  Zn13  1  0.52217000  0.22159000  0.84309000  1.0 0.7299990499
Zn  Zn14  1  0.29048000  0.09940000  0.88926000  1.0 0.6459350431
Zn  Zn15  1  0.22159000  0.84309000  0.52217000  1.0 0.7299990499
Zn  Zn16  1  0.09940000  0.88926000  0.29048000  1.0 0.6459350431
Zn  Zn17  1  0.84309000  0.52217000  0.22159000  1.0 0.7299990499
Zn  Zn18  1  0.88926000  0.29048000  0.09940000  1.0 0.6459350431
Zn  Zn19  1  0.97783000  0.65691000  0.27841000  1.0 0.7299990499
Zn  Zn20  1  0.20952000  0.61074000  0.40060000  1.0 0.6459350431
Zn  Zn21  1  0.27841000  0.97783000  0.65691000  1.0 0.7299990499
Zn  Zn22  1  0.40060000  0.20952000  0.61074000  1.0 0.6459350431
Zn  Zn23  1  0.65691000  0.27841000  0.97783000  1.0 0.7299990499
Zn  Zn24  1  0.61074000  0.40060000  0.20952000  1.0 0.6459350431
B  B1  1  0.64634000  0.73484000  0.19244000  1.0 0.4869568491
B  B2  1  0.42799000  0.61149000  0.21779000  1.0 0.3957733779
B  B3  1  0.73484000  0.19244000  0.64634000  1.0 0.4869568491
B  B4  1  0.61149000  0.21779000  0.42799000  1.0 0.3957733779
B  B5  1  0.19244000  0.64634000  0.73484000  1.0 0.4869568491
B  B6  1  0.21779000  0.42799000  0.61149000  1.0 0.3957733779
B  B7  1  0.85366000  0.30756000  0.76516000  1.0 0.4869568491
B  B8  1  0.07201000  0.28221000  0.88851000  1.0 0.3957733779
B  B9  1  0.76516000  0.85366000  0.30756000  1.0 0.4869568491
B  B10  1  0.88851000  0.07201000  0.28221000  1.0 0.3957733779
B  B11  1  0.30756000  0.76516000  0.85366000  1.0 0.4869568491
B  B12  1  0.28221000  0.88851000  0.07201000  1.0 0.3957733779
B  B13  1  0.35366000  0.26516000  0.80756000  1.0 0.4869568491
B  B14  1  0.57201000  0.38851000  0.78221000  1.0 0.3957733779
B  B15  1  0.26516000  0.80756000  0.35366000  1.0 0.4869568491
B  B16  1  0.38851000  0.78221000  0.57201000  1.0 0.3957733779
B  B17  1  0.80756000  0.35366000  0.26516000  1.0 0.4869568491
B  B18  1  0.78221000  0.57201000  0.38851000  1.0 0.3957733779
B  B19  1  0.14634000  0.69244000  0.23484000  1.0 0.4869568491
B  B20  1  0.92799000  0.71779000  0.11149000  1.0 0.3957733779
B  B21  1  0.23484000  0.14634000  0.69244000  1.0 0.4869568491
B  B22  1  0.11149000  0.92799000  0.71779000  1.0 0.3957733779
B  B23  1  0.69244000  0.23484000  0.14634000  1.0 0.4869568491
B  B24  1  0.71779000  0.11149000  0.92799000  1.0 0.3957733779
H  H1  1  0.47200000  0.98360000  0.01080000  1.0 0.1084242383
H  H2  1  0.50580000  0.04490000  0.91210000  1.0 0.150285867
H  H3  1  0.57100000  0.92230000  0.86600000  1.0 0.1391915586
H  H4  1  0.53720000  0.86100000  0.96470000  1.0 0.1217030216
H  H5  1  0.59700000  0.09680000  0.71920000  1.0 0.1295574616
H  H6  1  0.55630000  0.15600000  0.65240000  1.0 0.1217030216
H  H7  1  0.43560000  0.08820000  0.77010000  1.0 0.1217030216
H  H8  1  0.47590000  0.02890000  0.83710000  1.0 0.1295574616
H  H9  1  0.61540000  0.70340000  0.10530000  1.0 0.1295574616
H  H10  1  0.68810000  0.68210000  0.12350000  1.0 0.1295574616
H  H11  1  0.51540000  0.77970000  0.25050000  1.0 0.150285867
H  H12  1  0.51630000  0.83580000  0.19110000  1.0 0.1602554729
H  H13  1  0.47600000  0.80600000  0.22220000  1.0 0.1602554729
H  H14  1  0.75730000  0.72990000  0.09380000  1.0 0.1295574616
H  H15  1  0.84120000  0.63690000  0.09900000  1.0 0.1391915586
H  H16  1  0.70770000  0.56350000  0.28460000  1.0 0.1602554729
H  H17  1  0.69890000  0.60110000  0.30350000  1.0 0.1602554729
H  H18  1  0.65390000  0.62440000  0.28320000  1.0 0.150285867
H  H19  1  0.63730000  0.83510000  0.08190000  1.0 0.1295574616
H  H20  1  0.67150000  0.90450000  0.04010000  1.0 0.1217030216
H  H21  1  0.70740000  0.75470000  0.21850000  1.0 0.1602554729
H  H22  1  0.66470000  0.81520000  0.22440000  1.0 0.1714353804
H  H23  1  0.63930000  0.77150000  0.25420000  1.0 0.150285867
H  H24  1  0.55680000  0.63420000  0.20130000  1.0 0.1217030216
H  H25  1  0.53230000  0.56600000  0.22410000  1.0 0.1084242383
H  H26  1  0.38190000  0.77450000  0.17710000  1.0 0.150285867
H  H27  1  0.41120000  0.76390000  0.12240000  1.0 0.1602554729
H  H28  1  0.37000000  0.73260000  0.18350000  1.0 0.150285867
H  H29  1  0.29800000  0.62620000  0.39100000  1.0 0.1391915586
H  H30  1  0.35200000  0.57370000  0.24790000  1.0 0.1295574616
H  H31  1  0.28360000  0.59780000  0.28410000  1.0 0.150285867
H  H32  1  0.31300000  0.64130000  0.22440000  1.0 0.1391915586
H  H33  1  0.41900000  0.51020000  0.32690000  1.0 0.084431747
H  H34  1  0.49670000  0.41310000  0.32200000  1.0 0.0919883785
H  H35  1  0.57010000  0.51170000  0.11940000  1.0 0.1006537024
H  H36  1  0.51130000  0.56850000  0.11840000  1.0 0.0919883785
H  H37  1  0.55750000  0.56280000  0.12410000  1.0 0.1006537024
H  H38  1  0.48730000  0.60260000  0.10080000  1.0 0.1084242383
H  H39  1  0.55280000  0.49860000  0.11290000  1.0 0.1006537024
H  H40  1  0.43670000  0.49790000  0.30920000  1.0 0.0919883785
H  H41  1  0.50160000  0.45170000  0.30190000  1.0 0.0919883785
H  H42  1  0.48210000  0.51510000  0.28980000  1.0 0.1006537024
H  H43  1  0.98360000  0.01080000  0.47200000  1.0 0.1084242383
H  H44  1  0.04490000  0.91210000  0.50580000  1.0 0.150285867
H  H45  1  0.92230000  0.86600000  0.57100000  1.0 0.1391915586
H  H46  1  0.86100000  0.96470000  0.53720000  1.0 0.1217030216
H  H47  1  0.09680000  0.71920000  0.59700000  1.0 0.1295574616
H  H48  1  0.15600000  0.65240000  0.55630000  1.0 0.1217030216
H  H49  1  0.08820000  0.77010000  0.43560000  1.0 0.1217030216
H  H50  1  0.02890000  0.83710000  0.47590000  1.0 0.1295574616
H  H51  1  0.70340000  0.10530000  0.61540000  1.0 0.1295574616
H  H52  1  0.68210000  0.12350000  0.68810000  1.0 0.1295574616
H  H53  1  0.77970000  0.25050000  0.51540000  1.0 0.150285867
H  H54  1  0.83580000  0.19110000  0.51630000  1.0 0.1602554729
H  H55  1  0.80600000  0.22220000  0.47600000  1.0 0.1602554729
H  H56  1  0.72990000  0.09380000  0.75730000  1.0 0.1295574616
H  H57  1  0.63690000  0.09900000  0.84120000  1.0 0.1391915586
H  H58  1  0.56350000  0.28460000  0.70770000  1.0 0.1602554729
H  H59  1  0.60110000  0.30350000  0.69890000  1.0 0.1602554729
H  H60  1  0.62440000  0.28320000  0.65390000  1.0 0.150285867
H  H61  1  0.83510000  0.08190000  0.63730000  1.0 0.1295574616
H  H62  1  0.90450000  0.04010000  0.67150000  1.0 0.1217030216
H  H63  1  0.75470000  0.21850000  0.70740000  1.0 0.1602554729
H  H64  1  0.81520000  0.22440000  0.66470000  1.0 0.1714353804
H  H65  1  0.77150000  0.25420000  0.63930000  1.0 0.150285867
H  H66  1  0.63420000  0.20130000  0.55680000  1.0 0.1217030216
H  H67  1  0.56600000  0.22410000  0.53230000  1.0 0.1084242383
H  H68  1  0.77450000  0.17710000  0.38190000  1.0 0.150285867
H  H69  1  0.76390000  0.12240000  0.41120000  1.0 0.1602554729
H  H70  1  0.73260000  0.18350000  0.37000000  1.0 0.150285867
H  H71  1  0.62620000  0.39100000  0.29800000  1.0 0.1391915586
H  H72  1  0.57370000  0.24790000  0.35200000  1.0 0.1295574616
H  H73  1  0.59780000  0.28410000  0.28360000  1.0 0.150285867
H  H74  1  0.64130000  0.22440000  0.31300000  1.0 0.1391915586
H  H75  1  0.51020000  0.32690000  0.41900000  1.0 0.084431747
H  H76  1  0.41310000  0.32200000  0.49670000  1.0 0.0919883785
H  H77  1  0.51170000  0.11940000  0.57010000  1.0 0.1006537024
H  H78  1  0.56850000  0.11840000  0.51130000  1.0 0.0919883785
H  H79  1  0.56280000  0.12410000  0.55750000  1.0 0.1006537024
H  H80  1  0.60260000  0.10080000  0.48730000  1.0 0.1084242383
H  H81  1  0.49860000  0.11290000  0.55280000  1.0 0.1006537024
H  H82  1  0.49790000  0.30920000  0.43670000  1.0 0.0919883785
H  H83  1  0.45170000  0.30190000  0.50160000  1.0 0.0919883785
H  H84  1  0.51510000  0.28980000  0.48210000  1.0 0.1006537024
H  H85  1  0.01080000  0.47200000  0.98360000  1.0 0.1084242383
H  H86  1  0.91210000  0.50580000  0.04490000  1.0 0.150285867
H  H87  1  0.86600000  0.57100000  0.92230000  1.0 0.1391915586
H  H88  1  0.96470000  0.53720000  0.86100000  1.0 0.1217030216
H  H89  1  0.71920000  0.59700000  0.09680000  1.0 0.1295574616
H  H90  1  0.65240000  0.55630000  0.15600000  1.0 0.1217030216
H  H91  1  0.77010000  0.43560000  0.08820000  1.0 0.1217030216
H  H92  1  0.83710000  0.47590000  0.02890000  1.0 0.1295574616
H  H93  1  0.10530000  0.61540000  0.70340000  1.0 0.1295574616
H  H94  1  0.12350000  0.68810000  0.68210000  1.0 0.1295574616
H  H95  1  0.25050000  0.51540000  0.77970000  1.0 0.150285867
H  H96  1  0.19110000  0.51630000  0.83580000  1.0 0.1602554729
H  H97  1  0.22220000  0.47600000  0.80600000  1.0 0.1602554729
H  H98  1  0.09380000  0.75730000  0.72990000  1.0 0.1295574616
H  H99  1  0.09900000  0.84120000  0.63690000  1.0 0.1391915586
H  H100  1  0.28460000  0.70770000  0.56350000  1.0 0.1602554729
H  H101  1  0.30350000  0.69890000  0.60110000  1.0 0.1602554729
H  H102  1  0.28320000  0.65390000  0.62440000  1.0 0.150285867
H  H103  1  0.08190000  0.63730000  0.83510000  1.0 0.1295574616
H  H104  1  0.04010000  0.67150000  0.90450000  1.0 0.1217030216
H  H105  1  0.21850000  0.70740000  0.75470000  1.0 0.1602554729
H  H106  1  0.22440000  0.66470000  0.81520000  1.0 0.1714353804
H  H107  1  0.25420000  0.63930000  0.77150000  1.0 0.150285867
H  H108  1  0.20130000  0.55680000  0.63420000  1.0 0.1217030216
H  H109  1  0.22410000  0.53230000  0.56600000  1.0 0.1084242383
H  H110  1  0.17710000  0.38190000  0.77450000  1.0 0.150285867
H  H111  1  0.12240000  0.41120000  0.76390000  1.0 0.1602554729
H  H112  1  0.18350000  0.37000000  0.73260000  1.0 0.150285867
H  H113  1  0.39100000  0.29800000  0.62620000  1.0 0.1391915586
H  H114  1  0.24790000  0.35200000  0.57370000  1.0 0.1295574616
H  H115  1  0.28410000  0.28360000  0.59780000  1.0 0.150285867
H  H116  1  0.22440000  0.31300000  0.64130000  1.0 0.1391915586
H  H117  1  0.32690000  0.41900000  0.51020000  1.0 0.084431747
H  H118  1  0.32200000  0.49670000  0.41310000  1.0 0.0919883785
H  H119  1  0.11940000  0.57010000  0.51170000  1.0 0.1006537024
H  H120  1  0.11840000  0.51130000  0.56850000  1.0 0.0919883785
H  H121  1  0.12410000  0.55750000  0.56280000  1.0 0.1006537024
H  H122  1  0.10080000  0.48730000  0.60260000  1.0 0.1084242383
H  H123  1  0.11290000  0.55280000  0.49860000  1.0 0.1006537024
H  H124  1  0.30920000  0.43670000  0.49790000  1.0 0.0919883785
H  H125  1  0.30190000  0.50160000  0.45170000  1.0 0.0919883785
H  H126  1  0.28980000  0.48210000  0.51510000  1.0 0.1006537024
H  H127  1  0.02800000  0.48920000  0.51640000  1.0 0.1084242383
H  H128  1  0.99420000  0.58790000  0.45510000  1.0 0.150285867
H  H129  1  0.92900000  0.63400000  0.57770000  1.0 0.1391915586
H  H130  1  0.96280000  0.53530000  0.63900000  1.0 0.1217030216
H  H131  1  0.90300000  0.78080000  0.40320000  1.0 0.1295574616
H  H132  1  0.94370000  0.84760000  0.34400000  1.0 0.1217030216
H  H133  1  0.06440000  0.72990000  0.41180000  1.0 0.1217030216
H  H134  1  0.02410000  0.66290000  0.47110000  1.0 0.1295574616
H  H135  1  0.88460000  0.39470000  0.79660000  1.0 0.1295574616
H  H136  1  0.81190000  0.37650000  0.81790000  1.0 0.1295574616
H  H137  1  0.98460000  0.24950000  0.72030000  1.0 0.150285867
H  H138  1  0.98370000  0.30890000  0.66420000  1.0 0.1602554729
H  H139  1  0.02400000  0.27780000  0.69400000  1.0 0.1602554729
H  H140  1  0.74270000  0.40620000  0.77010000  1.0 0.1295574616
H  H141  1  0.65880000  0.40100000  0.86310000  1.0 0.1391915586
H  H142  1  0.79230000  0.21540000  0.93650000  1.0 0.1602554729
H  H143  1  0.80110000  0.19650000  0.89890000  1.0 0.1602554729
H  H144  1  0.84610000  0.21680000  0.87560000  1.0 0.150285867
H  H145  1  0.86270000  0.41810000  0.66490000  1.0 0.1295574616
H  H146  1  0.82850000  0.45990000  0.59550000  1.0 0.1217030216
H  H147  1  0.79260000  0.28150000  0.74530000  1.0 0.1602554729
H  H148  1  0.83530000  0.27560000  0.68480000  1.0 0.1714353804
H  H149  1  0.86070000  0.24580000  0.72850000  1.0 0.150285867
H  H150  1  0.94320000  0.29870000  0.86580000  1.0 0.1217030216
H  H151  1  0.96770000  0.27590000  0.93400000  1.0 0.1084242383
H  H152  1  0.11810000  0.32290000  0.72550000  1.0 0.150285867
H  H153  1  0.08880000  0.37760000  0.73610000  1.0 0.1602554729
H  H154  1  0.13000000  0.31650000  0.76740000  1.0 0.150285867
H  H155  1  0.20200000  0.10900000  0.87380000  1.0 0.1391915586
H  H156  1  0.14800000  0.25210000  0.92630000  1.0 0.1295574616
H  H157  1  0.21640000  0.21590000  0.90220000  1.0 0.150285867
H  H158  1  0.18700000  0.27560000  0.85870000  1.0 0.1391915586
H  H159  1  0.08100000  0.17310000  0.98980000  1.0 0.084431747
H  H160  1  0.00330000  0.17800000  0.08690000  1.0 0.0919883785
H  H161  1  0.92990000  0.38060000  0.98830000  1.0 0.1006537024
H  H162  1  0.98870000  0.38160000  0.93150000  1.0 0.0919883785
H  H163  1  0.94250000  0.37590000  0.93720000  1.0 0.1006537024
H  H164  1  0.01270000  0.39920000  0.89740000  1.0 0.1084242383
H  H165  1  0.94720000  0.38710000  0.00140000  1.0 0.1006537024
H  H166  1  0.06330000  0.19080000  0.00210000  1.0 0.0919883785
H  H167  1  0.99840000  0.19810000  0.04830000  1.0 0.0919883785
H  H168  1  0.01790000  0.21020000  0.98490000  1.0 0.1006537024
H  H169  1  0.51640000  0.02800000  0.48920000  1.0 0.1084242383
H  H170  1  0.45510000  0.99420000  0.58790000  1.0 0.150285867
H  H171  1  0.57770000  0.92900000  0.63400000  1.0 0.1391915586
H  H172  1  0.63900000  0.96280000  0.53530000  1.0 0.1217030216
H  H173  1  0.40320000  0.90300000  0.78080000  1.0 0.1295574616
H  H174  1  0.34400000  0.94370000  0.84760000  1.0 0.1217030216
H  H175  1  0.41180000  0.06440000  0.72990000  1.0 0.1217030216
H  H176  1  0.47110000  0.02410000  0.66290000  1.0 0.1295574616
H  H177  1  0.79660000  0.88460000  0.39470000  1.0 0.1295574616
H  H178  1  0.81790000  0.81190000  0.37650000  1.0 0.1295574616
H  H179  1  0.72030000  0.98460000  0.24950000  1.0 0.150285867
H  H180  1  0.66420000  0.98370000  0.30890000  1.0 0.1602554729
H  H181  1  0.69400000  0.02400000  0.27780000  1.0 0.1602554729
H  H182  1  0.77010000  0.74270000  0.40620000  1.0 0.1295574616
H  H183  1  0.86310000  0.65880000  0.40100000  1.0 0.1391915586
H  H184  1  0.93650000  0.79230000  0.21540000  1.0 0.1602554729
H  H185  1  0.89890000  0.80110000  0.19650000  1.0 0.1602554729
H  H186  1  0.87560000  0.84610000  0.21680000  1.0 0.150285867
H  H187  1  0.66490000  0.86270000  0.41810000  1.0 0.1295574616
H  H188  1  0.59550000  0.82850000  0.45990000  1.0 0.1217030216
H  H189  1  0.74530000  0.79260000  0.28150000  1.0 0.1602554729
H  H190  1  0.68480000  0.83530000  0.27560000  1.0 0.1714353804
H  H191  1  0.72850000  0.86070000  0.24580000  1.0 0.150285867
H  H192  1  0.86580000  0.94320000  0.29870000  1.0 0.1217030216
H  H193  1  0.93400000  0.96770000  0.27590000  1.0 0.1084242383
H  H194  1  0.72550000  0.11810000  0.32290000  1.0 0.150285867
H  H195  1  0.73610000  0.08880000  0.37760000  1.0 0.1602554729
H  H196  1  0.76740000  0.13000000  0.31650000  1.0 0.150285867
H  H197  1  0.87380000  0.20200000  0.10900000  1.0 0.1391915586
H  H198  1  0.92630000  0.14800000  0.25210000  1.0 0.1295574616
H  H199  1  0.90220000  0.21640000  0.21590000  1.0 0.150285867
H  H200  1  0.85870000  0.18700000  0.27560000  1.0 0.1391915586
H  H201  1  0.98980000  0.08100000  0.17310000  1.0 0.084431747
H  H202  1  0.08690000  0.00330000  0.17800000  1.0 0.0919883785
H  H203  1  0.98830000  0.92990000  0.38060000  1.0 0.1006537024
H  H204  1  0.93150000  0.98870000  0.38160000  1.0 0.0919883785
H  H205  1  0.93720000  0.94250000  0.37590000  1.0 0.1006537024
H  H206  1  0.89740000  0.01270000  0.39920000  1.0 0.1084242383
H  H207  1  0.00140000  0.94720000  0.38710000  1.0 0.1006537024
H  H208  1  0.00210000  0.06330000  0.19080000  1.0 0.0919883785
H  H209  1  0.04830000  0.99840000  0.19810000  1.0 0.0919883785
H  H210  1  0.98490000  0.01790000  0.21020000  1.0 0.1006537024
H  H211  1  0.48920000  0.51640000  0.02800000  1.0 0.1084242383
H  H212  1  0.58790000  0.45510000  0.99420000  1.0 0.150285867
H  H213  1  0.63400000  0.57770000  0.92900000  1.0 0.1391915586
H  H214  1  0.53530000  0.63900000  0.96280000  1.0 0.1217030216
H  H215  1  0.78080000  0.40320000  0.90300000  1.0 0.1295574616
H  H216  1  0.84760000  0.34400000  0.94370000  1.0 0.1217030216
H  H217  1  0.72990000  0.41180000  0.06440000  1.0 0.1217030216
H  H218  1  0.66290000  0.47110000  0.02410000  1.0 0.1295574616
H  H219  1  0.39470000  0.79660000  0.88460000  1.0 0.1295574616
H  H220  1  0.37650000  0.81790000  0.81190000  1.0 0.1295574616
H  H221  1  0.24950000  0.72030000  0.98460000  1.0 0.150285867
H  H222  1  0.30890000  0.66420000  0.98370000  1.0 0.1602554729
H  H223  1  0.27780000  0.69400000  0.02400000  1.0 0.1602554729
H  H224  1  0.40620000  0.77010000  0.74270000  1.0 0.1295574616
H  H225  1  0.40100000  0.86310000  0.65880000  1.0 0.1391915586
H  H226  1  0.21540000  0.93650000  0.79230000  1.0 0.1602554729
H  H227  1  0.19650000  0.89890000  0.80110000  1.0 0.1602554729
H  H228  1  0.21680000  0.87560000  0.84610000  1.0 0.150285867
H  H229  1  0.41810000  0.66490000  0.86270000  1.0 0.1295574616
H  H230  1  0.45990000  0.59550000  0.82850000  1.0 0.1217030216
H  H231  1  0.28150000  0.74530000  0.79260000  1.0 0.1602554729
H  H232  1  0.27560000  0.68480000  0.83530000  1.0 0.1714353804
H  H233  1  0.24580000  0.72850000  0.86070000  1.0 0.150285867
H  H234  1  0.29870000  0.86580000  0.94320000  1.0 0.1217030216
H  H235  1  0.27590000  0.93400000  0.96770000  1.0 0.1084242383
H  H236  1  0.32290000  0.72550000  0.11810000  1.0 0.150285867
H  H237  1  0.37760000  0.73610000  0.08880000  1.0 0.1602554729
H  H238  1  0.31650000  0.76740000  0.13000000  1.0 0.150285867
H  H239  1  0.10900000  0.87380000  0.20200000  1.0 0.1391915586
H  H240  1  0.25210000  0.92630000  0.14800000  1.0 0.1295574616
H  H241  1  0.21590000  0.90220000  0.21640000  1.0 0.150285867
H  H242  1  0.27560000  0.85870000  0.18700000  1.0 0.1391915586
H  H243  1  0.17310000  0.98980000  0.08100000  1.0 0.084431747
H  H244  1  0.17800000  0.08690000  0.00330000  1.0 0.0919883785
H  H245  1  0.38060000  0.98830000  0.92990000  1.0 0.1006537024
H  H246  1  0.38160000  0.93150000  0.98870000  1.0 0.0919883785
H  H247  1  0.37590000  0.93720000  0.94250000  1.0 0.1006537024
H  H248  1  0.39920000  0.89740000  0.01270000  1.0 0.1084242383
H  H249  1  0.38710000  0.00140000  0.94720000  1.0 0.1006537024
H  H250  1  0.19080000  0.00210000  0.06330000  1.0 0.0919883785
H  H251  1  0.19810000  0.04830000  0.99840000  1.0 0.0919883785
H  H252  1  0.21020000  0.98490000  0.01790000  1.0 0.1006537024
H  H253  1  0.52800000  0.01640000  0.98920000  1.0 0.1084242383
H  H254  1  0.49420000  0.95510000  0.08790000  1.0 0.150285867
H  H255  1  0.42900000  0.07770000  0.13400000  1.0 0.1391915586
H  H256  1  0.46280000  0.13900000  0.03530000  1.0 0.1217030216
H  H257  1  0.40300000  0.90320000  0.28080000  1.0 0.1295574616
H  H258  1  0.44370000  0.84400000  0.34760000  1.0 0.1217030216
H  H259  1  0.56440000  0.91180000  0.22990000  1.0 0.1217030216
H  H260  1  0.52410000  0.97110000  0.16290000  1.0 0.1295574616
H  H261  1  0.38460000  0.29660000  0.89470000  1.0 0.1295574616
H  H262  1  0.31190000  0.31790000  0.87650000  1.0 0.1295574616
H  H263  1  0.48460000  0.22030000  0.74950000  1.0 0.150285867
H  H264  1  0.48370000  0.16420000  0.80890000  1.0 0.1602554729
H  H265  1  0.52400000  0.19400000  0.77780000  1.0 0.1602554729
H  H266  1  0.24270000  0.27010000  0.90620000  1.0 0.1295574616
H  H267  1  0.15880000  0.36310000  0.90100000  1.0 0.1391915586
H  H268  1  0.29230000  0.43650000  0.71540000  1.0 0.1602554729
H  H269  1  0.30110000  0.39890000  0.69650000  1.0 0.1602554729
H  H270  1  0.34610000  0.37560000  0.71680000  1.0 0.150285867
H  H271  1  0.36270000  0.16490000  0.91810000  1.0 0.1295574616
H  H272  1  0.32850000  0.09550000  0.95990000  1.0 0.1217030216
H  H273  1  0.29260000  0.24530000  0.78150000  1.0 0.1602554729
H  H274  1  0.33530000  0.18480000  0.77560000  1.0 0.1714353804
H  H275  1  0.36070000  0.22850000  0.74580000  1.0 0.150285867
H  H276  1  0.44320000  0.36580000  0.79870000  1.0 0.1217030216
H  H277  1  0.46770000  0.43400000  0.77590000  1.0 0.1084242383
H  H278  1  0.61810000  0.22550000  0.82290000  1.0 0.150285867
H  H279  1  0.58880000  0.23610000  0.87760000  1.0 0.1602554729
H  H280  1  0.63000000  0.26740000  0.81650000  1.0 0.150285867
H  H281  1  0.70200000  0.37380000  0.60900000  1.0 0.1391915586
H  H282  1  0.64800000  0.42630000  0.75210000  1.0 0.1295574616
H  H283  1  0.71640000  0.40220000  0.71590000  1.0 0.150285867
H  H284  1  0.68700000  0.35870000  0.77560000  1.0 0.1391915586
H  H285  1  0.58100000  0.48980000  0.67310000  1.0 0.084431747
H  H286  1  0.50330000  0.58690000  0.67800000  1.0 0.0919883785
H  H287  1  0.42990000  0.48830000  0.88060000  1.0 0.1006537024
H  H288  1  0.48870000  0.43150000  0.88160000  1.0 0.0919883785
H  H289  1  0.44250000  0.43720000  0.87590000  1.0 0.1006537024
H  H290  1  0.51270000  0.39740000  0.89920000  1.0 0.1084242383
H  H291  1  0.44720000  0.50140000  0.88710000  1.0 0.1006537024
H  H292  1  0.56330000  0.50210000  0.69080000  1.0 0.0919883785
H  H293  1  0.49840000  0.54830000  0.69810000  1.0 0.0919883785
H  H294  1  0.51790000  0.48490000  0.71020000  1.0 0.1006537024
H  H295  1  0.01640000  0.98920000  0.52800000  1.0 0.1084242383
H  H296  1  0.95510000  0.08790000  0.49420000  1.0 0.150285867
H  H297  1  0.07770000  0.13400000  0.42900000  1.0 0.1391915586
H  H298  1  0.13900000  0.03530000  0.46280000  1.0 0.1217030216
H  H299  1  0.90320000  0.28080000  0.40300000  1.0 0.1295574616
H  H300  1  0.84400000  0.34760000  0.44370000  1.0 0.1217030216
H  H301  1  0.91180000  0.22990000  0.56440000  1.0 0.1217030216
H  H302  1  0.97110000  0.16290000  0.52410000  1.0 0.1295574616
H  H303  1  0.29660000  0.89470000  0.38460000  1.0 0.1295574616
H  H304  1  0.31790000  0.87650000  0.31190000  1.0 0.1295574616
H  H305  1  0.22030000  0.74950000  0.48460000  1.0 0.150285867
H  H306  1  0.16420000  0.80890000  0.48370000  1.0 0.1602554729
H  H307  1  0.19400000  0.77780000  0.52400000  1.0 0.1602554729
H  H308  1  0.27010000  0.90620000  0.24270000  1.0 0.1295574616
H  H309  1  0.36310000  0.90100000  0.15880000  1.0 0.1391915586
H  H310  1  0.43650000  0.71540000  0.29230000  1.0 0.1602554729
H  H311  1  0.39890000  0.69650000  0.30110000  1.0 0.1602554729
H  H312  1  0.37560000  0.71680000  0.34610000  1.0 0.150285867
H  H313  1  0.16490000  0.91810000  0.36270000  1.0 0.1295574616
H  H314  1  0.09550000  0.95990000  0.32850000  1.0 0.1217030216
H  H315  1  0.24530000  0.78150000  0.29260000  1.0 0.1602554729
H  H316  1  0.18480000  0.77560000  0.33530000  1.0 0.1714353804
H  H317  1  0.22850000  0.74580000  0.36070000  1.0 0.150285867
H  H318  1  0.36580000  0.79870000  0.44320000  1.0 0.1217030216
H  H319  1  0.43400000  0.77590000  0.46770000  1.0 0.1084242383
H  H320  1  0.22550000  0.82290000  0.61810000  1.0 0.150285867
H  H321  1  0.23610000  0.87760000  0.58880000  1.0 0.1602554729
H  H322  1  0.26740000  0.81650000  0.63000000  1.0 0.150285867
H  H323  1  0.37380000  0.60900000  0.70200000  1.0 0.1391915586
H  H324  1  0.42630000  0.75210000  0.64800000  1.0 0.1295574616
H  H325  1  0.40220000  0.71590000  0.71640000  1.0 0.150285867
H  H326  1  0.35870000  0.77560000  0.68700000  1.0 0.1391915586
H  H327  1  0.48980000  0.67310000  0.58100000  1.0 0.084431747
H  H328  1  0.58690000  0.67800000  0.50330000  1.0 0.0919883785
H  H329  1  0.48830000  0.88060000  0.42990000  1.0 0.1006537024
H  H330  1  0.43150000  0.88160000  0.48870000  1.0 0.0919883785
H  H331  1  0.43720000  0.87590000  0.44250000  1.0 0.1006537024
H  H332  1  0.39740000  0.89920000  0.51270000  1.0 0.1084242383
H  H333  1  0.50140000  0.88710000  0.44720000  1.0 0.1006537024
H  H334  1  0.50210000  0.69080000  0.56330000  1.0 0.0919883785
H  H335  1  0.54830000  0.69810000  0.49840000  1.0 0.0919883785
H  H336  1  0.48490000  0.71020000  0.51790000  1.0 0.1006537024
H  H337  1  0.98920000  0.52800000  0.01640000  1.0 0.1084242383
H  H338  1  0.08790000  0.49420000  0.95510000  1.0 0.150285867
H  H339  1  0.13400000  0.42900000  0.07770000  1.0 0.1391915586
H  H340  1  0.03530000  0.46280000  0.13900000  1.0 0.1217030216
H  H341  1  0.28080000  0.40300000  0.90320000  1.0 0.1295574616
H  H342  1  0.34760000  0.44370000  0.84400000  1.0 0.1217030216
H  H343  1  0.22990000  0.56440000  0.91180000  1.0 0.1217030216
H  H344  1  0.16290000  0.52410000  0.97110000  1.0 0.1295574616
H  H345  1  0.89470000  0.38460000  0.29660000  1.0 0.1295574616
H  H346  1  0.87650000  0.31190000  0.31790000  1.0 0.1295574616
H  H347  1  0.74950000  0.48460000  0.22030000  1.0 0.150285867
H  H348  1  0.80890000  0.48370000  0.16420000  1.0 0.1602554729
H  H349  1  0.77780000  0.52400000  0.19400000  1.0 0.1602554729
H  H350  1  0.90620000  0.24270000  0.27010000  1.0 0.1295574616
H  H351  1  0.90100000  0.15880000  0.36310000  1.0 0.1391915586
H  H352  1  0.71540000  0.29230000  0.43650000  1.0 0.1602554729
H  H353  1  0.69650000  0.30110000  0.39890000  1.0 0.1602554729
H  H354  1  0.71680000  0.34610000  0.37560000  1.0 0.150285867
H  H355  1  0.91810000  0.36270000  0.16490000  1.0 0.1295574616
H  H356  1  0.95990000  0.32850000  0.09550000  1.0 0.1217030216
H  H357  1  0.78150000  0.29260000  0.24530000  1.0 0.1602554729
H  H358  1  0.77560000  0.33530000  0.18480000  1.0 0.1714353804
H  H359  1  0.74580000  0.36070000  0.22850000  1.0 0.150285867
H  H360  1  0.79870000  0.44320000  0.36580000  1.0 0.1217030216
H  H361  1  0.77590000  0.46770000  0.43400000  1.0 0.1084242383
H  H362  1  0.82290000  0.61810000  0.22550000  1.0 0.150285867
H  H363  1  0.87760000  0.58880000  0.23610000  1.0 0.1602554729
H  H364  1  0.81650000  0.63000000  0.26740000  1.0 0.150285867
H  H365  1  0.60900000  0.70200000  0.37380000  1.0 0.1391915586
H  H366  1  0.75210000  0.64800000  0.42630000  1.0 0.1295574616
H  H367  1  0.71590000  0.71640000  0.40220000  1.0 0.150285867
H  H368  1  0.77560000  0.68700000  0.35870000  1.0 0.1391915586
H  H369  1  0.67310000  0.58100000  0.48980000  1.0 0.084431747
H  H370  1  0.67800000  0.50330000  0.58690000  1.0 0.0919883785
H  H371  1  0.88060000  0.42990000  0.48830000  1.0 0.1006537024
H  H372  1  0.88160000  0.48870000  0.43150000  1.0 0.0919883785
H  H373  1  0.87590000  0.44250000  0.43720000  1.0 0.1006537024
H  H374  1  0.89920000  0.51270000  0.39740000  1.0 0.1084242383
H  H375  1  0.88710000  0.44720000  0.50140000  1.0 0.1006537024
H  H376  1  0.69080000  0.56330000  0.50210000  1.0 0.0919883785
H  H377  1  0.69810000  0.49840000  0.54830000  1.0 0.0919883785
H  H378  1  0.71020000  0.51790000  0.48490000  1.0 0.1006537024
H  H379  1  0.97200000  0.51080000  0.48360000  1.0 0.1084242383
H  H380  1  0.00580000  0.41210000  0.54490000  1.0 0.150285867
H  H381  1  0.07100000  0.36600000  0.42230000  1.0 0.1391915586
H  H382  1  0.03720000  0.46470000  0.36100000  1.0 0.1217030216
H  H383  1  0.09700000  0.21920000  0.59680000  1.0 0.1295574616
H  H384  1  0.05630000  0.15240000  0.65600000  1.0 0.1217030216
H  H385  1  0.93560000  0.27010000  0.58820000  1.0 0.1217030216
H  H386  1  0.97590000  0.33710000  0.52890000  1.0 0.1295574616
H  H387  1  0.11540000  0.60530000  0.20340000  1.0 0.1295574616
H  H388  1  0.18810000  0.62350000  0.18210000  1.0 0.1295574616
H  H389  1  0.01540000  0.75050000  0.27970000  1.0 0.150285867
H  H390  1  0.01630000  0.69110000  0.33580000  1.0 0.1602554729
H  H391  1  0.97600000  0.72220000  0.30600000  1.0 0.1602554729
H  H392  1  0.25730000  0.59380000  0.22990000  1.0 0.1295574616
H  H393  1  0.34120000  0.59900000  0.13690000  1.0 0.1391915586
H  H394  1  0.20770000  0.78460000  0.06350000  1.0 0.1602554729
H  H395  1  0.19890000  0.80350000  0.10110000  1.0 0.1602554729
H  H396  1  0.15390000  0.78320000  0.12440000  1.0 0.150285867
H  H397  1  0.13730000  0.58190000  0.33510000  1.0 0.1295574616
H  H398  1  0.17150000  0.54010000  0.40450000  1.0 0.1217030216
H  H399  1  0.20740000  0.71850000  0.25470000  1.0 0.1602554729
H  H400  1  0.16470000  0.72440000  0.31520000  1.0 0.1714353804
H  H401  1  0.13930000  0.75420000  0.27150000  1.0 0.150285867
H  H402  1  0.05680000  0.70130000  0.13420000  1.0 0.1217030216
H  H403  1  0.03230000  0.72410000  0.06600000  1.0 0.1084242383
H  H404  1  0.88190000  0.67710000  0.27450000  1.0 0.150285867
H  H405  1  0.91120000  0.62240000  0.26390000  1.0 0.1602554729
H  H406  1  0.87000000  0.68350000  0.23260000  1.0 0.150285867
H  H407  1  0.79800000  0.89100000  0.12620000  1.0 0.1391915586
H  H408  1  0.85200000  0.74790000  0.07370000  1.0 0.1295574616
H  H409  1  0.78360000  0.78410000  0.09780000  1.0 0.150285867
H  H410  1  0.81300000  0.72440000  0.14130000  1.0 0.1391915586
H  H411  1  0.91900000  0.82690000  0.01020000  1.0 0.084431747
H  H412  1  0.99670000  0.82200000  0.91310000  1.0 0.0919883785
H  H413  1  0.07010000  0.61940000  0.01170000  1.0 0.1006537024
H  H414  1  0.01130000  0.61840000  0.06850000  1.0 0.0919883785
H  H415  1  0.05750000  0.62410000  0.06280000  1.0 0.1006537024
H  H416  1  0.98730000  0.60080000  0.10260000  1.0 0.1084242383
H  H417  1  0.05280000  0.61290000  0.99860000  1.0 0.1006537024
H  H418  1  0.93670000  0.80920000  0.99790000  1.0 0.0919883785
H  H419  1  0.00160000  0.80190000  0.95170000  1.0 0.0919883785
H  H420  1  0.98210000  0.78980000  0.01510000  1.0 0.1006537024
H  H421  1  0.48360000  0.97200000  0.51080000  1.0 0.1084242383
H  H422  1  0.54490000  0.00580000  0.41210000  1.0 0.150285867
H  H423  1  0.42230000  0.07100000  0.36600000  1.0 0.1391915586
H  H424  1  0.36100000  0.03720000  0.46470000  1.0 0.1217030216
H  H425  1  0.59680000  0.09700000  0.21920000  1.0 0.1295574616
H  H426  1  0.65600000  0.05630000  0.15240000  1.0 0.1217030216
H  H427  1  0.58820000  0.93560000  0.27010000  1.0 0.1217030216
H  H428  1  0.52890000  0.97590000  0.33710000  1.0 0.1295574616
H  H429  1  0.20340000  0.11540000  0.60530000  1.0 0.1295574616
H  H430  1  0.18210000  0.18810000  0.62350000  1.0 0.1295574616
H  H431  1  0.27970000  0.01540000  0.75050000  1.0 0.150285867
H  H432  1  0.33580000  0.01630000  0.69110000  1.0 0.1602554729
H  H433  1  0.30600000  0.97600000  0.72220000  1.0 0.1602554729
H  H434  1  0.22990000  0.25730000  0.59380000  1.0 0.1295574616
H  H435  1  0.13690000  0.34120000  0.59900000  1.0 0.1391915586
H  H436  1  0.06350000  0.20770000  0.78460000  1.0 0.1602554729
H  H437  1  0.10110000  0.19890000  0.80350000  1.0 0.1602554729
H  H438  1  0.12440000  0.15390000  0.78320000  1.0 0.150285867
H  H439  1  0.33510000  0.13730000  0.58190000  1.0 0.1295574616
H  H440  1  0.40450000  0.17150000  0.54010000  1.0 0.1217030216
H  H441  1  0.25470000  0.20740000  0.71850000  1.0 0.1602554729
H  H442  1  0.31520000  0.16470000  0.72440000  1.0 0.1714353804
H  H443  1  0.27150000  0.13930000  0.75420000  1.0 0.150285867
H  H444  1  0.13420000  0.05680000  0.70130000  1.0 0.1217030216
H  H445  1  0.06600000  0.03230000  0.72410000  1.0 0.1084242383
H  H446  1  0.27450000  0.88190000  0.67710000  1.0 0.150285867
H  H447  1  0.26390000  0.91120000  0.62240000  1.0 0.1602554729
H  H448  1  0.23260000  0.87000000  0.68350000  1.0 0.150285867
H  H449  1  0.12620000  0.79800000  0.89100000  1.0 0.1391915586
H  H450  1  0.07370000  0.85200000  0.74790000  1.0 0.1295574616
H  H451  1  0.09780000  0.78360000  0.78410000  1.0 0.150285867
H  H452  1  0.14130000  0.81300000  0.72440000  1.0 0.1391915586
H  H453  1  0.01020000  0.91900000  0.82690000  1.0 0.084431747
H  H454  1  0.91310000  0.99670000  0.82200000  1.0 0.0919883785
H  H455  1  0.01170000  0.07010000  0.61940000  1.0 0.1006537024
H  H456  1  0.06850000  0.01130000  0.61840000  1.0 0.0919883785
H  H457  1  0.06280000  0.05750000  0.62410000  1.0 0.1006537024
H  H458  1  0.10260000  0.98730000  0.60080000  1.0 0.1084242383
H  H459  1  0.99860000  0.05280000  0.61290000  1.0 0.1006537024
H  H460  1  0.99790000  0.93670000  0.80920000  1.0 0.0919883785
H  H461  1  0.95170000  0.00160000  0.80190000  1.0 0.0919883785
H  H462  1  0.01510000  0.98210000  0.78980000  1.0 0.1006537024
H  H463  1  0.51080000  0.48360000  0.97200000  1.0 0.1084242383
H  H464  1  0.41210000  0.54490000  0.00580000  1.0 0.150285867
H  H465  1  0.36600000  0.42230000  0.07100000  1.0 0.1391915586
H  H466  1  0.46470000  0.36100000  0.03720000  1.0 0.1217030216
H  H467  1  0.21920000  0.59680000  0.09700000  1.0 0.1295574616
H  H468  1  0.15240000  0.65600000  0.05630000  1.0 0.1217030216
H  H469  1  0.27010000  0.58820000  0.93560000  1.0 0.1217030216
H  H470  1  0.33710000  0.52890000  0.97590000  1.0 0.1295574616
H  H471  1  0.60530000  0.20340000  0.11540000  1.0 0.1295574616
H  H472  1  0.62350000  0.18210000  0.18810000  1.0 0.1295574616
H  H473  1  0.75050000  0.27970000  0.01540000  1.0 0.150285867
H  H474  1  0.69110000  0.33580000  0.01630000  1.0 0.1602554729
H  H475  1  0.72220000  0.30600000  0.97600000  1.0 0.1602554729
H  H476  1  0.59380000  0.22990000  0.25730000  1.0 0.1295574616
H  H477  1  0.59900000  0.13690000  0.34120000  1.0 0.1391915586
H  H478  1  0.78460000  0.06350000  0.20770000  1.0 0.1602554729
H  H479  1  0.80350000  0.10110000  0.19890000  1.0 0.1602554729
H  H480  1  0.78320000  0.12440000  0.15390000  1.0 0.150285867
H  H481  1  0.58190000  0.33510000  0.13730000  1.0 0.1295574616
H  H482  1  0.54010000  0.40450000  0.17150000  1.0 0.1217030216
H  H483  1  0.71850000  0.25470000  0.20740000  1.0 0.1602554729
H  H484  1  0.72440000  0.31520000  0.16470000  1.0 0.1714353804
H  H485  1  0.75420000  0.27150000  0.13930000  1.0 0.150285867
H  H486  1  0.70130000  0.13420000  0.05680000  1.0 0.1217030216
H  H487  1  0.72410000  0.06600000  0.03230000  1.0 0.1084242383
H  H488  1  0.67710000  0.27450000  0.88190000  1.0 0.150285867
H  H489  1  0.62240000  0.26390000  0.91120000  1.0 0.1602554729
H  H490  1  0.68350000  0.23260000  0.87000000  1.0 0.150285867
H  H491  1  0.89100000  0.12620000  0.79800000  1.0 0.1391915586
H  H492  1  0.74790000  0.07370000  0.85200000  1.0 0.1295574616
H  H493  1  0.78410000  0.09780000  0.78360000  1.0 0.150285867
H  H494  1  0.72440000  0.14130000  0.81300000  1.0 0.1391915586
H  H495  1  0.82690000  0.01020000  0.91900000  1.0 0.084431747
H  H496  1  0.82200000  0.91310000  0.99670000  1.0 0.0919883785
H  H497  1  0.61940000  0.01170000  0.07010000  1.0 0.1006537024
H  H498  1  0.61840000  0.06850000  0.01130000  1.0 0.0919883785
H  H499  1  0.62410000  0.06280000  0.05750000  1.0 0.1006537024
H  H500  1  0.60080000  0.10260000  0.98730000  1.0 0.1084242383
H  H501  1  0.61290000  0.99860000  0.05280000  1.0 0.1006537024
H  H502  1  0.80920000  0.99790000  0.93670000  1.0 0.0919883785
H  H503  1  0.80190000  0.95170000  0.00160000  1.0 0.0919883785
H  H504  1  0.78980000  0.01510000  0.98210000  1.0 0.1006537024
C  C1  1  0.48506000  0.87426000  0.06016000  1.0 0.5397201125
C  C2  1  0.50122000  0.91626000  0.99750000  1.0 -0.0505330694
C  C3  1  0.49183000  0.97133000  0.98173000  1.0 -0.0905434057
C  C4  1  0.51213000  0.00803000  0.92263000  1.0 -0.2039531897
C  C5  1  0.54179000  0.98966000  0.87933000  1.0 0.2498943701
C  C6  1  0.55118000  0.93458000  0.89508000  1.0 -0.2193820015
C  C7  1  0.53088000  0.89788000  0.95418000  1.0 -0.0905434057
C  C8  1  0.54046000  0.05656000  0.78466000  1.0 0.2567214016
C  C9  1  0.56471000  0.09491000  0.72941000  1.0 -0.2148596551
C  C10  1  0.54025000  0.13015000  0.68965000  1.0 -0.0905434057
C  C11  1  0.49278000  0.12757000  0.70436000  1.0 -0.0333653283
C  C12  1  0.46802000  0.08972000  0.75992000  1.0 -0.0716243647
C  C13  1  0.49216000  0.05446000  0.79966000  1.0 -0.2311549987
C  C14  1  0.46649000  0.16797000  0.66055000  1.0 0.5459217671
C  C15  1  0.60749000  0.71659000  0.12759000  1.0 -0.060422431
C  C16  1  0.64804000  0.70564000  0.13654000  1.0 -0.0905434057
C  C17  1  0.56230000  0.76060000  0.18040000  1.0 0.3892299713
C  C18  1  0.51301000  0.79901000  0.21411000  1.0 -0.5473766051
C  C19  1  0.75790000  0.69430000  0.12670000  1.0 -0.0905434057
C  C20  1  0.80418000  0.64408000  0.12968000  1.0 -0.0505330694
C  C21  1  0.72951000  0.63161000  0.21691000  1.0 0.3760837186
C  C22  1  0.69460000  0.60270000  0.27710000  1.0 -0.5358033831
C  C23  1  0.64874000  0.83544000  0.09994000  1.0 -0.1100212633
C  C24  1  0.66575000  0.87455000  0.07775000  1.0 -0.0505330694
C  C25  1  0.66333000  0.81373000  0.16763000  1.0 0.3760837186
C  C26  1  0.66919000  0.78649000  0.22069000  1.0 -0.5473766051
C  C27  1  0.52603000  0.64463000  0.19713000  1.0 -0.0716243647
C  C28  1  0.51263000  0.60673000  0.20973000  1.0 -0.1016332786
C  C29  1  0.44955000  0.69625000  0.17915000  1.0 0.3892299713
C  C30  1  0.39880000  0.74610000  0.16430000  1.0 -0.5641659553
C  C31  1  0.36554000  0.62584000  0.31164000  1.0 -0.0716243647
C  C32  1  0.31401000  0.62361000  0.35661000  1.0 -0.1281519674
C  C33  1  0.32601000  0.61381000  0.29111000  1.0 0.3480835402
C  C34  1  0.31802000  0.60592000  0.25902000  1.0 -0.5812964594
C  C35  1  0.45003000  0.50293000  0.29303000  1.0 -0.043940232
C  C36  1  0.49332000  0.44912000  0.28972000  1.0 -0.1016332786
C  C37  1  0.51105000  0.51385000  0.19985000  1.0 0.150285867
C  C38  1  0.54007000  0.54167000  0.13467000  1.0 -0.0905434057
C  C39  1  0.49357000  0.56997000  0.13457000  1.0 -0.1016332786
C  C40  1  0.53134000  0.51214000  0.14134000  1.0 -0.0905434057
C  C41  1  0.49400000  0.51290000  0.22400000  1.0 0.150285867
C  C42  1  0.47711000  0.49261000  0.28671000  1.0 -0.0787894049
C  C43  1  0.87426000  0.06016000  0.48506000  1.0 0.5397201125
C  C44  1  0.91626000  0.99750000  0.50122000  1.0 -0.0505330694
C  C45  1  0.97133000  0.98173000  0.49183000  1.0 -0.0905434057
C  C46  1  0.00803000  0.92263000  0.51213000  1.0 -0.2039531897
C  C47  1  0.98966000  0.87933000  0.54179000  1.0 0.2498943701
C  C48  1  0.93458000  0.89508000  0.55118000  1.0 -0.2193820015
C  C49  1  0.89788000  0.95418000  0.53088000  1.0 -0.0905434057
C  C50  1  0.05656000  0.78466000  0.54046000  1.0 0.2567214016
C  C51  1  0.09491000  0.72941000  0.56471000  1.0 -0.2148596551
C  C52  1  0.13015000  0.68965000  0.54025000  1.0 -0.0905434057
C  C53  1  0.12757000  0.70436000  0.49278000  1.0 -0.0333653283
C  C54  1  0.08972000  0.75992000  0.46802000  1.0 -0.0716243647
C  C55  1  0.05446000  0.79966000  0.49216000  1.0 -0.2311549987
C  C56  1  0.16797000  0.66055000  0.46649000  1.0 0.5459217671
C  C57  1  0.71659000  0.12759000  0.60749000  1.0 -0.060422431
C  C58  1  0.70564000  0.13654000  0.64804000  1.0 -0.0905434057
C  C59  1  0.76060000  0.18040000  0.56230000  1.0 0.3892299713
C  C60  1  0.79901000  0.21411000  0.51301000  1.0 -0.5473766051
C  C61  1  0.69430000  0.12670000  0.75790000  1.0 -0.0905434057
C  C62  1  0.64408000  0.12968000  0.80418000  1.0 -0.0505330694
C  C63  1  0.63161000  0.21691000  0.72951000  1.0 0.3760837186
C  C64  1  0.60270000  0.27710000  0.69460000  1.0 -0.5358033831
C  C65  1  0.83544000  0.09994000  0.64874000  1.0 -0.1100212633
C  C66  1  0.87455000  0.07775000  0.66575000  1.0 -0.0505330694
C  C67  1  0.81373000  0.16763000  0.66333000  1.0 0.3760837186
C  C68  1  0.78649000  0.22069000  0.66919000  1.0 -0.5473766051
C  C69  1  0.64463000  0.19713000  0.52603000  1.0 -0.0716243647
C  C70  1  0.60673000  0.20973000  0.51263000  1.0 -0.1016332786
C  C71  1  0.69625000  0.17915000  0.44955000  1.0 0.3892299713
C  C72  1  0.74610000  0.16430000  0.39880000  1.0 -0.5641659553
C  C73  1  0.62584000  0.31164000  0.36554000  1.0 -0.0716243647
C  C74  1  0.62361000  0.35661000  0.31401000  1.0 -0.1281519674
C  C75  1  0.61381000  0.29111000  0.32601000  1.0 0.3480835402
C  C76  1  0.60592000  0.25902000  0.31802000  1.0 -0.5812964594
C  C77  1  0.50293000  0.29303000  0.45003000  1.0 -0.043940232
C  C78  1  0.44912000  0.28972000  0.49332000  1.0 -0.1016332786
C  C79  1  0.51385000  0.19985000  0.51105000  1.0 0.150285867
C  C80  1  0.54167000  0.13467000  0.54007000  1.0 -0.0905434057
C  C81  1  0.56997000  0.13457000  0.49357000  1.0 -0.1016332786
C  C82  1  0.51214000  0.14134000  0.53134000  1.0 -0.0905434057
C  C83  1  0.51290000  0.22400000  0.49400000  1.0 0.150285867
C  C84  1  0.49261000  0.28671000  0.47711000  1.0 -0.0787894049
C  C85  1  0.06016000  0.48506000  0.87426000  1.0 0.5397201125
C  C86  1  0.99750000  0.50122000  0.91626000  1.0 -0.0505330694
C  C87  1  0.98173000  0.49183000  0.97133000  1.0 -0.0905434057
C  C88  1  0.92263000  0.51213000  0.00803000  1.0 -0.2039531897
C  C89  1  0.87933000  0.54179000  0.98966000  1.0 0.2498943701
C  C90  1  0.89508000  0.55118000  0.93458000  1.0 -0.2193820015
C  C91  1  0.95418000  0.53088000  0.89788000  1.0 -0.0905434057
C  C92  1  0.78466000  0.54046000  0.05656000  1.0 0.2567214016
C  C93  1  0.72941000  0.56471000  0.09491000  1.0 -0.2148596551
C  C94  1  0.68965000  0.54025000  0.13015000  1.0 -0.0905434057
C  C95  1  0.70436000  0.49278000  0.12757000  1.0 -0.0333653283
C  C96  1  0.75992000  0.46802000  0.08972000  1.0 -0.0716243647
C  C97  1  0.79966000  0.49216000  0.05446000  1.0 -0.2311549987
C  C98  1  0.66055000  0.46649000  0.16797000  1.0 0.5459217671
C  C99  1  0.12759000  0.60749000  0.71659000  1.0 -0.060422431
C  C100  1  0.13654000  0.64804000  0.70564000  1.0 -0.0905434057
C  C101  1  0.18040000  0.56230000  0.76060000  1.0 0.3892299713
C  C102  1  0.21411000  0.51301000  0.79901000  1.0 -0.5473766051
C  C103  1  0.12670000  0.75790000  0.69430000  1.0 -0.0905434057
C  C104  1  0.12968000  0.80418000  0.64408000  1.0 -0.0505330694
C  C105  1  0.21691000  0.72951000  0.63161000  1.0 0.3760837186
C  C106  1  0.27710000  0.69460000  0.60270000  1.0 -0.5358033831
C  C107  1  0.09994000  0.64874000  0.83544000  1.0 -0.1100212633
C  C108  1  0.07775000  0.66575000  0.87455000  1.0 -0.0505330694
C  C109  1  0.16763000  0.66333000  0.81373000  1.0 0.3760837186
C  C110  1  0.22069000  0.66919000  0.78649000  1.0 -0.5473766051
C  C111  1  0.19713000  0.52603000  0.64463000  1.0 -0.0716243647
C  C112  1  0.20973000  0.51263000  0.60673000  1.0 -0.1016332786
C  C113  1  0.17915000  0.44955000  0.69625000  1.0 0.3892299713
C  C114  1  0.16430000  0.39880000  0.74610000  1.0 -0.5641659553
C  C115  1  0.31164000  0.36554000  0.62584000  1.0 -0.0716243647
C  C116  1  0.35661000  0.31401000  0.62361000  1.0 -0.1281519674
C  C117  1  0.29111000  0.32601000  0.61381000  1.0 0.3480835402
C  C118  1  0.25902000  0.31802000  0.60592000  1.0 -0.5812964594
C  C119  1  0.29303000  0.45003000  0.50293000  1.0 -0.043940232
C  C120  1  0.28972000  0.49332000  0.44912000  1.0 -0.1016332786
C  C121  1  0.19985000  0.51105000  0.51385000  1.0 0.150285867
C  C122  1  0.13467000  0.54007000  0.54167000  1.0 -0.0905434057
C  C123  1  0.13457000  0.49357000  0.56997000  1.0 -0.1016332786
C  C124  1  0.14134000  0.53134000  0.51214000  1.0 -0.0905434057
C  C125  1  0.22400000  0.49400000  0.51290000  1.0 0.150285867
C  C126  1  0.28671000  0.47711000  0.49261000  1.0 -0.0787894049
C  C127  1  0.01494000  0.43984000  0.62574000  1.0 0.5397201125
C  C128  1  0.99878000  0.50250000  0.58374000  1.0 -0.0505330694
C  C129  1  0.00817000  0.51827000  0.52867000  1.0 -0.0905434057
C  C130  1  0.98787000  0.57737000  0.49197000  1.0 -0.2039531897
C  C131  1  0.95821000  0.62067000  0.51034000  1.0 0.2498943701
C  C132  1  0.94882000  0.60492000  0.56542000  1.0 -0.2193820015
C  C133  1  0.96912000  0.54582000  0.60212000  1.0 -0.0905434057
C  C134  1  0.95954000  0.71534000  0.44344000  1.0 0.2567214016
C  C135  1  0.93529000  0.77059000  0.40509000  1.0 -0.2148596551
C  C136  1  0.95975000  0.81035000  0.36985000  1.0 -0.0905434057
C  C137  1  0.00722000  0.79564000  0.37243000  1.0 -0.0333653283
C  C138  1  0.03198000  0.74008000  0.41028000  1.0 -0.0716243647
C  C139  1  0.00784000  0.70034000  0.44554000  1.0 -0.2311549987
C  C140  1  0.03351000  0.83945000  0.33203000  1.0 0.5459217671
C  C141  1  0.89251000  0.37241000  0.78341000  1.0 -0.060422431
C  C142  1  0.85196000  0.36346000  0.79436000  1.0 -0.0905434057
C  C143  1  0.93770000  0.31960000  0.73940000  1.0 0.3892299713
C  C144  1  0.98699000  0.28589000  0.70099000  1.0 -0.5473766051
C  C145  1  0.74210000  0.37330000  0.80570000  1.0 -0.0905434057
C  C146  1  0.69582000  0.37032000  0.85592000  1.0 -0.0505330694
C  C147  1  0.77049000  0.28309000  0.86839000  1.0 0.3760837186
C  C148  1  0.80540000  0.22290000  0.89730000  1.0 -0.5358033831
C  C149  1  0.85126000  0.40006000  0.66456000  1.0 -0.1100212633
C  C150  1  0.83425000  0.42225000  0.62545000  1.0 -0.0505330694
C  C151  1  0.83667000  0.33237000  0.68627000  1.0 0.3760837186
C  C152  1  0.83081000  0.27931000  0.71351000  1.0 -0.5473766051
C  C153  1  0.97397000  0.30287000  0.85537000  1.0 -0.0716243647
C  C154  1  0.98737000  0.29027000  0.89327000  1.0 -0.1016332786
C  C155  1  0.05045000  0.32085000  0.80375000  1.0 0.3892299713
C  C156  1  0.10120000  0.33570000  0.75390000  1.0 -0.5641659553
C  C157  1  0.13446000  0.18836000  0.87416000  1.0 -0.0716243647
C  C158  1  0.18599000  0.14339000  0.87639000  1.0 -0.1281519674
C  C159  1  0.17399000  0.20889000  0.88619000  1.0 0.3480835402
C  C160  1  0.18198000  0.24098000  0.89408000  1.0 -0.5812964594
C  C161  1  0.04997000  0.20697000  0.99707000  1.0 -0.0505330694
C  C162  1  0.00668000  0.21028000  0.05088000  1.0 -0.1016332786
C  C163  1  0.98895000  0.30015000  0.98615000  1.0 0.150285867
C  C164  1  0.95993000  0.36533000  0.95833000  1.0 -0.0905434057
C  C165  1  0.00643000  0.36543000  0.93003000  1.0 -0.1016332786
C  C166  1  0.96866000  0.35866000  0.98786000  1.0 -0.0905434057
C  C167  1  0.00600000  0.27600000  0.98710000  1.0 0.150285867
C  C168  1  0.02289000  0.21329000  0.00739000  1.0 -0.0787894049
C  C169  1  0.62574000  0.01494000  0.43984000  1.0 0.5397201125
C  C170  1  0.58374000  0.99878000  0.50250000  1.0 -0.0505330694
C  C171  1  0.52867000  0.00817000  0.51827000  1.0 -0.0905434057
C  C172  1  0.49197000  0.98787000  0.57737000  1.0 -0.2039531897
C  C173  1  0.51034000  0.95821000  0.62067000  1.0 0.2498943701
C  C174  1  0.56542000  0.94882000  0.60492000  1.0 -0.2193820015
C  C175  1  0.60212000  0.96912000  0.54582000  1.0 -0.0905434057
C  C176  1  0.44344000  0.95954000  0.71534000  1.0 0.2567214016
C  C177  1  0.40509000  0.93529000  0.77059000  1.0 -0.2148596551
C  C178  1  0.36985000  0.95975000  0.81035000  1.0 -0.0905434057
C  C179  1  0.37243000  0.00722000  0.79564000  1.0 -0.0333653283
C  C180  1  0.41028000  0.03198000  0.74008000  1.0 -0.0716243647
C  C181  1  0.44554000  0.00784000  0.70034000  1.0 -0.2311549987
C  C182  1  0.33203000  0.03351000  0.83945000  1.0 0.5459217671
C  C183  1  0.78341000  0.89251000  0.37241000  1.0 -0.060422431
C  C184  1  0.79436000  0.85196000  0.36346000  1.0 -0.0905434057
C  C185  1  0.73940000  0.93770000  0.31960000  1.0 0.3892299713
C  C186  1  0.70099000  0.98699000  0.28589000  1.0 -0.5473766051
C  C187  1  0.80570000  0.74210000  0.37330000  1.0 -0.0905434057
C  C188  1  0.85592000  0.69582000  0.37032000  1.0 -0.0505330694
C  C189  1  0.86839000  0.77049000  0.28309000  1.0 0.3760837186
C  C190  1  0.89730000  0.80540000  0.22290000  1.0 -0.5358033831
C  C191  1  0.66456000  0.85126000  0.40006000  1.0 -0.1100212633
C  C192  1  0.62545000  0.83425000  0.42225000  1.0 -0.0505330694
C  C193  1  0.68627000  0.83667000  0.33237000  1.0 0.3760837186
C  C194  1  0.71351000  0.83081000  0.27931000  1.0 -0.5473766051
C  C195  1  0.85537000  0.97397000  0.30287000  1.0 -0.0716243647
C  C196  1  0.89327000  0.98737000  0.29027000  1.0 -0.1016332786
C  C197  1  0.80375000  0.05045000  0.32085000  1.0 0.3892299713
C  C198  1  0.75390000  0.10120000  0.33570000  1.0 -0.5641659553
C  C199  1  0.87416000  0.13446000  0.18836000  1.0 -0.0716243647
C  C200  1  0.87639000  0.18599000  0.14339000  1.0 -0.1281519674
C  C201  1  0.88619000  0.17399000  0.20889000  1.0 0.3480835402
C  C202  1  0.89408000  0.18198000  0.24098000  1.0 -0.5812964594
C  C203  1  0.99707000  0.04997000  0.20697000  1.0 -0.043940232
C  C204  1  0.05088000  0.00668000  0.21028000  1.0 -0.1016332786
C  C205  1  0.98615000  0.98895000  0.30015000  1.0 0.150285867
C  C206  1  0.95833000  0.95993000  0.36533000  1.0 -0.0905434057
C  C207  1  0.93003000  0.00643000  0.36543000  1.0 -0.1016332786
C  C208  1  0.98786000  0.96866000  0.35866000  1.0 -0.0905434057
C  C209  1  0.98710000  0.00600000  0.27600000  1.0 0.150285867
C  C210  1  0.00739000  0.02289000  0.21329000  1.0 -0.0787894049
C  C211  1  0.43984000  0.62574000  0.01494000  1.0 0.5397201125
C  C212  1  0.50250000  0.58374000  0.99878000  1.0 -0.0505330694
C  C213  1  0.51827000  0.52867000  0.00817000  1.0 -0.0905434057
C  C214  1  0.57737000  0.49197000  0.98787000  1.0 -0.2039531897
C  C215  1  0.62067000  0.51034000  0.95821000  1.0 0.2498943701
C  C216  1  0.60492000  0.56542000  0.94882000  1.0 -0.2193820015
C  C217  1  0.54582000  0.60212000  0.96912000  1.0 -0.0905434057
C  C218  1  0.71534000  0.44344000  0.95954000  1.0 0.2567214016
C  C219  1  0.77059000  0.40509000  0.93529000  1.0 -0.2148596551
C  C220  1  0.81035000  0.36985000  0.95975000  1.0 -0.0905434057
C  C221  1  0.79564000  0.37243000  0.00722000  1.0 -0.0333653283
C  C222  1  0.74008000  0.41028000  0.03198000  1.0 -0.0716243647
C  C223  1  0.70034000  0.44554000  0.00784000  1.0 -0.2311549987
C  C224  1  0.83945000  0.33203000  0.03351000  1.0 0.5459217671
C  C225  1  0.37241000  0.78341000  0.89251000  1.0 -0.060422431
C  C226  1  0.36346000  0.79436000  0.85196000  1.0 -0.0905434057
C  C227  1  0.31960000  0.73940000  0.93770000  1.0 0.3892299713
C  C228  1  0.28589000  0.70099000  0.98699000  1.0 -0.5473766051
C  C229  1  0.37330000  0.80570000  0.74210000  1.0 -0.0905434057
C  C230  1  0.37032000  0.85592000  0.69582000  1.0 -0.0505330694
C  C231  1  0.28309000  0.86839000  0.77049000  1.0 0.3760837186
C  C232  1  0.22290000  0.89730000  0.80540000  1.0 -0.5358033831
C  C233  1  0.40006000  0.66456000  0.85126000  1.0 -0.1100212633
C  C234  1  0.42225000  0.62545000  0.83425000  1.0 -0.0505330694
C  C235  1  0.33237000  0.68627000  0.83667000  1.0 0.3760837186
C  C236  1  0.27931000  0.71351000  0.83081000  1.0 -0.5473766051
C  C237  1  0.30287000  0.85537000  0.97397000  1.0 -0.0716243647
C  C238  1  0.29027000  0.89327000  0.98737000  1.0 -0.1016332786
C  C239  1  0.32085000  0.80375000  0.05045000  1.0 0.3892299713
C  C240  1  0.33570000  0.75390000  0.10120000  1.0 -0.5641659553
C  C241  1  0.18836000  0.87416000  0.13446000  1.0 -0.0716243647
C  C242  1  0.14339000  0.87639000  0.18599000  1.0 -0.1281519674
C  C243  1  0.20889000  0.88619000  0.17399000  1.0 0.3480835402
C  C244  1  0.24098000  0.89408000  0.18198000  1.0 -0.5812964594
C  C245  1  0.20697000  0.99707000  0.04997000  1.0 -0.043940232
C  C246  1  0.21028000  0.05088000  0.00668000  1.0 -0.1016332786
C  C247  1  0.30015000  0.98615000  0.98895000  1.0 0.150285867
C  C248  1  0.36533000  0.95833000  0.95993000  1.0 -0.0905434057
C  C249  1  0.36543000  0.93003000  0.00643000  1.0 -0.1016332786
C  C250  1  0.35866000  0.98786000  0.96866000  1.0 -0.0905434057
C  C251  1  0.27600000  0.98710000  0.00600000  1.0 0.150285867
C  C252  1  0.21329000  0.00739000  0.02289000  1.0 -0.0787894049
C  C253  1  0.51494000  0.12574000  0.93984000  1.0 0.5397201125
C  C254  1  0.49878000  0.08374000  0.00250000  1.0 -0.0505330694
C  C255  1  0.50817000  0.02867000  0.01827000  1.0 -0.0905434057
C  C256  1  0.48787000  0.99197000  0.07737000  1.0 -0.2039531897
C  C257  1  0.45821000  0.01034000  0.12067000  1.0 0.2498943701
C  C258  1  0.44882000  0.06542000  0.10492000  1.0 -0.2148596551
C  C259  1  0.46912000  0.10212000  0.04582000  1.0 -0.0905434057
C  C260  1  0.45954000  0.94344000  0.21534000  1.0 0.2567214016
C  C261  1  0.43529000  0.90509000  0.27059000  1.0 -0.2148596551
C  C262  1  0.45975000  0.86985000  0.31035000  1.0 -0.0905434057
C  C263  1  0.50722000  0.87243000  0.29564000  1.0 -0.0333653283
C  C264  1  0.53198000  0.91028000  0.24008000  1.0 -0.0716243647
C  C265  1  0.50784000  0.94554000  0.20034000  1.0 -0.2311549987
C  C266  1  0.53351000  0.83203000  0.33945000  1.0 0.5459217671
C  C267  1  0.39251000  0.28341000  0.87241000  1.0 -0.060422431
C  C268  1  0.35196000  0.29436000  0.86346000  1.0 -0.0905434057
C  C269  1  0.43770000  0.23940000  0.81960000  1.0 0.3892299713
C  C270  1  0.48699000  0.20099000  0.78589000  1.0 -0.5473766051
C  C271  1  0.24210000  0.30570000  0.87330000  1.0 -0.0905434057
C  C272  1  0.19582000  0.35592000  0.87032000  1.0 -0.0505330694
C  C273  1  0.27049000  0.36839000  0.78309000  1.0 0.3760837186
C  C274  1  0.30540000  0.39730000  0.72290000  1.0 -0.5358033831
C  C275  1  0.35126000  0.16456000  0.90006000  1.0 -0.1100212633
C  C276  1  0.33425000  0.12545000  0.92225000  1.0 -0.0505330694
C  C277  1  0.33667000  0.18627000  0.83237000  1.0 0.3760837186
C  C278  1  0.33081000  0.21351000  0.77931000  1.0 -0.5473766051
C  C279  1  0.47397000  0.35537000  0.80287000  1.0 -0.0716243647
C  C280  1  0.48737000  0.39327000  0.79027000  1.0 -0.1016332786
C  C281  1  0.55045000  0.30375000  0.82085000  1.0 0.3892299713
C  C282  1  0.60120000  0.25390000  0.83570000  1.0 -0.5641659553
C  C283  1  0.63446000  0.37416000  0.68836000  1.0 -0.0716243647
C  C284  1  0.68599000  0.37639000  0.64339000  1.0 -0.1281519674
C  C285  1  0.67399000  0.38619000  0.70889000  1.0 0.3480835402
C  C286  1  0.68198000  0.39408000  0.74098000  1.0 -0.5812964594
C  C287  1  0.54997000  0.49707000  0.70697000  1.0 -0.043940232
C  C288  1  0.50668000  0.55088000  0.71028000  1.0 -0.1016332786
C  C289  1  0.48895000  0.48615000  0.80015000  1.0 0.150285867
C  C290  1  0.45993000  0.45833000  0.86533000  1.0 -0.0905434057
C  C291  1  0.50643000  0.43003000  0.86543000  1.0 -0.1016332786
C  C292  1  0.46866000  0.48786000  0.85866000  1.0 -0.0905434057
C  C293  1  0.50600000  0.48710000  0.77600000  1.0 0.150285867
C  C294  1  0.52289000  0.50739000  0.71329000  1.0 -0.0787894049
C  C295  1  0.12574000  0.93984000  0.51494000  1.0 0.5397201125
C  C296  1  0.08374000  0.00250000  0.49878000  1.0 -0.0505330694
C  C297  1  0.02867000  0.01827000  0.50817000  1.0 -0.0905434057
C  C298  1  0.99197000  0.07737000  0.48787000  1.0 -0.2039531897
C  C299  1  0.01034000  0.12067000  0.45821000  1.0 0.2498943701
C  C300  1  0.06542000  0.10492000  0.44882000  1.0 -0.2193820015
C  C301  1  0.10212000  0.04582000  0.46912000  1.0 -0.0905434057
C  C302  1  0.94344000  0.21534000  0.45954000  1.0 0.2567214016
C  C303  1  0.90509000  0.27059000  0.43529000  1.0 -0.2148596551
C  C304  1  0.86985000  0.31035000  0.45975000  1.0 -0.0905434057
C  C305  1  0.87243000  0.29564000  0.50722000  1.0 -0.0333653283
C  C306  1  0.91028000  0.24008000  0.53198000  1.0 -0.0716243647
C  C307  1  0.94554000  0.20034000  0.50784000  1.0 -0.2311549987
C  C308  1  0.83203000  0.33945000  0.53351000  1.0 0.5459217671
C  C309  1  0.28341000  0.87241000  0.39251000  1.0 -0.060422431
C  C310  1  0.29436000  0.86346000  0.35196000  1.0 -0.0905434057
C  C311  1  0.23940000  0.81960000  0.43770000  1.0 0.3892299713
C  C312  1  0.20099000  0.78589000  0.48699000  1.0 -0.5473766051
C  C313  1  0.30570000  0.87330000  0.24210000  1.0 -0.0905434057
C  C314  1  0.35592000  0.87032000  0.19582000  1.0 -0.0505330694
C  C315  1  0.36839000  0.78309000  0.27049000  1.0 0.3760837186
C  C316  1  0.39730000  0.72290000  0.30540000  1.0 -0.5358033831
C  C317  1  0.16456000  0.90006000  0.35126000  1.0 -0.1100212633
C  C318  1  0.12545000  0.92225000  0.33425000  1.0 -0.0505330694
C  C319  1  0.18627000  0.83237000  0.33667000  1.0 0.3760837186
C  C320  1  0.21351000  0.77931000  0.33081000  1.0 -0.5473766051
C  C321  1  0.35537000  0.80287000  0.47397000  1.0 -0.0716243647
C  C322  1  0.39327000  0.79027000  0.48737000  1.0 -0.1016332786
C  C323  1  0.30375000  0.82085000  0.55045000  1.0 0.3892299713
C  C324  1  0.25390000  0.83570000  0.60120000  1.0 -0.5641659553
C  C325  1  0.37416000  0.68836000  0.63446000  1.0 -0.0716243647
C  C326  1  0.37639000  0.64339000  0.68599000  1.0 -0.1281519674
C  C327  1  0.38619000  0.70889000  0.67399000  1.0 0.3480835402
C  C328  1  0.39408000  0.74098000  0.68198000  1.0 -0.5812964594
C  C329  1  0.49707000  0.70697000  0.54997000  1.0 -0.043940232
C  C330  1  0.55088000  0.71028000  0.50668000  1.0 -0.1016332786
C  C331  1  0.48615000  0.80015000  0.48895000  1.0 0.150285867
C  C332  1  0.45833000  0.86533000  0.45993000  1.0 -0.0905434057
C  C333  1  0.43003000  0.86543000  0.50643000  1.0 -0.1016332786
C  C334  1  0.48786000  0.85866000  0.46866000  1.0 -0.0905434057
C  C335  1  0.48710000  0.77600000  0.50600000  1.0 0.150285867
C  C336  1  0.50739000  0.71329000  0.52289000  1.0 -0.0787894049
C  C337  1  0.93984000  0.51494000  0.12574000  1.0 0.5397201125
C  C338  1  0.00250000  0.49878000  0.08374000  1.0 -0.0505330694
C  C339  1  0.01827000  0.50817000  0.02867000  1.0 -0.0905434057
C  C340  1  0.07737000  0.48787000  0.99197000  1.0 -0.2039531897
C  C341  1  0.12067000  0.45821000  0.01034000  1.0 0.2498943701
C  C342  1  0.10492000  0.44882000  0.06542000  1.0 -0.2193820015
C  C343  1  0.04582000  0.46912000  0.10212000  1.0 -0.0905434057
C  C344  1  0.21534000  0.45954000  0.94344000  1.0 0.2567214016
C  C345  1  0.27059000  0.43529000  0.90509000  1.0 -0.2148596551
C  C346  1  0.31035000  0.45975000  0.86985000  1.0 -0.0905434057
C  C347  1  0.29564000  0.50722000  0.87243000  1.0 -0.0333653283
C  C348  1  0.24008000  0.53198000  0.91028000  1.0 -0.0716243647
C  C349  1  0.20034000  0.50784000  0.94554000  1.0 -0.2311549987
C  C350  1  0.33945000  0.53351000  0.83203000  1.0 0.5459217671
C  C351  1  0.87241000  0.39251000  0.28341000  1.0 -0.060422431
C  C352  1  0.86346000  0.35196000  0.29436000  1.0 -0.0905434057
C  C353  1  0.81960000  0.43770000  0.23940000  1.0 0.3892299713
C  C354  1  0.78589000  0.48699000  0.20099000  1.0 -0.5473766051
C  C355  1  0.87330000  0.24210000  0.30570000  1.0 -0.0905434057
C  C356  1  0.87032000  0.19582000  0.35592000  1.0 -0.0505330694
C  C357  1  0.78309000  0.27049000  0.36839000  1.0 0.3760837186
C  C358  1  0.72290000  0.30540000  0.39730000  1.0 -0.5358033831
C  C359  1  0.90006000  0.35126000  0.16456000  1.0 -0.1100212633
C  C360  1  0.92225000  0.33425000  0.12545000  1.0 -0.0505330694
C  C361  1  0.83237000  0.33667000  0.18627000  1.0 0.3760837186
C  C362  1  0.77931000  0.33081000  0.21351000  1.0 -0.5473766051
C  C363  1  0.80287000  0.47397000  0.35537000  1.0 -0.0716243647
C  C364  1  0.79027000  0.48737000  0.39327000  1.0 -0.1016332786
C  C365  1  0.82085000  0.55045000  0.30375000  1.0 0.3892299713
C  C366  1  0.83570000  0.60120000  0.25390000  1.0 -0.5641659553
C  C367  1  0.68836000  0.63446000  0.37416000  1.0 -0.0716243647
C  C368  1  0.64339000  0.68599000  0.37639000  1.0 -0.1281519674
C  C369  1  0.70889000  0.67399000  0.38619000  1.0 0.3480835402
C  C370  1  0.74098000  0.68198000  0.39408000  1.0 -0.5812964594
C  C371  1  0.70697000  0.54997000  0.49707000  1.0 -0.043940232
C  C372  1  0.71028000  0.50668000  0.55088000  1.0 -0.1016332786
C  C373  1  0.80015000  0.48895000  0.48615000  1.0 0.150285867
C  C374  1  0.86533000  0.45993000  0.45833000  1.0 -0.0905434057
C  C375  1  0.86543000  0.50643000  0.43003000  1.0 -0.1016332786
C  C376  1  0.85866000  0.46866000  0.48786000  1.0 -0.0905434057
C  C377  1  0.77600000  0.50600000  0.48710000  1.0 0.150285867
C  C378  1  0.71329000  0.52289000  0.50739000  1.0 -0.0787894049
C  C379  1  0.98506000  0.56016000  0.37426000  1.0 0.5397201125
C  C380  1  0.00122000  0.49750000  0.41626000  1.0 -0.0505330694
C  C381  1  0.99183000  0.48173000  0.47133000  1.0 -0.0905434057
C  C382  1  0.01213000  0.42263000  0.50803000  1.0 -0.2039531897
C  C383  1  0.04179000  0.37933000  0.48966000  1.0 0.2498943701
C  C384  1  0.05118000  0.39508000  0.43458000  1.0 -0.2193820015
C  C385  1  0.03088000  0.45418000  0.39788000  1.0 -0.0905434057
C  C386  1  0.04046000  0.28466000  0.55656000  1.0 0.2567214016
C  C387  1  0.06471000  0.22941000  0.59491000  1.0 -0.2148596551
C  C388  1  0.04025000  0.18965000  0.63015000  1.0 -0.0905434057
C  C389  1  0.99278000  0.20436000  0.62757000  1.0 -0.0333653283
C  C390  1  0.96802000  0.25992000  0.58972000  1.0 -0.0716243647
C  C391  1  0.99216000  0.29966000  0.55446000  1.0 -0.2311549987
C  C392  1  0.96649000  0.16055000  0.66797000  1.0 0.5459217671
C  C393  1  0.10749000  0.62759000  0.21659000  1.0 -0.060422431
C  C394  1  0.14804000  0.63654000  0.20564000  1.0 -0.0905434057
C  C395  1  0.06230000  0.68040000  0.26060000  1.0 0.3892299713
C  C396  1  0.01301000  0.71411000  0.29901000  1.0 -0.5473766051
C  C397  1  0.25790000  0.62670000  0.19430000  1.0 -0.0905434057
C  C398  1  0.30418000  0.62968000  0.14408000  1.0 -0.0505330694
C  C399  1  0.22951000  0.71691000  0.13161000  1.0 0.3760837186
C  C400  1  0.19460000  0.77710000  0.10270000  1.0 -0.5358033831
C  C401  1  0.14874000  0.59994000  0.33544000  1.0 -0.1100212633
C  C402  1  0.16575000  0.57775000  0.37455000  1.0 -0.0505330694
C  C403  1  0.16333000  0.66763000  0.31373000  1.0 0.3760837186
C  C404  1  0.16919000  0.72069000  0.28649000  1.0 -0.5473766051
C  C405  1  0.02603000  0.69713000  0.14463000  1.0 -0.0716243647
C  C406  1  0.01263000  0.70973000  0.10673000  1.0 -0.1016332786
C  C407  1  0.94955000  0.67915000  0.19625000  1.0 0.3892299713
C  C408  1  0.89880000  0.66430000  0.24610000  1.0 -0.5641659553
C  C409  1  0.86554000  0.81164000  0.12584000  1.0 -0.0716243647
C  C410  1  0.81401000  0.85661000  0.12361000  1.0 -0.1281519674
C  C411  1  0.82601000  0.79111000  0.11381000  1.0 0.3480835402
C  C412  1  0.81802000  0.75902000  0.10592000  1.0 -0.5812964594
C  C413  1  0.95003000  0.79303000  0.00293000  1.0 -0.043940232
C  C414  1  0.99332000  0.78972000  0.94912000  1.0 -0.1016332786
C  C415  1  0.01105000  0.69985000  0.01385000  1.0 0.150285867
C  C416  1  0.04007000  0.63467000  0.04167000  1.0 -0.0905434057
C  C417  1  0.99357000  0.63457000  0.06997000  1.0 -0.1016332786
C  C418  1  0.03134000  0.64134000  0.01214000  1.0 -0.0905434057
C  C419  1  0.99400000  0.72400000  0.01290000  1.0 0.150285867
C  C420  1  0.97711000  0.78671000  0.99261000  1.0 -0.0787894049
C  C421  1  0.37426000  0.98506000  0.56016000  1.0 0.5397201125
C  C422  1  0.41626000  0.00122000  0.49750000  1.0 -0.0505330694
C  C423  1  0.47133000  0.99183000  0.48173000  1.0 -0.0905434057
C  C424  1  0.50803000  0.01213000  0.42263000  1.0 -0.2039531897
C  C425  1  0.48966000  0.04179000  0.37933000  1.0 0.2498943701
C  C426  1  0.43458000  0.05118000  0.39508000  1.0 -0.2193820015
C  C427  1  0.39788000  0.03088000  0.45418000  1.0 -0.0905434057
C  C428  1  0.55656000  0.04046000  0.28466000  1.0 0.2567214016
C  C429  1  0.59491000  0.06471000  0.22941000  1.0 -0.2148596551
C  C430  1  0.63015000  0.04025000  0.18965000  1.0 -0.0905434057
C  C431  1  0.62757000  0.99278000  0.20436000  1.0 -0.0333653283
C  C432  1  0.58972000  0.96802000  0.25992000  1.0 -0.0716243647
C  C433  1  0.55446000  0.99216000  0.29966000  1.0 -0.2311549987
C  C434  1  0.66797000  0.96649000  0.16055000  1.0 0.5459217671
C  C435  1  0.21659000  0.10749000  0.62759000  1.0 -0.060422431
C  C436  1  0.20564000  0.14804000  0.63654000  1.0 -0.0905434057
C  C437  1  0.26060000  0.06230000  0.68040000  1.0 0.3892299713
C  C438  1  0.29901000  0.01301000  0.71411000  1.0 -0.5473766051
C  C439  1  0.19430000  0.25790000  0.62670000  1.0 -0.0905434057
C  C440  1  0.14408000  0.30418000  0.62968000  1.0 -0.0505330694
C  C441  1  0.13161000  0.22951000  0.71691000  1.0 0.3760837186
C  C442  1  0.10270000  0.19460000  0.77710000  1.0 -0.5358033831
C  C443  1  0.33544000  0.14874000  0.59994000  1.0 -0.1100212633
C  C444  1  0.37455000  0.16575000  0.57775000  1.0 -0.0505330694
C  C445  1  0.31373000  0.16333000  0.66763000  1.0 0.3760837186
C  C446  1  0.28649000  0.16919000  0.72069000  1.0 -0.5473766051
C  C447  1  0.14463000  0.02603000  0.69713000  1.0 -0.0716243647
C  C448  1  0.10673000  0.01263000  0.70973000  1.0 -0.1016332786
C  C449  1  0.19625000  0.94955000  0.67915000  1.0 0.3892299713
C  C450  1  0.24610000  0.89880000  0.66430000  1.0 -0.5641659553
C  C451  1  0.12584000  0.86554000  0.81164000  1.0 -0.0716243647
C  C452  1  0.12361000  0.81401000  0.85661000  1.0 -0.1281519674
C  C453  1  0.11381000  0.82601000  0.79111000  1.0 0.3480835402
C  C454  1  0.10592000  0.81802000  0.75902000  1.0 -0.5812964594
C  C455  1  0.00293000  0.95003000  0.79303000  1.0 -0.043940232
C  C456  1  0.94912000  0.99332000  0.78972000  1.0 -0.1016332786
C  C457  1  0.01385000  0.01105000  0.69985000  1.0 0.150285867
C  C458  1  0.04167000  0.04007000  0.63467000  1.0 -0.0905434057
C  C459  1  0.06997000  0.99357000  0.63457000  1.0 -0.1016332786
C  C460  1  0.01214000  0.03134000  0.64134000  1.0 -0.0905434057
C  C461  1  0.01290000  0.99400000  0.72400000  1.0 0.150285867
C  C462  1  0.99261000  0.97711000  0.78671000  1.0 -0.0787894049
C  C463  1  0.56016000  0.37426000  0.98506000  1.0 0.5397201125
C  C464  1  0.49750000  0.41626000  0.00122000  1.0 -0.0505330694
C  C465  1  0.48173000  0.47133000  0.99183000  1.0 -0.0905434057
C  C466  1  0.42263000  0.50803000  0.01213000  1.0 -0.2039531897
C  C467  1  0.37933000  0.48966000  0.04179000  1.0 0.2498943701
C  C468  1  0.39508000  0.43458000  0.05118000  1.0 -0.2193820015
C  C469  1  0.45418000  0.39788000  0.03088000  1.0 -0.0905434057
C  C470  1  0.28466000  0.55656000  0.04046000  1.0 0.2567214016
C  C471  1  0.22941000  0.59491000  0.06471000  1.0 -0.2148596551
C  C472  1  0.18965000  0.63015000  0.04025000  1.0 -0.0905434057
C  C473  1  0.20436000  0.62757000  0.99278000  1.0 -0.0333653283
C  C474  1  0.25992000  0.58972000  0.96802000  1.0 -0.0716243647
C  C475  1  0.29966000  0.55446000  0.99216000  1.0 -0.2311549987
C  C476  1  0.16055000  0.66797000  0.96649000  1.0 0.5459217671
C  C477  1  0.62759000  0.21659000  0.10749000  1.0 -0.060422431
C  C478  1  0.63654000  0.20564000  0.14804000  1.0 -0.0905434057
C  C479  1  0.68040000  0.26060000  0.06230000  1.0 0.3892299713
C  C480  1  0.71411000  0.29901000  0.01301000  1.0 -0.5473766051
C  C481  1  0.62670000  0.19430000  0.25790000  1.0 -0.0905434057
C  C482  1  0.62968000  0.14408000  0.30418000  1.0 -0.0505330694
C  C483  1  0.71691000  0.13161000  0.22951000  1.0 0.3760837186
C  C484  1  0.77710000  0.10270000  0.19460000  1.0 -0.5358033831
C  C485  1  0.59994000  0.33544000  0.14874000  1.0 -0.1100212633
C  C486  1  0.57775000  0.37455000  0.16575000  1.0 -0.0505330694
C  C487  1  0.66763000  0.31373000  0.16333000  1.0 0.3760837186
C  C488  1  0.72069000  0.28649000  0.16919000  1.0 -0.5473766051
C  C489  1  0.69713000  0.14463000  0.02603000  1.0 -0.0716243647
C  C490  1  0.70973000  0.10673000  0.01263000  1.0 -0.1016332786
C  C491  1  0.67915000  0.19625000  0.94955000  1.0 0.3892299713
C  C492  1  0.66430000  0.24610000  0.89880000  1.0 -0.5641659553
C  C493  1  0.81164000  0.12584000  0.86554000  1.0 -0.0716243647
C  C494  1  0.85661000  0.12361000  0.81401000  1.0 -0.1281519674
C  C495  1  0.79111000  0.11381000  0.82601000  1.0 0.3480835402
C  C496  1  0.75902000  0.10592000  0.81802000  1.0 -0.5812964594
C  C497  1  0.79303000  0.00293000  0.95003000  1.0 -0.043940232
C  C498  1  0.78972000  0.94912000  0.99332000  1.0 -0.1016332786
C  C499  1  0.69985000  0.01385000  0.01105000  1.0 0.150285867
C  C500  1  0.63467000  0.04167000  0.04007000  1.0 -0.0905434057
C  C501  1  0.63457000  0.06997000  0.99357000  1.0 -0.1016332786
C  C502  1  0.64134000  0.01214000  0.03134000  1.0 -0.0905434057
C  C503  1  0.72400000  0.01290000  0.99400000  1.0 0.150285867
C  C504  1  0.78671000  0.99261000  0.97711000  1.0 -0.0787894049
N  N1  1  0.61807000  0.73660000  0.16933000  1.0 -0.2572948839
N  N2  1  0.55169000  0.75089000  0.15719000  1.0 -0.3579750233
N  N3  1  0.70943000  0.68599000  0.18072000  1.0 -0.2572948839
N  N4  1  0.78672000  0.60210000  0.18951000  1.0 -0.3789377864
N  N5  1  0.65111000  0.79430000  0.15566000  1.0 -0.2502929823
N  N6  1  0.67341000  0.86251000  0.12221000  1.0 -0.4170817391
N  N7  1  0.48629000  0.70213000  0.17655000  1.0 -0.3533012128
N  N8  1  0.46398000  0.63948000  0.19758000  1.0 -0.3139240102
N  N9  1  0.37380000  0.62028000  0.26859000  1.0 -0.3579750233
N  N10  1  0.28814000  0.61694000  0.34364000  1.0 -0.3579750233
N  N11  1  0.46242000  0.54372000  0.23562000  1.0 0.0060681473
N  N12  1  0.53041000  0.45571000  0.23281000  1.0 -0.1669921434
N  N13  1  0.46725000  0.56865000  0.18885000  1.0 -0.060422431
N  N14  1  0.53309000  0.47769000  0.19519000  1.0 -0.1399789955
N  N15  1  0.73660000  0.16933000  0.61807000  1.0 -0.2572948839
N  N16  1  0.75089000  0.15719000  0.55169000  1.0 -0.3579750233
N  N17  1  0.68599000  0.18072000  0.70943000  1.0 -0.2572948839
N  N18  1  0.60210000  0.18951000  0.78672000  1.0 -0.3789377864
N  N19  1  0.79430000  0.15566000  0.65111000  1.0 -0.2502929823
N  N20  1  0.86251000  0.12221000  0.67341000  1.0 -0.4170817391
N  N21  1  0.70213000  0.17655000  0.48629000  1.0 -0.3533012128
N  N22  1  0.63948000  0.19758000  0.46398000  1.0 -0.3139240102
N  N23  1  0.62028000  0.26859000  0.37380000  1.0 -0.3579750233
N  N24  1  0.61694000  0.34364000  0.28814000  1.0 -0.3579750233
N  N25  1  0.54372000  0.23562000  0.46242000  1.0 0.0060681473
N  N26  1  0.45571000  0.23281000  0.53041000  1.0 -0.1669921434
N  N27  1  0.56865000  0.18885000  0.46725000  1.0 -0.060422431
N  N28  1  0.47769000  0.19519000  0.53309000  1.0 -0.1399789955
N  N29  1  0.16933000  0.61807000  0.73660000  1.0 -0.2572948839
N  N30  1  0.15719000  0.55169000  0.75089000  1.0 -0.3579750233
N  N31  1  0.18072000  0.70943000  0.68599000  1.0 -0.2572948839
N  N32  1  0.18951000  0.78672000  0.60210000  1.0 -0.3789377864
N  N33  1  0.15566000  0.65111000  0.79430000  1.0 -0.2502929823
N  N34  1  0.12221000  0.67341000  0.86251000  1.0 -0.4170817391
N  N35  1  0.17655000  0.48629000  0.70213000  1.0 -0.3533012128
N  N36  1  0.19758000  0.46398000  0.63948000  1.0 -0.3139240102
N  N37  1  0.26859000  0.37380000  0.62028000  1.0 -0.3579750233
N  N38  1  0.34364000  0.28814000  0.61694000  1.0 -0.3579750233
N  N39  1  0.23562000  0.46242000  0.54372000  1.0 0.0060681473
N  N40  1  0.23281000  0.53041000  0.45571000  1.0 -0.1669921434
N  N41  1  0.18885000  0.46725000  0.56865000  1.0 -0.060422431
N  N42  1  0.19519000  0.53309000  0.47769000  1.0 -0.1399789955
N  N43  1  0.88193000  0.33067000  0.76340000  1.0 -0.2572948839
N  N44  1  0.94831000  0.34281000  0.74911000  1.0 -0.3579750233
N  N45  1  0.79057000  0.31928000  0.81401000  1.0 -0.2572948839
N  N46  1  0.71328000  0.31049000  0.89790000  1.0 -0.3789377864
N  N47  1  0.84889000  0.34434000  0.70570000  1.0 -0.2502929823
N  N48  1  0.82659000  0.37779000  0.63749000  1.0 -0.4170817391
N  N49  1  0.01371000  0.32345000  0.79787000  1.0 -0.3533012128
N  N50  1  0.03602000  0.30242000  0.86052000  1.0 -0.3139240102
N  N51  1  0.12620000  0.23141000  0.87972000  1.0 -0.3579750233
N  N52  1  0.21186000  0.15636000  0.88306000  1.0 -0.3579750233
N  N53  1  0.03758000  0.26438000  0.95628000  1.0 0.0060681473
N  N54  1  0.96959000  0.26719000  0.04429000  1.0 -0.1669921434
N  N55  1  0.03275000  0.31115000  0.93135000  1.0 -0.060422431
N  N56  1  0.96691000  0.30481000  0.02231000  1.0 -0.1399789955
N  N57  1  0.76340000  0.88193000  0.33067000  1.0 -0.2572948839
N  N58  1  0.74911000  0.94831000  0.34281000  1.0 -0.3579750233
N  N59  1  0.81401000  0.79057000  0.31928000  1.0 -0.2572948839
N  N60  1  0.89790000  0.71328000  0.31049000  1.0 -0.3789377864
N  N61  1  0.70570000  0.84889000  0.34434000  1.0 -0.2502929823
N  N62  1  0.63749000  0.82659000  0.37779000  1.0 -0.4170817391
N  N63  1  0.79787000  0.01371000  0.32345000  1.0 -0.3533012128
N  N64  1  0.86052000  0.03602000  0.30242000  1.0 -0.3139240102
N  N65  1  0.87972000  0.12620000  0.23141000  1.0 -0.3579750233
N  N66  1  0.88306000  0.21186000  0.15636000  1.0 -0.3579750233
N  N67  1  0.95628000  0.03758000  0.26438000  1.0 0.0060681473
N  N68  1  0.04429000  0.96959000  0.26719000  1.0 -0.1669921434
N  N69  1  0.93135000  0.03275000  0.31115000  1.0 -0.060422431
N  N70  1  0.02231000  0.96691000  0.30481000  1.0 -0.1399789955
N  N71  1  0.33067000  0.76340000  0.88193000  1.0 -0.2572948839
N  N72  1  0.34281000  0.74911000  0.94831000  1.0 -0.3579750233
N  N73  1  0.31928000  0.81401000  0.79057000  1.0 -0.2572948839
N  N74  1  0.31049000  0.89790000  0.71328000  1.0 -0.3789377864
N  N75  1  0.34434000  0.70570000  0.84889000  1.0 -0.2502929823
N  N76  1  0.37779000  0.63749000  0.82659000  1.0 -0.4170817391
N  N77  1  0.32345000  0.79787000  0.01371000  1.0 -0.3533012128
N  N78  1  0.30242000  0.86052000  0.03602000  1.0 -0.3139240102
N  N79  1  0.23141000  0.87972000  0.12620000  1.0 -0.3579750233
N  N80  1  0.15636000  0.88306000  0.21186000  1.0 -0.3579750233
N  N81  1  0.26438000  0.95628000  0.03758000  1.0 0.0060681473
N  N82  1  0.26719000  0.04429000  0.96959000  1.0 -0.1669921434
N  N83  1  0.31115000  0.93135000  0.03275000  1.0 -0.060422431
N  N84  1  0.30481000  0.02231000  0.96691000  1.0 -0.1399789955
N  N85  1  0.38193000  0.26340000  0.83067000  1.0 -0.2572948839
N  N86  1  0.44831000  0.24911000  0.84281000  1.0 -0.3579750233
N  N87  1  0.29057000  0.31401000  0.81928000  1.0 -0.2572948839
N  N88  1  0.21328000  0.39790000  0.81049000  1.0 -0.3789377864
N  N89  1  0.34889000  0.20570000  0.84434000  1.0 -0.2502929823
N  N90  1  0.32659000  0.13749000  0.87779000  1.0 -0.4170817391
N  N91  1  0.51371000  0.29787000  0.82345000  1.0 -0.3533012128
N  N92  1  0.53602000  0.36052000  0.80242000  1.0 -0.3139240102
N  N93  1  0.62620000  0.37972000  0.73141000  1.0 -0.3579750233
N  N94  1  0.71186000  0.38306000  0.65636000  1.0 -0.3579750233
N  N95  1  0.53758000  0.45628000  0.76438000  1.0 0.0060681473
N  N96  1  0.46959000  0.54429000  0.76719000  1.0 -0.1669921434
N  N97  1  0.53275000  0.43135000  0.81115000  1.0 -0.060422431
N  N98  1  0.46691000  0.52231000  0.80481000  1.0 -0.1399789955
N  N99  1  0.26340000  0.83067000  0.38193000  1.0 -0.2572948839
N  N100  1  0.24911000  0.84281000  0.44831000  1.0 -0.3579750233
N  N101  1  0.31401000  0.81928000  0.29057000  1.0 -0.2572948839
N  N102  1  0.39790000  0.81049000  0.21328000  1.0 -0.3789377864
N  N103  1  0.20570000  0.84434000  0.34889000  1.0 -0.2502929823
N  N104  1  0.13749000  0.87779000  0.32659000  1.0 -0.4170817391
N  N105  1  0.29787000  0.82345000  0.51371000  1.0 -0.3533012128
N  N106  1  0.36052000  0.80242000  0.53602000  1.0 -0.3139240102
N  N107  1  0.37972000  0.73141000  0.62620000  1.0 -0.3579750233
N  N108  1  0.38306000  0.65636000  0.71186000  1.0 -0.3579750233
N  N109  1  0.45628000  0.76438000  0.53758000  1.0 0.0060681473
N  N110  1  0.54429000  0.76719000  0.46959000  1.0 -0.1669921434
N  N111  1  0.43135000  0.81115000  0.53275000  1.0 -0.060422431
N  N112  1  0.52231000  0.80481000  0.46691000  1.0 -0.1399789955
N  N113  1  0.83067000  0.38193000  0.26340000  1.0 -0.2572948839
N  N114  1  0.84281000  0.44831000  0.24911000  1.0 -0.3579750233
N  N115  1  0.81928000  0.29057000  0.31401000  1.0 -0.2572948839
N  N116  1  0.81049000  0.21328000  0.39790000  1.0 -0.3789377864
N  N117  1  0.84434000  0.34889000  0.20570000  1.0 -0.2502929823
N  N118  1  0.87779000  0.32659000  0.13749000  1.0 -0.4170817391
N  N119  1  0.82345000  0.51371000  0.29787000  1.0 -0.3533012128
N  N120  1  0.80242000  0.53602000  0.36052000  1.0 -0.3139240102
N  N121  1  0.73141000  0.62620000  0.37972000  1.0 -0.3579750233
N  N122  1  0.65636000  0.71186000  0.38306000  1.0 -0.3579750233
N  N123  1  0.76438000  0.53758000  0.45628000  1.0 0.0060681473
N  N124  1  0.76719000  0.46959000  0.54429000  1.0 -0.1669921434
N  N125  1  0.81115000  0.53275000  0.43135000  1.0 -0.060422431
N  N126  1  0.80481000  0.46691000  0.52231000  1.0 -0.1399789955
N  N127  1  0.11807000  0.66933000  0.23660000  1.0 -0.2572948839
N  N128  1  0.05169000  0.65719000  0.25089000  1.0 -0.3579750233
N  N129  1  0.20943000  0.68072000  0.18599000  1.0 -0.2572948839
N  N130  1  0.28672000  0.68951000  0.10210000  1.0 -0.3789377864
N  N131  1  0.15111000  0.65566000  0.29430000  1.0 -0.2502929823
N  N132  1  0.17341000  0.62221000  0.36251000  1.0 -0.4170817391
N  N133  1  0.98629000  0.67655000  0.20213000  1.0 -0.3533012128
N  N134  1  0.96398000  0.69758000  0.13948000  1.0 -0.3139240102
N  N135  1  0.87380000  0.76859000  0.12028000  1.0 -0.3579750233
N  N136  1  0.78814000  0.84364000  0.11694000  1.0 -0.3579750233
N  N137  1  0.96242000  0.73562000  0.04372000  1.0 0.0060681473
N  N138  1  0.03041000  0.73281000  0.95571000  1.0 -0.1669921434
N  N139  1  0.96725000  0.68885000  0.06865000  1.0 -0.060422431
N  N140  1  0.03309000  0.69519000  0.97769000  1.0 -0.1399789955
N  N141  1  0.23660000  0.11807000  0.66933000  1.0 -0.2572948839
N  N142  1  0.25089000  0.05169000  0.65719000  1.0 -0.3579750233
N  N143  1  0.18599000  0.20943000  0.68072000  1.0 -0.2572948839
N  N144  1  0.10210000  0.28672000  0.68951000  1.0 -0.3789377864
N  N145  1  0.29430000  0.15111000  0.65566000  1.0 -0.2502929823
N  N146  1  0.36251000  0.17341000  0.62221000  1.0 -0.4170817391
N  N147  1  0.20213000  0.98629000  0.67655000  1.0 -0.3533012128
N  N148  1  0.13948000  0.96398000  0.69758000  1.0 -0.3139240102
N  N149  1  0.12028000  0.87380000  0.76859000  1.0 -0.3579750233
N  N150  1  0.11694000  0.78814000  0.84364000  1.0 -0.3579750233
N  N151  1  0.04372000  0.96242000  0.73562000  1.0 0.0060681473
N  N152  1  0.95571000  0.03041000  0.73281000  1.0 -0.1669921434
N  N153  1  0.06865000  0.96725000  0.68885000  1.0 -0.060422431
N  N154  1  0.97769000  0.03309000  0.69519000  1.0 -0.1399789955
N  N155  1  0.66933000  0.23660000  0.11807000  1.0 -0.2572948839
N  N156  1  0.65719000  0.25089000  0.05169000  1.0 -0.3579750233
N  N157  1  0.68072000  0.18599000  0.20943000  1.0 -0.2572948839
N  N158  1  0.68951000  0.10210000  0.28672000  1.0 -0.3789377864
N  N159  1  0.65566000  0.29430000  0.15111000  1.0 -0.2502929823
N  N160  1  0.62221000  0.36251000  0.17341000  1.0 -0.4170817391
N  N161  1  0.67655000  0.20213000  0.98629000  1.0 -0.3533012128
N  N162  1  0.69758000  0.13948000  0.96398000  1.0 -0.3139240102
N  N163  1  0.76859000  0.12028000  0.87380000  1.0 -0.3579750233
N  N164  1  0.84364000  0.11694000  0.78814000  1.0 -0.3579750233
N  N165  1  0.73562000  0.04372000  0.96242000  1.0 0.0060681473
N  N166  1  0.73281000  0.95571000  0.03041000  1.0 -0.1669921434
N  N167  1  0.68885000  0.06865000  0.96725000  1.0 -0.060422431
N  N168  1  0.69519000  0.97769000  0.03309000  1.0 -0.1399789955
O  O1  1  0.48548000  0.82859000  0.07520000  1.0 -0.529982103
O  O2  1  0.47205000  0.88625000  0.09745000  1.0 -0.5681971367
O  O3  1  0.42986000  0.15619000  0.67191000  1.0 -0.529982103
O  O4  1  0.47977000  0.21033000  0.61679000  1.0 -0.5473766051
O  O5  1  0.56903000  0.02283000  0.82063000  1.0 -0.2193820015
O  O6  1  0.82859000  0.07520000  0.48548000  1.0 -0.529982103
O  O7  1  0.88625000  0.09745000  0.47205000  1.0 -0.5681971367
O  O8  1  0.15619000  0.67191000  0.42986000  1.0 -0.529982103
O  O9  1  0.21033000  0.61679000  0.47977000  1.0 -0.5473766051
O  O10  1  0.02283000  0.82063000  0.56903000  1.0 -0.2311549987
O  O11  1  0.07520000  0.48548000  0.82859000  1.0 -0.529982103
O  O12  1  0.09745000  0.47205000  0.88625000  1.0 -0.5681971367
O  O13  1  0.67191000  0.42986000  0.15619000  1.0 -0.529982103
O  O14  1  0.61679000  0.47977000  0.21033000  1.0 -0.5473766051
O  O15  1  0.82063000  0.56903000  0.02283000  1.0 -0.2193820015
O  O16  1  0.01452000  0.42480000  0.67141000  1.0 -0.529982103
O  O17  1  0.02795000  0.40255000  0.61375000  1.0 -0.5681971367
O  O18  1  0.07014000  0.82809000  0.34381000  1.0 -0.529982103
O  O19  1  0.02023000  0.88321000  0.28967000  1.0 -0.5473766051
O  O20  1  0.93097000  0.67937000  0.47717000  1.0 -0.2193820015
O  O21  1  0.67141000  0.01452000  0.42480000  1.0 -0.529982103
O  O22  1  0.61375000  0.02795000  0.40255000  1.0 -0.5681971367
O  O23  1  0.34381000  0.07014000  0.82809000  1.0 -0.529982103
O  O24  1  0.28967000  0.02023000  0.88321000  1.0 -0.5473766051
O  O25  1  0.47717000  0.93097000  0.67937000  1.0 -0.2311549987
O  O26  1  0.42480000  0.67141000  0.01452000  1.0 -0.529982103
O  O27  1  0.40255000  0.61375000  0.02795000  1.0 -0.5681971367
O  O28  1  0.82809000  0.34381000  0.07014000  1.0 -0.529982103
O  O29  1  0.88321000  0.28967000  0.02023000  1.0 -0.5473766051
O  O30  1  0.67937000  0.47717000  0.93097000  1.0 -0.2311549987
O  O31  1  0.51452000  0.17141000  0.92480000  1.0 -0.529982103
O  O32  1  0.52795000  0.11375000  0.90255000  1.0 -0.5681971367
O  O33  1  0.57014000  0.84381000  0.32809000  1.0 -0.529982103
O  O34  1  0.52023000  0.78967000  0.38321000  1.0 -0.5473766051
O  O35  1  0.43097000  0.97717000  0.17937000  1.0 -0.2193820015
O  O36  1  0.17141000  0.92480000  0.51452000  1.0 -0.529982103
O  O37  1  0.11375000  0.90255000  0.52795000  1.0 -0.5681971367
O  O38  1  0.84381000  0.32809000  0.57014000  1.0 -0.529982103
O  O39  1  0.78967000  0.38321000  0.52023000  1.0 -0.5473766051
O  O40  1  0.97717000  0.17937000  0.43097000  1.0 -0.2193820015
O  O41  1  0.92480000  0.51452000  0.17141000  1.0 -0.529982103
O  O42  1  0.90255000  0.52795000  0.11375000  1.0 -0.5681971367
O  O43  1  0.32809000  0.57014000  0.84381000  1.0 -0.529982103
O  O44  1  0.38321000  0.52023000  0.78967000  1.0 -0.5473766051
O  O45  1  0.17937000  0.43097000  0.97717000  1.0 -0.2311549987
O  O46  1  0.98548000  0.57520000  0.32859000  1.0 -0.529982103
O  O47  1  0.97205000  0.59745000  0.38625000  1.0 -0.5681971367
O  O48  1  0.92986000  0.17191000  0.65619000  1.0 -0.529982103
O  O49  1  0.97977000  0.11679000  0.71033000  1.0 -0.5473766051
O  O50  1  0.06903000  0.32063000  0.52283000  1.0 -0.2193820015
O  O51  1  0.32859000  0.98548000  0.57520000  1.0 -0.529982103
O  O52  1  0.38625000  0.97205000  0.59745000  1.0 -0.5681971367
O  O53  1  0.65619000  0.92986000  0.17191000  1.0 -0.529982103
O  O54  1  0.71033000  0.97977000  0.11679000  1.0 -0.5473766051
O  O55  1  0.52283000  0.06903000  0.32063000  1.0 -0.2193820015
O  O56  1  0.57520000  0.32859000  0.98548000  1.0 -0.529982103
O  O57  1  0.59745000  0.38625000  0.97205000  1.0 -0.5681971367
O  O58  1  0.17191000  0.65619000  0.92986000  1.0 -0.529982103
O  O59  1  0.11679000  0.71033000  0.97977000  1.0 -0.5473766051
O  O60  1  0.32063000  0.52283000  0.06903000  1.0 -0.2193820015
