# DDEC6 charges by PACMAN v1.1 (https://github.com/mtap-research/PACMAN-charge/)
data_XEXLEU_FSR_pacman
_symmetry_space_group_name_H-M   'P 1'
_cell_length_a   33.72740000
_cell_length_b   33.72740000
_cell_length_c   33.72740000
_cell_angle_alpha   47.27700000
_cell_angle_beta   47.27700000
_cell_angle_gamma   47.27700000
_symmetry_Int_Tables_number   1
_chemical_formula_structural   Zn2B3H43C42N14O5
_chemical_formula_sum   'Zn24 B36 H516 C504 N168 O60'
_cell_volume   18939.22846774
_cell_formula_units_Z   12
loop_
 _symmetry_equiv_pos_site_id
 _symmetry_equiv_pos_as_xyz
  1  'x, y, z'
loop_
 _atom_site_type_symbol
 _atom_site_label
 _atom_site_symmetry_multiplicity
 _atom_site_fract_x
 _atom_site_fract_y
 _atom_site_fract_z
 _atom_site_occupancy
 _atom_site_charge
Zn  Zn1  1  0.48447000  0.77409000  0.15384000  1.0 0.7254171809
Zn  Zn2  1  0.71115000  0.89698000  0.11270000  1.0 0.6604421378
Zn  Zn3  1  0.77409000  0.15384000  0.48447000  1.0 0.7254171809
Zn  Zn4  1  0.89698000  0.11270000  0.71115000  1.0 0.6604421378
Zn  Zn5  1  0.15384000  0.48447000  0.77409000  1.0 0.7254171809
Zn  Zn6  1  0.11270000  0.71115000  0.89698000  1.0 0.6604421378
Zn  Zn7  1  0.01553000  0.34616000  0.72591000  1.0 0.7254171809
Zn  Zn8  1  0.78885000  0.38730000  0.60302000  1.0 0.6604421378
Zn  Zn9  1  0.72591000  0.01553000  0.34616000  1.0 0.7254171809
Zn  Zn10  1  0.60302000  0.78885000  0.38730000  1.0 0.6604421378
Zn  Zn11  1  0.34616000  0.72591000  0.01553000  1.0 0.7254171809
Zn  Zn12  1  0.38730000  0.60302000  0.78885000  1.0 0.6604421378
Zn  Zn13  1  0.51553000  0.22591000  0.84616000  1.0 0.7254171809
Zn  Zn14  1  0.28885000  0.10302000  0.88730000  1.0 0.6604421378
Zn  Zn15  1  0.22591000  0.84616000  0.51553000  1.0 0.7254171809
Zn  Zn16  1  0.10302000  0.88730000  0.28885000  1.0 0.6604421378
Zn  Zn17  1  0.84616000  0.51553000  0.22591000  1.0 0.7254171809
Zn  Zn18  1  0.88730000  0.28885000  0.10302000  1.0 0.6604421378
Zn  Zn19  1  0.98447000  0.65384000  0.27409000  1.0 0.7254171809
Zn  Zn20  1  0.21115000  0.61270000  0.39698000  1.0 0.6604421378
Zn  Zn21  1  0.27409000  0.98447000  0.65384000  1.0 0.7254171809
Zn  Zn22  1  0.39698000  0.21115000  0.61270000  1.0 0.6604421378
Zn  Zn23  1  0.65384000  0.27409000  0.98447000  1.0 0.7254171809
Zn  Zn24  1  0.61270000  0.39698000  0.21115000  1.0 0.6604421378
B  B1  1  0.64998000  0.72868000  0.19448000  1.0 0.4905524493
B  B2  1  0.43388000  0.60868000  0.21078000  1.0 0.336800855
B  B3  1  0.42680000  0.62140000  0.20370000  1.0 0.3491342381
B  B4  1  0.72868000  0.19448000  0.64998000  1.0 0.4905524493
B  B5  1  0.60868000  0.21078000  0.43388000  1.0 0.336800855
B  B6  1  0.62140000  0.20370000  0.42680000  1.0 0.3491342381
B  B7  1  0.19448000  0.64998000  0.72868000  1.0 0.4905524493
B  B8  1  0.21078000  0.43388000  0.60868000  1.0 0.336800855
B  B9  1  0.20370000  0.42680000  0.62140000  1.0 0.3491342381
B  B10  1  0.85002000  0.30552000  0.77132000  1.0 0.4905524493
B  B11  1  0.06612000  0.28922000  0.89132000  1.0 0.336800855
B  B12  1  0.07320000  0.29630000  0.87860000  1.0 0.3491342381
B  B13  1  0.77132000  0.85002000  0.30552000  1.0 0.4905524493
B  B14  1  0.89132000  0.06612000  0.28922000  1.0 0.336800855
B  B15  1  0.87860000  0.07320000  0.29630000  1.0 0.3491342381
B  B16  1  0.30552000  0.77132000  0.85002000  1.0 0.4905524493
B  B17  1  0.28922000  0.89132000  0.06612000  1.0 0.336800855
B  B18  1  0.29630000  0.87860000  0.07320000  1.0 0.3491342381
B  B19  1  0.35002000  0.27132000  0.80552000  1.0 0.4905524493
B  B20  1  0.56612000  0.39132000  0.78922000  1.0 0.336800855
B  B21  1  0.57320000  0.37860000  0.79630000  1.0 0.3491342381
B  B22  1  0.27132000  0.80552000  0.35002000  1.0 0.4905524493
B  B23  1  0.39132000  0.78922000  0.56612000  1.0 0.336800855
B  B24  1  0.37860000  0.79630000  0.57320000  1.0 0.3491342381
B  B25  1  0.80552000  0.35002000  0.27132000  1.0 0.4905524493
B  B26  1  0.78922000  0.56612000  0.39132000  1.0 0.336800855
B  B27  1  0.79630000  0.57320000  0.37860000  1.0 0.3491342381
B  B28  1  0.14998000  0.69448000  0.22868000  1.0 0.4905524493
B  B29  1  0.93388000  0.71078000  0.10868000  1.0 0.336800855
B  B30  1  0.92680000  0.70370000  0.12140000  1.0 0.3491342381
B  B31  1  0.22868000  0.14998000  0.69448000  1.0 0.4905524493
B  B32  1  0.10868000  0.93388000  0.71078000  1.0 0.336800855
B  B33  1  0.12140000  0.92680000  0.70370000  1.0 0.3491342381
B  B34  1  0.69448000  0.22868000  0.14998000  1.0 0.4905524493
B  B35  1  0.71078000  0.10868000  0.93388000  1.0 0.336800855
B  B36  1  0.70370000  0.12140000  0.92680000  1.0 0.3491342381
H  H1  1  0.43607000  0.08732000  0.77070000  1.0 0.121338953
H  H2  1  0.54921000  0.16457000  0.65477000  1.0 0.110204548
H  H3  1  0.47778000  0.02830000  0.83714000  1.0 0.1309976826
H  H4  1  0.39624000  0.62912000  0.30407000  1.0 0.1309976826
H  H5  1  0.84585000  0.62954000  0.10406000  1.0 0.1309976826
H  H6  1  0.64102000  0.82954000  0.08322000  1.0 0.1309976826
H  H7  1  0.35727000  0.57478000  0.24195000  1.0 0.121338953
H  H8  1  0.29058000  0.58856000  0.28550000  1.0 0.1501984026
H  H9  1  0.30965000  0.63961000  0.22638000  1.0 0.1401060888
H  H10  1  0.59289000  0.10403000  0.71880000  1.0 0.121338953
H  H11  1  0.66762000  0.59889000  0.28179000  1.0 0.1567441725
H  H12  1  0.72225000  0.55703000  0.29765000  1.0 0.1567441725
H  H13  1  0.67966000  0.61785000  0.30304000  1.0 0.1501984026
H  H14  1  0.53187000  0.80346000  0.22112000  1.0 0.1501984026
H  H15  1  0.49366000  0.82941000  0.19148000  1.0 0.1676611642
H  H16  1  0.49184000  0.77361000  0.25141000  1.0 0.1567441725
H  H17  1  0.42210000  0.50495000  0.32527000  1.0 0.0911412554
H  H18  1  0.49654000  0.41020000  0.32162000  1.0 0.0911412554
H  H19  1  0.56054000  0.55983000  0.12318000  1.0 0.0911412554
H  H20  1  0.57255000  0.50922000  0.11830000  1.0 0.102066328
H  H21  1  0.51386000  0.56631000  0.11739000  1.0 0.0911412554
H  H22  1  0.62479000  0.69725000  0.10328000  1.0 0.1309976826
H  H23  1  0.67158000  0.90152000  0.04314000  1.0 0.121338953
H  H24  1  0.65695000  0.75233000  0.25166000  1.0 0.1501984026
H  H25  1  0.71447000  0.76274000  0.21297000  1.0 0.1567441725
H  H26  1  0.65306000  0.81057000  0.23529000  1.0 0.1676611642
H  H27  1  0.76151000  0.72278000  0.09457000  1.0 0.121338953
H  H28  1  0.56029000  0.63124000  0.19928000  1.0 0.121338953
H  H29  1  0.69363000  0.67584000  0.12497000  1.0 0.1309976826
H  H30  1  0.30158000  0.62668000  0.38657000  1.0 0.1309976826
H  H31  1  0.53475000  0.56210000  0.22421000  1.0 0.121338953
H  H32  1  0.47504000  0.98187000  0.01076000  1.0 0.110204548
H  H33  1  0.54741000  0.85663000  0.96373000  1.0 0.121338953
H  H34  1  0.50167000  0.04655000  0.91006000  1.0 0.1401060888
H  H35  1  0.57756000  0.91995000  0.86289000  1.0 0.1401060888
H  H36  1  0.39952000  0.78031000  0.15287000  1.0 0.1567441725
H  H37  1  0.40980000  0.75156000  0.12314000  1.0 0.1401060888
H  H38  1  0.36809000  0.73911000  0.19007000  1.0 0.1501984026
H  H39  1  0.48850000  0.59777000  0.10202000  1.0 0.110204548
H  H40  1  0.55967000  0.49901000  0.10926000  1.0 0.110204548
H  H41  1  0.43900000  0.49641000  0.30927000  1.0 0.102066328
H  H42  1  0.50415000  0.44974000  0.30131000  1.0 0.0911412554
H  H43  1  0.48562000  0.51330000  0.28833000  1.0 0.102066328
H  H44  1  0.08732000  0.77070000  0.43607000  1.0 0.121338953
H  H45  1  0.16457000  0.65477000  0.54921000  1.0 0.110204548
H  H46  1  0.02830000  0.83714000  0.47778000  1.0 0.1309976826
H  H47  1  0.62912000  0.30407000  0.39624000  1.0 0.1309976826
H  H48  1  0.62954000  0.10406000  0.84585000  1.0 0.1309976826
H  H49  1  0.82954000  0.08322000  0.64102000  1.0 0.1309976826
H  H50  1  0.57478000  0.24195000  0.35727000  1.0 0.121338953
H  H51  1  0.58856000  0.28550000  0.29058000  1.0 0.1501984026
H  H52  1  0.63961000  0.22638000  0.30965000  1.0 0.1401060888
H  H53  1  0.10403000  0.71880000  0.59289000  1.0 0.121338953
H  H54  1  0.59889000  0.28179000  0.66762000  1.0 0.1567441725
H  H55  1  0.55703000  0.29765000  0.72225000  1.0 0.1567441725
H  H56  1  0.61785000  0.30304000  0.67966000  1.0 0.1501984026
H  H57  1  0.80346000  0.22112000  0.53187000  1.0 0.1501984026
H  H58  1  0.82941000  0.19148000  0.49366000  1.0 0.1676611642
H  H59  1  0.77361000  0.25141000  0.49184000  1.0 0.1567441725
H  H60  1  0.50495000  0.32527000  0.42210000  1.0 0.0911412554
H  H61  1  0.41020000  0.32162000  0.49654000  1.0 0.0911412554
H  H62  1  0.55983000  0.12318000  0.56054000  1.0 0.0911412554
H  H63  1  0.50922000  0.11830000  0.57255000  1.0 0.102066328
H  H64  1  0.56631000  0.11739000  0.51386000  1.0 0.0911412554
H  H65  1  0.69725000  0.10328000  0.62479000  1.0 0.1309976826
H  H66  1  0.90152000  0.04314000  0.67158000  1.0 0.121338953
H  H67  1  0.75233000  0.25166000  0.65695000  1.0 0.1501984026
H  H68  1  0.76274000  0.21297000  0.71447000  1.0 0.1567441725
H  H69  1  0.81057000  0.23529000  0.65306000  1.0 0.1676611642
H  H70  1  0.72278000  0.09457000  0.76151000  1.0 0.121338953
H  H71  1  0.63124000  0.19928000  0.56029000  1.0 0.121338953
H  H72  1  0.67584000  0.12497000  0.69363000  1.0 0.1309976826
H  H73  1  0.62668000  0.38657000  0.30158000  1.0 0.1309976826
H  H74  1  0.56210000  0.22421000  0.53475000  1.0 0.121338953
H  H75  1  0.98187000  0.01076000  0.47504000  1.0 0.110204548
H  H76  1  0.85663000  0.96373000  0.54741000  1.0 0.121338953
H  H77  1  0.04655000  0.91006000  0.50167000  1.0 0.1401060888
H  H78  1  0.91995000  0.86289000  0.57756000  1.0 0.1401060888
H  H79  1  0.78031000  0.15287000  0.39952000  1.0 0.1567441725
H  H80  1  0.75156000  0.12314000  0.40980000  1.0 0.1401060888
H  H81  1  0.73911000  0.19007000  0.36809000  1.0 0.1501984026
H  H82  1  0.59777000  0.10202000  0.48850000  1.0 0.110204548
H  H83  1  0.49901000  0.10926000  0.55967000  1.0 0.110204548
H  H84  1  0.49641000  0.30927000  0.43900000  1.0 0.102066328
H  H85  1  0.44974000  0.30131000  0.50415000  1.0 0.0911412554
H  H86  1  0.51330000  0.28833000  0.48562000  1.0 0.102066328
H  H87  1  0.77070000  0.43607000  0.08732000  1.0 0.121338953
H  H88  1  0.65477000  0.54921000  0.16457000  1.0 0.110204548
H  H89  1  0.83714000  0.47778000  0.02830000  1.0 0.1309976826
H  H90  1  0.30407000  0.39624000  0.62912000  1.0 0.1309976826
H  H91  1  0.10406000  0.84585000  0.62954000  1.0 0.1309976826
H  H92  1  0.08322000  0.64102000  0.82954000  1.0 0.1309976826
H  H93  1  0.24195000  0.35727000  0.57478000  1.0 0.121338953
H  H94  1  0.28550000  0.29058000  0.58856000  1.0 0.1501984026
H  H95  1  0.22638000  0.30965000  0.63961000  1.0 0.1401060888
H  H96  1  0.71880000  0.59289000  0.10403000  1.0 0.121338953
H  H97  1  0.28179000  0.66762000  0.59889000  1.0 0.1567441725
H  H98  1  0.29765000  0.72225000  0.55703000  1.0 0.1567441725
H  H99  1  0.30304000  0.67966000  0.61785000  1.0 0.1501984026
H  H100  1  0.22112000  0.53187000  0.80346000  1.0 0.1501984026
H  H101  1  0.19148000  0.49366000  0.82941000  1.0 0.1676611642
H  H102  1  0.25141000  0.49184000  0.77361000  1.0 0.1567441725
H  H103  1  0.32527000  0.42210000  0.50495000  1.0 0.0911412554
H  H104  1  0.32162000  0.49654000  0.41020000  1.0 0.0911412554
H  H105  1  0.12318000  0.56054000  0.55983000  1.0 0.0911412554
H  H106  1  0.11830000  0.57255000  0.50922000  1.0 0.102066328
H  H107  1  0.11739000  0.51386000  0.56631000  1.0 0.0911412554
H  H108  1  0.10328000  0.62479000  0.69725000  1.0 0.1309976826
H  H109  1  0.04314000  0.67158000  0.90152000  1.0 0.121338953
H  H110  1  0.25166000  0.65695000  0.75233000  1.0 0.1501984026
H  H111  1  0.21297000  0.71447000  0.76274000  1.0 0.1567441725
H  H112  1  0.23529000  0.65306000  0.81057000  1.0 0.1676611642
H  H113  1  0.09457000  0.76151000  0.72278000  1.0 0.121338953
H  H114  1  0.19928000  0.56029000  0.63124000  1.0 0.121338953
H  H115  1  0.12497000  0.69363000  0.67584000  1.0 0.1309976826
H  H116  1  0.38657000  0.30158000  0.62668000  1.0 0.1309976826
H  H117  1  0.22421000  0.53475000  0.56210000  1.0 0.121338953
H  H118  1  0.01076000  0.47504000  0.98187000  1.0 0.110204548
H  H119  1  0.96373000  0.54741000  0.85663000  1.0 0.121338953
H  H120  1  0.91006000  0.50167000  0.04655000  1.0 0.1401060888
H  H121  1  0.86289000  0.57756000  0.91995000  1.0 0.1401060888
H  H122  1  0.15287000  0.39952000  0.78031000  1.0 0.1567441725
H  H123  1  0.12314000  0.40980000  0.75156000  1.0 0.1401060888
H  H124  1  0.19007000  0.36809000  0.73911000  1.0 0.1501984026
H  H125  1  0.10202000  0.48850000  0.59777000  1.0 0.110204548
H  H126  1  0.10926000  0.55967000  0.49901000  1.0 0.110204548
H  H127  1  0.30927000  0.43900000  0.49641000  1.0 0.102066328
H  H128  1  0.30131000  0.50415000  0.44974000  1.0 0.0911412554
H  H129  1  0.28833000  0.48562000  0.51330000  1.0 0.102066328
H  H130  1  0.06393000  0.72930000  0.41268000  1.0 0.121338953
H  H131  1  0.95079000  0.84523000  0.33543000  1.0 0.110204548
H  H132  1  0.02222000  0.66286000  0.47170000  1.0 0.1309976826
H  H133  1  0.10376000  0.19593000  0.87088000  1.0 0.1309976826
H  H134  1  0.65415000  0.39594000  0.87046000  1.0 0.1309976826
H  H135  1  0.85898000  0.41678000  0.67046000  1.0 0.1309976826
H  H136  1  0.14273000  0.25805000  0.92522000  1.0 0.121338953
H  H137  1  0.20942000  0.21450000  0.91144000  1.0 0.1501984026
H  H138  1  0.19035000  0.27362000  0.86039000  1.0 0.1401060888
H  H139  1  0.90711000  0.78120000  0.39597000  1.0 0.121338953
H  H140  1  0.83238000  0.21821000  0.90111000  1.0 0.1567441725
H  H141  1  0.77775000  0.20235000  0.94297000  1.0 0.1567441725
H  H142  1  0.82034000  0.19696000  0.88215000  1.0 0.1501984026
H  H143  1  0.96813000  0.27888000  0.69654000  1.0 0.1501984026
H  H144  1  0.00634000  0.30852000  0.67059000  1.0 0.1676611642
H  H145  1  0.00816000  0.24859000  0.72639000  1.0 0.1567441725
H  H146  1  0.07790000  0.17473000  0.99505000  1.0 0.0911412554
H  H147  1  0.00346000  0.17838000  0.08980000  1.0 0.0911412554
H  H148  1  0.93946000  0.37682000  0.94017000  1.0 0.0911412554
H  H149  1  0.92745000  0.38170000  0.99078000  1.0 0.102066328
H  H150  1  0.98614000  0.38261000  0.93369000  1.0 0.0911412554
H  H151  1  0.87521000  0.39672000  0.80275000  1.0 0.1309976826
H  H152  1  0.82842000  0.45686000  0.59848000  1.0 0.121338953
H  H153  1  0.84305000  0.24834000  0.74767000  1.0 0.1501984026
H  H154  1  0.78553000  0.28703000  0.73726000  1.0 0.1567441725
H  H155  1  0.84694000  0.26471000  0.68943000  1.0 0.1676611642
H  H156  1  0.73849000  0.40543000  0.77722000  1.0 0.121338953
H  H157  1  0.93971000  0.30072000  0.86876000  1.0 0.121338953
H  H158  1  0.80637000  0.37503000  0.82416000  1.0 0.1309976826
H  H159  1  0.19842000  0.11343000  0.87332000  1.0 0.1309976826
H  H160  1  0.96525000  0.27579000  0.93790000  1.0 0.121338953
H  H161  1  0.02496000  0.48924000  0.51813000  1.0 0.110204548
H  H162  1  0.95259000  0.53627000  0.64337000  1.0 0.121338953
H  H163  1  0.99833000  0.58994000  0.45345000  1.0 0.1401060888
H  H164  1  0.92244000  0.63711000  0.58005000  1.0 0.1401060888
H  H165  1  0.10048000  0.34713000  0.71969000  1.0 0.1567441725
H  H166  1  0.09020000  0.37686000  0.74844000  1.0 0.1501984026
H  H167  1  0.13191000  0.30993000  0.76089000  1.0 0.1501984026
H  H168  1  0.01150000  0.39798000  0.90223000  1.0 0.110204548
H  H169  1  0.94033000  0.39074000  0.00099000  1.0 0.110204548
H  H170  1  0.06100000  0.19073000  0.00359000  1.0 0.102066328
H  H171  1  0.99585000  0.19869000  0.05026000  1.0 0.0911412554
H  H172  1  0.01438000  0.21167000  0.98670000  1.0 0.102066328
H  H173  1  0.41268000  0.06393000  0.72930000  1.0 0.121338953
H  H174  1  0.33543000  0.95079000  0.84523000  1.0 0.110204548
H  H175  1  0.47170000  0.02222000  0.66286000  1.0 0.1309976826
H  H176  1  0.87088000  0.10376000  0.19593000  1.0 0.1309976826
H  H177  1  0.87046000  0.65415000  0.39594000  1.0 0.1309976826
H  H178  1  0.67046000  0.85898000  0.41678000  1.0 0.1309976826
H  H179  1  0.92522000  0.14273000  0.25805000  1.0 0.121338953
H  H180  1  0.91144000  0.20942000  0.21450000  1.0 0.1501984026
H  H181  1  0.86039000  0.19035000  0.27362000  1.0 0.1401060888
H  H182  1  0.39597000  0.90711000  0.78120000  1.0 0.121338953
H  H183  1  0.90111000  0.83238000  0.21821000  1.0 0.1567441725
H  H184  1  0.94297000  0.77775000  0.20235000  1.0 0.1567441725
H  H185  1  0.88215000  0.82034000  0.19696000  1.0 0.1501984026
H  H186  1  0.69654000  0.96813000  0.27888000  1.0 0.1501984026
H  H187  1  0.67059000  0.00634000  0.30852000  1.0 0.1676611642
H  H188  1  0.72639000  0.00816000  0.24859000  1.0 0.1567441725
H  H189  1  0.99505000  0.07790000  0.17473000  1.0 0.0911412554
H  H190  1  0.08980000  0.00346000  0.17838000  1.0 0.0911412554
H  H191  1  0.94017000  0.93946000  0.37682000  1.0 0.0911412554
H  H192  1  0.99078000  0.92745000  0.38170000  1.0 0.102066328
H  H193  1  0.93369000  0.98614000  0.38261000  1.0 0.0911412554
H  H194  1  0.80275000  0.87521000  0.39672000  1.0 0.1309976826
H  H195  1  0.59848000  0.82842000  0.45686000  1.0 0.121338953
H  H196  1  0.74767000  0.84305000  0.24834000  1.0 0.1501984026
H  H197  1  0.73726000  0.78553000  0.28703000  1.0 0.1567441725
H  H198  1  0.68943000  0.84694000  0.26471000  1.0 0.1676611642
H  H199  1  0.77722000  0.73849000  0.40543000  1.0 0.121338953
H  H200  1  0.86876000  0.93971000  0.30072000  1.0 0.121338953
H  H201  1  0.82416000  0.80637000  0.37503000  1.0 0.1309976826
H  H202  1  0.87332000  0.19842000  0.11343000  1.0 0.1309976826
H  H203  1  0.93790000  0.96525000  0.27579000  1.0 0.121338953
H  H204  1  0.51813000  0.02496000  0.48924000  1.0 0.110204548
H  H205  1  0.64337000  0.95259000  0.53627000  1.0 0.121338953
H  H206  1  0.45345000  0.99833000  0.58994000  1.0 0.1401060888
H  H207  1  0.58005000  0.92244000  0.63711000  1.0 0.1401060888
H  H208  1  0.71969000  0.10048000  0.34713000  1.0 0.1567441725
H  H209  1  0.74844000  0.09020000  0.37686000  1.0 0.1401060888
H  H210  1  0.76089000  0.13191000  0.30993000  1.0 0.1501984026
H  H211  1  0.90223000  0.01150000  0.39798000  1.0 0.110204548
H  H212  1  0.00099000  0.94033000  0.39074000  1.0 0.110204548
H  H213  1  0.00359000  0.06100000  0.19073000  1.0 0.102066328
H  H214  1  0.05026000  0.99585000  0.19869000  1.0 0.0911412554
H  H215  1  0.98670000  0.01438000  0.21167000  1.0 0.102066328
H  H216  1  0.72930000  0.41268000  0.06393000  1.0 0.121338953
H  H217  1  0.84523000  0.33543000  0.95079000  1.0 0.110204548
H  H218  1  0.66286000  0.47170000  0.02222000  1.0 0.1309976826
H  H219  1  0.19593000  0.87088000  0.10376000  1.0 0.1309976826
H  H220  1  0.39594000  0.87046000  0.65415000  1.0 0.1309976826
H  H221  1  0.41678000  0.67046000  0.85898000  1.0 0.1309976826
H  H222  1  0.25805000  0.92522000  0.14273000  1.0 0.121338953
H  H223  1  0.21450000  0.91144000  0.20942000  1.0 0.1501984026
H  H224  1  0.27362000  0.86039000  0.19035000  1.0 0.1401060888
H  H225  1  0.78120000  0.39597000  0.90711000  1.0 0.121338953
H  H226  1  0.21821000  0.90111000  0.83238000  1.0 0.1567441725
H  H227  1  0.20235000  0.94297000  0.77775000  1.0 0.1567441725
H  H228  1  0.19696000  0.88215000  0.82034000  1.0 0.1501984026
H  H229  1  0.27888000  0.69654000  0.96813000  1.0 0.1501984026
H  H230  1  0.30852000  0.67059000  0.00634000  1.0 0.1676611642
H  H231  1  0.24859000  0.72639000  0.00816000  1.0 0.1567441725
H  H232  1  0.17473000  0.99505000  0.07790000  1.0 0.0911412554
H  H233  1  0.17838000  0.08980000  0.00346000  1.0 0.0911412554
H  H234  1  0.37682000  0.94017000  0.93946000  1.0 0.0911412554
H  H235  1  0.38170000  0.99078000  0.92745000  1.0 0.102066328
H  H236  1  0.38261000  0.93369000  0.98614000  1.0 0.0911412554
H  H237  1  0.39672000  0.80275000  0.87521000  1.0 0.1309976826
H  H238  1  0.45686000  0.59848000  0.82842000  1.0 0.121338953
H  H239  1  0.24834000  0.74767000  0.84305000  1.0 0.1501984026
H  H240  1  0.28703000  0.73726000  0.78553000  1.0 0.1567441725
H  H241  1  0.26471000  0.68943000  0.84694000  1.0 0.1676611642
H  H242  1  0.40543000  0.77722000  0.73849000  1.0 0.121338953
H  H243  1  0.30072000  0.86876000  0.93971000  1.0 0.121338953
H  H244  1  0.37503000  0.82416000  0.80637000  1.0 0.1309976826
H  H245  1  0.11343000  0.87332000  0.19842000  1.0 0.1309976826
H  H246  1  0.27579000  0.93790000  0.96525000  1.0 0.121338953
H  H247  1  0.48924000  0.51813000  0.02496000  1.0 0.110204548
H  H248  1  0.53627000  0.64337000  0.95259000  1.0 0.121338953
H  H249  1  0.58994000  0.45345000  0.99833000  1.0 0.1401060888
H  H250  1  0.63711000  0.58005000  0.92244000  1.0 0.1401060888
H  H251  1  0.34713000  0.71969000  0.10048000  1.0 0.1567441725
H  H252  1  0.37686000  0.74844000  0.09020000  1.0 0.1401060888
H  H253  1  0.30993000  0.76089000  0.13191000  1.0 0.1501984026
H  H254  1  0.39798000  0.90223000  0.01150000  1.0 0.110204548
H  H255  1  0.39074000  0.00099000  0.94033000  1.0 0.110204548
H  H256  1  0.19073000  0.00359000  0.06100000  1.0 0.102066328
H  H257  1  0.19869000  0.05026000  0.99585000  1.0 0.0911412554
H  H258  1  0.21167000  0.98670000  0.01438000  1.0 0.102066328
H  H259  1  0.56393000  0.91268000  0.22930000  1.0 0.121338953
H  H260  1  0.45079000  0.83543000  0.34523000  1.0 0.110204548
H  H261  1  0.52222000  0.97170000  0.16286000  1.0 0.1309976826
H  H262  1  0.60376000  0.37088000  0.69593000  1.0 0.1309976826
H  H263  1  0.15415000  0.37046000  0.89594000  1.0 0.1309976826
H  H264  1  0.35898000  0.17046000  0.91678000  1.0 0.1309976826
H  H265  1  0.64273000  0.42522000  0.75805000  1.0 0.121338953
H  H266  1  0.70942000  0.41144000  0.71450000  1.0 0.1501984026
H  H267  1  0.69035000  0.36039000  0.77362000  1.0 0.1401060888
H  H268  1  0.40711000  0.89597000  0.28120000  1.0 0.121338953
H  H269  1  0.33238000  0.40111000  0.71821000  1.0 0.1567441725
H  H270  1  0.27775000  0.44297000  0.70235000  1.0 0.1567441725
H  H271  1  0.32034000  0.38215000  0.69696000  1.0 0.1501984026
H  H272  1  0.46813000  0.19654000  0.77888000  1.0 0.1501984026
H  H273  1  0.50634000  0.17059000  0.80852000  1.0 0.1676611642
H  H274  1  0.50816000  0.22639000  0.74859000  1.0 0.1567441725
H  H275  1  0.57790000  0.49505000  0.67473000  1.0 0.0911412554
H  H276  1  0.50346000  0.58980000  0.67838000  1.0 0.0911412554
H  H277  1  0.43946000  0.44017000  0.87682000  1.0 0.0911412554
H  H278  1  0.42745000  0.49078000  0.88170000  1.0 0.102066328
H  H279  1  0.48614000  0.43369000  0.88261000  1.0 0.0911412554
H  H280  1  0.37521000  0.30275000  0.89672000  1.0 0.1309976826
H  H281  1  0.32842000  0.09848000  0.95686000  1.0 0.121338953
H  H282  1  0.34305000  0.24767000  0.74834000  1.0 0.1501984026
H  H283  1  0.28553000  0.23726000  0.78703000  1.0 0.1567441725
H  H284  1  0.34694000  0.18943000  0.76471000  1.0 0.1676611642
H  H285  1  0.23849000  0.27722000  0.90543000  1.0 0.121338953
H  H286  1  0.43971000  0.36876000  0.80072000  1.0 0.121338953
H  H287  1  0.30637000  0.32416000  0.87503000  1.0 0.1309976826
H  H288  1  0.69842000  0.37332000  0.61343000  1.0 0.1309976826
H  H289  1  0.46525000  0.43790000  0.77579000  1.0 0.121338953
H  H290  1  0.52496000  0.01813000  0.98924000  1.0 0.110204548
H  H291  1  0.45259000  0.14337000  0.03627000  1.0 0.121338953
H  H292  1  0.49833000  0.95345000  0.08994000  1.0 0.1401060888
H  H293  1  0.42244000  0.08005000  0.13711000  1.0 0.1401060888
H  H294  1  0.60048000  0.21969000  0.84713000  1.0 0.1567441725
H  H295  1  0.59020000  0.24844000  0.87686000  1.0 0.1401060888
H  H296  1  0.63191000  0.26089000  0.80993000  1.0 0.1501984026
H  H297  1  0.51150000  0.40223000  0.89798000  1.0 0.110204548
H  H298  1  0.44033000  0.50099000  0.89074000  1.0 0.110204548
H  H299  1  0.56100000  0.50359000  0.69073000  1.0 0.102066328
H  H300  1  0.49585000  0.55026000  0.69869000  1.0 0.0911412554
H  H301  1  0.51438000  0.48670000  0.71167000  1.0 0.102066328
H  H302  1  0.91268000  0.22930000  0.56393000  1.0 0.121338953
H  H303  1  0.83543000  0.34523000  0.45079000  1.0 0.110204548
H  H304  1  0.97170000  0.16286000  0.52222000  1.0 0.1309976826
H  H305  1  0.37088000  0.69593000  0.60376000  1.0 0.1309976826
H  H306  1  0.37046000  0.89594000  0.15415000  1.0 0.1309976826
H  H307  1  0.17046000  0.91678000  0.35898000  1.0 0.1309976826
H  H308  1  0.42522000  0.75805000  0.64273000  1.0 0.121338953
H  H309  1  0.41144000  0.71450000  0.70942000  1.0 0.1501984026
H  H310  1  0.36039000  0.77362000  0.69035000  1.0 0.1401060888
H  H311  1  0.89597000  0.28120000  0.40711000  1.0 0.121338953
H  H312  1  0.40111000  0.71821000  0.33238000  1.0 0.1567441725
H  H313  1  0.44297000  0.70235000  0.27775000  1.0 0.1567441725
H  H314  1  0.38215000  0.69696000  0.32034000  1.0 0.1501984026
H  H315  1  0.19654000  0.77888000  0.46813000  1.0 0.1501984026
H  H316  1  0.17059000  0.80852000  0.50634000  1.0 0.1676611642
H  H317  1  0.22639000  0.74859000  0.50816000  1.0 0.1567441725
H  H318  1  0.49505000  0.67473000  0.57790000  1.0 0.0911412554
H  H319  1  0.58980000  0.67838000  0.50346000  1.0 0.0911412554
H  H320  1  0.44017000  0.87682000  0.43946000  1.0 0.0911412554
H  H321  1  0.49078000  0.88170000  0.42745000  1.0 0.102066328
H  H322  1  0.43369000  0.88261000  0.48614000  1.0 0.0911412554
H  H323  1  0.30275000  0.89672000  0.37521000  1.0 0.1309976826
H  H324  1  0.09848000  0.95686000  0.32842000  1.0 0.121338953
H  H325  1  0.24767000  0.74834000  0.34305000  1.0 0.1501984026
H  H326  1  0.23726000  0.78703000  0.28553000  1.0 0.1567441725
H  H327  1  0.18943000  0.76471000  0.34694000  1.0 0.1676611642
H  H328  1  0.27722000  0.90543000  0.23849000  1.0 0.121338953
H  H329  1  0.36876000  0.80072000  0.43971000  1.0 0.121338953
H  H330  1  0.32416000  0.87503000  0.30637000  1.0 0.1309976826
H  H331  1  0.37332000  0.61343000  0.69842000  1.0 0.1309976826
H  H332  1  0.43790000  0.77579000  0.46525000  1.0 0.121338953
H  H333  1  0.01813000  0.98924000  0.52496000  1.0 0.110204548
H  H334  1  0.14337000  0.03627000  0.45259000  1.0 0.121338953
H  H335  1  0.95345000  0.08994000  0.49833000  1.0 0.1401060888
H  H336  1  0.08005000  0.13711000  0.42244000  1.0 0.1401060888
H  H337  1  0.21969000  0.84713000  0.60048000  1.0 0.1567441725
H  H338  1  0.24844000  0.87686000  0.59020000  1.0 0.1401060888
H  H339  1  0.26089000  0.80993000  0.63191000  1.0 0.1501984026
H  H340  1  0.40223000  0.89798000  0.51150000  1.0 0.110204548
H  H341  1  0.50099000  0.89074000  0.44033000  1.0 0.110204548
H  H342  1  0.50359000  0.69073000  0.56100000  1.0 0.102066328
H  H343  1  0.55026000  0.69869000  0.49585000  1.0 0.0911412554
H  H344  1  0.48670000  0.71167000  0.51438000  1.0 0.102066328
H  H345  1  0.22930000  0.56393000  0.91268000  1.0 0.121338953
H  H346  1  0.34523000  0.45079000  0.83543000  1.0 0.110204548
H  H347  1  0.16286000  0.52222000  0.97170000  1.0 0.1309976826
H  H348  1  0.69593000  0.60376000  0.37088000  1.0 0.1309976826
H  H349  1  0.89594000  0.15415000  0.37046000  1.0 0.1309976826
H  H350  1  0.91678000  0.35898000  0.17046000  1.0 0.1309976826
H  H351  1  0.75805000  0.64273000  0.42522000  1.0 0.121338953
H  H352  1  0.71450000  0.70942000  0.41144000  1.0 0.1501984026
H  H353  1  0.77362000  0.69035000  0.36039000  1.0 0.1401060888
H  H354  1  0.28120000  0.40711000  0.89597000  1.0 0.121338953
H  H355  1  0.71821000  0.33238000  0.40111000  1.0 0.1567441725
H  H356  1  0.70235000  0.27775000  0.44297000  1.0 0.1567441725
H  H357  1  0.69696000  0.32034000  0.38215000  1.0 0.1501984026
H  H358  1  0.77888000  0.46813000  0.19654000  1.0 0.1501984026
H  H359  1  0.80852000  0.50634000  0.17059000  1.0 0.1676611642
H  H360  1  0.74859000  0.50816000  0.22639000  1.0 0.1567441725
H  H361  1  0.67473000  0.57790000  0.49505000  1.0 0.0911412554
H  H362  1  0.67838000  0.50346000  0.58980000  1.0 0.0911412554
H  H363  1  0.87682000  0.43946000  0.44017000  1.0 0.0911412554
H  H364  1  0.88170000  0.42745000  0.49078000  1.0 0.102066328
H  H365  1  0.88261000  0.48614000  0.43369000  1.0 0.0911412554
H  H366  1  0.89672000  0.37521000  0.30275000  1.0 0.1309976826
H  H367  1  0.95686000  0.32842000  0.09848000  1.0 0.121338953
H  H368  1  0.74834000  0.34305000  0.24767000  1.0 0.1501984026
H  H369  1  0.78703000  0.28553000  0.23726000  1.0 0.1567441725
H  H370  1  0.76471000  0.34694000  0.18943000  1.0 0.1676611642
H  H371  1  0.90543000  0.23849000  0.27722000  1.0 0.121338953
H  H372  1  0.80072000  0.43971000  0.36876000  1.0 0.121338953
H  H373  1  0.87503000  0.30637000  0.32416000  1.0 0.1309976826
H  H374  1  0.61343000  0.69842000  0.37332000  1.0 0.1309976826
H  H375  1  0.77579000  0.46525000  0.43790000  1.0 0.121338953
H  H376  1  0.98924000  0.52496000  0.01813000  1.0 0.110204548
H  H377  1  0.03627000  0.45259000  0.14337000  1.0 0.121338953
H  H378  1  0.08994000  0.49833000  0.95345000  1.0 0.1401060888
H  H379  1  0.13711000  0.42244000  0.08005000  1.0 0.1401060888
H  H380  1  0.84713000  0.60048000  0.21969000  1.0 0.1567441725
H  H381  1  0.87686000  0.59020000  0.24844000  1.0 0.1401060888
H  H382  1  0.80993000  0.63191000  0.26089000  1.0 0.1501984026
H  H383  1  0.89798000  0.51150000  0.40223000  1.0 0.110204548
H  H384  1  0.89074000  0.44033000  0.50099000  1.0 0.110204548
H  H385  1  0.69073000  0.56100000  0.50359000  1.0 0.102066328
H  H386  1  0.69869000  0.49585000  0.55026000  1.0 0.0911412554
H  H387  1  0.71167000  0.51438000  0.48670000  1.0 0.102066328
H  H388  1  0.93607000  0.27070000  0.58732000  1.0 0.121338953
H  H389  1  0.04921000  0.15477000  0.66457000  1.0 0.110204548
H  H390  1  0.97778000  0.33714000  0.52830000  1.0 0.1309976826
H  H391  1  0.89624000  0.80407000  0.12912000  1.0 0.1309976826
H  H392  1  0.34585000  0.60406000  0.12954000  1.0 0.1309976826
H  H393  1  0.14102000  0.58322000  0.32954000  1.0 0.1309976826
H  H394  1  0.85727000  0.74195000  0.07478000  1.0 0.121338953
H  H395  1  0.79058000  0.78550000  0.08856000  1.0 0.1501984026
H  H396  1  0.80965000  0.72638000  0.13961000  1.0 0.1401060888
H  H397  1  0.09289000  0.21880000  0.60403000  1.0 0.121338953
H  H398  1  0.16762000  0.78179000  0.09889000  1.0 0.1567441725
H  H399  1  0.22225000  0.79765000  0.05703000  1.0 0.1567441725
H  H400  1  0.17966000  0.80304000  0.11785000  1.0 0.1501984026
H  H401  1  0.03187000  0.72112000  0.30346000  1.0 0.1501984026
H  H402  1  0.99366000  0.69148000  0.32941000  1.0 0.1676611642
H  H403  1  0.99184000  0.75141000  0.27361000  1.0 0.1567441725
H  H404  1  0.92210000  0.82527000  0.00495000  1.0 0.0911412554
H  H405  1  0.99654000  0.82162000  0.91020000  1.0 0.0911412554
H  H406  1  0.06054000  0.62318000  0.05983000  1.0 0.0911412554
H  H407  1  0.07255000  0.61830000  0.00922000  1.0 0.102066328
H  H408  1  0.01386000  0.61739000  0.06631000  1.0 0.0911412554
H  H409  1  0.12479000  0.60328000  0.19725000  1.0 0.1309976826
H  H410  1  0.17158000  0.54314000  0.40152000  1.0 0.121338953
H  H411  1  0.15695000  0.75166000  0.25233000  1.0 0.1501984026
H  H412  1  0.21447000  0.71297000  0.26274000  1.0 0.1567441725
H  H413  1  0.15306000  0.73529000  0.31057000  1.0 0.1676611642
H  H414  1  0.26151000  0.59457000  0.22278000  1.0 0.121338953
H  H415  1  0.06029000  0.69928000  0.13124000  1.0 0.121338953
H  H416  1  0.19363000  0.62497000  0.17584000  1.0 0.1309976826
H  H417  1  0.80158000  0.88657000  0.12668000  1.0 0.1309976826
H  H418  1  0.03475000  0.72421000  0.06210000  1.0 0.121338953
H  H419  1  0.97504000  0.51076000  0.48187000  1.0 0.110204548
H  H420  1  0.04741000  0.46373000  0.35663000  1.0 0.121338953
H  H421  1  0.00167000  0.41006000  0.54655000  1.0 0.1401060888
H  H422  1  0.07756000  0.36289000  0.41995000  1.0 0.1401060888
H  H423  1  0.89952000  0.65287000  0.28031000  1.0 0.1567441725
H  H424  1  0.90980000  0.62314000  0.25156000  1.0 0.1401060888
H  H425  1  0.86809000  0.69007000  0.23911000  1.0 0.1501984026
H  H426  1  0.98850000  0.60202000  0.09777000  1.0 0.110204548
H  H427  1  0.05967000  0.60926000  0.99901000  1.0 0.110204548
H  H428  1  0.93900000  0.80927000  0.99641000  1.0 0.102066328
H  H429  1  0.00415000  0.80131000  0.94974000  1.0 0.0911412554
H  H430  1  0.98562000  0.78833000  0.01330000  1.0 0.102066328
H  H431  1  0.58732000  0.93607000  0.27070000  1.0 0.121338953
H  H432  1  0.66457000  0.04921000  0.15477000  1.0 0.110204548
H  H433  1  0.52830000  0.97778000  0.33714000  1.0 0.1309976826
H  H434  1  0.12912000  0.89624000  0.80407000  1.0 0.1309976826
H  H435  1  0.12954000  0.34585000  0.60406000  1.0 0.1309976826
H  H436  1  0.32954000  0.14102000  0.58322000  1.0 0.1309976826
H  H437  1  0.07478000  0.85727000  0.74195000  1.0 0.121338953
H  H438  1  0.08856000  0.79058000  0.78550000  1.0 0.1501984026
H  H439  1  0.13961000  0.80965000  0.72638000  1.0 0.1401060888
H  H440  1  0.60403000  0.09289000  0.21880000  1.0 0.121338953
H  H441  1  0.09889000  0.16762000  0.78179000  1.0 0.1567441725
H  H442  1  0.05703000  0.22225000  0.79765000  1.0 0.1567441725
H  H443  1  0.11785000  0.17966000  0.80304000  1.0 0.1501984026
H  H444  1  0.30346000  0.03187000  0.72112000  1.0 0.1501984026
H  H445  1  0.32941000  0.99366000  0.69148000  1.0 0.1676611642
H  H446  1  0.27361000  0.99184000  0.75141000  1.0 0.1567441725
H  H447  1  0.00495000  0.92210000  0.82527000  1.0 0.0911412554
H  H448  1  0.91020000  0.99654000  0.82162000  1.0 0.0911412554
H  H449  1  0.05983000  0.06054000  0.62318000  1.0 0.0911412554
H  H450  1  0.00922000  0.07255000  0.61830000  1.0 0.102066328
H  H451  1  0.06631000  0.01386000  0.61739000  1.0 0.0911412554
H  H452  1  0.19725000  0.12479000  0.60328000  1.0 0.1309976826
H  H453  1  0.40152000  0.17158000  0.54314000  1.0 0.121338953
H  H454  1  0.25233000  0.15695000  0.75166000  1.0 0.1501984026
H  H455  1  0.26274000  0.21447000  0.71297000  1.0 0.1567441725
H  H456  1  0.31057000  0.15306000  0.73529000  1.0 0.1676611642
H  H457  1  0.22278000  0.26151000  0.59457000  1.0 0.121338953
H  H458  1  0.13124000  0.06029000  0.69928000  1.0 0.121338953
H  H459  1  0.17584000  0.19363000  0.62497000  1.0 0.1309976826
H  H460  1  0.12668000  0.80158000  0.88657000  1.0 0.1309976826
H  H461  1  0.06210000  0.03475000  0.72421000  1.0 0.121338953
H  H462  1  0.48187000  0.97504000  0.51076000  1.0 0.110204548
H  H463  1  0.35663000  0.04741000  0.46373000  1.0 0.121338953
H  H464  1  0.54655000  0.00167000  0.41006000  1.0 0.1401060888
H  H465  1  0.41995000  0.07756000  0.36289000  1.0 0.1401060888
H  H466  1  0.28031000  0.89952000  0.65287000  1.0 0.1567441725
H  H467  1  0.25156000  0.90980000  0.62314000  1.0 0.1401060888
H  H468  1  0.23911000  0.86809000  0.69007000  1.0 0.1501984026
H  H469  1  0.09777000  0.98850000  0.60202000  1.0 0.110204548
H  H470  1  0.99901000  0.05967000  0.60926000  1.0 0.110204548
H  H471  1  0.99641000  0.93900000  0.80927000  1.0 0.102066328
H  H472  1  0.94974000  0.00415000  0.80131000  1.0 0.0911412554
H  H473  1  0.01330000  0.98562000  0.78833000  1.0 0.102066328
H  H474  1  0.27070000  0.58732000  0.93607000  1.0 0.121338953
H  H475  1  0.15477000  0.66457000  0.04921000  1.0 0.110204548
H  H476  1  0.33714000  0.52830000  0.97778000  1.0 0.1309976826
H  H477  1  0.80407000  0.12912000  0.89624000  1.0 0.1309976826
H  H478  1  0.60406000  0.12954000  0.34585000  1.0 0.1309976826
H  H479  1  0.58322000  0.32954000  0.14102000  1.0 0.1309976826
H  H480  1  0.74195000  0.07478000  0.85727000  1.0 0.121338953
H  H481  1  0.78550000  0.08856000  0.79058000  1.0 0.1501984026
H  H482  1  0.72638000  0.13961000  0.80965000  1.0 0.1401060888
H  H483  1  0.21880000  0.60403000  0.09289000  1.0 0.121338953
H  H484  1  0.78179000  0.09889000  0.16762000  1.0 0.1567441725
H  H485  1  0.79765000  0.05703000  0.22225000  1.0 0.1567441725
H  H486  1  0.80304000  0.11785000  0.17966000  1.0 0.1501984026
H  H487  1  0.72112000  0.30346000  0.03187000  1.0 0.1501984026
H  H488  1  0.69148000  0.32941000  0.99366000  1.0 0.1676611642
H  H489  1  0.75141000  0.27361000  0.99184000  1.0 0.1567441725
H  H490  1  0.82527000  0.00495000  0.92210000  1.0 0.0911412554
H  H491  1  0.82162000  0.91020000  0.99654000  1.0 0.0911412554
H  H492  1  0.62318000  0.05983000  0.06054000  1.0 0.0911412554
H  H493  1  0.61830000  0.00922000  0.07255000  1.0 0.102066328
H  H494  1  0.61739000  0.06631000  0.01386000  1.0 0.0911412554
H  H495  1  0.60328000  0.19725000  0.12479000  1.0 0.1309976826
H  H496  1  0.54314000  0.40152000  0.17158000  1.0 0.121338953
H  H497  1  0.75166000  0.25233000  0.15695000  1.0 0.1501984026
H  H498  1  0.71297000  0.26274000  0.21447000  1.0 0.1567441725
H  H499  1  0.73529000  0.31057000  0.15306000  1.0 0.1676611642
H  H500  1  0.59457000  0.22278000  0.26151000  1.0 0.121338953
H  H501  1  0.69928000  0.13124000  0.06029000  1.0 0.121338953
H  H502  1  0.62497000  0.17584000  0.19363000  1.0 0.1309976826
H  H503  1  0.88657000  0.12668000  0.80158000  1.0 0.1309976826
H  H504  1  0.72421000  0.06210000  0.03475000  1.0 0.121338953
H  H505  1  0.51076000  0.48187000  0.97504000  1.0 0.110204548
H  H506  1  0.46373000  0.35663000  0.04741000  1.0 0.121338953
H  H507  1  0.41006000  0.54655000  0.00167000  1.0 0.1401060888
H  H508  1  0.36289000  0.41995000  0.07756000  1.0 0.1401060888
H  H509  1  0.65287000  0.28031000  0.89952000  1.0 0.1567441725
H  H510  1  0.62314000  0.25156000  0.90980000  1.0 0.1401060888
H  H511  1  0.69007000  0.23911000  0.86809000  1.0 0.1501984026
H  H512  1  0.60202000  0.09777000  0.98850000  1.0 0.110204548
H  H513  1  0.60926000  0.99901000  0.05967000  1.0 0.110204548
H  H514  1  0.80927000  0.99641000  0.93900000  1.0 0.102066328
H  H515  1  0.80131000  0.94974000  0.00415000  1.0 0.0911412554
H  H516  1  0.78833000  0.01330000  0.98562000  1.0 0.102066328
C  C1  1  0.48874000  0.13144000  0.70564000  1.0 -0.041136454
C  C2  1  0.46742000  0.09082000  0.76032000  1.0 -0.0737978115
C  C3  1  0.53545000  0.13645000  0.69115000  1.0 -0.0915458705
C  C4  1  0.46270000  0.17110000  0.66220000  1.0 0.5351637642
C  C5  1  0.45493000  0.69343000  0.17503000  1.0 0.3491342381
C  C6  1  0.56655000  0.75475000  0.18125000  1.0 0.4030597101
C  C7  1  0.66651000  0.80971000  0.16841000  1.0 0.3907683085
C  C8  1  0.49254000  0.05524000  0.79994000  1.0 -0.2370356132
C  C9  1  0.73330000  0.62520000  0.22040000  1.0 0.3683695908
C  C10  1  0.32844000  0.61354000  0.28814000  1.0 0.2803769549
C  C11  1  0.36977000  0.62467000  0.30717000  1.0 -0.1677600813
C  C12  1  0.80807000  0.63727000  0.13377000  1.0 -0.0526166737
C  C13  1  0.65176000  0.83056000  0.10156000  1.0 -0.1088339888
C  C14  1  0.32075000  0.60325000  0.25785000  1.0 -0.580938591
C  C15  1  0.56120000  0.10100000  0.72920000  1.0 -0.2130106498
C  C16  1  0.69770000  0.59740000  0.28080000  1.0 -0.5392645259
C  C17  1  0.50656000  0.91356000  0.99666000  1.0 -0.0526166737
C  C18  1  0.51650000  0.79380000  0.21430000  1.0 -0.5597128033
C  C19  1  0.45321000  0.49801000  0.29141000  1.0 -0.0800779019
C  C20  1  0.49398000  0.44628000  0.28908000  1.0 -0.1205070227
C  C21  1  0.51333000  0.51073000  0.19973000  1.0 0.1567441725
C  C22  1  0.54276000  0.53906000  0.13366000  1.0 -0.0915458705
C  C23  1  0.53939000  0.06019000  0.78369000  1.0 0.2473323038
C  C24  1  0.61569000  0.71039000  0.12649000  1.0 -0.0737978115
C  C25  1  0.66702000  0.87062000  0.08032000  1.0 -0.0526166737
C  C26  1  0.67339000  0.78139000  0.22159000  1.0 -0.5515588556
C  C27  1  0.48917000  0.87167000  0.06017000  1.0 0.5301170985
C  C28  1  0.76163000  0.68813000  0.12863000  1.0 -0.0915458705
C  C29  1  0.52982000  0.64162000  0.19452000  1.0 -0.041136454
C  C30  1  0.65356000  0.69956000  0.13716000  1.0 -0.0915458705
C  C31  1  0.31757000  0.62317000  0.35277000  1.0 -0.0737978115
C  C32  1  0.54616000  0.98816000  0.87706000  1.0 0.2473323038
C  C33  1  0.51623000  0.60303000  0.20833000  1.0 -0.2030091395
C  C34  1  0.49436000  0.96966000  0.98186000  1.0 -0.0915458705
C  C35  1  0.53854000  0.89474000  0.95284000  1.0 -0.0915458705
C  C36  1  0.51257000  0.00767000  0.92087000  1.0 -0.2196024914
C  C37  1  0.55776000  0.93236000  0.89186000  1.0 -0.2370356132
C  C38  1  0.40343000  0.74583000  0.15883000  1.0 -0.5597128033
C  C39  1  0.49682000  0.56582000  0.13502000  1.0 -0.1348388378
C  C40  1  0.53556000  0.51156000  0.13926000  1.0 -0.0958526318
C  C41  1  0.49564000  0.51114000  0.22304000  1.0 0.1501984026
C  C42  1  0.47969000  0.49079000  0.28619000  1.0 -0.0800779019
C  C43  1  0.13144000  0.70564000  0.48874000  1.0 -0.041136454
C  C44  1  0.09082000  0.76032000  0.46742000  1.0 -0.0737978115
C  C45  1  0.13645000  0.69115000  0.53545000  1.0 -0.0915458705
C  C46  1  0.17110000  0.66220000  0.46270000  1.0 0.5351637642
C  C47  1  0.69343000  0.17503000  0.45493000  1.0 0.3491342381
C  C48  1  0.75475000  0.18125000  0.56655000  1.0 0.4030597101
C  C49  1  0.80971000  0.16841000  0.66651000  1.0 0.3907683085
C  C50  1  0.05524000  0.79994000  0.49254000  1.0 -0.2370356132
C  C51  1  0.62520000  0.22040000  0.73330000  1.0 0.3683695908
C  C52  1  0.61354000  0.28814000  0.32844000  1.0 0.2803769549
C  C53  1  0.62467000  0.30717000  0.36977000  1.0 -0.1677600813
C  C54  1  0.63727000  0.13377000  0.80807000  1.0 -0.0526166737
C  C55  1  0.83056000  0.10156000  0.65176000  1.0 -0.1088339888
C  C56  1  0.60325000  0.25785000  0.32075000  1.0 -0.580938591
C  C57  1  0.10100000  0.72920000  0.56120000  1.0 -0.2130106498
C  C58  1  0.59740000  0.28080000  0.69770000  1.0 -0.5392645259
C  C59  1  0.91356000  0.99666000  0.50656000  1.0 -0.0526166737
C  C60  1  0.79380000  0.21430000  0.51650000  1.0 -0.5597128033
C  C61  1  0.49801000  0.29141000  0.45321000  1.0 -0.0800779019
C  C62  1  0.44628000  0.28908000  0.49398000  1.0 -0.1205070227
C  C63  1  0.51073000  0.19973000  0.51333000  1.0 0.1567441725
C  C64  1  0.53906000  0.13366000  0.54276000  1.0 -0.0915458705
C  C65  1  0.06019000  0.78369000  0.53939000  1.0 0.2473323038
C  C66  1  0.71039000  0.12649000  0.61569000  1.0 -0.0737978115
C  C67  1  0.87062000  0.08032000  0.66702000  1.0 -0.0526166737
C  C68  1  0.78139000  0.22159000  0.67339000  1.0 -0.5515588556
C  C69  1  0.87167000  0.06017000  0.48917000  1.0 0.5301170985
C  C70  1  0.68813000  0.12863000  0.76163000  1.0 -0.0915458705
C  C71  1  0.64162000  0.19452000  0.52982000  1.0 -0.041136454
C  C72  1  0.69956000  0.13716000  0.65356000  1.0 -0.0915458705
C  C73  1  0.62317000  0.35277000  0.31757000  1.0 -0.0737978115
C  C74  1  0.98816000  0.87706000  0.54616000  1.0 0.2473323038
C  C75  1  0.60303000  0.20833000  0.51623000  1.0 -0.2030091395
C  C76  1  0.96966000  0.98186000  0.49436000  1.0 -0.0915458705
C  C77  1  0.89474000  0.95284000  0.53854000  1.0 -0.0915458705
C  C78  1  0.00767000  0.92087000  0.51257000  1.0 -0.2196024914
C  C79  1  0.93236000  0.89186000  0.55776000  1.0 -0.2370356132
C  C80  1  0.74583000  0.15883000  0.40343000  1.0 -0.5597128033
C  C81  1  0.56582000  0.13502000  0.49682000  1.0 -0.1423873302
C  C82  1  0.51156000  0.13926000  0.53556000  1.0 -0.0958526318
C  C83  1  0.51114000  0.22304000  0.49564000  1.0 0.1501984026
C  C84  1  0.49079000  0.28619000  0.47969000  1.0 -0.0800779019
C  C85  1  0.70564000  0.48874000  0.13144000  1.0 -0.041136454
C  C86  1  0.76032000  0.46742000  0.09082000  1.0 -0.0737978115
C  C87  1  0.69115000  0.53545000  0.13645000  1.0 -0.0915458705
C  C88  1  0.66220000  0.46270000  0.17110000  1.0 0.5351637642
C  C89  1  0.17503000  0.45493000  0.69343000  1.0 0.3491342381
C  C90  1  0.18125000  0.56655000  0.75475000  1.0 0.4030597101
C  C91  1  0.16841000  0.66651000  0.80971000  1.0 0.3907683085
C  C92  1  0.79994000  0.49254000  0.05524000  1.0 -0.2370356132
C  C93  1  0.22040000  0.73330000  0.62520000  1.0 0.3683695908
C  C94  1  0.28814000  0.32844000  0.61354000  1.0 0.2803769549
C  C95  1  0.30717000  0.36977000  0.62467000  1.0 -0.1677600813
C  C96  1  0.13377000  0.80807000  0.63727000  1.0 -0.0526166737
C  C97  1  0.10156000  0.65176000  0.83056000  1.0 -0.1088339888
C  C98  1  0.25785000  0.32075000  0.60325000  1.0 -0.580938591
C  C99  1  0.72920000  0.56120000  0.10100000  1.0 -0.2130106498
C  C100  1  0.28080000  0.69770000  0.59740000  1.0 -0.5392645259
C  C101  1  0.99666000  0.50656000  0.91356000  1.0 -0.0526166737
C  C102  1  0.21430000  0.51650000  0.79380000  1.0 -0.5597128033
C  C103  1  0.29141000  0.45321000  0.49801000  1.0 -0.0800779019
C  C104  1  0.28908000  0.49398000  0.44628000  1.0 -0.1205070227
C  C105  1  0.19973000  0.51333000  0.51073000  1.0 0.1567441725
C  C106  1  0.13366000  0.54276000  0.53906000  1.0 -0.0915458705
C  C107  1  0.78369000  0.53939000  0.06019000  1.0 0.2473323038
C  C108  1  0.12649000  0.61569000  0.71039000  1.0 -0.0800779019
C  C109  1  0.08032000  0.66702000  0.87062000  1.0 -0.0526166737
C  C110  1  0.22159000  0.67339000  0.78139000  1.0 -0.5515588556
C  C111  1  0.06017000  0.48917000  0.87167000  1.0 0.5301170985
C  C112  1  0.12863000  0.76163000  0.68813000  1.0 -0.0915458705
C  C113  1  0.19452000  0.52982000  0.64162000  1.0 -0.041136454
C  C114  1  0.13716000  0.65356000  0.69956000  1.0 -0.0915458705
C  C115  1  0.35277000  0.31757000  0.62317000  1.0 -0.0737978115
C  C116  1  0.87706000  0.54616000  0.98816000  1.0 0.2473323038
C  C117  1  0.20833000  0.51623000  0.60303000  1.0 -0.2030091395
C  C118  1  0.98186000  0.49436000  0.96966000  1.0 -0.0915458705
C  C119  1  0.95284000  0.53854000  0.89474000  1.0 -0.0915458705
C  C120  1  0.92087000  0.51257000  0.00767000  1.0 -0.2196024914
C  C121  1  0.89186000  0.55776000  0.93236000  1.0 -0.2370356132
C  C122  1  0.15883000  0.40343000  0.74583000  1.0 -0.5597128033
C  C123  1  0.13502000  0.49682000  0.56582000  1.0 -0.1348388378
C  C124  1  0.13926000  0.53556000  0.51156000  1.0 -0.0958526318
C  C125  1  0.22304000  0.49564000  0.51114000  1.0 0.1501984026
C  C126  1  0.28619000  0.47969000  0.49079000  1.0 -0.0800779019
C  C127  1  0.01126000  0.79436000  0.36856000  1.0 -0.041136454
C  C128  1  0.03258000  0.73968000  0.40918000  1.0 -0.0737978115
C  C129  1  0.96455000  0.80885000  0.36355000  1.0 -0.0915458705
C  C130  1  0.03730000  0.83780000  0.32890000  1.0 0.5351637642
C  C131  1  0.04507000  0.32497000  0.80657000  1.0 0.3491342381
C  C132  1  0.93345000  0.31875000  0.74525000  1.0 0.4030597101
C  C133  1  0.83349000  0.33159000  0.69029000  1.0 0.3907683085
C  C134  1  0.00746000  0.70006000  0.44476000  1.0 -0.2370356132
C  C135  1  0.76670000  0.27960000  0.87480000  1.0 0.3683695908
C  C136  1  0.17156000  0.21186000  0.88646000  1.0 0.2803769549
C  C137  1  0.13023000  0.19283000  0.87533000  1.0 -0.1677600813
C  C138  1  0.69193000  0.36623000  0.86273000  1.0 -0.0526166737
C  C139  1  0.84824000  0.39844000  0.66944000  1.0 -0.1088339888
C  C140  1  0.17925000  0.24215000  0.89675000  1.0 -0.580938591
C  C141  1  0.93880000  0.77080000  0.39900000  1.0 -0.2130106498
C  C142  1  0.80230000  0.21920000  0.90260000  1.0 -0.5392645259
C  C143  1  0.99344000  0.50334000  0.58644000  1.0 -0.0526166737
C  C144  1  0.98350000  0.28570000  0.70620000  1.0 -0.5597128033
C  C145  1  0.04679000  0.20859000  0.00199000  1.0 -0.0800779019
C  C146  1  0.00602000  0.21092000  0.05372000  1.0 -0.1205070227
C  C147  1  0.98667000  0.30027000  0.98927000  1.0 0.1567441725
C  C148  1  0.95724000  0.36634000  0.96094000  1.0 -0.0915458705
C  C149  1  0.96061000  0.71631000  0.43981000  1.0 0.2473323038
C  C150  1  0.88431000  0.37351000  0.78961000  1.0 -0.0737978115
C  C151  1  0.83298000  0.41968000  0.62938000  1.0 -0.0526166737
C  C152  1  0.82661000  0.27841000  0.71861000  1.0 -0.5515588556
C  C153  1  0.01083000  0.43983000  0.62833000  1.0 0.5301170985
C  C154  1  0.73837000  0.37137000  0.81187000  1.0 -0.0915458705
C  C155  1  0.97018000  0.30548000  0.85838000  1.0 -0.041136454
C  C156  1  0.84644000  0.36284000  0.80044000  1.0 -0.0915458705
C  C157  1  0.18243000  0.14723000  0.87683000  1.0 -0.0737978115
C  C158  1  0.95384000  0.62294000  0.51184000  1.0 0.2473323038
C  C159  1  0.98377000  0.29167000  0.89697000  1.0 -0.2030091395
C  C160  1  0.00564000  0.51814000  0.53034000  1.0 -0.0915458705
C  C161  1  0.96146000  0.54716000  0.60526000  1.0 -0.0915458705
C  C162  1  0.98743000  0.57913000  0.49233000  1.0 -0.2196024914
C  C163  1  0.94224000  0.60814000  0.56764000  1.0 -0.2370356132
C  C164  1  0.09657000  0.34117000  0.75417000  1.0 -0.5597128033
C  C165  1  0.00318000  0.36498000  0.93418000  1.0 -0.1348388378
C  C166  1  0.96444000  0.36074000  0.98844000  1.0 -0.0915458705
C  C167  1  0.00436000  0.27696000  0.98886000  1.0 0.1501984026
C  C168  1  0.02031000  0.21381000  0.00921000  1.0 -0.0800779019
C  C169  1  0.36856000  0.01126000  0.79436000  1.0 -0.041136454
C  C170  1  0.40918000  0.03258000  0.73968000  1.0 -0.0737978115
C  C171  1  0.36355000  0.96455000  0.80885000  1.0 -0.0915458705
C  C172  1  0.32890000  0.03730000  0.83780000  1.0 0.5351637642
C  C173  1  0.80657000  0.04507000  0.32497000  1.0 0.3491342381
C  C174  1  0.74525000  0.93345000  0.31875000  1.0 0.4030597101
C  C175  1  0.69029000  0.83349000  0.33159000  1.0 0.3907683085
C  C176  1  0.44476000  0.00746000  0.70006000  1.0 -0.2370356132
C  C177  1  0.87480000  0.76670000  0.27960000  1.0 0.3683695908
C  C178  1  0.88646000  0.17156000  0.21186000  1.0 0.2803769549
C  C179  1  0.87533000  0.13023000  0.19283000  1.0 -0.1677600813
C  C180  1  0.86273000  0.69193000  0.36623000  1.0 -0.0526166737
C  C181  1  0.66944000  0.84824000  0.39844000  1.0 -0.1088339888
C  C182  1  0.89675000  0.17925000  0.24215000  1.0 -0.580938591
C  C183  1  0.39900000  0.93880000  0.77080000  1.0 -0.2130106498
C  C184  1  0.90260000  0.80230000  0.21920000  1.0 -0.5392645259
C  C185  1  0.58644000  0.99344000  0.50334000  1.0 -0.0526166737
C  C186  1  0.70620000  0.98350000  0.28570000  1.0 -0.5597128033
C  C187  1  0.00199000  0.04679000  0.20859000  1.0 -0.0800779019
C  C188  1  0.05372000  0.00602000  0.21092000  1.0 -0.1205070227
C  C189  1  0.98927000  0.98667000  0.30027000  1.0 0.1567441725
C  C190  1  0.96094000  0.95724000  0.36634000  1.0 -0.0915458705
C  C191  1  0.43981000  0.96061000  0.71631000  1.0 0.2473323038
C  C192  1  0.78961000  0.88431000  0.37351000  1.0 -0.0800779019
C  C193  1  0.62938000  0.83298000  0.41968000  1.0 -0.0526166737
C  C194  1  0.71861000  0.82661000  0.27841000  1.0 -0.5515588556
C  C195  1  0.62833000  0.01083000  0.43983000  1.0 0.5301170985
C  C196  1  0.81187000  0.73837000  0.37137000  1.0 -0.0915458705
C  C197  1  0.85838000  0.97018000  0.30548000  1.0 -0.041136454
C  C198  1  0.80044000  0.84644000  0.36284000  1.0 -0.0915458705
C  C199  1  0.87683000  0.18243000  0.14723000  1.0 -0.0737978115
C  C200  1  0.51184000  0.95384000  0.62294000  1.0 0.2473323038
C  C201  1  0.89697000  0.98377000  0.29167000  1.0 -0.2030091395
C  C202  1  0.53034000  0.00564000  0.51814000  1.0 -0.0915458705
C  C203  1  0.60526000  0.96146000  0.54716000  1.0 -0.0915458705
C  C204  1  0.49233000  0.98743000  0.57913000  1.0 -0.2196024914
C  C205  1  0.56764000  0.94224000  0.60814000  1.0 -0.2370356132
C  C206  1  0.75417000  0.09657000  0.34117000  1.0 -0.5597128033
C  C207  1  0.93418000  0.00318000  0.36498000  1.0 -0.1348388378
C  C208  1  0.98844000  0.96444000  0.36074000  1.0 -0.0915458705
C  C209  1  0.98886000  0.00436000  0.27696000  1.0 0.1501984026
C  C210  1  0.00921000  0.02031000  0.21381000  1.0 -0.0800779019
C  C211  1  0.79436000  0.36856000  0.01126000  1.0 -0.041136454
C  C212  1  0.73968000  0.40918000  0.03258000  1.0 -0.0737978115
C  C213  1  0.80885000  0.36355000  0.96455000  1.0 -0.0915458705
C  C214  1  0.83780000  0.32890000  0.03730000  1.0 0.5351637642
C  C215  1  0.32497000  0.80657000  0.04507000  1.0 0.3491342381
C  C216  1  0.31875000  0.74525000  0.93345000  1.0 0.4030597101
C  C217  1  0.33159000  0.69029000  0.83349000  1.0 0.3907683085
C  C218  1  0.70006000  0.44476000  0.00746000  1.0 -0.2370356132
C  C219  1  0.27960000  0.87480000  0.76670000  1.0 0.3683695908
C  C220  1  0.21186000  0.88646000  0.17156000  1.0 0.2803769549
C  C221  1  0.19283000  0.87533000  0.13023000  1.0 -0.1677600813
C  C222  1  0.36623000  0.86273000  0.69193000  1.0 -0.0526166737
C  C223  1  0.39844000  0.66944000  0.84824000  1.0 -0.1088339888
C  C224  1  0.24215000  0.89675000  0.17925000  1.0 -0.580938591
C  C225  1  0.77080000  0.39900000  0.93880000  1.0 -0.2130106498
C  C226  1  0.21920000  0.90260000  0.80230000  1.0 -0.5392645259
C  C227  1  0.50334000  0.58644000  0.99344000  1.0 -0.0526166737
C  C228  1  0.28570000  0.70620000  0.98350000  1.0 -0.5597128033
C  C229  1  0.20859000  0.00199000  0.04679000  1.0 -0.0800779019
C  C230  1  0.21092000  0.05372000  0.00602000  1.0 -0.1205070227
C  C231  1  0.30027000  0.98927000  0.98667000  1.0 0.1567441725
C  C232  1  0.36634000  0.96094000  0.95724000  1.0 -0.0915458705
C  C233  1  0.71631000  0.43981000  0.96061000  1.0 0.2473323038
C  C234  1  0.37351000  0.78961000  0.88431000  1.0 -0.0800779019
C  C235  1  0.41968000  0.62938000  0.83298000  1.0 -0.0526166737
C  C236  1  0.27841000  0.71861000  0.82661000  1.0 -0.5515588556
C  C237  1  0.43983000  0.62833000  0.01083000  1.0 0.5301170985
C  C238  1  0.37137000  0.81187000  0.73837000  1.0 -0.0915458705
C  C239  1  0.30548000  0.85838000  0.97018000  1.0 -0.041136454
C  C240  1  0.36284000  0.80044000  0.84644000  1.0 -0.0915458705
C  C241  1  0.14723000  0.87683000  0.18243000  1.0 -0.0737978115
C  C242  1  0.62294000  0.51184000  0.95384000  1.0 0.2473323038
C  C243  1  0.29167000  0.89697000  0.98377000  1.0 -0.2030091395
C  C244  1  0.51814000  0.53034000  0.00564000  1.0 -0.0915458705
C  C245  1  0.54716000  0.60526000  0.96146000  1.0 -0.0915458705
C  C246  1  0.57913000  0.49233000  0.98743000  1.0 -0.2196024914
C  C247  1  0.60814000  0.56764000  0.94224000  1.0 -0.2370356132
C  C248  1  0.34117000  0.75417000  0.09657000  1.0 -0.5597128033
C  C249  1  0.36498000  0.93418000  0.00318000  1.0 -0.1348388378
C  C250  1  0.36074000  0.98844000  0.96444000  1.0 -0.0915458705
C  C251  1  0.27696000  0.98886000  0.00436000  1.0 0.1501984026
C  C252  1  0.21381000  0.00921000  0.02031000  1.0 -0.0800779019
C  C253  1  0.51126000  0.86856000  0.29436000  1.0 -0.041136454
C  C254  1  0.53258000  0.90918000  0.23968000  1.0 -0.0737978115
C  C255  1  0.46455000  0.86355000  0.30885000  1.0 -0.0915458705
C  C256  1  0.53730000  0.82890000  0.33780000  1.0 0.5351637642
C  C257  1  0.54507000  0.30657000  0.82497000  1.0 0.3491342381
C  C258  1  0.43345000  0.24525000  0.81875000  1.0 0.4030597101
C  C259  1  0.33349000  0.19029000  0.83159000  1.0 0.3907683085
C  C260  1  0.50746000  0.94476000  0.20006000  1.0 -0.2370356132
C  C261  1  0.26670000  0.37480000  0.77960000  1.0 0.3683695908
C  C262  1  0.67156000  0.38646000  0.71186000  1.0 0.2803769549
C  C263  1  0.63023000  0.37533000  0.69283000  1.0 -0.1677600813
C  C264  1  0.19193000  0.36273000  0.86623000  1.0 -0.0526166737
C  C265  1  0.34824000  0.16944000  0.89844000  1.0 -0.1088339888
C  C266  1  0.67925000  0.39675000  0.74215000  1.0 -0.580938591
C  C267  1  0.43880000  0.89900000  0.27080000  1.0 -0.2130106498
C  C268  1  0.30230000  0.40260000  0.71920000  1.0 -0.5392645259
C  C269  1  0.49344000  0.08644000  0.00334000  1.0 -0.0526166737
C  C270  1  0.48350000  0.20620000  0.78570000  1.0 -0.5597128033
C  C271  1  0.54679000  0.50199000  0.70859000  1.0 -0.0800779019
C  C272  1  0.50602000  0.55372000  0.71092000  1.0 -0.1205070227
C  C273  1  0.48667000  0.48927000  0.80027000  1.0 0.1567441725
C  C274  1  0.45724000  0.46094000  0.86634000  1.0 -0.0915458705
C  C275  1  0.46061000  0.93981000  0.21631000  1.0 0.2473323038
C  C276  1  0.38431000  0.28961000  0.87351000  1.0 -0.0737978115
C  C277  1  0.33298000  0.12938000  0.91968000  1.0 -0.055494785
C  C278  1  0.32661000  0.21861000  0.77841000  1.0 -0.5515588556
C  C279  1  0.51083000  0.12833000  0.93983000  1.0 0.5301170985
C  C280  1  0.23837000  0.31187000  0.87137000  1.0 -0.0915458705
C  C281  1  0.47018000  0.35838000  0.80548000  1.0 -0.041136454
C  C282  1  0.34644000  0.30044000  0.86284000  1.0 -0.0915458705
C  C283  1  0.68243000  0.37683000  0.64723000  1.0 -0.0737978115
C  C284  1  0.45384000  0.01184000  0.12294000  1.0 0.2473323038
C  C285  1  0.48377000  0.39697000  0.79167000  1.0 -0.2030091395
C  C286  1  0.50564000  0.03034000  0.01814000  1.0 -0.0915458705
C  C287  1  0.46146000  0.10526000  0.04716000  1.0 -0.0915458705
C  C288  1  0.48743000  0.99233000  0.07913000  1.0 -0.2196024914
C  C289  1  0.44224000  0.06764000  0.10814000  1.0 -0.2370356132
C  C290  1  0.59657000  0.25417000  0.84117000  1.0 -0.5597128033
C  C291  1  0.50318000  0.43418000  0.86498000  1.0 -0.1423873302
C  C292  1  0.46444000  0.48844000  0.86074000  1.0 -0.0958526318
C  C293  1  0.50436000  0.48886000  0.77696000  1.0 0.1501984026
C  C294  1  0.52031000  0.50921000  0.71381000  1.0 -0.0800779019
C  C295  1  0.86856000  0.29436000  0.51126000  1.0 -0.041136454
C  C296  1  0.90918000  0.23968000  0.53258000  1.0 -0.0737978115
C  C297  1  0.86355000  0.30885000  0.46455000  1.0 -0.0915458705
C  C298  1  0.82890000  0.33780000  0.53730000  1.0 0.5351637642
C  C299  1  0.30657000  0.82497000  0.54507000  1.0 0.3491342381
C  C300  1  0.24525000  0.81875000  0.43345000  1.0 0.4030597101
C  C301  1  0.19029000  0.83159000  0.33349000  1.0 0.3907683085
C  C302  1  0.94476000  0.20006000  0.50746000  1.0 -0.2370356132
C  C303  1  0.37480000  0.77960000  0.26670000  1.0 0.3683695908
C  C304  1  0.38646000  0.71186000  0.67156000  1.0 0.2803769549
C  C305  1  0.37533000  0.69283000  0.63023000  1.0 -0.1677600813
C  C306  1  0.36273000  0.86623000  0.19193000  1.0 -0.0526166737
C  C307  1  0.16944000  0.89844000  0.34824000  1.0 -0.1088339888
C  C308  1  0.39675000  0.74215000  0.67925000  1.0 -0.580938591
C  C309  1  0.89900000  0.27080000  0.43880000  1.0 -0.2130106498
C  C310  1  0.40260000  0.71920000  0.30230000  1.0 -0.5392645259
C  C311  1  0.08644000  0.00334000  0.49344000  1.0 -0.0526166737
C  C312  1  0.20620000  0.78570000  0.48350000  1.0 -0.5597128033
C  C313  1  0.50199000  0.70859000  0.54679000  1.0 -0.0800779019
C  C314  1  0.55372000  0.71092000  0.50602000  1.0 -0.1205070227
C  C315  1  0.48927000  0.80027000  0.48667000  1.0 0.1567441725
C  C316  1  0.46094000  0.86634000  0.45724000  1.0 -0.0915458705
C  C317  1  0.93981000  0.21631000  0.46061000  1.0 0.2473323038
C  C318  1  0.28961000  0.87351000  0.38431000  1.0 -0.0737978115
C  C319  1  0.12938000  0.91968000  0.33298000  1.0 -0.0526166737
C  C320  1  0.21861000  0.77841000  0.32661000  1.0 -0.5515588556
C  C321  1  0.12833000  0.93983000  0.51083000  1.0 0.5301170985
C  C322  1  0.31187000  0.87137000  0.23837000  1.0 -0.0915458705
C  C323  1  0.35838000  0.80548000  0.47018000  1.0 -0.041136454
C  C324  1  0.30044000  0.86284000  0.34644000  1.0 -0.0915458705
C  C325  1  0.37683000  0.64723000  0.68243000  1.0 -0.0737978115
C  C326  1  0.01184000  0.12294000  0.45384000  1.0 0.2473323038
C  C327  1  0.39697000  0.79167000  0.48377000  1.0 -0.2030091395
C  C328  1  0.03034000  0.01814000  0.50564000  1.0 -0.0915458705
C  C329  1  0.10526000  0.04716000  0.46146000  1.0 -0.0915458705
C  C330  1  0.99233000  0.07913000  0.48743000  1.0 -0.2196024914
C  C331  1  0.06764000  0.10814000  0.44224000  1.0 -0.2370356132
C  C332  1  0.25417000  0.84117000  0.59657000  1.0 -0.5597128033
C  C333  1  0.43418000  0.86498000  0.50318000  1.0 -0.1348388378
C  C334  1  0.48844000  0.86074000  0.46444000  1.0 -0.0958526318
C  C335  1  0.48886000  0.77696000  0.50436000  1.0 0.1501984026
C  C336  1  0.50921000  0.71381000  0.52031000  1.0 -0.0800779019
C  C337  1  0.29436000  0.51126000  0.86856000  1.0 -0.041136454
C  C338  1  0.23968000  0.53258000  0.90918000  1.0 -0.0737978115
C  C339  1  0.30885000  0.46455000  0.86355000  1.0 -0.0915458705
C  C340  1  0.33780000  0.53730000  0.82890000  1.0 0.5351637642
C  C341  1  0.82497000  0.54507000  0.30657000  1.0 0.3491342381
C  C342  1  0.81875000  0.43345000  0.24525000  1.0 0.4030597101
C  C343  1  0.83159000  0.33349000  0.19029000  1.0 0.3907683085
C  C344  1  0.20006000  0.50746000  0.94476000  1.0 -0.2370356132
C  C345  1  0.77960000  0.26670000  0.37480000  1.0 0.3683695908
C  C346  1  0.71186000  0.67156000  0.38646000  1.0 0.2803769549
C  C347  1  0.69283000  0.63023000  0.37533000  1.0 -0.1677600813
C  C348  1  0.86623000  0.19193000  0.36273000  1.0 -0.0526166737
C  C349  1  0.89844000  0.34824000  0.16944000  1.0 -0.1088339888
C  C350  1  0.74215000  0.67925000  0.39675000  1.0 -0.580938591
C  C351  1  0.27080000  0.43880000  0.89900000  1.0 -0.2130106498
C  C352  1  0.71920000  0.30230000  0.40260000  1.0 -0.5392645259
C  C353  1  0.00334000  0.49344000  0.08644000  1.0 -0.0526166737
C  C354  1  0.78570000  0.48350000  0.20620000  1.0 -0.5597128033
C  C355  1  0.70859000  0.54679000  0.50199000  1.0 -0.0800779019
C  C356  1  0.71092000  0.50602000  0.55372000  1.0 -0.1205070227
C  C357  1  0.80027000  0.48667000  0.48927000  1.0 0.1567441725
C  C358  1  0.86634000  0.45724000  0.46094000  1.0 -0.0915458705
C  C359  1  0.21631000  0.46061000  0.93981000  1.0 0.2473323038
C  C360  1  0.87351000  0.38431000  0.28961000  1.0 -0.0800779019
C  C361  1  0.91968000  0.33298000  0.12938000  1.0 -0.0526166737
C  C362  1  0.77841000  0.32661000  0.21861000  1.0 -0.5515588556
C  C363  1  0.93983000  0.51083000  0.12833000  1.0 0.5301170985
C  C364  1  0.87137000  0.23837000  0.31187000  1.0 -0.0915458705
C  C365  1  0.80548000  0.47018000  0.35838000  1.0 -0.041136454
C  C366  1  0.86284000  0.34644000  0.30044000  1.0 -0.0915458705
C  C367  1  0.64723000  0.68243000  0.37683000  1.0 -0.0737978115
C  C368  1  0.12294000  0.45384000  0.01184000  1.0 0.2473323038
C  C369  1  0.79167000  0.48377000  0.39697000  1.0 -0.2030091395
C  C370  1  0.01814000  0.50564000  0.03034000  1.0 -0.0915458705
C  C371  1  0.04716000  0.46146000  0.10526000  1.0 -0.0915458705
C  C372  1  0.07913000  0.48743000  0.99233000  1.0 -0.2196024914
C  C373  1  0.10814000  0.44224000  0.06764000  1.0 -0.2370356132
C  C374  1  0.84117000  0.59657000  0.25417000  1.0 -0.5597128033
C  C375  1  0.86498000  0.50318000  0.43418000  1.0 -0.1348388378
C  C376  1  0.86074000  0.46444000  0.48844000  1.0 -0.0915458705
C  C377  1  0.77696000  0.50436000  0.48886000  1.0 0.1501984026
C  C378  1  0.71381000  0.52031000  0.50921000  1.0 -0.0800779019
C  C379  1  0.98874000  0.20564000  0.63144000  1.0 -0.041136454
C  C380  1  0.96742000  0.26032000  0.59082000  1.0 -0.0737978115
C  C381  1  0.03545000  0.19115000  0.63645000  1.0 -0.0915458705
C  C382  1  0.96270000  0.16220000  0.67110000  1.0 0.5351637642
C  C383  1  0.95493000  0.67503000  0.19343000  1.0 0.3491342381
C  C384  1  0.06655000  0.68125000  0.25475000  1.0 0.4030597101
C  C385  1  0.16651000  0.66841000  0.30971000  1.0 0.3907683085
C  C386  1  0.99254000  0.29994000  0.55524000  1.0 -0.2370356132
C  C387  1  0.23330000  0.72040000  0.12520000  1.0 0.3683695908
C  C388  1  0.82844000  0.78814000  0.11354000  1.0 0.2803769549
C  C389  1  0.86977000  0.80717000  0.12467000  1.0 -0.1677600813
C  C390  1  0.30807000  0.63377000  0.13727000  1.0 -0.0526166737
C  C391  1  0.15176000  0.60156000  0.33056000  1.0 -0.1088339888
C  C392  1  0.82075000  0.75785000  0.10325000  1.0 -0.580938591
C  C393  1  0.06120000  0.22920000  0.60100000  1.0 -0.2130106498
C  C394  1  0.19770000  0.78080000  0.09740000  1.0 -0.5392645259
C  C395  1  0.00656000  0.49666000  0.41356000  1.0 -0.0526166737
C  C396  1  0.01650000  0.71430000  0.29380000  1.0 -0.5597128033
C  C397  1  0.95321000  0.79141000  0.99801000  1.0 -0.0800779019
C  C398  1  0.99398000  0.78908000  0.94628000  1.0 -0.1205070227
C  C399  1  0.01333000  0.69973000  0.01073000  1.0 0.1567441725
C  C400  1  0.04276000  0.63366000  0.03906000  1.0 -0.0915458705
C  C401  1  0.03939000  0.28369000  0.56019000  1.0 0.2473323038
C  C402  1  0.11569000  0.62649000  0.21039000  1.0 -0.0800779019
C  C403  1  0.16702000  0.58032000  0.37062000  1.0 -0.0526166737
C  C404  1  0.17339000  0.72159000  0.28139000  1.0 -0.5515588556
C  C405  1  0.98917000  0.56017000  0.37167000  1.0 0.5301170985
C  C406  1  0.26163000  0.62863000  0.18813000  1.0 -0.0915458705
C  C407  1  0.02982000  0.69452000  0.14162000  1.0 -0.041136454
C  C408  1  0.15356000  0.63716000  0.19956000  1.0 -0.0915458705
C  C409  1  0.81757000  0.85277000  0.12317000  1.0 -0.0737978115
C  C410  1  0.04616000  0.37706000  0.48816000  1.0 0.2473323038
C  C411  1  0.01623000  0.70833000  0.10303000  1.0 -0.2030091395
C  C412  1  0.99436000  0.48186000  0.46966000  1.0 -0.0915458705
C  C413  1  0.03854000  0.45284000  0.39474000  1.0 -0.0915458705
C  C414  1  0.01257000  0.42087000  0.50767000  1.0 -0.2196024914
C  C415  1  0.05776000  0.39186000  0.43236000  1.0 -0.2370356132
C  C416  1  0.90343000  0.65883000  0.24583000  1.0 -0.5597128033
C  C417  1  0.99682000  0.63502000  0.06582000  1.0 -0.1423873302
C  C418  1  0.03556000  0.63926000  0.01156000  1.0 -0.0958526318
C  C419  1  0.99564000  0.72304000  0.01114000  1.0 0.1501984026
C  C420  1  0.97969000  0.78619000  0.99079000  1.0 -0.0800779019
C  C421  1  0.63144000  0.98874000  0.20564000  1.0 -0.041136454
C  C422  1  0.59082000  0.96742000  0.26032000  1.0 -0.0737978115
C  C423  1  0.63645000  0.03545000  0.19115000  1.0 -0.0915458705
C  C424  1  0.67110000  0.96270000  0.16220000  1.0 0.5351637642
C  C425  1  0.19343000  0.95493000  0.67503000  1.0 0.3491342381
C  C426  1  0.25475000  0.06655000  0.68125000  1.0 0.4030597101
C  C427  1  0.30971000  0.16651000  0.66841000  1.0 0.3907683085
C  C428  1  0.55524000  0.99254000  0.29994000  1.0 -0.2370356132
C  C429  1  0.12520000  0.23330000  0.72040000  1.0 0.3683695908
C  C430  1  0.11354000  0.82844000  0.78814000  1.0 0.2803769549
C  C431  1  0.12467000  0.86977000  0.80717000  1.0 -0.1677600813
C  C432  1  0.13727000  0.30807000  0.63377000  1.0 -0.0526166737
C  C433  1  0.33056000  0.15176000  0.60156000  1.0 -0.1088339888
C  C434  1  0.10325000  0.82075000  0.75785000  1.0 -0.580938591
C  C435  1  0.60100000  0.06120000  0.22920000  1.0 -0.2130106498
C  C436  1  0.09740000  0.19770000  0.78080000  1.0 -0.5392645259
C  C437  1  0.41356000  0.00656000  0.49666000  1.0 -0.0526166737
C  C438  1  0.29380000  0.01650000  0.71430000  1.0 -0.5597128033
C  C439  1  0.99801000  0.95321000  0.79141000  1.0 -0.0800779019
C  C440  1  0.94628000  0.99398000  0.78908000  1.0 -0.1205070227
C  C441  1  0.01073000  0.01333000  0.69973000  1.0 0.1567441725
C  C442  1  0.03906000  0.04276000  0.63366000  1.0 -0.0915458705
C  C443  1  0.56019000  0.03939000  0.28369000  1.0 0.2473323038
C  C444  1  0.21039000  0.11569000  0.62649000  1.0 -0.0800779019
C  C445  1  0.37062000  0.16702000  0.58032000  1.0 -0.0526166737
C  C446  1  0.28139000  0.17339000  0.72159000  1.0 -0.5515588556
C  C447  1  0.37167000  0.98917000  0.56017000  1.0 0.5301170985
C  C448  1  0.18813000  0.26163000  0.62863000  1.0 -0.0915458705
C  C449  1  0.14162000  0.02982000  0.69452000  1.0 -0.041136454
C  C450  1  0.19956000  0.15356000  0.63716000  1.0 -0.0915458705
C  C451  1  0.12317000  0.81757000  0.85277000  1.0 -0.0737978115
C  C452  1  0.48816000  0.04616000  0.37706000  1.0 0.2473323038
C  C453  1  0.10303000  0.01623000  0.70833000  1.0 -0.2030091395
C  C454  1  0.46966000  0.99436000  0.48186000  1.0 -0.0915458705
C  C455  1  0.39474000  0.03854000  0.45284000  1.0 -0.0915458705
C  C456  1  0.50767000  0.01257000  0.42087000  1.0 -0.2196024914
C  C457  1  0.43236000  0.05776000  0.39186000  1.0 -0.2370356132
C  C458  1  0.24583000  0.90343000  0.65883000  1.0 -0.5597128033
C  C459  1  0.06582000  0.99682000  0.63502000  1.0 -0.1348388378
C  C460  1  0.01156000  0.03556000  0.63926000  1.0 -0.0958526318
C  C461  1  0.01114000  0.99564000  0.72304000  1.0 0.1501984026
C  C462  1  0.99079000  0.97969000  0.78619000  1.0 -0.0800779019
C  C463  1  0.20564000  0.63144000  0.98874000  1.0 -0.041136454
C  C464  1  0.26032000  0.59082000  0.96742000  1.0 -0.0737978115
C  C465  1  0.19115000  0.63645000  0.03545000  1.0 -0.0915458705
C  C466  1  0.16220000  0.67110000  0.96270000  1.0 0.5351637642
C  C467  1  0.67503000  0.19343000  0.95493000  1.0 0.3491342381
C  C468  1  0.68125000  0.25475000  0.06655000  1.0 0.4030597101
C  C469  1  0.66841000  0.30971000  0.16651000  1.0 0.3907683085
C  C470  1  0.29994000  0.55524000  0.99254000  1.0 -0.2370356132
C  C471  1  0.72040000  0.12520000  0.23330000  1.0 0.3683695908
C  C472  1  0.78814000  0.11354000  0.82844000  1.0 0.2803769549
C  C473  1  0.80717000  0.12467000  0.86977000  1.0 -0.1677600813
C  C474  1  0.63377000  0.13727000  0.30807000  1.0 -0.0526166737
C  C475  1  0.60156000  0.33056000  0.15176000  1.0 -0.1088339888
C  C476  1  0.75785000  0.10325000  0.82075000  1.0 -0.580938591
C  C477  1  0.22920000  0.60100000  0.06120000  1.0 -0.2130106498
C  C478  1  0.78080000  0.09740000  0.19770000  1.0 -0.5392645259
C  C479  1  0.49666000  0.41356000  0.00656000  1.0 -0.0526166737
C  C480  1  0.71430000  0.29380000  0.01650000  1.0 -0.5597128033
C  C481  1  0.79141000  0.99801000  0.95321000  1.0 -0.0800779019
C  C482  1  0.78908000  0.94628000  0.99398000  1.0 -0.1205070227
C  C483  1  0.69973000  0.01073000  0.01333000  1.0 0.1567441725
C  C484  1  0.63366000  0.03906000  0.04276000  1.0 -0.0915458705
C  C485  1  0.28369000  0.56019000  0.03939000  1.0 0.2473323038
C  C486  1  0.62649000  0.21039000  0.11569000  1.0 -0.0737978115
C  C487  1  0.58032000  0.37062000  0.16702000  1.0 -0.0526166737
C  C488  1  0.72159000  0.28139000  0.17339000  1.0 -0.5515588556
C  C489  1  0.56017000  0.37167000  0.98917000  1.0 0.5301170985
C  C490  1  0.62863000  0.18813000  0.26163000  1.0 -0.0915458705
C  C491  1  0.69452000  0.14162000  0.02982000  1.0 -0.041136454
C  C492  1  0.63716000  0.19956000  0.15356000  1.0 -0.0915458705
C  C493  1  0.85277000  0.12317000  0.81757000  1.0 -0.0737978115
C  C494  1  0.37706000  0.48816000  0.04616000  1.0 0.2473323038
C  C495  1  0.70833000  0.10303000  0.01623000  1.0 -0.2030091395
C  C496  1  0.48186000  0.46966000  0.99436000  1.0 -0.0915458705
C  C497  1  0.45284000  0.39474000  0.03854000  1.0 -0.0915458705
C  C498  1  0.42087000  0.50767000  0.01257000  1.0 -0.2196024914
C  C499  1  0.39186000  0.43236000  0.05776000  1.0 -0.2370356132
C  C500  1  0.65883000  0.24583000  0.90343000  1.0 -0.5597128033
C  C501  1  0.63502000  0.06582000  0.99682000  1.0 -0.1423873302
C  C502  1  0.63926000  0.01156000  0.03556000  1.0 -0.0915458705
C  C503  1  0.72304000  0.01114000  0.99564000  1.0 0.1501984026
C  C504  1  0.78619000  0.99079000  0.97969000  1.0 -0.0800779019
N  N1  1  0.49208000  0.69858000  0.17248000  1.0 -0.3413248618
N  N2  1  0.65495000  0.78905000  0.15755000  1.0 -0.2647013978
N  N3  1  0.62167000  0.73097000  0.17097000  1.0 -0.2694587682
N  N4  1  0.37710000  0.61860000  0.26580000  1.0 -0.2769289945
N  N5  1  0.67549000  0.85789000  0.12559000  1.0 -0.4142943233
N  N6  1  0.71248000  0.68138000  0.18288000  1.0 -0.2939418911
N  N7  1  0.78912000  0.59562000  0.19452000  1.0 -0.3687941128
N  N8  1  0.55672000  0.74642000  0.15702000  1.0 -0.3687941128
N  N9  1  0.46873000  0.63733000  0.19393000  1.0 -0.2694587682
N  N10  1  0.29171000  0.61551000  0.34081000  1.0 -0.3687941128
N  N11  1  0.46539000  0.54099000  0.23319000  1.0 -0.017062121
N  N12  1  0.53256000  0.45356000  0.23086000  1.0 -0.1677600813
N  N13  1  0.47052000  0.56652000  0.18942000  1.0 -0.0800779019
N  N14  1  0.53477000  0.47597000  0.19547000  1.0 -0.1423873302
N  N15  1  0.69858000  0.17248000  0.49208000  1.0 -0.3413248618
N  N16  1  0.78905000  0.15755000  0.65495000  1.0 -0.2694587682
N  N17  1  0.73097000  0.17097000  0.62167000  1.0 -0.2694587682
N  N18  1  0.61860000  0.26580000  0.37710000  1.0 -0.2769289945
N  N19  1  0.85789000  0.12559000  0.67549000  1.0 -0.4142943233
N  N20  1  0.68138000  0.18288000  0.71248000  1.0 -0.2939418911
N  N21  1  0.59562000  0.19452000  0.78912000  1.0 -0.3687941128
N  N22  1  0.74642000  0.15702000  0.55672000  1.0 -0.3687941128
N  N23  1  0.63733000  0.19393000  0.46873000  1.0 -0.2647013978
N  N24  1  0.61551000  0.34081000  0.29171000  1.0 -0.3687941128
N  N25  1  0.54099000  0.23319000  0.46539000  1.0 -0.017062121
N  N26  1  0.45356000  0.23086000  0.53256000  1.0 -0.1677600813
N  N27  1  0.56652000  0.18942000  0.47052000  1.0 -0.0800779019
N  N28  1  0.47597000  0.19547000  0.53477000  1.0 -0.1423873302
N  N29  1  0.17248000  0.49208000  0.69858000  1.0 -0.3413248618
N  N30  1  0.15755000  0.65495000  0.78905000  1.0 -0.2647013978
N  N31  1  0.17097000  0.62167000  0.73097000  1.0 -0.2694587682
N  N32  1  0.26580000  0.37710000  0.61860000  1.0 -0.2769289945
N  N33  1  0.12559000  0.67549000  0.85789000  1.0 -0.4142943233
N  N34  1  0.18288000  0.71248000  0.68138000  1.0 -0.2939418911
N  N35  1  0.19452000  0.78912000  0.59562000  1.0 -0.3687941128
N  N36  1  0.15702000  0.55672000  0.74642000  1.0 -0.3759236027
N  N37  1  0.19393000  0.46873000  0.63733000  1.0 -0.2647013978
N  N38  1  0.34081000  0.29171000  0.61551000  1.0 -0.3687941128
N  N39  1  0.23319000  0.46539000  0.54099000  1.0 -0.017062121
N  N40  1  0.23086000  0.53256000  0.45356000  1.0 -0.1677600813
N  N41  1  0.18942000  0.47052000  0.56652000  1.0 -0.0800779019
N  N42  1  0.19547000  0.53477000  0.47597000  1.0 -0.1423873302
N  N43  1  0.00792000  0.32752000  0.80142000  1.0 -0.3413248618
N  N44  1  0.84505000  0.34245000  0.71095000  1.0 -0.2647013978
N  N45  1  0.87833000  0.32903000  0.76903000  1.0 -0.2694587682
N  N46  1  0.12290000  0.23420000  0.88140000  1.0 -0.2769289945
N  N47  1  0.82451000  0.37441000  0.64211000  1.0 -0.4142943233
N  N48  1  0.78752000  0.31712000  0.81862000  1.0 -0.2939418911
N  N49  1  0.71088000  0.30548000  0.90438000  1.0 -0.3687941128
N  N50  1  0.94328000  0.34298000  0.75358000  1.0 -0.3759236027
N  N51  1  0.03127000  0.30607000  0.86267000  1.0 -0.2647013978
N  N52  1  0.20829000  0.15919000  0.88449000  1.0 -0.3687941128
N  N53  1  0.03461000  0.26681000  0.95901000  1.0 -0.017062121
N  N54  1  0.96744000  0.26914000  0.04644000  1.0 -0.1677600813
N  N55  1  0.02948000  0.31058000  0.93348000  1.0 -0.0800779019
N  N56  1  0.96523000  0.30453000  0.02403000  1.0 -0.1423873302
N  N57  1  0.80142000  0.00792000  0.32752000  1.0 -0.3413248618
N  N58  1  0.71095000  0.84505000  0.34245000  1.0 -0.2647013978
N  N59  1  0.76903000  0.87833000  0.32903000  1.0 -0.2694587682
N  N60  1  0.88140000  0.12290000  0.23420000  1.0 -0.2769289945
N  N61  1  0.64211000  0.82451000  0.37441000  1.0 -0.4142943233
N  N62  1  0.81862000  0.78752000  0.31712000  1.0 -0.2939418911
N  N63  1  0.90438000  0.71088000  0.30548000  1.0 -0.3687941128
N  N64  1  0.75358000  0.94328000  0.34298000  1.0 -0.3759236027
N  N65  1  0.86267000  0.03127000  0.30607000  1.0 -0.2647013978
N  N66  1  0.88449000  0.20829000  0.15919000  1.0 -0.3687941128
N  N67  1  0.95901000  0.03461000  0.26681000  1.0 -0.017062121
N  N68  1  0.04644000  0.96744000  0.26914000  1.0 -0.1677600813
N  N69  1  0.93348000  0.02948000  0.31058000  1.0 -0.0915458705
N  N70  1  0.02403000  0.96523000  0.30453000  1.0 -0.1423873302
N  N71  1  0.32752000  0.80142000  0.00792000  1.0 -0.3413248618
N  N72  1  0.34245000  0.71095000  0.84505000  1.0 -0.2694587682
N  N73  1  0.32903000  0.76903000  0.87833000  1.0 -0.2694587682
N  N74  1  0.23420000  0.88140000  0.12290000  1.0 -0.2769289945
N  N75  1  0.37441000  0.64211000  0.82451000  1.0 -0.4142943233
N  N76  1  0.31712000  0.81862000  0.78752000  1.0 -0.2939418911
N  N77  1  0.30548000  0.90438000  0.71088000  1.0 -0.3687941128
N  N78  1  0.34298000  0.75358000  0.94328000  1.0 -0.3759236027
N  N79  1  0.30607000  0.86267000  0.03127000  1.0 -0.2647013978
N  N80  1  0.15919000  0.88449000  0.20829000  1.0 -0.3687941128
N  N81  1  0.26681000  0.95901000  0.03461000  1.0 -0.017062121
N  N82  1  0.26914000  0.04644000  0.96744000  1.0 -0.1677600813
N  N83  1  0.31058000  0.93348000  0.02948000  1.0 -0.0800779019
N  N84  1  0.30453000  0.02403000  0.96523000  1.0 -0.1423873302
N  N85  1  0.50792000  0.30142000  0.82752000  1.0 -0.3413248618
N  N86  1  0.34505000  0.21095000  0.84245000  1.0 -0.2694587682
N  N87  1  0.37833000  0.26903000  0.82903000  1.0 -0.2694587682
N  N88  1  0.62290000  0.38140000  0.73420000  1.0 -0.2769289945
N  N89  1  0.32451000  0.14211000  0.87441000  1.0 -0.4142943233
N  N90  1  0.28752000  0.31862000  0.81712000  1.0 -0.2939418911
N  N91  1  0.21088000  0.40438000  0.80548000  1.0 -0.3687941128
N  N92  1  0.44328000  0.25358000  0.84298000  1.0 -0.3759236027
N  N93  1  0.53127000  0.36267000  0.80607000  1.0 -0.2647013978
N  N94  1  0.70829000  0.38449000  0.65919000  1.0 -0.3687941128
N  N95  1  0.53461000  0.45901000  0.76681000  1.0 -0.017062121
N  N96  1  0.46744000  0.54644000  0.76914000  1.0 -0.1677600813
N  N97  1  0.52948000  0.43348000  0.81058000  1.0 -0.0800779019
N  N98  1  0.46523000  0.52403000  0.80453000  1.0 -0.1423873302
N  N99  1  0.30142000  0.82752000  0.50792000  1.0 -0.3413248618
N  N100  1  0.21095000  0.84245000  0.34505000  1.0 -0.2647013978
N  N101  1  0.26903000  0.82903000  0.37833000  1.0 -0.2694587682
N  N102  1  0.38140000  0.73420000  0.62290000  1.0 -0.2769289945
N  N103  1  0.14211000  0.87441000  0.32451000  1.0 -0.4142943233
N  N104  1  0.31862000  0.81712000  0.28752000  1.0 -0.2939418911
N  N105  1  0.40438000  0.80548000  0.21088000  1.0 -0.3687941128
N  N106  1  0.25358000  0.84298000  0.44328000  1.0 -0.3759236027
N  N107  1  0.36267000  0.80607000  0.53127000  1.0 -0.2647013978
N  N108  1  0.38449000  0.65919000  0.70829000  1.0 -0.3687941128
N  N109  1  0.45901000  0.76681000  0.53461000  1.0 -0.017062121
N  N110  1  0.54644000  0.76914000  0.46744000  1.0 -0.1677600813
N  N111  1  0.43348000  0.81058000  0.52948000  1.0 -0.0800779019
N  N112  1  0.52403000  0.80453000  0.46523000  1.0 -0.1423873302
N  N113  1  0.82752000  0.50792000  0.30142000  1.0 -0.3413248618
N  N114  1  0.84245000  0.34505000  0.21095000  1.0 -0.2694587682
N  N115  1  0.82903000  0.37833000  0.26903000  1.0 -0.2694587682
N  N116  1  0.73420000  0.62290000  0.38140000  1.0 -0.2769289945
N  N117  1  0.87441000  0.32451000  0.14211000  1.0 -0.4142943233
N  N118  1  0.81712000  0.28752000  0.31862000  1.0 -0.2939418911
N  N119  1  0.80548000  0.21088000  0.40438000  1.0 -0.3687941128
N  N120  1  0.84298000  0.44328000  0.25358000  1.0 -0.3759236027
N  N121  1  0.80607000  0.53127000  0.36267000  1.0 -0.2647013978
N  N122  1  0.65919000  0.70829000  0.38449000  1.0 -0.3687941128
N  N123  1  0.76681000  0.53461000  0.45901000  1.0 -0.017062121
N  N124  1  0.76914000  0.46744000  0.54644000  1.0 -0.1677600813
N  N125  1  0.81058000  0.52948000  0.43348000  1.0 -0.0800779019
N  N126  1  0.80453000  0.46523000  0.52403000  1.0 -0.1423873302
N  N127  1  0.99208000  0.67248000  0.19858000  1.0 -0.3413248618
N  N128  1  0.15495000  0.65755000  0.28905000  1.0 -0.2694587682
N  N129  1  0.12167000  0.67097000  0.23097000  1.0 -0.2694587682
N  N130  1  0.87710000  0.76580000  0.11860000  1.0 -0.2769289945
N  N131  1  0.17549000  0.62559000  0.35789000  1.0 -0.4142943233
N  N132  1  0.21248000  0.68288000  0.18138000  1.0 -0.2939418911
N  N133  1  0.28912000  0.69452000  0.09562000  1.0 -0.3687941128
N  N134  1  0.05672000  0.65702000  0.24642000  1.0 -0.3759236027
N  N135  1  0.96873000  0.69393000  0.13733000  1.0 -0.2647013978
N  N136  1  0.79171000  0.84081000  0.11551000  1.0 -0.3687941128
N  N137  1  0.96539000  0.73319000  0.04099000  1.0 -0.017062121
N  N138  1  0.03256000  0.73086000  0.95356000  1.0 -0.1677600813
N  N139  1  0.97052000  0.68942000  0.06652000  1.0 -0.0915458705
N  N140  1  0.03477000  0.69547000  0.97597000  1.0 -0.1423873302
N  N141  1  0.19858000  0.99208000  0.67248000  1.0 -0.3413248618
N  N142  1  0.28905000  0.15495000  0.65755000  1.0 -0.2694587682
N  N143  1  0.23097000  0.12167000  0.67097000  1.0 -0.2694587682
N  N144  1  0.11860000  0.87710000  0.76580000  1.0 -0.2769289945
N  N145  1  0.35789000  0.17549000  0.62559000  1.0 -0.4142943233
N  N146  1  0.18138000  0.21248000  0.68288000  1.0 -0.2939418911
N  N147  1  0.09562000  0.28912000  0.69452000  1.0 -0.3687941128
N  N148  1  0.24642000  0.05672000  0.65702000  1.0 -0.3759236027
N  N149  1  0.13733000  0.96873000  0.69393000  1.0 -0.2647013978
N  N150  1  0.11551000  0.79171000  0.84081000  1.0 -0.3687941128
N  N151  1  0.04099000  0.96539000  0.73319000  1.0 -0.017062121
N  N152  1  0.95356000  0.03256000  0.73086000  1.0 -0.1677600813
N  N153  1  0.06652000  0.97052000  0.68942000  1.0 -0.0800779019
N  N154  1  0.97597000  0.03477000  0.69547000  1.0 -0.1423873302
N  N155  1  0.67248000  0.19858000  0.99208000  1.0 -0.3413248618
N  N156  1  0.65755000  0.28905000  0.15495000  1.0 -0.2694587682
N  N157  1  0.67097000  0.23097000  0.12167000  1.0 -0.2694587682
N  N158  1  0.76580000  0.11860000  0.87710000  1.0 -0.2769289945
N  N159  1  0.62559000  0.35789000  0.17549000  1.0 -0.4142943233
N  N160  1  0.68288000  0.18138000  0.21248000  1.0 -0.2939418911
N  N161  1  0.69452000  0.09562000  0.28912000  1.0 -0.3687941128
N  N162  1  0.65702000  0.24642000  0.05672000  1.0 -0.3759236027
N  N163  1  0.69393000  0.13733000  0.96873000  1.0 -0.2647013978
N  N164  1  0.84081000  0.11551000  0.79171000  1.0 -0.3687941128
N  N165  1  0.73319000  0.04099000  0.96539000  1.0 -0.017062121
N  N166  1  0.73086000  0.95356000  0.03256000  1.0 -0.1677600813
N  N167  1  0.68942000  0.06652000  0.97052000  1.0 -0.0800779019
N  N168  1  0.69547000  0.97597000  0.03477000  1.0 -0.1423873302
O  O1  1  0.42579000  0.15835000  0.67415000  1.0 -0.5515588556
O  O2  1  0.47494000  0.21333000  0.61886000  1.0 -0.5344840099
O  O3  1  0.49040000  0.82770000  0.07390000  1.0 -0.5023110369
O  O4  1  0.47673000  0.88383000  0.09723000  1.0 -0.580938591
O  O5  1  0.56784000  0.02694000  0.81954000  1.0 -0.2196024914
O  O6  1  0.15835000  0.67415000  0.42579000  1.0 -0.5515588556
O  O7  1  0.21333000  0.61886000  0.47494000  1.0 -0.5344840099
O  O8  1  0.82770000  0.07390000  0.49040000  1.0 -0.5023110369
O  O9  1  0.88383000  0.09723000  0.47673000  1.0 -0.580938591
O  O10  1  0.02694000  0.81954000  0.56784000  1.0 -0.2196024914
O  O11  1  0.67415000  0.42579000  0.15835000  1.0 -0.5515588556
O  O12  1  0.61886000  0.47494000  0.21333000  1.0 -0.5344840099
O  O13  1  0.07390000  0.49040000  0.82770000  1.0 -0.5023110369
O  O14  1  0.09723000  0.47673000  0.88383000  1.0 -0.580938591
O  O15  1  0.81954000  0.56784000  0.02694000  1.0 -0.2196024914
O  O16  1  0.07421000  0.82585000  0.34165000  1.0 -0.5515588556
O  O17  1  0.02506000  0.88114000  0.28667000  1.0 -0.5344840099
O  O18  1  0.00960000  0.42610000  0.67230000  1.0 -0.5023110369
O  O19  1  0.02327000  0.40277000  0.61617000  1.0 -0.580938591
O  O20  1  0.93216000  0.68046000  0.47306000  1.0 -0.2196024914
O  O21  1  0.34165000  0.07421000  0.82585000  1.0 -0.5515588556
O  O22  1  0.28667000  0.02506000  0.88114000  1.0 -0.5344840099
O  O23  1  0.67230000  0.00960000  0.42610000  1.0 -0.5023110369
O  O24  1  0.61617000  0.02327000  0.40277000  1.0 -0.580938591
O  O25  1  0.47306000  0.93216000  0.68046000  1.0 -0.2196024914
O  O26  1  0.82585000  0.34165000  0.07421000  1.0 -0.5515588556
O  O27  1  0.88114000  0.28667000  0.02506000  1.0 -0.5344840099
O  O28  1  0.42610000  0.67230000  0.00960000  1.0 -0.5023110369
O  O29  1  0.40277000  0.61617000  0.02327000  1.0 -0.580938591
O  O30  1  0.68046000  0.47306000  0.93216000  1.0 -0.2196024914
O  O31  1  0.57421000  0.84165000  0.32585000  1.0 -0.5515588556
O  O32  1  0.52506000  0.78667000  0.38114000  1.0 -0.5344840099
O  O33  1  0.50960000  0.17230000  0.92610000  1.0 -0.5023110369
O  O34  1  0.52327000  0.11617000  0.90277000  1.0 -0.580938591
O  O35  1  0.43216000  0.97306000  0.18046000  1.0 -0.2196024914
O  O36  1  0.84165000  0.32585000  0.57421000  1.0 -0.5515588556
O  O37  1  0.78667000  0.38114000  0.52506000  1.0 -0.5344840099
O  O38  1  0.17230000  0.92610000  0.50960000  1.0 -0.5023110369
O  O39  1  0.11617000  0.90277000  0.52327000  1.0 -0.580938591
O  O40  1  0.97306000  0.18046000  0.43216000  1.0 -0.2196024914
O  O41  1  0.32585000  0.57421000  0.84165000  1.0 -0.5515588556
O  O42  1  0.38114000  0.52506000  0.78667000  1.0 -0.5344840099
O  O43  1  0.92610000  0.50960000  0.17230000  1.0 -0.5023110369
O  O44  1  0.90277000  0.52327000  0.11617000  1.0 -0.580938591
O  O45  1  0.18046000  0.43216000  0.97306000  1.0 -0.2196024914
O  O46  1  0.92579000  0.17415000  0.65835000  1.0 -0.5515588556
O  O47  1  0.97494000  0.11886000  0.71333000  1.0 -0.5344840099
O  O48  1  0.99040000  0.57390000  0.32770000  1.0 -0.5023110369
O  O49  1  0.97673000  0.59723000  0.38383000  1.0 -0.580938591
O  O50  1  0.06784000  0.31954000  0.52694000  1.0 -0.2196024914
O  O51  1  0.65835000  0.92579000  0.17415000  1.0 -0.5515588556
O  O52  1  0.71333000  0.97494000  0.11886000  1.0 -0.5344840099
O  O53  1  0.32770000  0.99040000  0.57390000  1.0 -0.5023110369
O  O54  1  0.38383000  0.97673000  0.59723000  1.0 -0.580938591
O  O55  1  0.52694000  0.06784000  0.31954000  1.0 -0.2196024914
O  O56  1  0.17415000  0.65835000  0.92579000  1.0 -0.5515588556
O  O57  1  0.11886000  0.71333000  0.97494000  1.0 -0.5344840099
O  O58  1  0.57390000  0.32770000  0.99040000  1.0 -0.5023110369
O  O59  1  0.59723000  0.38383000  0.97673000  1.0 -0.580938591
O  O60  1  0.31954000  0.52694000  0.06784000  1.0 -0.2196024914
