# DDEC6 charges by PACMAN v1.1 (https://github.com/mtap-research/PACMAN-charge/)
data_XICJEC_ASR_pacman
_symmetry_space_group_name_H-M   'P 1'
_cell_length_a   11.89340000
_cell_length_b   12.10300000
_cell_length_c   17.75210000
_cell_angle_alpha   97.11900000
_cell_angle_beta   108.64500000
_cell_angle_gamma   108.98700000
_symmetry_Int_Tables_number   1
_chemical_formula_structural   Eu2H17C30N9O13
_chemical_formula_sum   'Eu4 H34 C60 N18 O26'
_cell_volume   2214.16121711
_cell_formula_units_Z   2
loop_
 _symmetry_equiv_pos_site_id
 _symmetry_equiv_pos_as_xyz
  1  'x, y, z'
loop_
 _atom_site_type_symbol
 _atom_site_label
 _atom_site_symmetry_multiplicity
 _atom_site_fract_x
 _atom_site_fract_y
 _atom_site_fract_z
 _atom_site_occupancy
 _atom_site_charge
Eu  Eu1  1  0.09050000  0.68249000  0.49808000  1.0 2.009251792
Eu  Eu2  1  0.90950000  0.31751000  0.50192000  1.0 2.009251792
Eu  Eu3  1  0.81491000  0.90889000  0.00015000  1.0 2.0219801254
Eu  Eu4  1  0.18509000  0.09111000  0.99985000  1.0 2.0219801254
H  H1  1  0.19540000  0.33910000  0.67720000  1.0 0.1394392233
H  H2  1  0.80460000  0.66090000  0.32280000  1.0 0.1394392233
H  H3  1  0.50500000  0.49070000  0.88930000  1.0 0.1196626579
H  H4  1  0.49500000  0.50930000  0.11070000  1.0 0.1196626579
H  H5  1  0.43450000  0.68660000  0.72340000  1.0 0.1288334936
H  H6  1  0.56550000  0.31340000  0.27660000  1.0 0.1288334936
H  H7  1  0.35760000  0.34460000  0.93730000  1.0 0.1288334936
H  H8  1  0.64240000  0.65540000  0.06270000  1.0 0.1288334936
H  H9  1  0.16770000  0.02940000  0.78910000  1.0 0.1196626579
H  H10  1  0.83230000  0.97060000  0.21090000  1.0 0.1196626579
H  H11  1  0.97100000  0.21730000  0.25390000  1.0 0.1196626579
H  H12  1  0.02900000  0.78270000  0.74610000  1.0 0.1196626579
H  H13  1  0.19820000  0.35740000  0.13510000  1.0 0.1394392233
H  H14  1  0.80180000  0.64260000  0.86490000  1.0 0.1394392233
H  H15  1  0.21870000  0.56400000  0.33730000  1.0 0.1394392233
H  H16  1  0.78130000  0.43600000  0.66270000  1.0 0.1394392233
H  H17  1  0.04060000  0.79060000  0.22330000  1.0 0.1288334936
H  H18  1  0.95940000  0.20940000  0.77670000  1.0 0.1288334936
H  H19  1  0.34430000  0.99220000  0.17970000  1.0 0.1492363102
H  H20  1  0.65570000  0.00780000  0.82030000  1.0 0.1492363102
H  H21  1  0.39910000  0.89810000  0.39300000  1.0 0.1196626579
H  H22  1  0.60090000  0.10190000  0.60700000  1.0 0.1196626579
H  H23  1  0.76690000  0.14040000  0.28870000  1.0 0.1196626579
H  H24  1  0.23310000  0.85960000  0.71130000  1.0 0.1196626579
H  H25  1  0.59470000  0.07940000  0.43830000  1.0 0.1288334936
H  H26  1  0.40530000  0.92060000  0.56170000  1.0 0.1288334936
H  H27  1  0.24060000  0.56950000  0.09890000  1.0 0.1288334936
H  H28  1  0.75940000  0.43050000  0.90110000  1.0 0.1288334936
H  H29  1  0.54640000  0.79730000  0.27880000  1.0 0.1001329198
H  H30  1  0.45360000  0.20270000  0.72120000  1.0 0.1001329198
H  H31  1  0.06800000  0.91300000  0.54300000  1.0 0.3870560216
H  H32  1  0.93200000  0.08700000  0.45700000  1.0 0.3845990486
H  H33  1  0.94900000  0.81900000  0.48400000  1.0 0.3870560216
H  H34  1  0.05100000  0.18100000  0.51600000  1.0 0.3870560216
C  C1  1  0.21640000  0.51590000  0.60520000  1.0 0.6415603123
C  C2  1  0.78360000  0.48410000  0.39480000  1.0 0.6415603123
C  C3  1  0.30530000  0.51410000  0.68740000  1.0 -0.0029047661
C  C4  1  0.69470000  0.48590000  0.31260000  1.0 -0.0029047661
C  C5  1  0.26870000  0.40600000  0.71140000  1.0 -0.1694551781
C  C6  1  0.73130000  0.59400000  0.28860000  1.0 -0.1694551781
C  C7  1  0.34540000  0.40200000  0.78780000  1.0 0.1288334936
C  C8  1  0.65460000  0.59800000  0.21220000  1.0 0.1288334936
C  C9  1  0.45410000  0.49730000  0.83940000  1.0 -0.1993649019
C  C10  1  0.54590000  0.50270000  0.16060000  1.0 -0.2054107748
C  C11  1  0.48790000  0.60600000  0.81550000  1.0 0.0095449621
C  C12  1  0.51210000  0.39400000  0.18450000  1.0 0.0095449621
C  C13  1  0.41260000  0.61450000  0.73910000  1.0 -0.1196314991
C  C14  1  0.58740000  0.38550000  0.26090000  1.0 -0.1196314991
C  C15  1  0.60410000  0.71390000  0.87420000  1.0 0.5576936193
C  C16  1  0.39590000  0.28610000  0.12580000  1.0 0.5576936193
C  C17  1  0.31390000  0.28170000  0.88980000  1.0 0.1288334936
C  C18  1  0.68610000  0.71830000  0.11020000  1.0 0.1288334936
C  C19  1  0.21050000  0.11290000  0.80850000  1.0 0.1662540771
C  C20  1  0.78950000  0.88710000  0.19150000  1.0 0.1662540771
C  C21  1  0.03740000  0.40840000  0.37450000  1.0 0.6415603123
C  C22  1  0.96260000  0.59160000  0.62550000  1.0 0.6415603123
C  C23  1  0.08700000  0.39260000  0.30620000  1.0 -0.0029047661
C  C24  1  0.91300000  0.60740000  0.69380000  1.0 -0.0029047661
C  C25  1  0.03500000  0.28230000  0.24960000  1.0 -0.1196314991
C  C26  1  0.96500000  0.71770000  0.75040000  1.0 -0.1196314991
C  C27  1  0.07840000  0.26830000  0.18600000  1.0 -0.016055927
C  C28  1  0.92160000  0.73170000  0.81400000  1.0 -0.016055927
C  C29  1  0.16990000  0.36620000  0.17770000  1.0 -0.1694551781
C  C30  1  0.83010000  0.63380000  0.82230000  1.0 -0.1694551781
C  C31  1  0.21790000  0.47480000  0.23200000  1.0 0.1288334936
C  C32  1  0.78210000  0.52520000  0.76800000  1.0 0.1288334936
C  C33  1  0.18100000  0.49000000  0.29860000  1.0 -0.1641751789
C  C34  1  0.81900000  0.51000000  0.70140000  1.0 -0.1641751789
C  C35  1  0.02280000  0.15090000  0.12610000  1.0 0.6415603123
C  C36  1  0.97720000  0.84910000  0.87390000  1.0 0.6415603123
C  C37  1  0.16200000  0.77560000  0.37510000  1.0 0.5576936193
C  C38  1  0.83800000  0.22440000  0.62490000  1.0 0.5576936193
C  C39  1  0.20980000  0.83410000  0.31700000  1.0 -0.016055927
C  C40  1  0.79020000  0.16590000  0.68300000  1.0 -0.016055927
C  C41  1  0.12900000  0.83150000  0.23990000  1.0 -0.1097177528
C  C42  1  0.87100000  0.16850000  0.76010000  1.0 -0.1097177528
C  C43  1  0.17650000  0.88790000  0.18680000  1.0 -0.016055927
C  C44  1  0.82350000  0.11210000  0.81320000  1.0 -0.016055927
C  C45  1  0.31010000  0.95200000  0.21360000  1.0 -0.150757026
C  C46  1  0.68990000  0.04800000  0.78640000  1.0 -0.150757026
C  C47  1  0.38940000  0.95510000  0.28960000  1.0 0.1196626579
C  C48  1  0.61060000  0.04490000  0.71040000  1.0 0.1196626579
C  C49  1  0.34290000  0.89630000  0.34210000  1.0 -0.2054107748
C  C50  1  0.65710000  0.10370000  0.65790000  1.0 -0.2054107748
C  C51  1  0.09430000  0.88970000  0.10350000  1.0 0.6415603123
C  C52  1  0.90570000  0.11030000  0.89650000  1.0 0.6415603123
C  C53  1  0.70260000  0.11210000  0.30880000  1.0 0.1632275767
C  C54  1  0.29740000  0.88790000  0.69120000  1.0 0.1632275767
C  C55  1  0.61180000  0.08070000  0.39080000  1.0 0.1196626579
C  C56  1  0.38820000  0.91930000  0.60920000  1.0 0.1196626579
C  C57  1  0.30580000  0.61140000  0.15010000  1.0 0.1001329198
C  C58  1  0.69420000  0.38860000  0.84990000  1.0 0.1001329198
C  C59  1  0.46860000  0.73240000  0.24890000  1.0 0.1051162518
C  C60  1  0.53140000  0.26760000  0.75110000  1.0 0.1051162518
N  N1  1  0.40900000  0.65340000  0.28240000  1.0 -0.1993649019
N  N2  1  0.59100000  0.34660000  0.71760000  1.0 -0.1993649019
N  N3  1  0.40230000  0.70860000  0.16270000  1.0 -0.3203125559
N  N4  1  0.59770000  0.29140000  0.83730000  1.0 -0.3203125559
N  N5  1  0.30410000  0.29470000  0.81430000  1.0 0.1288334936
N  N6  1  0.69590000  0.70530000  0.18570000  1.0 0.1288334936
N  N7  1  0.25380000  0.16870000  0.88790000  1.0 -0.4300938882
N  N8  1  0.74620000  0.83130000  0.11210000  1.0 -0.4300938882
N  N9  1  0.23210000  0.18400000  0.75850000  1.0 -0.2539043241
N  N10  1  0.76790000  0.81600000  0.24150000  1.0 -0.2539043241
N  N11  1  0.31030000  0.57780000  0.21930000  1.0 0.1394392233
N  N12  1  0.68970000  0.42220000  0.78070000  1.0 0.1394392233
N  N13  1  0.52570000  0.02490000  0.31580000  1.0 0.1288334936
N  N14  1  0.47430000  0.97510000  0.68420000  1.0 0.1288334936
N  N15  1  0.58370000  0.04390000  0.26130000  1.0 -0.2217118405
N  N16  1  0.41630000  0.95610000  0.73870000  1.0 -0.2217118405
N  N17  1  0.72440000  0.13800000  0.38920000  1.0 -0.4300938882
N  N18  1  0.27560000  0.86200000  0.61080000  1.0 -0.4300938882
O  O1  1  0.12770000  0.41960000  0.56280000  1.0 -0.6696454697
O  O2  1  0.87230000  0.58040000  0.43720000  1.0 -0.6696454697
O  O3  1  0.23830000  0.61670000  0.58770000  1.0 -0.6480824165
O  O4  1  0.76170000  0.38330000  0.41230000  1.0 -0.6480824165
O  O5  1  0.67050000  0.70050000  0.94160000  1.0 -0.6696454697
O  O6  1  0.32950000  0.29950000  0.05840000  1.0 -0.6696454697
O  O7  1  0.63360000  0.81320000  0.85700000  1.0 -0.5991061889
O  O8  1  0.36640000  0.18680000  0.14300000  1.0 -0.5991061889
O  O9  1  0.96540000  0.31500000  0.38490000  1.0 -0.6696454697
O  O10  1  0.03460000  0.68500000  0.61510000  1.0 -0.6696454697
O  O11  1  0.06840000  0.50970000  0.41580000  1.0 -0.6440400295
O  O12  1  0.93160000  0.49030000  0.58420000  1.0 -0.6440400295
O  O13  1  0.91570000  0.07550000  0.11970000  1.0 -0.6568714492
O  O14  1  0.08430000  0.92450000  0.88030000  1.0 -0.6568714492
O  O15  1  0.08310000  0.12970000  0.08230000  1.0 -0.7183170729
O  O16  1  0.91690000  0.87030000  0.91770000  1.0 -0.7183170729
O  O17  1  0.04370000  0.72460000  0.35760000  1.0 -0.5991061889
O  O18  1  0.95630000  0.27540000  0.64240000  1.0 -0.5991061889
O  O19  1  0.24420000  0.77710000  0.44290000  1.0 -0.6696454697
O  O20  1  0.75580000  0.22290000  0.55710000  1.0 -0.6696454697
O  O21  1  0.15240000  0.93020000  0.05840000  1.0 -0.6784491949
O  O22  1  0.84760000  0.06980000  0.94160000  1.0 -0.6784491949
O  O23  1  0.97450000  0.85220000  0.08580000  1.0 -0.6568714492
O  O24  1  0.02550000  0.14780000  0.91420000  1.0 -0.6568714492
O  O25  1  0.02980000  0.85180000  0.50400000  1.0 -0.7636129074
O  O26  1  0.97020000  0.14820000  0.49600000  1.0 -0.7636129074
