# DDEC6 charges by PACMAN v1.1 (https://github.com/mtap-research/PACMAN-charge/)
data_XICYUF_ASR_pacman
_symmetry_space_group_name_H-M   'P 1'
_cell_length_a   46.48820000
_cell_length_b   46.48820000
_cell_length_c   46.48820000
_cell_angle_alpha   109.47100000
_cell_angle_beta   109.47100000
_cell_angle_gamma   109.47100000
_symmetry_Int_Tables_number   1
_chemical_formula_structural   Zr15H20C84(S7O37)2
_chemical_formula_sum   'Zr180 H240 C1008 S168 O888'
_cell_volume   77341.01180436
_cell_formula_units_Z   12
loop_
 _symmetry_equiv_pos_site_id
 _symmetry_equiv_pos_as_xyz
  1  'x, y, z'
loop_
 _atom_site_type_symbol
 _atom_site_label
 _atom_site_symmetry_multiplicity
 _atom_site_fract_x
 _atom_site_fract_y
 _atom_site_fract_z
 _atom_site_occupancy
 _atom_site_charge
Zr  Zr1  1  0.62115000  0.57461000  0.77088000  1.0 2.4410798537
Zr  Zr2  1  0.80373000  0.85027000  0.22912000  1.0 2.4410798537
Zr  Zr3  1  0.19627000  0.42539000  0.04654000  1.0 2.4460348832
Zr  Zr4  1  0.37885000  0.14973000  0.95346000  1.0 2.4410798537
Zr  Zr5  1  0.77088000  0.62115000  0.57461000  1.0 2.4410798537
Zr  Zr6  1  0.22912000  0.80373000  0.85027000  1.0 2.4410798537
Zr  Zr7  1  0.04654000  0.19627000  0.42539000  1.0 2.4410798537
Zr  Zr8  1  0.95346000  0.37885000  0.14973000  1.0 2.4410798537
Zr  Zr9  1  0.57461000  0.77088000  0.62115000  1.0 2.4410798537
Zr  Zr10  1  0.85027000  0.22912000  0.80373000  1.0 2.4460348832
Zr  Zr11  1  0.42539000  0.04654000  0.19627000  1.0 2.4410798537
Zr  Zr12  1  0.14973000  0.95346000  0.37885000  1.0 2.4410798537
Zr  Zr13  1  0.14973000  0.19627000  0.77088000  1.0 2.4410798537
Zr  Zr14  1  0.42539000  0.37885000  0.22912000  1.0 2.4410798537
Zr  Zr15  1  0.85027000  0.62115000  0.04654000  1.0 2.4460348832
Zr  Zr16  1  0.57461000  0.80373000  0.95346000  1.0 2.4410798537
Zr  Zr17  1  0.80373000  0.95346000  0.57461000  1.0 2.4460348832
Zr  Zr18  1  0.62115000  0.04654000  0.85027000  1.0 2.4410798537
Zr  Zr19  1  0.37885000  0.22912000  0.42539000  1.0 2.4410798537
Zr  Zr20  1  0.19627000  0.77088000  0.14973000  1.0 2.4410798537
Zr  Zr21  1  0.04654000  0.85027000  0.62115000  1.0 2.4410798537
Zr  Zr22  1  0.95346000  0.57461000  0.80373000  1.0 2.4410798537
Zr  Zr23  1  0.77088000  0.14973000  0.19627000  1.0 2.4460348832
Zr  Zr24  1  0.22912000  0.42539000  0.37885000  1.0 2.4410798537
Zr  Zr25  1  0.37885000  0.42539000  0.22912000  1.0 2.4410798537
Zr  Zr26  1  0.19627000  0.14973000  0.77088000  1.0 2.4410798537
Zr  Zr27  1  0.80373000  0.57461000  0.95346000  1.0 2.4410798537
Zr  Zr28  1  0.62115000  0.85027000  0.04654000  1.0 2.4460348832
Zr  Zr29  1  0.22912000  0.37885000  0.42539000  1.0 2.4410798537
Zr  Zr30  1  0.77088000  0.19627000  0.14973000  1.0 2.4410798537
Zr  Zr31  1  0.95346000  0.80373000  0.57461000  1.0 2.4460348832
Zr  Zr32  1  0.04654000  0.62115000  0.85027000  1.0 2.4410798537
Zr  Zr33  1  0.42539000  0.22912000  0.37885000  1.0 2.4410798537
Zr  Zr34  1  0.14973000  0.77088000  0.19627000  1.0 2.4410798537
Zr  Zr35  1  0.57461000  0.95346000  0.80373000  1.0 2.4410798537
Zr  Zr36  1  0.85027000  0.04654000  0.62115000  1.0 2.4410798537
Zr  Zr37  1  0.85027000  0.80373000  0.22912000  1.0 2.4460348832
Zr  Zr38  1  0.57461000  0.62115000  0.77088000  1.0 2.4410798537
Zr  Zr39  1  0.14973000  0.37885000  0.95346000  1.0 2.4410798537
Zr  Zr40  1  0.42539000  0.19627000  0.04654000  1.0 2.4410798537
Zr  Zr41  1  0.19627000  0.04654000  0.42539000  1.0 2.4410798537
Zr  Zr42  1  0.37885000  0.95346000  0.14973000  1.0 2.4410798537
Zr  Zr43  1  0.62115000  0.77088000  0.57461000  1.0 2.4410798537
Zr  Zr44  1  0.80373000  0.22912000  0.85027000  1.0 2.4410798537
Zr  Zr45  1  0.95346000  0.14973000  0.37885000  1.0 2.4410798537
Zr  Zr46  1  0.04654000  0.42539000  0.19627000  1.0 2.4410798537
Zr  Zr47  1  0.22912000  0.85027000  0.80373000  1.0 2.4410798537
Zr  Zr48  1  0.77088000  0.57461000  0.62115000  1.0 2.4410798537
Zr  Zr49  1  0.56175000  0.56175000  0.69136000  1.0 2.3568753166
Zr  Zr50  1  0.87039000  0.87039000  0.30864000  1.0 2.3568753166
Zr  Zr51  1  0.12961000  0.43825000  0.00000000  1.0 2.3568753166
Zr  Zr52  1  0.43825000  0.12961000  0.00000000  1.0 2.3568753166
Zr  Zr53  1  0.69136000  0.56175000  0.56175000  1.0 2.3568753166
Zr  Zr54  1  0.30864000  0.87039000  0.87039000  1.0 2.3568753166
Zr  Zr55  1  0.00000000  0.12961000  0.43825000  1.0 2.3568753166
Zr  Zr56  1  0.00000000  0.43825000  0.12961000  1.0 2.3568753166
Zr  Zr57  1  0.56175000  0.69136000  0.56175000  1.0 2.3568753166
Zr  Zr58  1  0.87039000  0.30864000  0.87039000  1.0 2.3568753166
Zr  Zr59  1  0.43825000  0.00000000  0.12961000  1.0 2.3568753166
Zr  Zr60  1  0.12961000  0.00000000  0.43825000  1.0 2.3568753166
Zr  Zr61  1  0.12961000  0.12961000  0.69136000  1.0 2.3568753166
Zr  Zr62  1  0.43825000  0.43825000  0.30864000  1.0 2.3568753166
Zr  Zr63  1  0.87039000  0.56175000  0.00000000  1.0 2.3568753166
Zr  Zr64  1  0.56175000  0.87039000  0.00000000  1.0 2.3568753166
Zr  Zr65  1  0.87039000  0.00000000  0.56175000  1.0 2.3568753166
Zr  Zr66  1  0.56175000  0.00000000  0.87039000  1.0 2.3568753166
Zr  Zr67  1  0.43825000  0.30864000  0.43825000  1.0 2.3568753166
Zr  Zr68  1  0.12961000  0.69136000  0.12961000  1.0 2.3568753166
Zr  Zr69  1  0.00000000  0.87039000  0.56175000  1.0 2.3568753166
Zr  Zr70  1  0.00000000  0.56175000  0.87039000  1.0 2.3568753166
Zr  Zr71  1  0.69136000  0.12961000  0.12961000  1.0 2.3568753166
Zr  Zr72  1  0.30864000  0.43825000  0.43825000  1.0 2.3568753166
Zr  Zr73  1  0.54079000  0.49401000  0.71236000  1.0 2.3535570013
Zr  Zr74  1  0.78165000  0.82843000  0.28764000  1.0 2.3535570013
Zr  Zr75  1  0.21835000  0.50599000  0.04678000  1.0 2.3568753166
Zr  Zr76  1  0.45921000  0.17157000  0.95322000  1.0 2.3535570013
Zr  Zr77  1  0.71236000  0.54079000  0.49401000  1.0 2.3535570013
Zr  Zr78  1  0.28764000  0.78165000  0.82843000  1.0 2.3568753166
Zr  Zr79  1  0.04678000  0.21835000  0.50599000  1.0 2.3568753166
Zr  Zr80  1  0.95322000  0.45921000  0.17157000  1.0 2.3568753166
Zr  Zr81  1  0.49401000  0.71236000  0.54079000  1.0 2.3568753166
Zr  Zr82  1  0.82843000  0.28764000  0.78165000  1.0 2.3535570013
Zr  Zr83  1  0.50599000  0.04678000  0.21835000  1.0 2.3568753166
Zr  Zr84  1  0.17157000  0.95322000  0.45921000  1.0 2.3568753166
Zr  Zr85  1  0.17157000  0.21835000  0.71236000  1.0 2.3568753166
Zr  Zr86  1  0.50599000  0.45921000  0.28764000  1.0 2.3535570013
Zr  Zr87  1  0.82843000  0.54079000  0.04678000  1.0 2.3535570013
Zr  Zr88  1  0.49401000  0.78165000  0.95322000  1.0 2.3535570013
Zr  Zr89  1  0.78165000  0.95322000  0.49401000  1.0 2.3568753166
Zr  Zr90  1  0.54079000  0.04678000  0.82843000  1.0 2.3568753166
Zr  Zr91  1  0.45921000  0.28764000  0.50599000  1.0 2.3568753166
Zr  Zr92  1  0.21835000  0.71236000  0.17157000  1.0 2.3568753166
Zr  Zr93  1  0.04678000  0.82843000  0.54079000  1.0 2.3568753166
Zr  Zr94  1  0.95322000  0.49401000  0.78165000  1.0 2.3535570013
Zr  Zr95  1  0.71236000  0.17157000  0.21835000  1.0 2.3568753166
Zr  Zr96  1  0.28764000  0.50599000  0.45921000  1.0 2.3535570013
Zr  Zr97  1  0.45921000  0.50599000  0.28764000  1.0 2.3568753166
Zr  Zr98  1  0.21835000  0.17157000  0.71236000  1.0 2.3568753166
Zr  Zr99  1  0.78165000  0.49401000  0.95322000  1.0 2.3535570013
Zr  Zr100  1  0.54079000  0.82843000  0.04678000  1.0 2.3535570013
Zr  Zr101  1  0.28764000  0.45921000  0.50599000  1.0 2.3535570013
Zr  Zr102  1  0.71236000  0.21835000  0.17157000  1.0 2.3535570013
Zr  Zr103  1  0.95322000  0.78165000  0.49401000  1.0 2.3568753166
Zr  Zr104  1  0.04678000  0.54079000  0.82843000  1.0 2.3568753166
Zr  Zr105  1  0.50599000  0.28764000  0.45921000  1.0 2.3568753166
Zr  Zr106  1  0.17157000  0.71236000  0.21835000  1.0 2.3568753166
Zr  Zr107  1  0.49401000  0.95322000  0.78165000  1.0 2.3568753166
Zr  Zr108  1  0.82843000  0.04678000  0.54079000  1.0 2.3535570013
Zr  Zr109  1  0.82843000  0.78165000  0.28764000  1.0 2.3535570013
Zr  Zr110  1  0.49401000  0.54079000  0.71236000  1.0 2.3535570013
Zr  Zr111  1  0.17157000  0.45921000  0.95322000  1.0 2.3568753166
Zr  Zr112  1  0.50599000  0.21835000  0.04678000  1.0 2.3568753166
Zr  Zr113  1  0.21835000  0.04678000  0.50599000  1.0 2.3568753166
Zr  Zr114  1  0.45921000  0.95322000  0.17157000  1.0 2.3568753166
Zr  Zr115  1  0.54079000  0.71236000  0.49401000  1.0 2.3568753166
Zr  Zr116  1  0.78165000  0.28764000  0.82843000  1.0 2.3535570013
Zr  Zr117  1  0.95322000  0.17157000  0.45921000  1.0 2.3568753166
Zr  Zr118  1  0.04678000  0.50599000  0.21835000  1.0 2.3568753166
Zr  Zr119  1  0.28764000  0.82843000  0.78165000  1.0 2.3535570013
Zr  Zr120  1  0.71236000  0.49401000  0.54079000  1.0 2.3535570013
Zr  Zr121  1  0.55309000  0.55309000  0.79134000  1.0 2.3410435366
Zr  Zr122  1  0.76175000  0.76175000  0.20866000  1.0 2.3410435366
Zr  Zr123  1  0.23825000  0.44691000  0.00000000  1.0 2.3410435366
Zr  Zr124  1  0.44691000  0.23825000  0.00000000  1.0 2.3410435366
Zr  Zr125  1  0.79134000  0.55309000  0.55309000  1.0 2.3410435366
Zr  Zr126  1  0.20866000  0.76175000  0.76175000  1.0 2.3410435366
Zr  Zr127  1  0.00000000  0.23825000  0.44691000  1.0 2.3410435366
Zr  Zr128  1  0.00000000  0.44691000  0.23825000  1.0 2.3410435366
Zr  Zr129  1  0.55309000  0.79134000  0.55309000  1.0 2.3410435366
Zr  Zr130  1  0.76175000  0.20866000  0.76175000  1.0 2.3410435366
Zr  Zr131  1  0.44691000  0.00000000  0.23825000  1.0 2.3410435366
Zr  Zr132  1  0.23825000  0.00000000  0.44691000  1.0 2.3410435366
Zr  Zr133  1  0.23825000  0.23825000  0.79134000  1.0 2.3410435366
Zr  Zr134  1  0.44691000  0.44691000  0.20866000  1.0 2.3410435366
Zr  Zr135  1  0.76175000  0.55309000  0.00000000  1.0 2.3410435366
Zr  Zr136  1  0.55309000  0.76175000  0.00000000  1.0 2.3410435366
Zr  Zr137  1  0.76175000  0.00000000  0.55309000  1.0 2.3410435366
Zr  Zr138  1  0.55309000  0.00000000  0.76175000  1.0 2.3410435366
Zr  Zr139  1  0.44691000  0.20866000  0.44691000  1.0 2.3410435366
Zr  Zr140  1  0.23825000  0.79134000  0.23825000  1.0 2.3410435366
Zr  Zr141  1  0.00000000  0.76175000  0.55309000  1.0 2.3410435366
Zr  Zr142  1  0.00000000  0.55309000  0.76175000  1.0 2.3410435366
Zr  Zr143  1  0.79134000  0.23825000  0.23825000  1.0 2.3410435366
Zr  Zr144  1  0.20866000  0.44691000  0.44691000  1.0 2.3410435366
Zr  Zr145  1  0.50000000  0.28297000  0.71703000  1.0 2.4203099059
Zr  Zr146  1  0.56594000  0.78297000  0.28297000  1.0 2.4203099059
Zr  Zr147  1  0.43406000  0.71703000  0.21703000  1.0 2.4203099059
Zr  Zr148  1  0.50000000  0.21703000  0.78297000  1.0 2.4203099059
Zr  Zr149  1  0.71703000  0.50000000  0.28297000  1.0 2.4203099059
Zr  Zr150  1  0.28297000  0.56594000  0.78297000  1.0 2.4203099059
Zr  Zr151  1  0.21703000  0.43406000  0.71703000  1.0 2.4203099059
Zr  Zr152  1  0.78297000  0.50000000  0.21703000  1.0 2.4203099059
Zr  Zr153  1  0.28297000  0.71703000  0.50000000  1.0 2.4203099059
Zr  Zr154  1  0.78297000  0.28297000  0.56594000  1.0 2.4203099059
Zr  Zr155  1  0.71703000  0.21703000  0.43406000  1.0 2.4203099059
Zr  Zr156  1  0.21703000  0.78297000  0.50000000  1.0 2.4203099059
Zr  Zr157  1  0.50000000  0.71703000  0.28297000  1.0 2.4203099059
Zr  Zr158  1  0.43406000  0.21703000  0.71703000  1.0 2.4203099059
Zr  Zr159  1  0.56594000  0.28297000  0.78297000  1.0 2.4203099059
Zr  Zr160  1  0.50000000  0.78297000  0.21703000  1.0 2.4203099059
Zr  Zr161  1  0.28297000  0.50000000  0.71703000  1.0 2.4203099059
Zr  Zr162  1  0.71703000  0.43406000  0.21703000  1.0 2.4203099059
Zr  Zr163  1  0.78297000  0.56594000  0.28297000  1.0 2.4203099059
Zr  Zr164  1  0.21703000  0.50000000  0.78297000  1.0 2.4203099059
Zr  Zr165  1  0.71703000  0.28297000  0.50000000  1.0 2.4203099059
Zr  Zr166  1  0.21703000  0.71703000  0.43406000  1.0 2.4203099059
Zr  Zr167  1  0.28297000  0.78297000  0.56594000  1.0 2.4203099059
Zr  Zr168  1  0.78297000  0.21703000  0.50000000  1.0 2.4203099059
Zr  Zr169  1  0.50000000  0.29596000  0.79595000  1.0 2.3099580752
Zr  Zr170  1  0.50000000  0.70405000  0.20405000  1.0 2.3099580752
Zr  Zr171  1  0.79595000  0.50000000  0.29596000  1.0 2.3099580752
Zr  Zr172  1  0.20405000  0.50000000  0.70405000  1.0 2.3099580752
Zr  Zr173  1  0.29595000  0.79595000  0.50000000  1.0 2.3099580752
Zr  Zr174  1  0.70405000  0.20405000  0.50000000  1.0 2.3099580752
Zr  Zr175  1  0.29596000  0.50000000  0.79595000  1.0 2.3099580752
Zr  Zr176  1  0.70405000  0.50000000  0.20405000  1.0 2.3099580752
Zr  Zr177  1  0.50000000  0.79595000  0.29596000  1.0 2.3099580752
Zr  Zr178  1  0.50000000  0.20405000  0.70405000  1.0 2.3099580752
Zr  Zr179  1  0.20405000  0.70404000  0.50000000  1.0 2.3099580752
Zr  Zr180  1  0.79595000  0.29596000  0.50000000  1.0 2.3099580752
H  H1  1  0.53150000  0.46860000  0.83030000  1.0 0.1318915673
H  H2  1  0.63830000  0.70120000  0.16970000  1.0 0.1318915673
H  H3  1  0.36170000  0.53140000  0.06290000  1.0 0.1318915673
H  H4  1  0.46850000  0.29880000  0.93710000  1.0 0.1318915673
H  H5  1  0.83030000  0.53150000  0.46860000  1.0 0.1318915673
H  H6  1  0.16970000  0.63830000  0.70120000  1.0 0.1318915673
H  H7  1  0.06290000  0.36170000  0.53140000  1.0 0.1318915673
H  H8  1  0.93710000  0.46850000  0.29880000  1.0 0.1318915673
H  H9  1  0.46860000  0.83030000  0.53150000  1.0 0.1318915673
H  H10  1  0.70120000  0.16970000  0.63830000  1.0 0.1318915673
H  H11  1  0.53140000  0.06290000  0.36170000  1.0 0.1318915673
H  H12  1  0.29880000  0.93710000  0.46850000  1.0 0.1318915673
H  H13  1  0.29880000  0.36170000  0.83030000  1.0 0.1318915673
H  H14  1  0.53140000  0.46850000  0.16970000  1.0 0.1318915673
H  H15  1  0.70120000  0.53150000  0.06290000  1.0 0.1318915673
H  H16  1  0.46860000  0.63830000  0.93710000  1.0 0.1318915673
H  H17  1  0.63830000  0.93710000  0.46860000  1.0 0.1318915673
H  H18  1  0.53150000  0.06290000  0.70120000  1.0 0.1318915673
H  H19  1  0.46850000  0.16970000  0.53140000  1.0 0.1318915673
H  H20  1  0.36170000  0.83030000  0.29880000  1.0 0.1318915673
H  H21  1  0.06290000  0.70120000  0.53150000  1.0 0.1318915673
H  H22  1  0.93710000  0.46860000  0.63830000  1.0 0.1318915673
H  H23  1  0.83030000  0.29880000  0.36170000  1.0 0.1318915673
H  H24  1  0.16970000  0.53140000  0.46850000  1.0 0.1318915673
H  H25  1  0.46850000  0.53140000  0.16970000  1.0 0.1318915673
H  H26  1  0.36170000  0.29880000  0.83030000  1.0 0.1318915673
H  H27  1  0.63830000  0.46860000  0.93710000  1.0 0.1318915673
H  H28  1  0.53150000  0.70120000  0.06290000  1.0 0.1318915673
H  H29  1  0.16970000  0.46850000  0.53140000  1.0 0.1318915673
H  H30  1  0.83030000  0.36170000  0.29880000  1.0 0.1318915673
H  H31  1  0.93710000  0.63830000  0.46860000  1.0 0.1318915673
H  H32  1  0.06290000  0.53150000  0.70120000  1.0 0.1318915673
H  H33  1  0.53140000  0.16970000  0.46850000  1.0 0.1318915673
H  H34  1  0.29880000  0.83030000  0.36170000  1.0 0.1318915673
H  H35  1  0.46860000  0.93710000  0.63830000  1.0 0.1318915673
H  H36  1  0.70120000  0.06290000  0.53150000  1.0 0.1318915673
H  H37  1  0.70120000  0.63830000  0.16970000  1.0 0.1318915673
H  H38  1  0.46860000  0.53150000  0.83030000  1.0 0.1318915673
H  H39  1  0.29880000  0.46850000  0.93710000  1.0 0.1318915673
H  H40  1  0.53140000  0.36170000  0.06290000  1.0 0.1318915673
H  H41  1  0.36170000  0.06290000  0.53140000  1.0 0.1318915673
H  H42  1  0.46850000  0.93710000  0.29880000  1.0 0.1318915673
H  H43  1  0.53150000  0.83030000  0.46860000  1.0 0.1318915673
H  H44  1  0.63830000  0.16970000  0.70120000  1.0 0.1318915673
H  H45  1  0.93710000  0.29880000  0.46850000  1.0 0.1318915673
H  H46  1  0.06290000  0.53140000  0.36170000  1.0 0.1318915673
H  H47  1  0.16970000  0.70120000  0.63830000  1.0 0.1318915673
H  H48  1  0.83030000  0.46860000  0.53150000  1.0 0.1318915673
H  H49  1  0.52010000  0.41280000  0.83070000  1.0 0.1318915673
H  H50  1  0.58210000  0.68940000  0.16930000  1.0 0.1318915673
H  H51  1  0.41790000  0.58720000  0.10730000  1.0 0.1318915673
H  H52  1  0.47990000  0.31060000  0.89270000  1.0 0.1318915673
H  H53  1  0.83070000  0.52010000  0.41280000  1.0 0.1318915673
H  H54  1  0.16930000  0.58210000  0.68940000  1.0 0.1318915673
H  H55  1  0.10730000  0.41790000  0.58720000  1.0 0.1318915673
H  H56  1  0.89270000  0.47990000  0.31060000  1.0 0.1318915673
H  H57  1  0.41280000  0.83070000  0.52010000  1.0 0.1318915673
H  H58  1  0.68940000  0.16930000  0.58210000  1.0 0.1318915673
H  H59  1  0.58720000  0.10730000  0.41790000  1.0 0.1318915673
H  H60  1  0.31060000  0.89270000  0.47990000  1.0 0.1318915673
H  H61  1  0.31060000  0.41790000  0.83070000  1.0 0.1318915673
H  H62  1  0.58720000  0.47990000  0.16930000  1.0 0.1318915673
H  H63  1  0.68940000  0.52010000  0.10730000  1.0 0.1318915673
H  H64  1  0.41280000  0.58210000  0.89270000  1.0 0.1318915673
H  H65  1  0.58210000  0.89270000  0.41280000  1.0 0.1318915673
H  H66  1  0.52010000  0.10730000  0.68940000  1.0 0.1318915673
H  H67  1  0.47990000  0.16930000  0.58720000  1.0 0.1318915673
H  H68  1  0.41790000  0.83070000  0.31060000  1.0 0.1318915673
H  H69  1  0.10730000  0.68940000  0.52010000  1.0 0.1318915673
H  H70  1  0.89270000  0.41280000  0.58210000  1.0 0.1318915673
H  H71  1  0.83070000  0.31060000  0.41790000  1.0 0.1318915673
H  H72  1  0.16930000  0.58720000  0.47990000  1.0 0.1318915673
H  H73  1  0.47990000  0.58720000  0.16930000  1.0 0.1318915673
H  H74  1  0.41790000  0.31060000  0.83070000  1.0 0.1318915673
H  H75  1  0.58210000  0.41280000  0.89270000  1.0 0.1318915673
H  H76  1  0.52010000  0.68940000  0.10730000  1.0 0.1318915673
H  H77  1  0.16930000  0.47990000  0.58720000  1.0 0.1318915673
H  H78  1  0.83070000  0.41790000  0.31060000  1.0 0.1318915673
H  H79  1  0.89270000  0.58210000  0.41280000  1.0 0.1318915673
H  H80  1  0.10730000  0.52010000  0.68940000  1.0 0.1318915673
H  H81  1  0.58720000  0.16930000  0.47990000  1.0 0.1318915673
H  H82  1  0.31060000  0.83070000  0.41790000  1.0 0.1318915673
H  H83  1  0.41280000  0.89270000  0.58210000  1.0 0.1318915673
H  H84  1  0.68940000  0.10730000  0.52010000  1.0 0.1318915673
H  H85  1  0.68940000  0.58210000  0.16930000  1.0 0.1318915673
H  H86  1  0.41280000  0.52010000  0.83070000  1.0 0.1318915673
H  H87  1  0.31060000  0.47990000  0.89270000  1.0 0.1318915673
H  H88  1  0.58720000  0.41790000  0.10730000  1.0 0.1318915673
H  H89  1  0.41790000  0.10730000  0.58720000  1.0 0.1318915673
H  H90  1  0.47990000  0.89270000  0.31060000  1.0 0.1318915673
H  H91  1  0.52010000  0.83070000  0.41280000  1.0 0.1318915673
H  H92  1  0.58210000  0.16930000  0.68940000  1.0 0.1318915673
H  H93  1  0.89270000  0.31060000  0.47990000  1.0 0.1318915673
H  H94  1  0.10730000  0.58720000  0.41790000  1.0 0.1318915673
H  H95  1  0.16930000  0.68940000  0.58210000  1.0 0.1318915673
H  H96  1  0.83070000  0.41280000  0.52010000  1.0 0.1318915673
H  H97  1  0.51620000  0.48300000  0.57220000  1.0 0.1318915673
H  H98  1  0.91080000  0.94400000  0.42780000  1.0 0.1318915673
H  H99  1  0.08920000  0.51700000  0.03320000  1.0 0.1318915673
H  H100  1  0.48380000  0.05600000  0.96680000  1.0 0.1318915673
H  H101  1  0.57220000  0.51620000  0.48300000  1.0 0.1318915673
H  H102  1  0.42780000  0.91080000  0.94400000  1.0 0.1318915673
H  H103  1  0.03320000  0.08920000  0.51700000  1.0 0.1318915673
H  H104  1  0.96680000  0.48380000  0.05600000  1.0 0.1318915673
H  H105  1  0.48300000  0.57220000  0.51620000  1.0 0.1318915673
H  H106  1  0.94400000  0.42780000  0.91080000  1.0 0.1318915673
H  H107  1  0.51700000  0.03320000  0.08920000  1.0 0.1318915673
H  H108  1  0.05600000  0.96680000  0.48380000  1.0 0.1318915673
H  H109  1  0.05600000  0.08920000  0.57220000  1.0 0.1318915673
H  H110  1  0.51700000  0.48380000  0.42780000  1.0 0.1318915673
H  H111  1  0.94400000  0.51620000  0.03320000  1.0 0.1318915673
H  H112  1  0.48300000  0.91080000  0.96680000  1.0 0.1318915673
H  H113  1  0.91080000  0.96680000  0.48300000  1.0 0.1318915673
H  H114  1  0.51620000  0.03320000  0.94400000  1.0 0.1318915673
H  H115  1  0.48380000  0.42780000  0.51700000  1.0 0.1318915673
H  H116  1  0.08920000  0.57220000  0.05600000  1.0 0.1318915673
H  H117  1  0.03320000  0.94400000  0.51620000  1.0 0.1318915673
H  H118  1  0.96680000  0.48300000  0.91080000  1.0 0.1318915673
H  H119  1  0.57220000  0.05600000  0.08920000  1.0 0.1318915673
H  H120  1  0.42780000  0.51700000  0.48380000  1.0 0.1318915673
H  H121  1  0.48380000  0.51700000  0.42780000  1.0 0.1318915673
H  H122  1  0.08920000  0.05600000  0.57220000  1.0 0.1318915673
H  H123  1  0.91080000  0.48300000  0.96680000  1.0 0.1318915673
H  H124  1  0.51620000  0.94400000  0.03320000  1.0 0.1318915673
H  H125  1  0.42780000  0.48380000  0.51700000  1.0 0.1318915673
H  H126  1  0.57220000  0.08920000  0.05600000  1.0 0.1318915673
H  H127  1  0.96680000  0.91080000  0.48300000  1.0 0.1318915673
H  H128  1  0.03320000  0.51620000  0.94400000  1.0 0.1318915673
H  H129  1  0.51700000  0.42780000  0.48380000  1.0 0.1318915673
H  H130  1  0.05600000  0.57220000  0.08920000  1.0 0.1318915673
H  H131  1  0.48300000  0.96680000  0.91080000  1.0 0.1318915673
H  H132  1  0.94400000  0.03320000  0.51620000  1.0 0.1318915673
H  H133  1  0.94400000  0.91080000  0.42780000  1.0 0.1318915673
H  H134  1  0.48300000  0.51620000  0.57220000  1.0 0.1318915673
H  H135  1  0.05600000  0.48380000  0.96680000  1.0 0.1318915673
H  H136  1  0.51700000  0.08920000  0.03320000  1.0 0.1318915673
H  H137  1  0.08920000  0.03320000  0.51700000  1.0 0.1318915673
H  H138  1  0.48380000  0.96680000  0.05600000  1.0 0.1318915673
H  H139  1  0.51620000  0.57220000  0.48300000  1.0 0.1318915673
H  H140  1  0.91080000  0.42780000  0.94400000  1.0 0.1318915673
H  H141  1  0.96680000  0.05600000  0.48380000  1.0 0.1318915673
H  H142  1  0.03320000  0.51700000  0.08920000  1.0 0.1318915673
H  H143  1  0.42780000  0.94400000  0.91080000  1.0 0.1318915673
H  H144  1  0.57220000  0.48300000  0.51620000  1.0 0.1318915673
H  H145  1  0.71160000  0.59990000  0.74350000  1.0 0.1318915673
H  H146  1  0.85640000  0.96810000  0.25650000  1.0 0.1318915673
H  H147  1  0.14360000  0.40010000  0.11170000  1.0 0.1318915673
H  H148  1  0.28840000  0.03190000  0.88830000  1.0 0.1318915673
H  H149  1  0.74350000  0.71160000  0.59990000  1.0 0.1318915673
H  H150  1  0.25650000  0.85640000  0.96810000  1.0 0.1318915673
H  H151  1  0.11170000  0.14360000  0.40010000  1.0 0.1318915673
H  H152  1  0.88830000  0.28840000  0.03190000  1.0 0.1318915673
H  H153  1  0.59990000  0.74350000  0.71160000  1.0 0.1318915673
H  H154  1  0.96810000  0.25650000  0.85640000  1.0 0.1318915673
H  H155  1  0.40010000  0.11170000  0.14360000  1.0 0.1318915673
H  H156  1  0.03190000  0.88830000  0.28840000  1.0 0.1318915673
H  H157  1  0.03190000  0.14360000  0.74350000  1.0 0.1318915673
H  H158  1  0.40010000  0.28840000  0.25650000  1.0 0.1318915673
H  H159  1  0.96810000  0.71160000  0.11170000  1.0 0.1318915673
H  H160  1  0.59990000  0.85640000  0.88830000  1.0 0.1318915673
H  H161  1  0.85640000  0.88830000  0.59990000  1.0 0.1318915673
H  H162  1  0.71160000  0.11170000  0.96810000  1.0 0.1318915673
H  H163  1  0.28840000  0.25650000  0.40010000  1.0 0.1318915673
H  H164  1  0.14360000  0.74350000  0.03190000  1.0 0.1318915673
H  H165  1  0.11170000  0.96810000  0.71160000  1.0 0.1318915673
H  H166  1  0.88830000  0.59990000  0.85640000  1.0 0.1318915673
H  H167  1  0.74350000  0.03190000  0.14360000  1.0 0.1318915673
H  H168  1  0.25650000  0.40010000  0.28840000  1.0 0.1318915673
H  H169  1  0.28840000  0.40010000  0.25650000  1.0 0.1318915673
H  H170  1  0.14360000  0.03190000  0.74350000  1.0 0.1318915673
H  H171  1  0.85640000  0.59990000  0.88830000  1.0 0.1318915673
H  H172  1  0.71160000  0.96810000  0.11170000  1.0 0.1318915673
H  H173  1  0.25650000  0.28840000  0.40010000  1.0 0.1318915673
H  H174  1  0.74350000  0.14360000  0.03190000  1.0 0.1318915673
H  H175  1  0.88830000  0.85640000  0.59990000  1.0 0.1318915673
H  H176  1  0.11170000  0.71160000  0.96810000  1.0 0.1318915673
H  H177  1  0.40010000  0.25650000  0.28840000  1.0 0.1318915673
H  H178  1  0.03190000  0.74350000  0.14360000  1.0 0.1318915673
H  H179  1  0.59990000  0.88830000  0.85640000  1.0 0.1318915673
H  H180  1  0.96810000  0.11170000  0.71160000  1.0 0.1318915673
H  H181  1  0.96810000  0.85640000  0.25650000  1.0 0.1318915673
H  H182  1  0.59990000  0.71160000  0.74350000  1.0 0.1318915673
H  H183  1  0.03190000  0.28840000  0.88830000  1.0 0.1318915673
H  H184  1  0.40010000  0.14360000  0.11170000  1.0 0.1318915673
H  H185  1  0.14360000  0.11170000  0.40010000  1.0 0.1318915673
H  H186  1  0.28840000  0.88830000  0.03190000  1.0 0.1318915673
H  H187  1  0.71160000  0.74350000  0.59990000  1.0 0.1318915673
H  H188  1  0.85640000  0.25650000  0.96810000  1.0 0.1318915673
H  H189  1  0.88830000  0.03190000  0.28840000  1.0 0.1318915673
H  H190  1  0.11170000  0.40010000  0.14360000  1.0 0.1318915673
H  H191  1  0.25650000  0.96810000  0.85640000  1.0 0.1318915673
H  H192  1  0.74350000  0.59990000  0.71160000  1.0 0.1318915673
H  H193  1  0.61760000  0.55490000  0.89150000  1.0 0.1318915673
H  H194  1  0.66340000  0.72610000  0.10850000  1.0 0.1318915673
H  H195  1  0.33660000  0.44510000  0.06270000  1.0 0.1350652027
H  H196  1  0.38240000  0.27390000  0.93730000  1.0 0.1318915673
H  H197  1  0.89150000  0.61760000  0.55490000  1.0 0.1318915673
H  H198  1  0.10850000  0.66340000  0.72610000  1.0 0.1318915673
H  H199  1  0.06270000  0.33660000  0.44510000  1.0 0.1318915673
H  H200  1  0.93730000  0.38240000  0.27390000  1.0 0.1318915673
H  H201  1  0.55490000  0.89150000  0.61760000  1.0 0.1318915673
H  H202  1  0.72610000  0.10850000  0.66340000  1.0 0.1318915673
H  H203  1  0.44510000  0.06270000  0.33660000  1.0 0.1318915673
H  H204  1  0.27390000  0.93730000  0.38240000  1.0 0.1318915673
H  H205  1  0.27390000  0.33660000  0.89150000  1.0 0.1318915673
H  H206  1  0.44510000  0.38240000  0.10850000  1.0 0.1318915673
H  H207  1  0.72610000  0.61760000  0.06270000  1.0 0.1350652027
H  H208  1  0.55490000  0.66340000  0.93730000  1.0 0.1318915673
H  H209  1  0.66340000  0.93730000  0.55490000  1.0 0.1318915673
H  H210  1  0.61760000  0.06270000  0.72610000  1.0 0.1318915673
H  H211  1  0.38240000  0.10850000  0.44510000  1.0 0.1318915673
H  H212  1  0.33660000  0.89150000  0.27390000  1.0 0.1318915673
H  H213  1  0.06270000  0.72610000  0.61760000  1.0 0.1350652027
H  H214  1  0.93730000  0.55490000  0.66340000  1.0 0.1350652027
H  H215  1  0.89150000  0.27390000  0.33660000  1.0 0.1318915673
H  H216  1  0.10850000  0.44510000  0.38240000  1.0 0.1350652027
H  H217  1  0.38240000  0.44510000  0.10850000  1.0 0.1350652027
H  H218  1  0.33660000  0.27390000  0.89150000  1.0 0.1318915673
H  H219  1  0.66340000  0.55490000  0.93730000  1.0 0.1318915673
H  H220  1  0.61760000  0.72610000  0.06270000  1.0 0.1318915673
H  H221  1  0.10850000  0.38240000  0.44510000  1.0 0.1318915673
H  H222  1  0.89150000  0.33660000  0.27390000  1.0 0.1318915673
H  H223  1  0.93730000  0.66340000  0.55490000  1.0 0.1318915673
H  H224  1  0.06270000  0.61760000  0.72610000  1.0 0.1318915673
H  H225  1  0.44510000  0.10850000  0.38240000  1.0 0.1318915673
H  H226  1  0.27390000  0.89150000  0.33660000  1.0 0.1318915673
H  H227  1  0.55490000  0.93730000  0.66340000  1.0 0.1318915673
H  H228  1  0.72610000  0.06270000  0.61760000  1.0 0.1318915673
H  H229  1  0.72610000  0.66340000  0.10850000  1.0 0.1350652027
H  H230  1  0.55490000  0.61760000  0.89150000  1.0 0.1318915673
H  H231  1  0.27390000  0.38240000  0.93730000  1.0 0.1318915673
H  H232  1  0.44510000  0.33660000  0.06270000  1.0 0.1318915673
H  H233  1  0.33660000  0.06270000  0.44510000  1.0 0.1318915673
H  H234  1  0.38240000  0.93730000  0.27390000  1.0 0.1318915673
H  H235  1  0.61760000  0.89150000  0.55490000  1.0 0.1318915673
H  H236  1  0.66340000  0.10850000  0.72610000  1.0 0.1318915673
H  H237  1  0.93730000  0.27390000  0.38240000  1.0 0.1318915673
H  H238  1  0.06270000  0.44510000  0.33660000  1.0 0.1350652027
H  H239  1  0.10850000  0.72610000  0.66340000  1.0 0.1350652027
H  H240  1  0.89150000  0.55490000  0.61760000  1.0 0.1350652027
C  C1  1  0.53472000  0.47440000  0.77282000  1.0 0.639101437
C  C2  1  0.70158000  0.76190000  0.22718000  1.0 0.639101437
C  C3  1  0.29842000  0.52560000  0.06032000  1.0 0.639101437
C  C4  1  0.46528000  0.23810000  0.93968000  1.0 0.639101437
C  C5  1  0.77282000  0.53472000  0.47440000  1.0 0.639101437
C  C6  1  0.22718000  0.70158000  0.76190000  1.0 0.639101437
C  C7  1  0.06032000  0.29842000  0.52560000  1.0 0.639101437
C  C8  1  0.93968000  0.46528000  0.23810000  1.0 0.639101437
C  C9  1  0.47440000  0.77282000  0.53472000  1.0 0.639101437
C  C10  1  0.76190000  0.22718000  0.70158000  1.0 0.639101437
C  C11  1  0.52560000  0.06032000  0.29842000  1.0 0.639101437
C  C12  1  0.23810000  0.93968000  0.46528000  1.0 0.639101437
C  C13  1  0.23810000  0.29842000  0.77282000  1.0 0.639101437
C  C14  1  0.52560000  0.46528000  0.22718000  1.0 0.639101437
C  C15  1  0.76190000  0.53472000  0.06032000  1.0 0.639101437
C  C16  1  0.47440000  0.70158000  0.93968000  1.0 0.639101437
C  C17  1  0.70158000  0.93968000  0.47440000  1.0 0.639101437
C  C18  1  0.53472000  0.06032000  0.76190000  1.0 0.639101437
C  C19  1  0.46528000  0.22718000  0.52560000  1.0 0.639101437
C  C20  1  0.29842000  0.77282000  0.23810000  1.0 0.639101437
C  C21  1  0.06032000  0.76190000  0.53472000  1.0 0.639101437
C  C22  1  0.93968000  0.47440000  0.70158000  1.0 0.639101437
C  C23  1  0.77282000  0.23810000  0.29842000  1.0 0.639101437
C  C24  1  0.22718000  0.52560000  0.46528000  1.0 0.639101437
C  C25  1  0.46528000  0.52560000  0.22718000  1.0 0.639101437
C  C26  1  0.29842000  0.23810000  0.77282000  1.0 0.639101437
C  C27  1  0.70158000  0.47440000  0.93968000  1.0 0.639101437
C  C28  1  0.53472000  0.76190000  0.06032000  1.0 0.639101437
C  C29  1  0.22718000  0.46528000  0.52560000  1.0 0.639101437
C  C30  1  0.77282000  0.29842000  0.23810000  1.0 0.639101437
C  C31  1  0.93968000  0.70158000  0.47440000  1.0 0.639101437
C  C32  1  0.06032000  0.53472000  0.76190000  1.0 0.639101437
C  C33  1  0.52560000  0.22718000  0.46528000  1.0 0.639101437
C  C34  1  0.23810000  0.77282000  0.29842000  1.0 0.639101437
C  C35  1  0.47440000  0.93968000  0.70158000  1.0 0.639101437
C  C36  1  0.76190000  0.06032000  0.53472000  1.0 0.639101437
C  C37  1  0.76190000  0.70158000  0.22718000  1.0 0.639101437
C  C38  1  0.47440000  0.53472000  0.77282000  1.0 0.639101437
C  C39  1  0.23810000  0.46528000  0.93968000  1.0 0.639101437
C  C40  1  0.52560000  0.29842000  0.06032000  1.0 0.639101437
C  C41  1  0.29842000  0.06032000  0.52560000  1.0 0.639101437
C  C42  1  0.46528000  0.93968000  0.23810000  1.0 0.639101437
C  C43  1  0.53472000  0.77282000  0.47440000  1.0 0.639101437
C  C44  1  0.70158000  0.22718000  0.76190000  1.0 0.639101437
C  C45  1  0.93968000  0.23810000  0.46528000  1.0 0.639101437
C  C46  1  0.06032000  0.52560000  0.29842000  1.0 0.639101437
C  C47  1  0.22718000  0.76190000  0.70158000  1.0 0.639101437
C  C48  1  0.77282000  0.47440000  0.53472000  1.0 0.639101437
C  C49  1  0.52820000  0.44675000  0.78257000  1.0 -0.1340643605
C  C50  1  0.66418000  0.74563000  0.21743000  1.0 -0.1417155927
C  C51  1  0.33582000  0.55325000  0.08145000  1.0 -0.1340643605
C  C52  1  0.47180000  0.25437000  0.91855000  1.0 -0.1340643605
C  C53  1  0.78257000  0.52820000  0.44675000  1.0 -0.1340643605
C  C54  1  0.21743000  0.66418000  0.74563000  1.0 -0.1340643605
C  C55  1  0.08145000  0.33582000  0.55325000  1.0 -0.1340643605
C  C56  1  0.91855000  0.47180000  0.25437000  1.0 -0.1340643605
C  C57  1  0.44675000  0.78257000  0.52820000  1.0 -0.1340643605
C  C58  1  0.74563000  0.21743000  0.66418000  1.0 -0.1340643605
C  C59  1  0.55325000  0.08145000  0.33582000  1.0 -0.1340643605
C  C60  1  0.25437000  0.91855000  0.47180000  1.0 -0.1340643605
C  C61  1  0.25437000  0.33582000  0.78257000  1.0 -0.1340643605
C  C62  1  0.55325000  0.47180000  0.21743000  1.0 -0.1340643605
C  C63  1  0.74563000  0.52820000  0.08145000  1.0 -0.1417155927
C  C64  1  0.44675000  0.66418000  0.91855000  1.0 -0.1340643605
C  C65  1  0.66418000  0.91855000  0.44675000  1.0 -0.1340643605
C  C66  1  0.52820000  0.08145000  0.74563000  1.0 -0.1340643605
C  C67  1  0.47180000  0.21743000  0.55325000  1.0 -0.1340643605
C  C68  1  0.33582000  0.78257000  0.25437000  1.0 -0.1340643605
C  C69  1  0.08145000  0.74563000  0.52820000  1.0 -0.1417155927
C  C70  1  0.91855000  0.44675000  0.66418000  1.0 -0.1340643605
C  C71  1  0.78257000  0.25437000  0.33582000  1.0 -0.1340643605
C  C72  1  0.21743000  0.55325000  0.47180000  1.0 -0.1340643605
C  C73  1  0.47180000  0.55325000  0.21743000  1.0 -0.1340643605
C  C74  1  0.33582000  0.25437000  0.78257000  1.0 -0.1340643605
C  C75  1  0.66418000  0.44675000  0.91855000  1.0 -0.1340643605
C  C76  1  0.52820000  0.74563000  0.08145000  1.0 -0.1340643605
C  C77  1  0.21743000  0.47180000  0.55325000  1.0 -0.1340643605
C  C78  1  0.78257000  0.33582000  0.25437000  1.0 -0.1340643605
C  C79  1  0.91855000  0.66418000  0.44675000  1.0 -0.1340643605
C  C80  1  0.08145000  0.52820000  0.74563000  1.0 -0.1340643605
C  C81  1  0.55325000  0.21743000  0.47180000  1.0 -0.1340643605
C  C82  1  0.25437000  0.78257000  0.33582000  1.0 -0.1417155927
C  C83  1  0.44675000  0.91855000  0.66418000  1.0 -0.1417155927
C  C84  1  0.74563000  0.08145000  0.52820000  1.0 -0.1417155927
C  C85  1  0.74563000  0.66418000  0.21743000  1.0 -0.1340643605
C  C86  1  0.44675000  0.52820000  0.78257000  1.0 -0.1340643605
C  C87  1  0.25437000  0.47180000  0.91855000  1.0 -0.1340643605
C  C88  1  0.55325000  0.33582000  0.08145000  1.0 -0.1340643605
C  C89  1  0.33582000  0.08145000  0.55325000  1.0 -0.1340643605
C  C90  1  0.47180000  0.91855000  0.25437000  1.0 -0.1340643605
C  C91  1  0.52820000  0.78257000  0.44675000  1.0 -0.1417155927
C  C92  1  0.66418000  0.21743000  0.74563000  1.0 -0.1340643605
C  C93  1  0.91855000  0.25437000  0.47180000  1.0 -0.1340643605
C  C94  1  0.08145000  0.55325000  0.33582000  1.0 -0.1417155927
C  C95  1  0.21743000  0.74563000  0.66418000  1.0 -0.1340643605
C  C96  1  0.78257000  0.44675000  0.52820000  1.0 -0.1340643605
C  C97  1  0.52775000  0.44868000  0.81227000  1.0 -0.0998550411
C  C98  1  0.63641000  0.71548000  0.18773000  1.0 -0.0998550411
C  C99  1  0.36359000  0.55132000  0.07907000  1.0 -0.0998550411
C  C100  1  0.47225000  0.28452000  0.92093000  1.0 -0.0998550411
C  C101  1  0.81227000  0.52775000  0.44868000  1.0 -0.0998550411
C  C102  1  0.18773000  0.63641000  0.71548000  1.0 -0.0998550411
C  C103  1  0.07907000  0.36359000  0.55132000  1.0 -0.0998550411
C  C104  1  0.92093000  0.47225000  0.28452000  1.0 -0.0998550411
C  C105  1  0.44868000  0.81227000  0.52775000  1.0 -0.0998550411
C  C106  1  0.71548000  0.18773000  0.63641000  1.0 -0.0998550411
C  C107  1  0.55132000  0.07907000  0.36359000  1.0 -0.0998550411
C  C108  1  0.28452000  0.92093000  0.47225000  1.0 -0.0998550411
C  C109  1  0.28452000  0.36359000  0.81227000  1.0 -0.0998550411
C  C110  1  0.55132000  0.47225000  0.18773000  1.0 -0.0998550411
C  C111  1  0.71548000  0.52775000  0.07907000  1.0 -0.0998550411
C  C112  1  0.44868000  0.63641000  0.92093000  1.0 -0.0998550411
C  C113  1  0.63641000  0.92093000  0.44868000  1.0 -0.0998550411
C  C114  1  0.52775000  0.07907000  0.71548000  1.0 -0.0998550411
C  C115  1  0.47225000  0.18773000  0.55132000  1.0 -0.0998550411
C  C116  1  0.36359000  0.81227000  0.28452000  1.0 -0.0998550411
C  C117  1  0.07907000  0.71548000  0.52775000  1.0 -0.0998550411
C  C118  1  0.92093000  0.44868000  0.63641000  1.0 -0.0998550411
C  C119  1  0.81227000  0.28452000  0.36359000  1.0 -0.0998550411
C  C120  1  0.18773000  0.55132000  0.47225000  1.0 -0.0998550411
C  C121  1  0.47225000  0.55132000  0.18773000  1.0 -0.0998550411
C  C122  1  0.36359000  0.28452000  0.81227000  1.0 -0.0998550411
C  C123  1  0.63641000  0.44868000  0.92093000  1.0 -0.0998550411
C  C124  1  0.52775000  0.71548000  0.07907000  1.0 -0.0998550411
C  C125  1  0.18773000  0.47225000  0.55132000  1.0 -0.0998550411
C  C126  1  0.81227000  0.36359000  0.28452000  1.0 -0.0998550411
C  C127  1  0.92093000  0.63641000  0.44868000  1.0 -0.0998550411
C  C128  1  0.07907000  0.52775000  0.71548000  1.0 -0.0998550411
C  C129  1  0.55132000  0.18773000  0.47225000  1.0 -0.0998550411
C  C130  1  0.28452000  0.81227000  0.36359000  1.0 -0.0998550411
C  C131  1  0.44868000  0.92093000  0.63641000  1.0 -0.0998550411
C  C132  1  0.71548000  0.07907000  0.52775000  1.0 -0.0998550411
C  C133  1  0.71548000  0.63641000  0.18773000  1.0 -0.0998550411
C  C134  1  0.44868000  0.52775000  0.81227000  1.0 -0.0998550411
C  C135  1  0.28452000  0.47225000  0.92093000  1.0 -0.0998550411
C  C136  1  0.55132000  0.36359000  0.07907000  1.0 -0.0998550411
C  C137  1  0.36359000  0.07907000  0.55132000  1.0 -0.0998550411
C  C138  1  0.47225000  0.92093000  0.28452000  1.0 -0.0998550411
C  C139  1  0.52775000  0.81227000  0.44868000  1.0 -0.0998550411
C  C140  1  0.63641000  0.18773000  0.71548000  1.0 -0.0998550411
C  C141  1  0.92093000  0.28452000  0.47225000  1.0 -0.0998550411
C  C142  1  0.07907000  0.55132000  0.36359000  1.0 -0.0998550411
C  C143  1  0.18773000  0.71548000  0.63641000  1.0 -0.0998550411
C  C144  1  0.81227000  0.44868000  0.52775000  1.0 -0.0998550411
C  C145  1  0.52078000  0.41619000  0.81227000  1.0 -0.1163922541
C  C146  1  0.60392000  0.70851000  0.18773000  1.0 -0.1163922541
C  C147  1  0.39608000  0.58381000  0.10459000  1.0 -0.1163922541
C  C148  1  0.47922000  0.29149000  0.89541000  1.0 -0.1163922541
C  C149  1  0.81227000  0.52078000  0.41619000  1.0 -0.1163922541
C  C150  1  0.18773000  0.60392000  0.70851000  1.0 -0.1163922541
C  C151  1  0.10459000  0.39608000  0.58381000  1.0 -0.1163922541
C  C152  1  0.89541000  0.47922000  0.29149000  1.0 -0.1163922541
C  C153  1  0.41619000  0.81227000  0.52078000  1.0 -0.1163922541
C  C154  1  0.70851000  0.18773000  0.60392000  1.0 -0.1163922541
C  C155  1  0.58381000  0.10459000  0.39608000  1.0 -0.1163922541
C  C156  1  0.29149000  0.89541000  0.47922000  1.0 -0.1163922541
C  C157  1  0.29149000  0.39608000  0.81227000  1.0 -0.1163922541
C  C158  1  0.58381000  0.47922000  0.18773000  1.0 -0.1163922541
C  C159  1  0.70851000  0.52078000  0.10459000  1.0 -0.1163922541
C  C160  1  0.41619000  0.60392000  0.89541000  1.0 -0.1163922541
C  C161  1  0.60392000  0.89541000  0.41619000  1.0 -0.1163922541
C  C162  1  0.52078000  0.10459000  0.70851000  1.0 -0.1163922541
C  C163  1  0.47922000  0.18773000  0.58381000  1.0 -0.1163922541
C  C164  1  0.39608000  0.81227000  0.29149000  1.0 -0.1163922541
C  C165  1  0.10459000  0.70851000  0.52078000  1.0 -0.1163922541
C  C166  1  0.89541000  0.41619000  0.60392000  1.0 -0.1163922541
C  C167  1  0.81227000  0.29149000  0.39608000  1.0 -0.1163922541
C  C168  1  0.18773000  0.58381000  0.47922000  1.0 -0.1163922541
C  C169  1  0.47922000  0.58381000  0.18773000  1.0 -0.1163922541
C  C170  1  0.39608000  0.29149000  0.81227000  1.0 -0.1163922541
C  C171  1  0.60392000  0.41619000  0.89541000  1.0 -0.1163922541
C  C172  1  0.52078000  0.70851000  0.10459000  1.0 -0.1163922541
C  C173  1  0.18773000  0.47922000  0.58381000  1.0 -0.1163922541
C  C174  1  0.81227000  0.39608000  0.29149000  1.0 -0.1163922541
C  C175  1  0.89541000  0.60392000  0.41619000  1.0 -0.1163922541
C  C176  1  0.10459000  0.52078000  0.70851000  1.0 -0.1163922541
C  C177  1  0.58381000  0.18773000  0.47922000  1.0 -0.1163922541
C  C178  1  0.29149000  0.81227000  0.39608000  1.0 -0.1163922541
C  C179  1  0.41619000  0.89541000  0.60392000  1.0 -0.1163922541
C  C180  1  0.70851000  0.10459000  0.52078000  1.0 -0.1141630111
C  C181  1  0.70851000  0.60392000  0.18773000  1.0 -0.1163922541
C  C182  1  0.41619000  0.52078000  0.81227000  1.0 -0.1163922541
C  C183  1  0.29149000  0.47922000  0.89541000  1.0 -0.1163922541
C  C184  1  0.58381000  0.39608000  0.10459000  1.0 -0.1163922541
C  C185  1  0.39608000  0.10459000  0.58381000  1.0 -0.1163922541
C  C186  1  0.47922000  0.89541000  0.29149000  1.0 -0.1163922541
C  C187  1  0.52078000  0.81227000  0.41619000  1.0 -0.1163922541
C  C188  1  0.60392000  0.18773000  0.70851000  1.0 -0.1163922541
C  C189  1  0.89541000  0.29149000  0.47922000  1.0 -0.1163922541
C  C190  1  0.10459000  0.58381000  0.39608000  1.0 -0.1163922541
C  C191  1  0.18773000  0.70851000  0.60392000  1.0 -0.1163922541
C  C192  1  0.81227000  0.41619000  0.52078000  1.0 -0.1163922541
C  C193  1  0.51533000  0.39109000  0.78284000  1.0 -0.1141630111
C  C194  1  0.60825000  0.73249000  0.21716000  1.0 -0.1141630111
C  C195  1  0.39175000  0.60891000  0.12424000  1.0 -0.1141630111
C  C196  1  0.48467000  0.26751000  0.87576000  1.0 -0.1141630111
C  C197  1  0.78284000  0.51533000  0.39109000  1.0 -0.1141630111
C  C198  1  0.21716000  0.60825000  0.73249000  1.0 -0.1141630111
C  C199  1  0.12424000  0.39175000  0.60891000  1.0 -0.1141630111
C  C200  1  0.87576000  0.48467000  0.26751000  1.0 -0.1141630111
C  C201  1  0.39109000  0.78284000  0.51533000  1.0 -0.1141630111
C  C202  1  0.73249000  0.21716000  0.60825000  1.0 -0.1141630111
C  C203  1  0.60891000  0.12424000  0.39175000  1.0 -0.1141630111
C  C204  1  0.26751000  0.87576000  0.48467000  1.0 -0.1141630111
C  C205  1  0.26751000  0.39175000  0.78284000  1.0 -0.1141630111
C  C206  1  0.60891000  0.48467000  0.21716000  1.0 -0.1141630111
C  C207  1  0.73249000  0.51533000  0.12424000  1.0 -0.1141630111
C  C208  1  0.39109000  0.60825000  0.87576000  1.0 -0.1141630111
C  C209  1  0.60825000  0.87576000  0.39109000  1.0 -0.1141630111
C  C210  1  0.51533000  0.12424000  0.73249000  1.0 -0.1141630111
C  C211  1  0.48467000  0.21716000  0.60891000  1.0 -0.1141630111
C  C212  1  0.39175000  0.78284000  0.26751000  1.0 -0.1141630111
C  C213  1  0.12424000  0.73249000  0.51533000  1.0 -0.1163922541
C  C214  1  0.87576000  0.39109000  0.60825000  1.0 -0.1141630111
C  C215  1  0.78284000  0.26751000  0.39175000  1.0 -0.1141630111
C  C216  1  0.21716000  0.60891000  0.48467000  1.0 -0.1141630111
C  C217  1  0.48467000  0.60891000  0.21716000  1.0 -0.1141630111
C  C218  1  0.39175000  0.26751000  0.78284000  1.0 -0.1141630111
C  C219  1  0.60825000  0.39109000  0.87576000  1.0 -0.1141630111
C  C220  1  0.51533000  0.73249000  0.12424000  1.0 -0.1141630111
C  C221  1  0.21716000  0.48467000  0.60891000  1.0 -0.1141630111
C  C222  1  0.78284000  0.39175000  0.26751000  1.0 -0.1141630111
C  C223  1  0.87576000  0.60825000  0.39109000  1.0 -0.1141630111
C  C224  1  0.12424000  0.51533000  0.73249000  1.0 -0.1141630111
C  C225  1  0.60891000  0.21716000  0.48467000  1.0 -0.1141630111
C  C226  1  0.26751000  0.78284000  0.39175000  1.0 -0.1163922541
C  C227  1  0.39109000  0.87576000  0.60825000  1.0 -0.1163922541
C  C228  1  0.73249000  0.12424000  0.51533000  1.0 -0.1163922541
C  C229  1  0.73249000  0.60825000  0.21716000  1.0 -0.1141630111
C  C230  1  0.39109000  0.51533000  0.78284000  1.0 -0.1141630111
C  C231  1  0.26751000  0.48467000  0.87576000  1.0 -0.1141630111
C  C232  1  0.60891000  0.39175000  0.12424000  1.0 -0.1141630111
C  C233  1  0.39175000  0.12424000  0.60891000  1.0 -0.1141630111
C  C234  1  0.48467000  0.87576000  0.26751000  1.0 -0.1141630111
C  C235  1  0.51533000  0.78284000  0.39109000  1.0 -0.1163922541
C  C236  1  0.60825000  0.21716000  0.73249000  1.0 -0.1141630111
C  C237  1  0.87576000  0.26751000  0.48467000  1.0 -0.1141630111
C  C238  1  0.12424000  0.60891000  0.39175000  1.0 -0.1163922541
C  C239  1  0.21716000  0.73249000  0.60825000  1.0 -0.1141630111
C  C240  1  0.78284000  0.39109000  0.51533000  1.0 -0.1141630111
C  C241  1  0.50759000  0.35432000  0.77333000  1.0 0.639101437
C  C242  1  0.58099000  0.73426000  0.22667000  1.0 0.639101437
C  C243  1  0.41901000  0.64568000  0.15327000  1.0 0.639101437
C  C244  1  0.49241000  0.26574000  0.84673000  1.0 0.639101437
C  C245  1  0.77333000  0.50759000  0.35432000  1.0 0.639101437
C  C246  1  0.22667000  0.58099000  0.73426000  1.0 0.639101437
C  C247  1  0.15327000  0.41901000  0.64568000  1.0 0.639101437
C  C248  1  0.84673000  0.49241000  0.26574000  1.0 0.639101437
C  C249  1  0.35432000  0.77333000  0.50759000  1.0 0.6314620392
C  C250  1  0.73426000  0.22667000  0.58099000  1.0 0.639101437
C  C251  1  0.64568000  0.15327000  0.41901000  1.0 0.639101437
C  C252  1  0.26574000  0.84673000  0.49241000  1.0 0.6314620392
C  C253  1  0.26574000  0.41901000  0.77333000  1.0 0.639101437
C  C254  1  0.64568000  0.49241000  0.22667000  1.0 0.6314620392
C  C255  1  0.73426000  0.50759000  0.15327000  1.0 0.639101437
C  C256  1  0.35432000  0.58099000  0.84673000  1.0 0.639101437
C  C257  1  0.58099000  0.84673000  0.35432000  1.0 0.6314620392
C  C258  1  0.50759000  0.15327000  0.73426000  1.0 0.639101437
C  C259  1  0.49241000  0.22667000  0.64568000  1.0 0.639101437
C  C260  1  0.41901000  0.77333000  0.26574000  1.0 0.6314620392
C  C261  1  0.15327000  0.73426000  0.50759000  1.0 0.639101437
C  C262  1  0.84673000  0.35432000  0.58099000  1.0 0.639101437
C  C263  1  0.77333000  0.26574000  0.41901000  1.0 0.639101437
C  C264  1  0.22667000  0.64568000  0.49241000  1.0 0.639101437
C  C265  1  0.49241000  0.64568000  0.22667000  1.0 0.6314620392
C  C266  1  0.41901000  0.26574000  0.77333000  1.0 0.639101437
C  C267  1  0.58099000  0.35432000  0.84673000  1.0 0.639101437
C  C268  1  0.50759000  0.73426000  0.15327000  1.0 0.639101437
C  C269  1  0.22667000  0.49241000  0.64568000  1.0 0.639101437
C  C270  1  0.77333000  0.41901000  0.26574000  1.0 0.639101437
C  C271  1  0.84673000  0.58099000  0.35432000  1.0 0.639101437
C  C272  1  0.15327000  0.50759000  0.73426000  1.0 0.6314620392
C  C273  1  0.64568000  0.22667000  0.49241000  1.0 0.639101437
C  C274  1  0.26574000  0.77333000  0.41901000  1.0 0.6314620392
C  C275  1  0.35432000  0.84673000  0.58099000  1.0 0.639101437
C  C276  1  0.73426000  0.15327000  0.50759000  1.0 0.639101437
C  C277  1  0.73426000  0.58099000  0.22667000  1.0 0.639101437
C  C278  1  0.35432000  0.50759000  0.77333000  1.0 0.639101437
C  C279  1  0.26574000  0.49241000  0.84673000  1.0 0.639101437
C  C280  1  0.64568000  0.41901000  0.15327000  1.0 0.639101437
C  C281  1  0.41901000  0.15327000  0.64568000  1.0 0.639101437
C  C282  1  0.49241000  0.84673000  0.26574000  1.0 0.6314620392
C  C283  1  0.50759000  0.77333000  0.35432000  1.0 0.6314620392
C  C284  1  0.58099000  0.22667000  0.73426000  1.0 0.639101437
C  C285  1  0.84673000  0.26574000  0.49241000  1.0 0.639101437
C  C286  1  0.15327000  0.64568000  0.41901000  1.0 0.639101437
C  C287  1  0.22667000  0.73426000  0.58099000  1.0 0.639101437
C  C288  1  0.77333000  0.35432000  0.50759000  1.0 0.639101437
C  C289  1  0.53384000  0.48277000  0.63675000  1.0 0.6314620392
C  C290  1  0.84602000  0.89709000  0.36325000  1.0 0.6314620392
C  C291  1  0.15398000  0.51723000  0.05107000  1.0 0.6314620392
C  C292  1  0.46616000  0.10291000  0.94893000  1.0 0.6314620392
C  C293  1  0.63675000  0.53384000  0.48277000  1.0 0.6314620392
C  C294  1  0.36325000  0.84602000  0.89709000  1.0 0.6314620392
C  C295  1  0.05107000  0.15398000  0.51723000  1.0 0.6314620392
C  C296  1  0.94893000  0.46616000  0.10291000  1.0 0.6314620392
C  C297  1  0.48277000  0.63675000  0.53384000  1.0 0.6314620392
C  C298  1  0.89709000  0.36325000  0.84602000  1.0 0.6314620392
C  C299  1  0.51723000  0.05107000  0.15398000  1.0 0.6314620392
C  C300  1  0.10291000  0.94893000  0.46616000  1.0 0.6314620392
C  C301  1  0.10291000  0.15398000  0.63675000  1.0 0.6314620392
C  C302  1  0.51723000  0.46616000  0.36325000  1.0 0.6314620392
C  C303  1  0.89709000  0.53384000  0.05107000  1.0 0.6314620392
C  C304  1  0.48277000  0.84602000  0.94893000  1.0 0.6314620392
C  C305  1  0.84602000  0.94893000  0.48277000  1.0 0.6314620392
C  C306  1  0.53384000  0.05107000  0.89709000  1.0 0.6314620392
C  C307  1  0.46616000  0.36325000  0.51723000  1.0 0.6314620392
C  C308  1  0.15398000  0.63675000  0.10291000  1.0 0.6314620392
C  C309  1  0.05107000  0.89709000  0.53384000  1.0 0.6314620392
C  C310  1  0.94893000  0.48277000  0.84602000  1.0 0.6314620392
C  C311  1  0.63675000  0.10291000  0.15398000  1.0 0.6314620392
C  C312  1  0.36325000  0.51723000  0.46616000  1.0 0.6314620392
C  C313  1  0.46616000  0.51723000  0.36325000  1.0 0.6314620392
C  C314  1  0.15398000  0.10291000  0.63675000  1.0 0.6314620392
C  C315  1  0.84602000  0.48277000  0.94893000  1.0 0.6314620392
C  C316  1  0.53384000  0.89709000  0.05107000  1.0 0.6314620392
C  C317  1  0.36325000  0.46616000  0.51723000  1.0 0.6314620392
C  C318  1  0.63675000  0.15398000  0.10291000  1.0 0.6314620392
C  C319  1  0.94893000  0.84602000  0.48277000  1.0 0.6314620392
C  C320  1  0.05107000  0.53384000  0.89709000  1.0 0.6314620392
C  C321  1  0.51723000  0.36325000  0.46616000  1.0 0.6314620392
C  C322  1  0.10291000  0.63675000  0.15398000  1.0 0.6314620392
C  C323  1  0.48277000  0.94893000  0.84602000  1.0 0.6314620392
C  C324  1  0.89709000  0.05107000  0.53384000  1.0 0.6314620392
C  C325  1  0.89709000  0.84602000  0.36325000  1.0 0.6314620392
C  C326  1  0.48277000  0.53384000  0.63675000  1.0 0.6314620392
C  C327  1  0.10291000  0.46616000  0.94893000  1.0 0.6314620392
C  C328  1  0.51723000  0.15398000  0.05107000  1.0 0.6314620392
C  C329  1  0.15398000  0.05107000  0.51723000  1.0 0.6314620392
C  C330  1  0.46616000  0.94893000  0.10291000  1.0 0.6314620392
C  C331  1  0.53384000  0.63675000  0.48277000  1.0 0.6314620392
C  C332  1  0.84602000  0.36325000  0.89709000  1.0 0.6314620392
C  C333  1  0.94893000  0.10291000  0.46616000  1.0 0.6314620392
C  C334  1  0.05107000  0.51723000  0.15398000  1.0 0.6314620392
C  C335  1  0.36325000  0.89709000  0.84602000  1.0 0.6314620392
C  C336  1  0.63675000  0.48277000  0.53384000  1.0 0.6314620392
C  C337  1  0.51618000  0.45619000  0.59891000  1.0 -0.1163922541
C  C338  1  0.85728000  0.91727000  0.40109000  1.0 -0.1163922541
C  C339  1  0.14272000  0.54381000  0.05999000  1.0 -0.1163922541
C  C340  1  0.48382000  0.08273000  0.94001000  1.0 -0.1163922541
C  C341  1  0.59891000  0.51618000  0.45619000  1.0 -0.1163922541
C  C342  1  0.40109000  0.85728000  0.91727000  1.0 -0.1163922541
C  C343  1  0.05999000  0.14272000  0.54381000  1.0 -0.1163922541
C  C344  1  0.94001000  0.48382000  0.08273000  1.0 -0.1163922541
C  C345  1  0.45619000  0.59891000  0.51618000  1.0 -0.1163922541
C  C346  1  0.91727000  0.40109000  0.85728000  1.0 -0.1163922541
C  C347  1  0.54381000  0.05999000  0.14272000  1.0 -0.1163922541
C  C348  1  0.08273000  0.94001000  0.48382000  1.0 -0.1163922541
C  C349  1  0.08273000  0.14272000  0.59891000  1.0 -0.1163922541
C  C350  1  0.54381000  0.48382000  0.40109000  1.0 -0.1163922541
C  C351  1  0.91727000  0.51618000  0.05999000  1.0 -0.1163922541
C  C352  1  0.45619000  0.85728000  0.94001000  1.0 -0.1141630111
C  C353  1  0.85728000  0.94001000  0.45619000  1.0 -0.1141630111
C  C354  1  0.51618000  0.05999000  0.91727000  1.0 -0.1163922541
C  C355  1  0.48382000  0.40109000  0.54381000  1.0 -0.1163922541
C  C356  1  0.14272000  0.59891000  0.08273000  1.0 -0.1163922541
C  C357  1  0.05999000  0.91727000  0.51618000  1.0 -0.1163922541
C  C358  1  0.94001000  0.45619000  0.85728000  1.0 -0.1163922541
C  C359  1  0.59891000  0.08273000  0.14272000  1.0 -0.1163922541
C  C360  1  0.40109000  0.54381000  0.48382000  1.0 -0.1163922541
C  C361  1  0.48382000  0.54381000  0.40109000  1.0 -0.1163922541
C  C362  1  0.14272000  0.08273000  0.59891000  1.0 -0.1163922541
C  C363  1  0.85728000  0.45619000  0.94001000  1.0 -0.1163922541
C  C364  1  0.51618000  0.91727000  0.05999000  1.0 -0.1163922541
C  C365  1  0.40109000  0.48382000  0.54381000  1.0 -0.1163922541
C  C366  1  0.59891000  0.14272000  0.08273000  1.0 -0.1163922541
C  C367  1  0.94001000  0.85728000  0.45619000  1.0 -0.1141630111
C  C368  1  0.05999000  0.51618000  0.91727000  1.0 -0.1163922541
C  C369  1  0.54381000  0.40109000  0.48382000  1.0 -0.1163922541
C  C370  1  0.08273000  0.59891000  0.14272000  1.0 -0.1163922541
C  C371  1  0.45619000  0.94001000  0.85728000  1.0 -0.1163922541
C  C372  1  0.91727000  0.05999000  0.51618000  1.0 -0.1163922541
C  C373  1  0.91727000  0.85728000  0.40109000  1.0 -0.1163922541
C  C374  1  0.45619000  0.51618000  0.59891000  1.0 -0.1163922541
C  C375  1  0.08273000  0.48382000  0.94001000  1.0 -0.1163922541
C  C376  1  0.54381000  0.14272000  0.05999000  1.0 -0.1163922541
C  C377  1  0.14272000  0.05999000  0.54381000  1.0 -0.1163922541
C  C378  1  0.48382000  0.94001000  0.08273000  1.0 -0.1163922541
C  C379  1  0.51618000  0.59891000  0.45619000  1.0 -0.1163922541
C  C380  1  0.85728000  0.40109000  0.91727000  1.0 -0.1163922541
C  C381  1  0.94001000  0.08273000  0.48382000  1.0 -0.1163922541
C  C382  1  0.05999000  0.54381000  0.14272000  1.0 -0.1163922541
C  C383  1  0.40109000  0.91727000  0.85728000  1.0 -0.1141630111
C  C384  1  0.59891000  0.45619000  0.51618000  1.0 -0.1141630111
C  C385  1  0.50931000  0.46107000  0.57064000  1.0 -0.1141630111
C  C386  1  0.89043000  0.93867000  0.42936000  1.0 -0.1141630111
C  C387  1  0.10957000  0.53893000  0.04824000  1.0 -0.1141630111
C  C388  1  0.49069000  0.06133000  0.95176000  1.0 -0.1141630111
C  C389  1  0.57064000  0.50931000  0.46107000  1.0 -0.1141630111
C  C390  1  0.42936000  0.89043000  0.93867000  1.0 -0.1141630111
C  C391  1  0.04824000  0.10957000  0.53893000  1.0 -0.1141630111
C  C392  1  0.95176000  0.49069000  0.06133000  1.0 -0.1141630111
C  C393  1  0.46107000  0.57064000  0.50931000  1.0 -0.1141630111
C  C394  1  0.93867000  0.42936000  0.89043000  1.0 -0.1141630111
C  C395  1  0.53893000  0.04824000  0.10957000  1.0 -0.1141630111
C  C396  1  0.06133000  0.95176000  0.49069000  1.0 -0.1141630111
C  C397  1  0.06133000  0.10957000  0.57064000  1.0 -0.1141630111
C  C398  1  0.53893000  0.49069000  0.42936000  1.0 -0.1141630111
C  C399  1  0.93867000  0.50931000  0.04824000  1.0 -0.1141630111
C  C400  1  0.46107000  0.89043000  0.95176000  1.0 -0.1141630111
C  C401  1  0.89043000  0.95176000  0.46107000  1.0 -0.1141630111
C  C402  1  0.50931000  0.04824000  0.93867000  1.0 -0.1141630111
C  C403  1  0.49069000  0.42936000  0.53893000  1.0 -0.1141630111
C  C404  1  0.10957000  0.57064000  0.06133000  1.0 -0.1141630111
C  C405  1  0.04824000  0.93867000  0.50931000  1.0 -0.1141630111
C  C406  1  0.95176000  0.46107000  0.89043000  1.0 -0.1141630111
C  C407  1  0.57064000  0.06133000  0.10957000  1.0 -0.1141630111
C  C408  1  0.42936000  0.53893000  0.49069000  1.0 -0.1141630111
C  C409  1  0.49069000  0.53893000  0.42936000  1.0 -0.1141630111
C  C410  1  0.10957000  0.06133000  0.57064000  1.0 -0.1141630111
C  C411  1  0.89043000  0.46107000  0.95176000  1.0 -0.1141630111
C  C412  1  0.50931000  0.93867000  0.04824000  1.0 -0.1141630111
C  C413  1  0.42936000  0.49069000  0.53893000  1.0 -0.1141630111
C  C414  1  0.57064000  0.10957000  0.06133000  1.0 -0.1141630111
C  C415  1  0.95176000  0.89043000  0.46107000  1.0 -0.1141630111
C  C416  1  0.04824000  0.50931000  0.93867000  1.0 -0.1141630111
C  C417  1  0.53893000  0.42936000  0.49069000  1.0 -0.1141630111
C  C418  1  0.06133000  0.57064000  0.10957000  1.0 -0.1141630111
C  C419  1  0.46107000  0.95176000  0.89043000  1.0 -0.1141630111
C  C420  1  0.93867000  0.04824000  0.50931000  1.0 -0.1141630111
C  C421  1  0.93867000  0.89043000  0.42936000  1.0 -0.1141630111
C  C422  1  0.46107000  0.50931000  0.57064000  1.0 -0.1141630111
C  C423  1  0.06133000  0.49069000  0.95176000  1.0 -0.1141630111
C  C424  1  0.53893000  0.10957000  0.04824000  1.0 -0.1141630111
C  C425  1  0.10957000  0.04824000  0.53893000  1.0 -0.1141630111
C  C426  1  0.49069000  0.95176000  0.06133000  1.0 -0.1141630111
C  C427  1  0.50931000  0.57064000  0.46107000  1.0 -0.1141630111
C  C428  1  0.89043000  0.42936000  0.93867000  1.0 -0.1141630111
C  C429  1  0.95176000  0.06133000  0.49069000  1.0 -0.1141630111
C  C430  1  0.04824000  0.53893000  0.10957000  1.0 -0.1141630111
C  C431  1  0.42936000  0.93867000  0.89043000  1.0 -0.1141630111
C  C432  1  0.57064000  0.46107000  0.50931000  1.0 -0.1141630111
C  C433  1  0.64123000  0.58360000  0.71173000  1.0 0.6532380791
C  C434  1  0.87187000  0.92950000  0.28827000  1.0 0.639101437
C  C435  1  0.12813000  0.41640000  0.05763000  1.0 0.639101437
C  C436  1  0.35877000  0.07050000  0.94237000  1.0 0.639101437
C  C437  1  0.71173000  0.64123000  0.58360000  1.0 0.639101437
C  C438  1  0.28827000  0.87187000  0.92950000  1.0 0.639101437
C  C439  1  0.05763000  0.12813000  0.41640000  1.0 0.639101437
C  C440  1  0.94237000  0.35877000  0.07050000  1.0 0.639101437
C  C441  1  0.58360000  0.71173000  0.64123000  1.0 0.639101437
C  C442  1  0.92950000  0.28827000  0.87187000  1.0 0.639101437
C  C443  1  0.41640000  0.05763000  0.12813000  1.0 0.639101437
C  C444  1  0.07050000  0.94237000  0.35877000  1.0 0.639101437
C  C445  1  0.07050000  0.12813000  0.71173000  1.0 0.639101437
C  C446  1  0.41640000  0.35877000  0.28827000  1.0 0.6532380791
C  C447  1  0.92950000  0.64123000  0.05763000  1.0 0.639101437
C  C448  1  0.58360000  0.87187000  0.94237000  1.0 0.639101437
C  C449  1  0.87187000  0.94237000  0.58360000  1.0 0.639101437
C  C450  1  0.64123000  0.05763000  0.92950000  1.0 0.639101437
C  C451  1  0.35877000  0.28827000  0.41640000  1.0 0.639101437
C  C452  1  0.12813000  0.71173000  0.07050000  1.0 0.639101437
C  C453  1  0.05763000  0.92950000  0.64123000  1.0 0.639101437
C  C454  1  0.94237000  0.58360000  0.87187000  1.0 0.639101437
C  C455  1  0.71173000  0.07050000  0.12813000  1.0 0.639101437
C  C456  1  0.28827000  0.41640000  0.35877000  1.0 0.639101437
C  C457  1  0.35877000  0.41640000  0.28827000  1.0 0.639101437
C  C458  1  0.12813000  0.07050000  0.71173000  1.0 0.639101437
C  C459  1  0.87187000  0.58360000  0.94237000  1.0 0.639101437
C  C460  1  0.64123000  0.92950000  0.05763000  1.0 0.639101437
C  C461  1  0.28827000  0.35877000  0.41640000  1.0 0.639101437
C  C462  1  0.71173000  0.12813000  0.07050000  1.0 0.639101437
C  C463  1  0.94237000  0.87187000  0.58360000  1.0 0.639101437
C  C464  1  0.05763000  0.64123000  0.92950000  1.0 0.639101437
C  C465  1  0.41640000  0.28827000  0.35877000  1.0 0.639101437
C  C466  1  0.07050000  0.71173000  0.12813000  1.0 0.639101437
C  C467  1  0.58360000  0.94237000  0.87187000  1.0 0.639101437
C  C468  1  0.92950000  0.05763000  0.64123000  1.0 0.639101437
C  C469  1  0.92950000  0.87187000  0.28827000  1.0 0.6532380791
C  C470  1  0.58360000  0.64123000  0.71173000  1.0 0.639101437
C  C471  1  0.07050000  0.35877000  0.94237000  1.0 0.639101437
C  C472  1  0.41640000  0.12813000  0.05763000  1.0 0.639101437
C  C473  1  0.12813000  0.05763000  0.41640000  1.0 0.639101437
C  C474  1  0.35877000  0.94237000  0.07050000  1.0 0.639101437
C  C475  1  0.64123000  0.71173000  0.58360000  1.0 0.639101437
C  C476  1  0.87187000  0.28827000  0.92950000  1.0 0.639101437
C  C477  1  0.94237000  0.07050000  0.35877000  1.0 0.639101437
C  C478  1  0.05763000  0.41640000  0.12813000  1.0 0.639101437
C  C479  1  0.28827000  0.92950000  0.87187000  1.0 0.639101437
C  C480  1  0.71173000  0.58360000  0.64123000  1.0 0.639101437
C  C481  1  0.66923000  0.58877000  0.70156000  1.0 -0.0918536707
C  C482  1  0.88721000  0.96767000  0.29844000  1.0 -0.0918536707
C  C483  1  0.11279000  0.41123000  0.08046000  1.0 -0.0918536707
C  C484  1  0.33077000  0.03233000  0.91954000  1.0 -0.0918536707
C  C485  1  0.70156000  0.66923000  0.58877000  1.0 -0.0918536707
C  C486  1  0.29844000  0.88721000  0.96767000  1.0 -0.0918536707
C  C487  1  0.08046000  0.11279000  0.41123000  1.0 -0.0918536707
C  C488  1  0.91954000  0.33077000  0.03233000  1.0 -0.0918536707
C  C489  1  0.58877000  0.70156000  0.66923000  1.0 -0.0918536707
C  C490  1  0.96767000  0.29844000  0.88721000  1.0 -0.0918536707
C  C491  1  0.41123000  0.08046000  0.11279000  1.0 -0.0918536707
C  C492  1  0.03233000  0.91954000  0.33077000  1.0 -0.0918536707
C  C493  1  0.03233000  0.11279000  0.70156000  1.0 -0.0918536707
C  C494  1  0.41123000  0.33077000  0.29844000  1.0 -0.0918536707
C  C495  1  0.96767000  0.66923000  0.08046000  1.0 -0.0918536707
C  C496  1  0.58877000  0.88721000  0.91954000  1.0 -0.0918536707
C  C497  1  0.88721000  0.91954000  0.58877000  1.0 -0.0918536707
C  C498  1  0.66923000  0.08046000  0.96767000  1.0 -0.0918536707
C  C499  1  0.33077000  0.29844000  0.41123000  1.0 -0.0918536707
C  C500  1  0.11279000  0.70156000  0.03233000  1.0 -0.0918536707
C  C501  1  0.08046000  0.96767000  0.66923000  1.0 -0.0918536707
C  C502  1  0.91954000  0.58877000  0.88721000  1.0 -0.0918536707
C  C503  1  0.70156000  0.03233000  0.11279000  1.0 -0.0918536707
C  C504  1  0.29844000  0.41123000  0.33077000  1.0 -0.0918536707
C  C505  1  0.33077000  0.41123000  0.29844000  1.0 -0.0918536707
C  C506  1  0.11279000  0.03233000  0.70156000  1.0 -0.0918536707
C  C507  1  0.88721000  0.58877000  0.91954000  1.0 -0.0918536707
C  C508  1  0.66923000  0.96767000  0.08046000  1.0 -0.0918536707
C  C509  1  0.29844000  0.33077000  0.41123000  1.0 -0.0918536707
C  C510  1  0.70156000  0.11279000  0.03233000  1.0 -0.0918536707
C  C511  1  0.91954000  0.88721000  0.58877000  1.0 -0.0918536707
C  C512  1  0.08046000  0.66923000  0.96767000  1.0 -0.0918536707
C  C513  1  0.41123000  0.29844000  0.33077000  1.0 -0.0918536707
C  C514  1  0.03233000  0.70156000  0.11279000  1.0 -0.0918536707
C  C515  1  0.58877000  0.91954000  0.88721000  1.0 -0.0918536707
C  C516  1  0.96767000  0.08046000  0.66923000  1.0 -0.0918536707
C  C517  1  0.96767000  0.88721000  0.29844000  1.0 -0.0918536707
C  C518  1  0.58877000  0.66923000  0.70156000  1.0 -0.0918536707
C  C519  1  0.03233000  0.33077000  0.91954000  1.0 -0.0918536707
C  C520  1  0.41123000  0.11279000  0.08046000  1.0 -0.0918536707
C  C521  1  0.11279000  0.08046000  0.41123000  1.0 -0.0918536707
C  C522  1  0.33077000  0.91954000  0.03233000  1.0 -0.0918536707
C  C523  1  0.66923000  0.70156000  0.58877000  1.0 -0.0918536707
C  C524  1  0.88721000  0.29844000  0.96767000  1.0 -0.0918536707
C  C525  1  0.91954000  0.03233000  0.33077000  1.0 -0.0918536707
C  C526  1  0.08046000  0.41123000  0.11279000  1.0 -0.0918536707
C  C527  1  0.29844000  0.96767000  0.88721000  1.0 -0.0918536707
C  C528  1  0.70156000  0.58877000  0.66923000  1.0 -0.0918536707
C  C529  1  0.70209000  0.59561000  0.72056000  1.0 -0.0998550411
C  C530  1  0.87505000  0.98153000  0.27944000  1.0 -0.0998550411
C  C531  1  0.12495000  0.40439000  0.10648000  1.0 -0.0998550411
C  C532  1  0.29791000  0.01847000  0.89352000  1.0 -0.0998550411
C  C533  1  0.72056000  0.70209000  0.59561000  1.0 -0.0998550411
C  C534  1  0.27944000  0.87505000  0.98153000  1.0 -0.0998550411
C  C535  1  0.10648000  0.12495000  0.40439000  1.0 -0.0998550411
C  C536  1  0.89352000  0.29791000  0.01847000  1.0 -0.0918536707
C  C537  1  0.59561000  0.72056000  0.70209000  1.0 -0.0998550411
C  C538  1  0.98153000  0.27944000  0.87505000  1.0 -0.0918536707
C  C539  1  0.40439000  0.10648000  0.12495000  1.0 -0.0998550411
C  C540  1  0.01847000  0.89352000  0.29791000  1.0 -0.0998550411
C  C541  1  0.01847000  0.12495000  0.72056000  1.0 -0.0998550411
C  C542  1  0.40439000  0.29791000  0.27944000  1.0 -0.0998550411
C  C543  1  0.98153000  0.70209000  0.10648000  1.0 -0.0998550411
C  C544  1  0.59561000  0.87505000  0.89352000  1.0 -0.0998550411
C  C545  1  0.87505000  0.89352000  0.59561000  1.0 -0.0998550411
C  C546  1  0.70209000  0.10648000  0.98153000  1.0 -0.0998550411
C  C547  1  0.29791000  0.27944000  0.40439000  1.0 -0.0998550411
C  C548  1  0.12495000  0.72056000  0.01847000  1.0 -0.0998550411
C  C549  1  0.10648000  0.98153000  0.70209000  1.0 -0.0998550411
C  C550  1  0.89352000  0.59561000  0.87505000  1.0 -0.0998550411
C  C551  1  0.72056000  0.01847000  0.12495000  1.0 -0.0998550411
C  C552  1  0.27944000  0.40439000  0.29791000  1.0 -0.0998550411
C  C553  1  0.29791000  0.40439000  0.27944000  1.0 -0.0998550411
C  C554  1  0.12495000  0.01847000  0.72056000  1.0 -0.0998550411
C  C555  1  0.87505000  0.59561000  0.89352000  1.0 -0.0998550411
C  C556  1  0.70209000  0.98153000  0.10648000  1.0 -0.0998550411
C  C557  1  0.27944000  0.29791000  0.40439000  1.0 -0.0998550411
C  C558  1  0.72056000  0.12495000  0.01847000  1.0 -0.0998550411
C  C559  1  0.89352000  0.87505000  0.59561000  1.0 -0.0998550411
C  C560  1  0.10648000  0.70209000  0.98153000  1.0 -0.0998550411
C  C561  1  0.40439000  0.27944000  0.29791000  1.0 -0.0998550411
C  C562  1  0.01847000  0.72056000  0.12495000  1.0 -0.0998550411
C  C563  1  0.59561000  0.89352000  0.87505000  1.0 -0.0998550411
C  C564  1  0.98153000  0.10648000  0.70209000  1.0 -0.0998550411
C  C565  1  0.98153000  0.87505000  0.27944000  1.0 -0.0998550411
C  C566  1  0.59561000  0.70209000  0.72056000  1.0 -0.0998550411
C  C567  1  0.01847000  0.29791000  0.89352000  1.0 -0.0998550411
C  C568  1  0.40439000  0.12495000  0.10648000  1.0 -0.0998550411
C  C569  1  0.12495000  0.10648000  0.40439000  1.0 -0.0998550411
C  C570  1  0.29791000  0.89352000  0.01847000  1.0 -0.0998550411
C  C571  1  0.70209000  0.72056000  0.59561000  1.0 -0.0998550411
C  C572  1  0.87505000  0.27944000  0.98153000  1.0 -0.0918536707
C  C573  1  0.89352000  0.01847000  0.29791000  1.0 -0.0998550411
C  C574  1  0.10648000  0.40439000  0.12495000  1.0 -0.0998550411
C  C575  1  0.27944000  0.98153000  0.87505000  1.0 -0.0998550411
C  C576  1  0.72056000  0.59561000  0.70209000  1.0 -0.0998550411
C  C577  1  0.62880000  0.56863000  0.84111000  1.0 0.6532380791
C  C578  1  0.72752000  0.78769000  0.15889000  1.0 0.6532380791
C  C579  1  0.27248000  0.43137000  0.06017000  1.0 0.6555580604
C  C580  1  0.37120000  0.21231000  0.93983000  1.0 0.6532380791
C  C581  1  0.84111000  0.62880000  0.56863000  1.0 0.6555580604
C  C582  1  0.15889000  0.72752000  0.78769000  1.0 0.6532380791
C  C583  1  0.06017000  0.27248000  0.43137000  1.0 0.6532380791
C  C584  1  0.93983000  0.37120000  0.21231000  1.0 0.6555580604
C  C585  1  0.56863000  0.84111000  0.62880000  1.0 0.6532380791
C  C586  1  0.78769000  0.15889000  0.72752000  1.0 0.6555580604
C  C587  1  0.43137000  0.06017000  0.27248000  1.0 0.6532380791
C  C588  1  0.21231000  0.93983000  0.37120000  1.0 0.6532380791
C  C589  1  0.21231000  0.27248000  0.84111000  1.0 0.6532380791
C  C590  1  0.43137000  0.37120000  0.15889000  1.0 0.6532380791
C  C591  1  0.78769000  0.62880000  0.06017000  1.0 0.6555580604
C  C592  1  0.56863000  0.72752000  0.93983000  1.0 0.6532380791
C  C593  1  0.72752000  0.93983000  0.56863000  1.0 0.6555580604
C  C594  1  0.62880000  0.06017000  0.78769000  1.0 0.6532380791
C  C595  1  0.37120000  0.15889000  0.43137000  1.0 0.6532380791
C  C596  1  0.27248000  0.84111000  0.21231000  1.0 0.6555580604
C  C597  1  0.06017000  0.78769000  0.62880000  1.0 0.6555580604
C  C598  1  0.93983000  0.56863000  0.72752000  1.0 0.6555580604
C  C599  1  0.84111000  0.21231000  0.27248000  1.0 0.6532380791
C  C600  1  0.15889000  0.43137000  0.37120000  1.0 0.6555580604
C  C601  1  0.37120000  0.43137000  0.15889000  1.0 0.6555580604
C  C602  1  0.27248000  0.21231000  0.84111000  1.0 0.6532380791
C  C603  1  0.72752000  0.56863000  0.93983000  1.0 0.6555580604
C  C604  1  0.62880000  0.78769000  0.06017000  1.0 0.6555580604
C  C605  1  0.15889000  0.37120000  0.43137000  1.0 0.6532380791
C  C606  1  0.84111000  0.27248000  0.21231000  1.0 0.6555580604
C  C607  1  0.93983000  0.72752000  0.56863000  1.0 0.6555580604
C  C608  1  0.06017000  0.62880000  0.78769000  1.0 0.6532380791
C  C609  1  0.43137000  0.15889000  0.37120000  1.0 0.6532380791
C  C610  1  0.21231000  0.84111000  0.27248000  1.0 0.6532380791
C  C611  1  0.56863000  0.93983000  0.72752000  1.0 0.6532380791
C  C612  1  0.78769000  0.06017000  0.62880000  1.0 0.6532380791
C  C613  1  0.78769000  0.72752000  0.15889000  1.0 0.6555580604
C  C614  1  0.56863000  0.62880000  0.84111000  1.0 0.6532380791
C  C615  1  0.21231000  0.37120000  0.93983000  1.0 0.6532380791
C  C616  1  0.43137000  0.27248000  0.06017000  1.0 0.6532380791
C  C617  1  0.27248000  0.06017000  0.43137000  1.0 0.6532380791
C  C618  1  0.37120000  0.93983000  0.21231000  1.0 0.6532380791
C  C619  1  0.62880000  0.84111000  0.56863000  1.0 0.6555580604
C  C620  1  0.72752000  0.15889000  0.78769000  1.0 0.6532380791
C  C621  1  0.93983000  0.21231000  0.37120000  1.0 0.6532380791
C  C622  1  0.06017000  0.43137000  0.27248000  1.0 0.6555580604
C  C623  1  0.15889000  0.78769000  0.72752000  1.0 0.6555580604
C  C624  1  0.84111000  0.56863000  0.62880000  1.0 0.6555580604
C  C625  1  0.65006000  0.56750000  0.87198000  1.0 -0.1471993827
C  C626  1  0.69552000  0.77808000  0.12802000  1.0 -0.1471993827
C  C627  1  0.30448000  0.43250000  0.08256000  1.0 -0.1471993827
C  C628  1  0.34994000  0.22192000  0.91744000  1.0 -0.1471993827
C  C629  1  0.87198000  0.65006000  0.56750000  1.0 -0.1471993827
C  C630  1  0.12802000  0.69552000  0.77808000  1.0 -0.1471993827
C  C631  1  0.08256000  0.30448000  0.43250000  1.0 -0.1471993827
C  C632  1  0.91744000  0.34994000  0.22192000  1.0 -0.1471993827
C  C633  1  0.56750000  0.87198000  0.65006000  1.0 -0.1471993827
C  C634  1  0.77808000  0.12802000  0.69552000  1.0 -0.1471993827
C  C635  1  0.43250000  0.08256000  0.30448000  1.0 -0.1471993827
C  C636  1  0.22192000  0.91744000  0.34994000  1.0 -0.1471993827
C  C637  1  0.22192000  0.30448000  0.87198000  1.0 -0.1471993827
C  C638  1  0.43250000  0.34994000  0.12802000  1.0 -0.1471993827
C  C639  1  0.77808000  0.65006000  0.08256000  1.0 -0.1471993827
C  C640  1  0.56750000  0.69552000  0.91744000  1.0 -0.1471993827
C  C641  1  0.69552000  0.91744000  0.56750000  1.0 -0.1471993827
C  C642  1  0.65006000  0.08256000  0.77808000  1.0 -0.1471993827
C  C643  1  0.34994000  0.12802000  0.43250000  1.0 -0.1471993827
C  C644  1  0.30448000  0.87198000  0.22192000  1.0 -0.1471993827
C  C645  1  0.08256000  0.77808000  0.65006000  1.0 -0.1471993827
C  C646  1  0.91744000  0.56750000  0.69552000  1.0 -0.1471993827
C  C647  1  0.87198000  0.22192000  0.30448000  1.0 -0.1471993827
C  C648  1  0.12802000  0.43250000  0.34994000  1.0 -0.1471993827
C  C649  1  0.34994000  0.43250000  0.12802000  1.0 -0.1471993827
C  C650  1  0.30448000  0.22192000  0.87198000  1.0 -0.1471993827
C  C651  1  0.69552000  0.56750000  0.91744000  1.0 -0.1471993827
C  C652  1  0.65006000  0.77808000  0.08256000  1.0 -0.1471993827
C  C653  1  0.12802000  0.34994000  0.43250000  1.0 -0.1471993827
C  C654  1  0.87198000  0.30448000  0.22192000  1.0 -0.1471993827
C  C655  1  0.91744000  0.69552000  0.56750000  1.0 -0.1471993827
C  C656  1  0.08256000  0.65006000  0.77808000  1.0 -0.1471993827
C  C657  1  0.43250000  0.12802000  0.34994000  1.0 -0.1471993827
C  C658  1  0.22192000  0.87198000  0.30448000  1.0 -0.1471993827
C  C659  1  0.56750000  0.91744000  0.69552000  1.0 -0.1471993827
C  C660  1  0.77808000  0.08256000  0.65006000  1.0 -0.1471993827
C  C661  1  0.77808000  0.69552000  0.12802000  1.0 -0.1471993827
C  C662  1  0.56750000  0.65006000  0.87198000  1.0 -0.1471993827
C  C663  1  0.22192000  0.34994000  0.91744000  1.0 -0.1471993827
C  C664  1  0.43250000  0.30448000  0.08256000  1.0 -0.1471993827
C  C665  1  0.30448000  0.08256000  0.43250000  1.0 -0.1471993827
C  C666  1  0.34994000  0.91744000  0.22192000  1.0 -0.1471993827
C  C667  1  0.65006000  0.87198000  0.56750000  1.0 -0.1471993827
C  C668  1  0.69552000  0.12802000  0.77808000  1.0 -0.1471993827
C  C669  1  0.91744000  0.22192000  0.34994000  1.0 -0.1471993827
C  C670  1  0.08256000  0.43250000  0.30448000  1.0 -0.1471993827
C  C671  1  0.12802000  0.77808000  0.69552000  1.0 -0.1471993827
C  C672  1  0.87198000  0.56750000  0.65006000  1.0 -0.1471993827
C  C673  1  0.63960000  0.55970000  0.89370000  1.0 -0.0998550411
C  C674  1  0.66600000  0.74590000  0.10630000  1.0 -0.0998550411
C  C675  1  0.33400000  0.44030000  0.07990000  1.0 -0.0998550411
C  C676  1  0.36040000  0.25410000  0.92010000  1.0 -0.0998550411
C  C677  1  0.89370000  0.63960000  0.55970000  1.0 -0.0998550411
C  C678  1  0.10630000  0.66600000  0.74590000  1.0 -0.0998550411
C  C679  1  0.07990000  0.33400000  0.44030000  1.0 -0.0998550411
C  C680  1  0.92010000  0.36040000  0.25410000  1.0 -0.0998550411
C  C681  1  0.55970000  0.89370000  0.63960000  1.0 -0.0998550411
C  C682  1  0.74590000  0.10630000  0.66600000  1.0 -0.0998550411
C  C683  1  0.44030000  0.07990000  0.33400000  1.0 -0.0998550411
C  C684  1  0.25410000  0.92010000  0.36040000  1.0 -0.0998550411
C  C685  1  0.25410000  0.33400000  0.89370000  1.0 -0.0998550411
C  C686  1  0.44030000  0.36040000  0.10630000  1.0 -0.0998550411
C  C687  1  0.74590000  0.63960000  0.07990000  1.0 -0.0998550411
C  C688  1  0.55970000  0.66600000  0.92010000  1.0 -0.0998550411
C  C689  1  0.66600000  0.92010000  0.55970000  1.0 -0.0998550411
C  C690  1  0.63960000  0.07990000  0.74590000  1.0 -0.0998550411
C  C691  1  0.36040000  0.10630000  0.44030000  1.0 -0.0998550411
C  C692  1  0.33400000  0.89370000  0.25410000  1.0 -0.0998550411
C  C693  1  0.07990000  0.74590000  0.63960000  1.0 -0.0998550411
C  C694  1  0.92010000  0.55970000  0.66600000  1.0 -0.0998550411
C  C695  1  0.89370000  0.25410000  0.33400000  1.0 -0.0998550411
C  C696  1  0.10630000  0.44030000  0.36040000  1.0 -0.0998550411
C  C697  1  0.36040000  0.44030000  0.10630000  1.0 -0.0998550411
C  C698  1  0.33400000  0.25410000  0.89370000  1.0 -0.0998550411
C  C699  1  0.66600000  0.55970000  0.92010000  1.0 -0.0998550411
C  C700  1  0.63960000  0.74590000  0.07990000  1.0 -0.0998550411
C  C701  1  0.10630000  0.36040000  0.44030000  1.0 -0.0998550411
C  C702  1  0.89370000  0.33400000  0.25410000  1.0 -0.0998550411
C  C703  1  0.92010000  0.66600000  0.55970000  1.0 -0.0998550411
C  C704  1  0.07990000  0.63960000  0.74590000  1.0 -0.0998550411
C  C705  1  0.44030000  0.10630000  0.36040000  1.0 -0.0998550411
C  C706  1  0.25410000  0.89370000  0.33400000  1.0 -0.0998550411
C  C707  1  0.55970000  0.92010000  0.66600000  1.0 -0.0998550411
C  C708  1  0.74590000  0.07990000  0.63960000  1.0 -0.0998550411
C  C709  1  0.74590000  0.66600000  0.10630000  1.0 -0.0998550411
C  C710  1  0.55970000  0.63960000  0.89370000  1.0 -0.0998550411
C  C711  1  0.25410000  0.36040000  0.92010000  1.0 -0.0998550411
C  C712  1  0.44030000  0.33400000  0.07990000  1.0 -0.0998550411
C  C713  1  0.33400000  0.07990000  0.44030000  1.0 -0.0998550411
C  C714  1  0.36040000  0.92010000  0.25410000  1.0 -0.0998550411
C  C715  1  0.63960000  0.89370000  0.55970000  1.0 -0.0998550411
C  C716  1  0.66600000  0.10630000  0.74590000  1.0 -0.0998550411
C  C717  1  0.92010000  0.25410000  0.36040000  1.0 -0.0998550411
C  C718  1  0.07990000  0.44030000  0.33400000  1.0 -0.0998550411
C  C719  1  0.10630000  0.74590000  0.66600000  1.0 -0.0998550411
C  C720  1  0.89370000  0.55970000  0.63960000  1.0 -0.0998550411
C  C721  1  0.58720000  0.46880000  0.69780000  1.0 0.5937116652
C  C722  1  0.77100000  0.88940000  0.30220000  1.0 0.5937116652
C  C723  1  0.22900000  0.53120000  0.11840000  1.0 0.5937116652
C  C724  1  0.41280000  0.11060000  0.88160000  1.0 0.5937116652
C  C725  1  0.69780000  0.58720000  0.46880000  1.0 0.5937116652
C  C726  1  0.30220000  0.77100000  0.88940000  1.0 0.5950352895
C  C727  1  0.11840000  0.22900000  0.53120000  1.0 0.5937116652
C  C728  1  0.88160000  0.41280000  0.11060000  1.0 0.5950352895
C  C729  1  0.46880000  0.69780000  0.58720000  1.0 0.5937116652
C  C730  1  0.88940000  0.30220000  0.77100000  1.0 0.5937116652
C  C731  1  0.53120000  0.11840000  0.22900000  1.0 0.5937116652
C  C732  1  0.11060000  0.88160000  0.41280000  1.0 0.5937116652
C  C733  1  0.11060000  0.22900000  0.69780000  1.0 0.5937116652
C  C734  1  0.53120000  0.41280000  0.30220000  1.0 0.5950352895
C  C735  1  0.88940000  0.58720000  0.11840000  1.0 0.5950352895
C  C736  1  0.46880000  0.77100000  0.88160000  1.0 0.5937116652
C  C737  1  0.77100000  0.88160000  0.46880000  1.0 0.5950352895
C  C738  1  0.58720000  0.11840000  0.88940000  1.0 0.5937116652
C  C739  1  0.41280000  0.30220000  0.53120000  1.0 0.5937116652
C  C740  1  0.22900000  0.69780000  0.11060000  1.0 0.5950352895
C  C741  1  0.11840000  0.88940000  0.58720000  1.0 0.5937116652
C  C742  1  0.88160000  0.46880000  0.77100000  1.0 0.5937116652
C  C743  1  0.69780000  0.11060000  0.22900000  1.0 0.5937116652
C  C744  1  0.30220000  0.53120000  0.41280000  1.0 0.5937116652
C  C745  1  0.41280000  0.53120000  0.30220000  1.0 0.5950352895
C  C746  1  0.22900000  0.11060000  0.69780000  1.0 0.5937116652
C  C747  1  0.77100000  0.46880000  0.88160000  1.0 0.5937116652
C  C748  1  0.58720000  0.88940000  0.11840000  1.0 0.5937116652
C  C749  1  0.30220000  0.41280000  0.53120000  1.0 0.5937116652
C  C750  1  0.69780000  0.22900000  0.11060000  1.0 0.5937116652
C  C751  1  0.88160000  0.77100000  0.46880000  1.0 0.5950352895
C  C752  1  0.11840000  0.58720000  0.88940000  1.0 0.5950352895
C  C753  1  0.53120000  0.30220000  0.41280000  1.0 0.5937116652
C  C754  1  0.11060000  0.69780000  0.22900000  1.0 0.5937116652
C  C755  1  0.46880000  0.88160000  0.77100000  1.0 0.5937116652
C  C756  1  0.88940000  0.11840000  0.58720000  1.0 0.5937116652
C  C757  1  0.88940000  0.77100000  0.30220000  1.0 0.5937116652
C  C758  1  0.46880000  0.58720000  0.69780000  1.0 0.5937116652
C  C759  1  0.11060000  0.41280000  0.88160000  1.0 0.5937116652
C  C760  1  0.53120000  0.22900000  0.11840000  1.0 0.5937116652
C  C761  1  0.22900000  0.11840000  0.53120000  1.0 0.5937116652
C  C762  1  0.41280000  0.88160000  0.11060000  1.0 0.5950352895
C  C763  1  0.58720000  0.69780000  0.46880000  1.0 0.5950352895
C  C764  1  0.77100000  0.30220000  0.88940000  1.0 0.5937116652
C  C765  1  0.88160000  0.11060000  0.41280000  1.0 0.5937116652
C  C766  1  0.11840000  0.53120000  0.22900000  1.0 0.5937116652
C  C767  1  0.30220000  0.88940000  0.77100000  1.0 0.5937116652
C  C768  1  0.69780000  0.46880000  0.58720000  1.0 0.5937116652
C  C769  1  0.46750000  0.34700000  0.60790000  1.0 0.0069142352
C  C770  1  0.73910000  0.85960000  0.39210000  1.0 0.0069142352
C  C771  1  0.26090000  0.65300000  0.12050000  1.0 0.0069142352
C  C772  1  0.53250000  0.14040000  0.87950000  1.0 0.0069142352
C  C773  1  0.60790000  0.46750000  0.34700000  1.0 0.0069142352
C  C774  1  0.39210000  0.73910000  0.85960000  1.0 0.0069142352
C  C775  1  0.12050000  0.26090000  0.65300000  1.0 0.0069142352
C  C776  1  0.87950000  0.53250000  0.14040000  1.0 0.0069142352
C  C777  1  0.34700000  0.60790000  0.46750000  1.0 0.0069142352
C  C778  1  0.85960000  0.39210000  0.73910000  1.0 0.0069142352
C  C779  1  0.65300000  0.12050000  0.26090000  1.0 0.0069142352
C  C780  1  0.14040000  0.87950000  0.53250000  1.0 0.0069142352
C  C781  1  0.14040000  0.26090000  0.60790000  1.0 0.0069142352
C  C782  1  0.65300000  0.53250000  0.39210000  1.0 0.0069142352
C  C783  1  0.85960000  0.46750000  0.12050000  1.0 0.0069142352
C  C784  1  0.34700000  0.73910000  0.87950000  1.0 0.0069142352
C  C785  1  0.73910000  0.87950000  0.34700000  1.0 0.0069142352
C  C786  1  0.46750000  0.12050000  0.85960000  1.0 0.0069142352
C  C787  1  0.53250000  0.39210000  0.65300000  1.0 0.0069142352
C  C788  1  0.26090000  0.60790000  0.14040000  1.0 0.0069142352
C  C789  1  0.12050000  0.85960000  0.46750000  1.0 0.0069142352
C  C790  1  0.87950000  0.34700000  0.73910000  1.0 0.0069142352
C  C791  1  0.60790000  0.14040000  0.26090000  1.0 0.0069142352
C  C792  1  0.39210000  0.65300000  0.53250000  1.0 0.0069142352
C  C793  1  0.53250000  0.65300000  0.39210000  1.0 0.0069142352
C  C794  1  0.26090000  0.14040000  0.60790000  1.0 0.0069142352
C  C795  1  0.73910000  0.34700000  0.87950000  1.0 0.0069142352
C  C796  1  0.46750000  0.85960000  0.12050000  1.0 0.0069142352
C  C797  1  0.39210000  0.53250000  0.65300000  1.0 0.0069142352
C  C798  1  0.60790000  0.26090000  0.14040000  1.0 0.0069142352
C  C799  1  0.87950000  0.73910000  0.34700000  1.0 0.0069142352
C  C800  1  0.12050000  0.46750000  0.85960000  1.0 0.0069142352
C  C801  1  0.65300000  0.39210000  0.53250000  1.0 0.0069142352
C  C802  1  0.14040000  0.60790000  0.26090000  1.0 0.0069142352
C  C803  1  0.34700000  0.87950000  0.73910000  1.0 0.0069142352
C  C804  1  0.85960000  0.12050000  0.46750000  1.0 0.0069142352
C  C805  1  0.85960000  0.73910000  0.39210000  1.0 0.0069142352
C  C806  1  0.34700000  0.46750000  0.60790000  1.0 0.0069142352
C  C807  1  0.14040000  0.53250000  0.87950000  1.0 0.0069142352
C  C808  1  0.65300000  0.26090000  0.12050000  1.0 0.0069142352
C  C809  1  0.26090000  0.12050000  0.65300000  1.0 0.0069142352
C  C810  1  0.53250000  0.87950000  0.14040000  1.0 0.0069142352
C  C811  1  0.46750000  0.60790000  0.34700000  1.0 0.0069142352
C  C812  1  0.73910000  0.39210000  0.85960000  1.0 0.0069142352
C  C813  1  0.87950000  0.14040000  0.53250000  1.0 0.0069142352
C  C814  1  0.12050000  0.65300000  0.26090000  1.0 0.0069142352
C  C815  1  0.39210000  0.85960000  0.73910000  1.0 0.0069142352
C  C816  1  0.60790000  0.34700000  0.46750000  1.0 0.0069142352
C  C817  1  0.45540000  0.39200000  0.62880000  1.0 -0.1417155927
C  C818  1  0.76320000  0.82660000  0.37120000  1.0 -0.1417155927
C  C819  1  0.23680000  0.60800000  0.06340000  1.0 -0.1417155927
C  C820  1  0.54460000  0.17340000  0.93660000  1.0 -0.1417155927
C  C821  1  0.62880000  0.45540000  0.39200000  1.0 -0.1417155927
C  C822  1  0.37120000  0.76320000  0.82660000  1.0 -0.1417155927
C  C823  1  0.06340000  0.23680000  0.60800000  1.0 -0.1417155927
C  C824  1  0.93660000  0.54460000  0.17340000  1.0 -0.1417155927
C  C825  1  0.39200000  0.62880000  0.45540000  1.0 -0.1417155927
C  C826  1  0.82660000  0.37120000  0.76320000  1.0 -0.1417155927
C  C827  1  0.60800000  0.06340000  0.23680000  1.0 -0.1417155927
C  C828  1  0.17340000  0.93660000  0.54460000  1.0 -0.1417155927
C  C829  1  0.17340000  0.23680000  0.62880000  1.0 -0.1417155927
C  C830  1  0.60800000  0.54460000  0.37120000  1.0 -0.1417155927
C  C831  1  0.82660000  0.45540000  0.06340000  1.0 -0.1417155927
C  C832  1  0.39200000  0.76320000  0.93660000  1.0 -0.1417155927
C  C833  1  0.76320000  0.93660000  0.39200000  1.0 -0.1417155927
C  C834  1  0.45540000  0.06340000  0.82660000  1.0 -0.1417155927
C  C835  1  0.54460000  0.37120000  0.60800000  1.0 -0.1417155927
C  C836  1  0.23680000  0.62880000  0.17340000  1.0 -0.1417155927
C  C837  1  0.06340000  0.82660000  0.45540000  1.0 -0.1417155927
C  C838  1  0.93660000  0.39200000  0.76320000  1.0 -0.1417155927
C  C839  1  0.62880000  0.17340000  0.23680000  1.0 -0.1417155927
C  C840  1  0.37120000  0.60800000  0.54460000  1.0 -0.1417155927
C  C841  1  0.54460000  0.60800000  0.37120000  1.0 -0.1417155927
C  C842  1  0.23680000  0.17340000  0.62880000  1.0 -0.1417155927
C  C843  1  0.76320000  0.39200000  0.93660000  1.0 -0.1417155927
C  C844  1  0.45540000  0.82660000  0.06340000  1.0 -0.1417155927
C  C845  1  0.37120000  0.54460000  0.60800000  1.0 -0.1417155927
C  C846  1  0.62880000  0.23680000  0.17340000  1.0 -0.1417155927
C  C847  1  0.93660000  0.76320000  0.39200000  1.0 -0.1417155927
C  C848  1  0.06340000  0.45540000  0.82660000  1.0 -0.1417155927
C  C849  1  0.60800000  0.37120000  0.54460000  1.0 -0.1417155927
C  C850  1  0.17340000  0.62880000  0.23680000  1.0 -0.1417155927
C  C851  1  0.39200000  0.93660000  0.76320000  1.0 -0.1417155927
C  C852  1  0.82660000  0.06340000  0.45540000  1.0 -0.1417155927
C  C853  1  0.82660000  0.76320000  0.37120000  1.0 -0.1417155927
C  C854  1  0.39200000  0.45540000  0.62880000  1.0 -0.1417155927
C  C855  1  0.17340000  0.54460000  0.93660000  1.0 -0.1417155927
C  C856  1  0.60800000  0.23680000  0.06340000  1.0 -0.1417155927
C  C857  1  0.23680000  0.06340000  0.60800000  1.0 -0.1417155927
C  C858  1  0.54460000  0.93660000  0.17340000  1.0 -0.1417155927
C  C859  1  0.45540000  0.62880000  0.39200000  1.0 -0.1417155927
C  C860  1  0.76320000  0.37120000  0.82660000  1.0 -0.1417155927
C  C861  1  0.93660000  0.17340000  0.54460000  1.0 -0.1417155927
C  C862  1  0.06340000  0.60800000  0.23680000  1.0 -0.1417155927
C  C863  1  0.37120000  0.82660000  0.76320000  1.0 -0.1417155927
C  C864  1  0.62880000  0.39200000  0.45540000  1.0 -0.1417155927
C  C865  1  0.46240000  0.43100000  0.64920000  1.0 0.6087931255
C  C866  1  0.78180000  0.81320000  0.35080000  1.0 0.6087931255
C  C867  1  0.21820000  0.56900000  0.03140000  1.0 0.6087931255
C  C868  1  0.53760000  0.18680000  0.96860000  1.0 0.6087931255
C  C869  1  0.64920000  0.46240000  0.43100000  1.0 0.6087931255
C  C870  1  0.35080000  0.78180000  0.81320000  1.0 0.6087931255
C  C871  1  0.03140000  0.21820000  0.56900000  1.0 0.6087931255
C  C872  1  0.96860000  0.53760000  0.18680000  1.0 0.6087931255
C  C873  1  0.43100000  0.64920000  0.46240000  1.0 0.6087931255
C  C874  1  0.81320000  0.35080000  0.78180000  1.0 0.6087931255
C  C875  1  0.56900000  0.03140000  0.21820000  1.0 0.6087931255
C  C876  1  0.18680000  0.96860000  0.53760000  1.0 0.6087931255
C  C877  1  0.18680000  0.21820000  0.64920000  1.0 0.6087931255
C  C878  1  0.56900000  0.53760000  0.35080000  1.0 0.6087931255
C  C879  1  0.81320000  0.46240000  0.03140000  1.0 0.6087931255
C  C880  1  0.43100000  0.78180000  0.96860000  1.0 0.6087931255
C  C881  1  0.78180000  0.96860000  0.43100000  1.0 0.6087931255
C  C882  1  0.46240000  0.03140000  0.81320000  1.0 0.6087931255
C  C883  1  0.53760000  0.35080000  0.56900000  1.0 0.6087931255
C  C884  1  0.21820000  0.64920000  0.18680000  1.0 0.6087931255
C  C885  1  0.03140000  0.81320000  0.46240000  1.0 0.6087931255
C  C886  1  0.96860000  0.43100000  0.78180000  1.0 0.6087931255
C  C887  1  0.64920000  0.18680000  0.21820000  1.0 0.6087931255
C  C888  1  0.35080000  0.56900000  0.53760000  1.0 0.6087931255
C  C889  1  0.53760000  0.56900000  0.35080000  1.0 0.6087931255
C  C890  1  0.21820000  0.18680000  0.64920000  1.0 0.6087931255
C  C891  1  0.78180000  0.43100000  0.96860000  1.0 0.6087931255
C  C892  1  0.46240000  0.81320000  0.03140000  1.0 0.6087931255
C  C893  1  0.35080000  0.53760000  0.56900000  1.0 0.6087931255
C  C894  1  0.64920000  0.21820000  0.18680000  1.0 0.6087931255
C  C895  1  0.96860000  0.78180000  0.43100000  1.0 0.6087931255
C  C896  1  0.03140000  0.46240000  0.81320000  1.0 0.6087931255
C  C897  1  0.56900000  0.35080000  0.53760000  1.0 0.6087931255
C  C898  1  0.18680000  0.64920000  0.21820000  1.0 0.6087931255
C  C899  1  0.43100000  0.96860000  0.78180000  1.0 0.6087931255
C  C900  1  0.81320000  0.03140000  0.46240000  1.0 0.6087931255
C  C901  1  0.81320000  0.78180000  0.35080000  1.0 0.6087931255
C  C902  1  0.43100000  0.46240000  0.64920000  1.0 0.6087931255
C  C903  1  0.18680000  0.53760000  0.96860000  1.0 0.6087931255
C  C904  1  0.56900000  0.21820000  0.03140000  1.0 0.6087931255
C  C905  1  0.21820000  0.03140000  0.56900000  1.0 0.6087931255
C  C906  1  0.53760000  0.96860000  0.18680000  1.0 0.6087931255
C  C907  1  0.46240000  0.64920000  0.43100000  1.0 0.6087931255
C  C908  1  0.78180000  0.35080000  0.81320000  1.0 0.6087931255
C  C909  1  0.96860000  0.18680000  0.53760000  1.0 0.6087931255
C  C910  1  0.03140000  0.56900000  0.21820000  1.0 0.6087931255
C  C911  1  0.35080000  0.81320000  0.78180000  1.0 0.6087931255
C  C912  1  0.64920000  0.43100000  0.46240000  1.0 0.6087931255
C  C913  1  0.47760000  0.37590000  0.63410000  1.0 -0.0445605352
C  C914  1  0.74180000  0.84350000  0.36590000  1.0 -0.0455948626
C  C915  1  0.25820000  0.62410000  0.10170000  1.0 -0.0445605352
C  C916  1  0.52240000  0.15650000  0.89830000  1.0 -0.0445605352
C  C917  1  0.63410000  0.47760000  0.37590000  1.0 -0.0445605352
C  C918  1  0.36590000  0.74180000  0.84350000  1.0 -0.0445605352
C  C919  1  0.10170000  0.25820000  0.62410000  1.0 -0.0445605352
C  C920  1  0.89830000  0.52240000  0.15650000  1.0 -0.0445605352
C  C921  1  0.37590000  0.63410000  0.47760000  1.0 -0.0445605352
C  C922  1  0.84350000  0.36590000  0.74180000  1.0 -0.0445605352
C  C923  1  0.62410000  0.10170000  0.25820000  1.0 -0.0445605352
C  C924  1  0.15650000  0.89830000  0.52240000  1.0 -0.0445605352
C  C925  1  0.15650000  0.25820000  0.63410000  1.0 -0.0445605352
C  C926  1  0.62410000  0.52240000  0.36590000  1.0 -0.0445605352
C  C927  1  0.84350000  0.47760000  0.10170000  1.0 -0.0445605352
C  C928  1  0.37590000  0.74180000  0.89830000  1.0 -0.0445605352
C  C929  1  0.74180000  0.89830000  0.37590000  1.0 -0.0445605352
C  C930  1  0.47760000  0.10170000  0.84350000  1.0 -0.0445605352
C  C931  1  0.52240000  0.36590000  0.62410000  1.0 -0.0445605352
C  C932  1  0.25820000  0.63410000  0.15650000  1.0 -0.0445605352
C  C933  1  0.10170000  0.84350000  0.47760000  1.0 -0.0445605352
C  C934  1  0.89830000  0.37590000  0.74180000  1.0 -0.0445605352
C  C935  1  0.63410000  0.15650000  0.25820000  1.0 -0.0445605352
C  C936  1  0.36590000  0.62410000  0.52240000  1.0 -0.0445605352
C  C937  1  0.52240000  0.62410000  0.36590000  1.0 -0.0445605352
C  C938  1  0.25820000  0.15650000  0.63410000  1.0 -0.0445605352
C  C939  1  0.74180000  0.37590000  0.89830000  1.0 -0.0445605352
C  C940  1  0.47760000  0.84350000  0.10170000  1.0 -0.0445605352
C  C941  1  0.36590000  0.52240000  0.62410000  1.0 -0.0445605352
C  C942  1  0.63410000  0.25820000  0.15650000  1.0 -0.0445605352
C  C943  1  0.89830000  0.74180000  0.37590000  1.0 -0.0455948626
C  C944  1  0.10170000  0.47760000  0.84350000  1.0 -0.0445605352
C  C945  1  0.62410000  0.36590000  0.52240000  1.0 -0.0445605352
C  C946  1  0.15650000  0.63410000  0.25820000  1.0 -0.0445605352
C  C947  1  0.37590000  0.89830000  0.74180000  1.0 -0.0455948626
C  C948  1  0.84350000  0.10170000  0.47760000  1.0 -0.0445605352
C  C949  1  0.84350000  0.74180000  0.36590000  1.0 -0.0445605352
C  C950  1  0.37590000  0.47760000  0.63410000  1.0 -0.0445605352
C  C951  1  0.15650000  0.52240000  0.89830000  1.0 -0.0445605352
C  C952  1  0.62410000  0.25820000  0.10170000  1.0 -0.0445605352
C  C953  1  0.25820000  0.10170000  0.62410000  1.0 -0.0445605352
C  C954  1  0.52240000  0.89830000  0.15650000  1.0 -0.0445605352
C  C955  1  0.47760000  0.63410000  0.37590000  1.0 -0.0445605352
C  C956  1  0.74180000  0.36590000  0.84350000  1.0 -0.0445605352
C  C957  1  0.89830000  0.15650000  0.52240000  1.0 -0.0445605352
C  C958  1  0.10170000  0.62410000  0.25820000  1.0 -0.0445605352
C  C959  1  0.36590000  0.84350000  0.74180000  1.0 -0.0445605352
C  C960  1  0.63410000  0.37590000  0.47760000  1.0 -0.0445605352
C  C961  1  0.43330000  0.33420000  0.57790000  1.0 -0.1417155927
C  C962  1  0.75630000  0.85540000  0.42210000  1.0 -0.1417155927
C  C963  1  0.24370000  0.66580000  0.09910000  1.0 -0.1417155927
C  C964  1  0.56670000  0.14460000  0.90090000  1.0 -0.1417155927
C  C965  1  0.57790000  0.43330000  0.33420000  1.0 -0.1417155927
C  C966  1  0.42210000  0.75630000  0.85540000  1.0 -0.1417155927
C  C967  1  0.09910000  0.24370000  0.66580000  1.0 -0.1417155927
C  C968  1  0.90090000  0.56670000  0.14460000  1.0 -0.1417155927
C  C969  1  0.33420000  0.57790000  0.43330000  1.0 -0.1417155927
C  C970  1  0.85540000  0.42210000  0.75630000  1.0 -0.1417155927
C  C971  1  0.66580000  0.09910000  0.24370000  1.0 -0.1417155927
C  C972  1  0.14460000  0.90090000  0.56670000  1.0 -0.1417155927
C  C973  1  0.14460000  0.24370000  0.57790000  1.0 -0.1417155927
C  C974  1  0.66580000  0.56670000  0.42210000  1.0 -0.1417155927
C  C975  1  0.85540000  0.43330000  0.09910000  1.0 -0.1417155927
C  C976  1  0.33420000  0.75630000  0.90090000  1.0 -0.1417155927
C  C977  1  0.75630000  0.90090000  0.33420000  1.0 -0.1417155927
C  C978  1  0.43330000  0.09910000  0.85540000  1.0 -0.1417155927
C  C979  1  0.56670000  0.42210000  0.66580000  1.0 -0.1417155927
C  C980  1  0.24370000  0.57790000  0.14460000  1.0 -0.1417155927
C  C981  1  0.09910000  0.85540000  0.43330000  1.0 -0.1417155927
C  C982  1  0.90090000  0.33420000  0.75630000  1.0 -0.1417155927
C  C983  1  0.57790000  0.14460000  0.24370000  1.0 -0.1417155927
C  C984  1  0.42210000  0.66580000  0.56670000  1.0 -0.1417155927
C  C985  1  0.56670000  0.66580000  0.42210000  1.0 -0.1417155927
C  C986  1  0.24370000  0.14460000  0.57790000  1.0 -0.1417155927
C  C987  1  0.75630000  0.33420000  0.90090000  1.0 -0.1417155927
C  C988  1  0.43330000  0.85540000  0.09910000  1.0 -0.1417155927
C  C989  1  0.42210000  0.56670000  0.66580000  1.0 -0.1417155927
C  C990  1  0.57790000  0.24370000  0.14460000  1.0 -0.1417155927
C  C991  1  0.90090000  0.75630000  0.33420000  1.0 -0.1417155927
C  C992  1  0.09910000  0.43330000  0.85540000  1.0 -0.1417155927
C  C993  1  0.66580000  0.42210000  0.56670000  1.0 -0.1417155927
C  C994  1  0.14460000  0.57790000  0.24370000  1.0 -0.1417155927
C  C995  1  0.33420000  0.90090000  0.75630000  1.0 -0.1417155927
C  C996  1  0.85540000  0.09910000  0.43330000  1.0 -0.1417155927
C  C997  1  0.85540000  0.75630000  0.42210000  1.0 -0.1417155927
C  C998  1  0.33420000  0.43330000  0.57790000  1.0 -0.1417155927
C  C999  1  0.14460000  0.56670000  0.90090000  1.0 -0.1417155927
C  C1000  1  0.66580000  0.24370000  0.09910000  1.0 -0.1417155927
C  C1001  1  0.24370000  0.09910000  0.66580000  1.0 -0.1417155927
C  C1002  1  0.56670000  0.90090000  0.14460000  1.0 -0.1417155927
C  C1003  1  0.43330000  0.57790000  0.33420000  1.0 -0.1417155927
C  C1004  1  0.75630000  0.42210000  0.85540000  1.0 -0.1417155927
C  C1005  1  0.90090000  0.14460000  0.56670000  1.0 -0.1417155927
C  C1006  1  0.09910000  0.66580000  0.24370000  1.0 -0.1417155927
C  C1007  1  0.42210000  0.85540000  0.75630000  1.0 -0.1417155927
C  C1008  1  0.57790000  0.33420000  0.43330000  1.0 -0.1417155927
S  S1  1  0.51978000  0.40603000  0.75473000  1.0 0.1767511475
S  S2  1  0.65130000  0.76505000  0.24527000  1.0 0.1767511475
S  S3  1  0.34870000  0.59397000  0.11375000  1.0 0.1707356056
S  S4  1  0.48022000  0.23495000  0.88625000  1.0 0.1767511475
S  S5  1  0.75473000  0.51978000  0.40603000  1.0 0.1767511475
S  S6  1  0.24527000  0.65130000  0.76505000  1.0 0.1767511475
S  S7  1  0.11375000  0.34870000  0.59397000  1.0 0.1767511475
S  S8  1  0.88625000  0.48022000  0.23495000  1.0 0.1707356056
S  S9  1  0.40603000  0.75473000  0.51978000  1.0 0.1767511475
S  S10  1  0.76505000  0.24527000  0.65130000  1.0 0.1767511475
S  S11  1  0.59397000  0.11375000  0.34870000  1.0 0.1767511475
S  S12  1  0.23495000  0.88625000  0.48022000  1.0 0.1707356056
S  S13  1  0.23495000  0.34870000  0.75473000  1.0 0.1767511475
S  S14  1  0.59397000  0.48022000  0.24527000  1.0 0.1767511475
S  S15  1  0.76505000  0.51978000  0.11375000  1.0 0.1767511475
S  S16  1  0.40603000  0.65130000  0.88625000  1.0 0.1767511475
S  S17  1  0.65130000  0.88625000  0.40603000  1.0 0.1707356056
S  S18  1  0.51978000  0.11375000  0.76505000  1.0 0.1767511475
S  S19  1  0.48022000  0.24527000  0.59397000  1.0 0.1767511475
S  S20  1  0.34870000  0.75473000  0.23495000  1.0 0.1707356056
S  S21  1  0.11375000  0.76505000  0.51978000  1.0 0.1767511475
S  S22  1  0.88625000  0.40603000  0.65130000  1.0 0.1767511475
S  S23  1  0.75473000  0.23495000  0.34870000  1.0 0.1767511475
S  S24  1  0.24527000  0.59397000  0.48022000  1.0 0.1707356056
S  S25  1  0.48022000  0.59397000  0.24527000  1.0 0.1707356056
S  S26  1  0.34870000  0.23495000  0.75473000  1.0 0.1767511475
S  S27  1  0.65130000  0.40603000  0.88625000  1.0 0.1767511475
S  S28  1  0.51978000  0.76505000  0.11375000  1.0 0.1707356056
S  S29  1  0.24527000  0.48022000  0.59397000  1.0 0.1767511475
S  S30  1  0.75473000  0.34870000  0.23495000  1.0 0.1767511475
S  S31  1  0.88625000  0.65130000  0.40603000  1.0 0.1767511475
S  S32  1  0.11375000  0.51978000  0.76505000  1.0 0.1767511475
S  S33  1  0.59397000  0.24527000  0.48022000  1.0 0.1767511475
S  S34  1  0.23495000  0.75473000  0.34870000  1.0 0.1767511475
S  S35  1  0.40603000  0.88625000  0.65130000  1.0 0.1767511475
S  S36  1  0.76505000  0.11375000  0.51978000  1.0 0.1767511475
S  S37  1  0.76505000  0.65130000  0.24527000  1.0 0.1767511475
S  S38  1  0.40603000  0.51978000  0.75473000  1.0 0.1767511475
S  S39  1  0.23495000  0.48022000  0.88625000  1.0 0.1767511475
S  S40  1  0.59397000  0.34870000  0.11375000  1.0 0.1707356056
S  S41  1  0.34870000  0.11375000  0.59397000  1.0 0.1767511475
S  S42  1  0.48022000  0.88625000  0.23495000  1.0 0.1707356056
S  S43  1  0.51978000  0.75473000  0.40603000  1.0 0.1767511475
S  S44  1  0.65130000  0.24527000  0.76505000  1.0 0.1767511475
S  S45  1  0.88625000  0.23495000  0.48022000  1.0 0.1767511475
S  S46  1  0.11375000  0.59397000  0.34870000  1.0 0.1767511475
S  S47  1  0.24527000  0.76505000  0.65130000  1.0 0.1707356056
S  S48  1  0.75473000  0.40603000  0.51978000  1.0 0.1767511475
S  S49  1  0.50000000  0.41277000  0.58723000  1.0 0.1570426472
S  S50  1  0.82554000  0.91277000  0.41277000  1.0 0.1570426472
S  S51  1  0.17446000  0.58723000  0.08723000  1.0 0.1570426472
S  S52  1  0.50000000  0.08723000  0.91277000  1.0 0.1570426472
S  S53  1  0.58723000  0.50000000  0.41277000  1.0 0.1570426472
S  S54  1  0.41277000  0.82554000  0.91277000  1.0 0.1570426472
S  S55  1  0.08723000  0.17446000  0.58723000  1.0 0.1570426472
S  S56  1  0.91277000  0.50000000  0.08723000  1.0 0.1570426472
S  S57  1  0.41277000  0.58723000  0.50000000  1.0 0.1570426472
S  S58  1  0.91277000  0.41277000  0.82554000  1.0 0.1570426472
S  S59  1  0.58723000  0.08723000  0.17446000  1.0 0.1570426472
S  S60  1  0.08723000  0.91277000  0.50000000  1.0 0.1570426472
S  S61  1  0.50000000  0.58723000  0.41277000  1.0 0.1570426472
S  S62  1  0.17446000  0.08723000  0.58723000  1.0 0.1570426472
S  S63  1  0.82554000  0.41277000  0.91277000  1.0 0.1570426472
S  S64  1  0.50000000  0.91277000  0.08723000  1.0 0.1570426472
S  S65  1  0.41277000  0.50000000  0.58723000  1.0 0.1570426472
S  S66  1  0.58723000  0.17446000  0.08723000  1.0 0.1570426472
S  S67  1  0.91277000  0.82554000  0.41277000  1.0 0.1570426472
S  S68  1  0.08723000  0.50000000  0.91277000  1.0 0.1570426472
S  S69  1  0.58723000  0.41277000  0.50000000  1.0 0.1570426472
S  S70  1  0.08723000  0.58723000  0.17446000  1.0 0.1570426472
S  S71  1  0.41277000  0.91277000  0.82554000  1.0 0.1570426472
S  S72  1  0.91277000  0.08723000  0.50000000  1.0 0.1570426472
S  S73  1  0.65986000  0.58136000  0.65986000  1.0 0.1511654106
S  S74  1  0.92150000  0.00000000  0.34014000  1.0 0.1511654106
S  S75  1  0.07850000  0.41864000  0.07850000  1.0 0.1511654106
S  S76  1  0.34014000  0.00000000  0.92150000  1.0 0.1511654106
S  S77  1  0.65986000  0.65986000  0.58136000  1.0 0.1511654106
S  S78  1  0.34014000  0.92150000  0.00000000  1.0 0.1511654106
S  S79  1  0.07850000  0.07850000  0.41864000  1.0 0.1511654106
S  S80  1  0.92150000  0.34014000  0.00000000  1.0 0.1511654106
S  S81  1  0.58136000  0.65986000  0.65986000  1.0 0.1511654106
S  S82  1  0.00000000  0.34014000  0.92150000  1.0 0.1511654106
S  S83  1  0.41864000  0.07850000  0.07850000  1.0 0.1511654106
S  S84  1  0.00000000  0.92150000  0.34014000  1.0 0.1511654106
S  S85  1  0.00000000  0.07850000  0.65986000  1.0 0.1511654106
S  S86  1  0.41864000  0.34014000  0.34014000  1.0 0.1511654106
S  S87  1  0.00000000  0.65986000  0.07850000  1.0 0.1511654106
S  S88  1  0.58136000  0.92150000  0.92150000  1.0 0.1511654106
S  S89  1  0.92150000  0.92150000  0.58136000  1.0 0.1511654106
S  S90  1  0.65986000  0.07850000  0.00000000  1.0 0.1511654106
S  S91  1  0.34014000  0.34014000  0.41864000  1.0 0.1511654106
S  S92  1  0.07850000  0.65986000  0.00000000  1.0 0.1511654106
S  S93  1  0.07850000  0.00000000  0.65986000  1.0 0.1511654106
S  S94  1  0.92150000  0.58136000  0.92150000  1.0 0.1511654106
S  S95  1  0.65986000  0.00000000  0.07850000  1.0 0.1511654106
S  S96  1  0.34014000  0.41864000  0.34014000  1.0 0.1511654106
S  S97  1  0.69185000  0.57509000  0.88324000  1.0 0.2467251432
S  S98  1  0.69185000  0.80861000  0.11676000  1.0 0.2467251432
S  S99  1  0.30815000  0.42491000  0.11676000  1.0 0.2608544635
S  S100  1  0.30815000  0.19139000  0.88324000  1.0 0.2467251432
S  S101  1  0.88324000  0.69185000  0.57509000  1.0 0.2443498718
S  S102  1  0.11676000  0.69185000  0.80861000  1.0 0.2467251432
S  S103  1  0.11676000  0.30815000  0.42491000  1.0 0.2467251432
S  S104  1  0.88324000  0.30815000  0.19139000  1.0 0.2467251432
S  S105  1  0.57509000  0.88324000  0.69185000  1.0 0.2467251432
S  S106  1  0.80861000  0.11676000  0.69185000  1.0 0.2443498718
S  S107  1  0.42491000  0.11676000  0.30815000  1.0 0.2467251432
S  S108  1  0.19139000  0.88324000  0.30815000  1.0 0.2467251432
S  S109  1  0.19139000  0.30815000  0.88324000  1.0 0.2467251432
S  S110  1  0.42491000  0.30815000  0.11676000  1.0 0.2467251432
S  S111  1  0.80861000  0.69185000  0.11676000  1.0 0.2608544635
S  S112  1  0.57509000  0.69185000  0.88324000  1.0 0.2467251432
S  S113  1  0.69185000  0.88324000  0.57509000  1.0 0.2467251432
S  S114  1  0.69185000  0.11676000  0.80861000  1.0 0.2467251432
S  S115  1  0.30815000  0.11676000  0.42491000  1.0 0.2467251432
S  S116  1  0.30815000  0.88324000  0.19139000  1.0 0.2467251432
S  S117  1  0.11676000  0.80861000  0.69185000  1.0 0.2608544635
S  S118  1  0.88324000  0.57509000  0.69185000  1.0 0.2608544635
S  S119  1  0.88324000  0.19139000  0.30815000  1.0 0.2467251432
S  S120  1  0.11676000  0.42491000  0.30815000  1.0 0.2608544635
S  S121  1  0.42000000  0.36446000  0.58686000  1.0 0.1707356056
S  S122  1  0.77760000  0.83314000  0.41314000  1.0 0.1707356056
S  S123  1  0.22240000  0.63554000  0.05554000  1.0 0.1707356056
S  S124  1  0.58000000  0.16686000  0.94446000  1.0 0.1707356056
S  S125  1  0.58686000  0.42000000  0.36446000  1.0 0.1707356056
S  S126  1  0.41314000  0.77760000  0.83314000  1.0 0.1707356056
S  S127  1  0.05554000  0.22240000  0.63554000  1.0 0.1707356056
S  S128  1  0.94446000  0.58000000  0.16686000  1.0 0.1707356056
S  S129  1  0.36446000  0.58686000  0.42000000  1.0 0.1707356056
S  S130  1  0.83314000  0.41314000  0.77760000  1.0 0.1707356056
S  S131  1  0.63554000  0.05554000  0.22240000  1.0 0.1707356056
S  S132  1  0.16686000  0.94446000  0.58000000  1.0 0.1707356056
S  S133  1  0.16686000  0.22240000  0.58686000  1.0 0.1707356056
S  S134  1  0.63554000  0.58000000  0.41314000  1.0 0.1707356056
S  S135  1  0.83314000  0.42000000  0.05554000  1.0 0.1707356056
S  S136  1  0.36446000  0.77760000  0.94446000  1.0 0.1707356056
S  S137  1  0.77760000  0.94446000  0.36446000  1.0 0.1707356056
S  S138  1  0.42000000  0.05554000  0.83314000  1.0 0.1707356056
S  S139  1  0.58000000  0.41314000  0.63554000  1.0 0.1707356056
S  S140  1  0.22240000  0.58686000  0.16686000  1.0 0.1707356056
S  S141  1  0.05554000  0.83314000  0.42000000  1.0 0.1707356056
S  S142  1  0.94446000  0.36446000  0.77760000  1.0 0.1707356056
S  S143  1  0.58686000  0.16686000  0.22240000  1.0 0.1707356056
S  S144  1  0.41314000  0.63554000  0.58000000  1.0 0.1707356056
S  S145  1  0.58000000  0.63554000  0.41314000  1.0 0.1707356056
S  S146  1  0.22240000  0.16686000  0.58686000  1.0 0.1707356056
S  S147  1  0.77760000  0.36446000  0.94446000  1.0 0.1707356056
S  S148  1  0.42000000  0.83314000  0.05554000  1.0 0.1707356056
S  S149  1  0.41314000  0.58000000  0.63554000  1.0 0.1707356056
S  S150  1  0.58686000  0.22240000  0.16686000  1.0 0.1707356056
S  S151  1  0.94446000  0.77760000  0.36446000  1.0 0.1707356056
S  S152  1  0.05554000  0.42000000  0.83314000  1.0 0.1707356056
S  S153  1  0.63554000  0.41314000  0.58000000  1.0 0.1707356056
S  S154  1  0.16686000  0.58686000  0.22240000  1.0 0.1707356056
S  S155  1  0.36446000  0.94446000  0.77760000  1.0 0.1707356056
S  S156  1  0.83314000  0.05554000  0.42000000  1.0 0.1707356056
S  S157  1  0.83314000  0.77760000  0.41314000  1.0 0.1707356056
S  S158  1  0.36446000  0.42000000  0.58686000  1.0 0.1707356056
S  S159  1  0.16686000  0.58000000  0.94446000  1.0 0.1707356056
S  S160  1  0.63554000  0.22240000  0.05554000  1.0 0.1707356056
S  S161  1  0.22240000  0.05554000  0.63554000  1.0 0.1707356056
S  S162  1  0.58000000  0.94446000  0.16686000  1.0 0.1707356056
S  S163  1  0.42000000  0.58686000  0.36446000  1.0 0.1707356056
S  S164  1  0.77760000  0.41314000  0.83314000  1.0 0.1707356056
S  S165  1  0.94446000  0.16686000  0.58000000  1.0 0.1707356056
S  S166  1  0.05554000  0.63554000  0.22240000  1.0 0.1707356056
S  S167  1  0.41314000  0.83314000  0.77760000  1.0 0.1707356056
S  S168  1  0.58686000  0.36446000  0.42000000  1.0 0.1707356056
O  O1  1  0.53928000  0.50337000  0.79351000  1.0 -0.5814035464
O  O2  1  0.70986000  0.74577000  0.20649000  1.0 -0.5710510995
O  O3  1  0.29014000  0.49663000  0.03591000  1.0 -0.5710510995
O  O4  1  0.46072000  0.25423000  0.96409000  1.0 -0.5814035464
O  O5  1  0.79351000  0.53928000  0.50337000  1.0 -0.5814035464
O  O6  1  0.20649000  0.70986000  0.74577000  1.0 -0.5814035464
O  O7  1  0.03591000  0.29014000  0.49663000  1.0 -0.5814035464
O  O8  1  0.96409000  0.46072000  0.25423000  1.0 -0.5814035464
O  O9  1  0.50337000  0.79351000  0.53928000  1.0 -0.5814035464
O  O10  1  0.74577000  0.20649000  0.70986000  1.0 -0.5814035464
O  O11  1  0.49663000  0.03591000  0.29014000  1.0 -0.5814035464
O  O12  1  0.25423000  0.96409000  0.46072000  1.0 -0.5814035464
O  O13  1  0.25423000  0.29014000  0.79351000  1.0 -0.5814035464
O  O14  1  0.49663000  0.46072000  0.20649000  1.0 -0.5814035464
O  O15  1  0.74577000  0.53928000  0.03591000  1.0 -0.5814035464
O  O16  1  0.50337000  0.70986000  0.96409000  1.0 -0.5814035464
O  O17  1  0.70986000  0.96409000  0.50337000  1.0 -0.5814035464
O  O18  1  0.53928000  0.03591000  0.74577000  1.0 -0.5814035464
O  O19  1  0.46072000  0.20649000  0.49663000  1.0 -0.5814035464
O  O20  1  0.29014000  0.79351000  0.25423000  1.0 -0.5814035464
O  O21  1  0.03591000  0.74577000  0.53928000  1.0 -0.5814035464
O  O22  1  0.96409000  0.50337000  0.70986000  1.0 -0.5814035464
O  O23  1  0.79351000  0.25423000  0.29014000  1.0 -0.5814035464
O  O24  1  0.20649000  0.49663000  0.46072000  1.0 -0.5814035464
O  O25  1  0.46072000  0.49663000  0.20649000  1.0 -0.5814035464
O  O26  1  0.29014000  0.25423000  0.79351000  1.0 -0.5814035464
O  O27  1  0.70986000  0.50337000  0.96409000  1.0 -0.5814035464
O  O28  1  0.53928000  0.74577000  0.03591000  1.0 -0.5814035464
O  O29  1  0.20649000  0.46072000  0.49663000  1.0 -0.5814035464
O  O30  1  0.79351000  0.29014000  0.25423000  1.0 -0.5814035464
O  O31  1  0.96409000  0.70986000  0.50337000  1.0 -0.5814035464
O  O32  1  0.03591000  0.53928000  0.74577000  1.0 -0.5814035464
O  O33  1  0.49663000  0.20649000  0.46072000  1.0 -0.5814035464
O  O34  1  0.25423000  0.79351000  0.29014000  1.0 -0.5814035464
O  O35  1  0.50337000  0.96409000  0.70986000  1.0 -0.5814035464
O  O36  1  0.74577000  0.03591000  0.53928000  1.0 -0.5814035464
O  O37  1  0.74577000  0.70986000  0.20649000  1.0 -0.5814035464
O  O38  1  0.50337000  0.53928000  0.79351000  1.0 -0.5814035464
O  O39  1  0.25423000  0.46072000  0.96409000  1.0 -0.5814035464
O  O40  1  0.49663000  0.29014000  0.03591000  1.0 -0.5710510995
O  O41  1  0.29014000  0.03591000  0.49663000  1.0 -0.5814035464
O  O42  1  0.46072000  0.96409000  0.25423000  1.0 -0.5814035464
O  O43  1  0.53928000  0.79351000  0.50337000  1.0 -0.5814035464
O  O44  1  0.70986000  0.20649000  0.74577000  1.0 -0.5814035464
O  O45  1  0.96409000  0.25423000  0.46072000  1.0 -0.5814035464
O  O46  1  0.03591000  0.49663000  0.29014000  1.0 -0.5814035464
O  O47  1  0.20649000  0.74577000  0.70986000  1.0 -0.5814035464
O  O48  1  0.79351000  0.50337000  0.53928000  1.0 -0.5814035464
O  O49  1  0.53547000  0.46652000  0.74431000  1.0 -0.5814035464
O  O50  1  0.72221000  0.79116000  0.25569000  1.0 -0.5814035464
O  O51  1  0.27779000  0.53348000  0.06895000  1.0 -0.5814035464
O  O52  1  0.46453000  0.20884000  0.93105000  1.0 -0.5814035464
O  O53  1  0.74431000  0.53547000  0.46652000  1.0 -0.5814035464
O  O54  1  0.25569000  0.72221000  0.79116000  1.0 -0.5814035464
O  O55  1  0.06895000  0.27779000  0.53348000  1.0 -0.5814035464
O  O56  1  0.93105000  0.46453000  0.20884000  1.0 -0.5814035464
O  O57  1  0.46652000  0.74431000  0.53547000  1.0 -0.5814035464
O  O58  1  0.79116000  0.25569000  0.72221000  1.0 -0.5814035464
O  O59  1  0.53348000  0.06895000  0.27779000  1.0 -0.5814035464
O  O60  1  0.20884000  0.93105000  0.46453000  1.0 -0.5814035464
O  O61  1  0.20884000  0.27779000  0.74431000  1.0 -0.5814035464
O  O62  1  0.53348000  0.46453000  0.25569000  1.0 -0.5814035464
O  O63  1  0.79116000  0.53547000  0.06895000  1.0 -0.5814035464
O  O64  1  0.46652000  0.72221000  0.93105000  1.0 -0.5814035464
O  O65  1  0.72221000  0.93105000  0.46652000  1.0 -0.5814035464
O  O66  1  0.53547000  0.06895000  0.79116000  1.0 -0.5814035464
O  O67  1  0.46453000  0.25569000  0.53348000  1.0 -0.5814035464
O  O68  1  0.27779000  0.74431000  0.20884000  1.0 -0.5814035464
O  O69  1  0.06895000  0.79116000  0.53547000  1.0 -0.5814035464
O  O70  1  0.93105000  0.46652000  0.72221000  1.0 -0.5814035464
O  O71  1  0.74431000  0.20884000  0.27779000  1.0 -0.5814035464
O  O72  1  0.25569000  0.53348000  0.46453000  1.0 -0.5814035464
O  O73  1  0.46453000  0.53348000  0.25569000  1.0 -0.5814035464
O  O74  1  0.27779000  0.20884000  0.74431000  1.0 -0.5814035464
O  O75  1  0.72221000  0.46652000  0.93105000  1.0 -0.5814035464
O  O76  1  0.53547000  0.79116000  0.06895000  1.0 -0.5814035464
O  O77  1  0.25569000  0.46453000  0.53348000  1.0 -0.5814035464
O  O78  1  0.74431000  0.27779000  0.20884000  1.0 -0.5814035464
O  O79  1  0.93105000  0.72221000  0.46652000  1.0 -0.5814035464
O  O80  1  0.06895000  0.53547000  0.79116000  1.0 -0.5814035464
O  O81  1  0.53348000  0.25569000  0.46453000  1.0 -0.5814035464
O  O82  1  0.20884000  0.74431000  0.27779000  1.0 -0.5814035464
O  O83  1  0.46652000  0.93105000  0.72221000  1.0 -0.5814035464
O  O84  1  0.79116000  0.06895000  0.53547000  1.0 -0.5814035464
O  O85  1  0.79116000  0.72221000  0.25569000  1.0 -0.5814035464
O  O86  1  0.46652000  0.53547000  0.74431000  1.0 -0.5814035464
O  O87  1  0.20884000  0.46453000  0.93105000  1.0 -0.5814035464
O  O88  1  0.53348000  0.27779000  0.06895000  1.0 -0.5814035464
O  O89  1  0.27779000  0.06895000  0.53348000  1.0 -0.5814035464
O  O90  1  0.46453000  0.93105000  0.20884000  1.0 -0.5814035464
O  O91  1  0.53547000  0.74431000  0.46652000  1.0 -0.5814035464
O  O92  1  0.72221000  0.25569000  0.79116000  1.0 -0.5814035464
O  O93  1  0.93105000  0.20884000  0.46453000  1.0 -0.5814035464
O  O94  1  0.06895000  0.53348000  0.27779000  1.0 -0.5814035464
O  O95  1  0.25569000  0.79116000  0.72221000  1.0 -0.5814035464
O  O96  1  0.74431000  0.46652000  0.53547000  1.0 -0.5814035464
O  O97  1  0.50720000  0.33758000  0.74576000  1.0 -0.6163349316
O  O98  1  0.59182000  0.76144000  0.25424000  1.0 -0.612947361
O  O99  1  0.40818000  0.66242000  0.16962000  1.0 -0.6163349316
O  O100  1  0.49280000  0.23856000  0.83038000  1.0 -0.6163349316
O  O101  1  0.74576000  0.50720000  0.33758000  1.0 -0.6163349316
O  O102  1  0.25424000  0.59182000  0.76144000  1.0 -0.6163349316
O  O103  1  0.16962000  0.40818000  0.66242000  1.0 -0.6163349316
O  O104  1  0.83038000  0.49280000  0.23856000  1.0 -0.6163349316
O  O105  1  0.33758000  0.74576000  0.50720000  1.0 -0.612947361
O  O106  1  0.76144000  0.25424000  0.59182000  1.0 -0.6163349316
O  O107  1  0.66242000  0.16962000  0.40818000  1.0 -0.6163349316
O  O108  1  0.23856000  0.83038000  0.49280000  1.0 -0.6163349316
O  O109  1  0.23856000  0.40818000  0.74576000  1.0 -0.6163349316
O  O110  1  0.66242000  0.49280000  0.25424000  1.0 -0.6163349316
O  O111  1  0.76144000  0.50720000  0.16962000  1.0 -0.612947361
O  O112  1  0.33758000  0.59182000  0.83038000  1.0 -0.6163349316
O  O113  1  0.59182000  0.83038000  0.33758000  1.0 -0.612947361
O  O114  1  0.50720000  0.16962000  0.76144000  1.0 -0.6163349316
O  O115  1  0.49280000  0.25424000  0.66242000  1.0 -0.6163349316
O  O116  1  0.40818000  0.74576000  0.23856000  1.0 -0.612947361
O  O117  1  0.16962000  0.76144000  0.50720000  1.0 -0.612947361
O  O118  1  0.83038000  0.33758000  0.59182000  1.0 -0.6163349316
O  O119  1  0.74576000  0.23856000  0.40818000  1.0 -0.6163349316
O  O120  1  0.25424000  0.66242000  0.49280000  1.0 -0.612947361
O  O121  1  0.49280000  0.66242000  0.25424000  1.0 -0.6163349316
O  O122  1  0.40818000  0.23856000  0.74576000  1.0 -0.6163349316
O  O123  1  0.59182000  0.33758000  0.83038000  1.0 -0.6163349316
O  O124  1  0.50720000  0.76144000  0.16962000  1.0 -0.6163349316
O  O125  1  0.25424000  0.49280000  0.66242000  1.0 -0.6163349316
O  O126  1  0.74576000  0.40818000  0.23856000  1.0 -0.6163349316
O  O127  1  0.83038000  0.59182000  0.33758000  1.0 -0.6163349316
O  O128  1  0.16962000  0.50720000  0.76144000  1.0 -0.6163349316
O  O129  1  0.66242000  0.25424000  0.49280000  1.0 -0.6163349316
O  O130  1  0.23856000  0.74576000  0.40818000  1.0 -0.612947361
O  O131  1  0.33758000  0.83038000  0.59182000  1.0 -0.612947361
O  O132  1  0.76144000  0.16962000  0.50720000  1.0 -0.612947361
O  O133  1  0.76144000  0.59182000  0.25424000  1.0 -0.6163349316
O  O134  1  0.33758000  0.50720000  0.74576000  1.0 -0.6163349316
O  O135  1  0.23856000  0.49280000  0.83038000  1.0 -0.6163349316
O  O136  1  0.66242000  0.40818000  0.16962000  1.0 -0.6163349316
O  O137  1  0.40818000  0.16962000  0.66242000  1.0 -0.6163349316
O  O138  1  0.49280000  0.83038000  0.23856000  1.0 -0.612947361
O  O139  1  0.50720000  0.74576000  0.33758000  1.0 -0.612947361
O  O140  1  0.59182000  0.25424000  0.76144000  1.0 -0.6163349316
O  O141  1  0.83038000  0.23856000  0.49280000  1.0 -0.6163349316
O  O142  1  0.16962000  0.66242000  0.40818000  1.0 -0.612947361
O  O143  1  0.25424000  0.76144000  0.59182000  1.0 -0.6163349316
O  O144  1  0.74576000  0.33758000  0.50720000  1.0 -0.6163349316
O  O145  1  0.50153000  0.34327000  0.79306000  1.0 -0.5710510995
O  O146  1  0.55021000  0.70847000  0.20694000  1.0 -0.5710510995
O  O147  1  0.44979000  0.65673000  0.15826000  1.0 -0.5710510995
O  O148  1  0.49847000  0.29153000  0.84174000  1.0 -0.5710510995
O  O149  1  0.79306000  0.50153000  0.34327000  1.0 -0.5710510995
O  O150  1  0.20694000  0.55021000  0.70847000  1.0 -0.5710510995
O  O151  1  0.15826000  0.44979000  0.65673000  1.0 -0.5710510995
O  O152  1  0.84174000  0.49847000  0.29153000  1.0 -0.5710510995
O  O153  1  0.34327000  0.79306000  0.50153000  1.0 -0.5710510995
O  O154  1  0.70847000  0.20694000  0.55021000  1.0 -0.5710510995
O  O155  1  0.65673000  0.15826000  0.44979000  1.0 -0.5710510995
O  O156  1  0.29153000  0.84174000  0.49847000  1.0 -0.5710510995
O  O157  1  0.29153000  0.44979000  0.79306000  1.0 -0.5710510995
O  O158  1  0.65673000  0.49847000  0.20694000  1.0 -0.5710510995
O  O159  1  0.70847000  0.50153000  0.15826000  1.0 -0.5710510995
O  O160  1  0.34327000  0.55021000  0.84174000  1.0 -0.5710510995
O  O161  1  0.55021000  0.84174000  0.34327000  1.0 -0.5710510995
O  O162  1  0.50153000  0.15826000  0.70847000  1.0 -0.5710510995
O  O163  1  0.49847000  0.20694000  0.65673000  1.0 -0.5710510995
O  O164  1  0.44979000  0.79306000  0.29153000  1.0 -0.5710510995
O  O165  1  0.15826000  0.70847000  0.50153000  1.0 -0.5710510995
O  O166  1  0.84174000  0.34327000  0.55021000  1.0 -0.5710510995
O  O167  1  0.79306000  0.29153000  0.44979000  1.0 -0.5710510995
O  O168  1  0.20694000  0.65673000  0.49847000  1.0 -0.5710510995
O  O169  1  0.49847000  0.65673000  0.20694000  1.0 -0.5710510995
O  O170  1  0.44979000  0.29153000  0.79306000  1.0 -0.5710510995
O  O171  1  0.55021000  0.34327000  0.84174000  1.0 -0.5710510995
O  O172  1  0.50153000  0.70847000  0.15826000  1.0 -0.5710510995
O  O173  1  0.20694000  0.49847000  0.65673000  1.0 -0.5710510995
O  O174  1  0.79306000  0.44979000  0.29153000  1.0 -0.5710510995
O  O175  1  0.84174000  0.55021000  0.34327000  1.0 -0.5710510995
O  O176  1  0.15826000  0.50153000  0.70847000  1.0 -0.5710510995
O  O177  1  0.65673000  0.20694000  0.49847000  1.0 -0.5710510995
O  O178  1  0.29153000  0.79306000  0.44979000  1.0 -0.5710510995
O  O179  1  0.34327000  0.84174000  0.55021000  1.0 -0.5710510995
O  O180  1  0.70847000  0.15826000  0.50153000  1.0 -0.5710510995
O  O181  1  0.70847000  0.55021000  0.20694000  1.0 -0.5710510995
O  O182  1  0.34327000  0.50153000  0.79306000  1.0 -0.5710510995
O  O183  1  0.29153000  0.49847000  0.84174000  1.0 -0.5710510995
O  O184  1  0.65673000  0.44979000  0.15826000  1.0 -0.5710510995
O  O185  1  0.44979000  0.15826000  0.65673000  1.0 -0.5710510995
O  O186  1  0.49847000  0.84174000  0.29153000  1.0 -0.5710510995
O  O187  1  0.50153000  0.79306000  0.34327000  1.0 -0.5710510995
O  O188  1  0.55021000  0.20694000  0.70847000  1.0 -0.5710510995
O  O189  1  0.84174000  0.29153000  0.49847000  1.0 -0.5710510995
O  O190  1  0.15826000  0.65673000  0.44979000  1.0 -0.5710510995
O  O191  1  0.20694000  0.70847000  0.55021000  1.0 -0.5710510995
O  O192  1  0.79306000  0.34327000  0.50153000  1.0 -0.5710510995
O  O193  1  0.53196000  0.47070000  0.65696000  1.0 -0.6020965765
O  O194  1  0.81374000  0.87500000  0.34304000  1.0 -0.6020965765
O  O195  1  0.18626000  0.52930000  0.06126000  1.0 -0.6020965765
O  O196  1  0.46804000  0.12500000  0.93874000  1.0 -0.6020965765
O  O197  1  0.65696000  0.53196000  0.47070000  1.0 -0.6020965765
O  O198  1  0.34304000  0.81374000  0.87500000  1.0 -0.6020965765
O  O199  1  0.06126000  0.18626000  0.52930000  1.0 -0.6020965765
O  O200  1  0.93874000  0.46804000  0.12500000  1.0 -0.6020965765
O  O201  1  0.47070000  0.65696000  0.53196000  1.0 -0.6020965765
O  O202  1  0.87500000  0.34304000  0.81374000  1.0 -0.6020965765
O  O203  1  0.52930000  0.06126000  0.18626000  1.0 -0.6020965765
O  O204  1  0.12500000  0.93874000  0.46804000  1.0 -0.6020965765
O  O205  1  0.12500000  0.18626000  0.65696000  1.0 -0.6020965765
O  O206  1  0.52930000  0.46804000  0.34304000  1.0 -0.6020965765
O  O207  1  0.87500000  0.53196000  0.06126000  1.0 -0.6020965765
O  O208  1  0.47070000  0.81374000  0.93874000  1.0 -0.6020965765
O  O209  1  0.81374000  0.93874000  0.47070000  1.0 -0.6020965765
O  O210  1  0.53196000  0.06126000  0.87500000  1.0 -0.6020965765
O  O211  1  0.46804000  0.34304000  0.52930000  1.0 -0.6020965765
O  O212  1  0.18626000  0.65696000  0.12500000  1.0 -0.6020965765
O  O213  1  0.06126000  0.87500000  0.53196000  1.0 -0.6020965765
O  O214  1  0.93874000  0.47070000  0.81374000  1.0 -0.6020965765
O  O215  1  0.65696000  0.12500000  0.18626000  1.0 -0.6020965765
O  O216  1  0.34304000  0.52930000  0.46804000  1.0 -0.6020965765
O  O217  1  0.46804000  0.52930000  0.34304000  1.0 -0.6020965765
O  O218  1  0.18626000  0.12500000  0.65696000  1.0 -0.6020965765
O  O219  1  0.81374000  0.47070000  0.93874000  1.0 -0.6020965765
O  O220  1  0.53196000  0.87500000  0.06126000  1.0 -0.6020965765
O  O221  1  0.34304000  0.46804000  0.52930000  1.0 -0.6020965765
O  O222  1  0.65696000  0.18626000  0.12500000  1.0 -0.6020965765
O  O223  1  0.93874000  0.81374000  0.47070000  1.0 -0.6020965765
O  O224  1  0.06126000  0.53196000  0.87500000  1.0 -0.6020965765
O  O225  1  0.52930000  0.34304000  0.46804000  1.0 -0.6020965765
O  O226  1  0.12500000  0.65696000  0.18626000  1.0 -0.6020965765
O  O227  1  0.47070000  0.93874000  0.81374000  1.0 -0.6020965765
O  O228  1  0.87500000  0.06126000  0.53196000  1.0 -0.6020965765
O  O229  1  0.87500000  0.81374000  0.34304000  1.0 -0.6020965765
O  O230  1  0.47070000  0.53196000  0.65696000  1.0 -0.6020965765
O  O231  1  0.12500000  0.46804000  0.93874000  1.0 -0.6020965765
O  O232  1  0.52930000  0.18626000  0.06126000  1.0 -0.6020965765
O  O233  1  0.18626000  0.06126000  0.52930000  1.0 -0.6020965765
O  O234  1  0.46804000  0.93874000  0.12500000  1.0 -0.6020965765
O  O235  1  0.53196000  0.65696000  0.47070000  1.0 -0.6020965765
O  O236  1  0.81374000  0.34304000  0.87500000  1.0 -0.6020965765
O  O237  1  0.93874000  0.12500000  0.46804000  1.0 -0.6020965765
O  O238  1  0.06126000  0.52930000  0.18626000  1.0 -0.6020965765
O  O239  1  0.34304000  0.87500000  0.81374000  1.0 -0.6020965765
O  O240  1  0.65696000  0.47070000  0.53196000  1.0 -0.6020965765
O  O241  1  0.54897000  0.51488000  0.64507000  1.0 -0.5710510995
O  O242  1  0.86981000  0.90390000  0.35493000  1.0 -0.5710510995
O  O243  1  0.13019000  0.48512000  0.03409000  1.0 -0.5710510995
O  O244  1  0.45103000  0.09610000  0.96591000  1.0 -0.5710510995
O  O245  1  0.64507000  0.54897000  0.51488000  1.0 -0.5710510995
O  O246  1  0.35493000  0.86981000  0.90390000  1.0 -0.5710510995
O  O247  1  0.03409000  0.13019000  0.48512000  1.0 -0.5710510995
O  O248  1  0.96591000  0.45103000  0.09610000  1.0 -0.5710510995
O  O249  1  0.51488000  0.64507000  0.54897000  1.0 -0.5710510995
O  O250  1  0.90390000  0.35493000  0.86981000  1.0 -0.5710510995
O  O251  1  0.48512000  0.03409000  0.13019000  1.0 -0.5710510995
O  O252  1  0.09610000  0.96591000  0.45103000  1.0 -0.5814035464
O  O253  1  0.09610000  0.13019000  0.64507000  1.0 -0.5710510995
O  O254  1  0.48512000  0.45103000  0.35493000  1.0 -0.5710510995
O  O255  1  0.90390000  0.54897000  0.03409000  1.0 -0.5710510995
O  O256  1  0.51488000  0.86981000  0.96591000  1.0 -0.5710510995
O  O257  1  0.86981000  0.96591000  0.51488000  1.0 -0.5710510995
O  O258  1  0.54897000  0.03409000  0.90390000  1.0 -0.5710510995
O  O259  1  0.45103000  0.35493000  0.48512000  1.0 -0.5710510995
O  O260  1  0.13019000  0.64507000  0.09610000  1.0 -0.5710510995
O  O261  1  0.03409000  0.90390000  0.54897000  1.0 -0.5710510995
O  O262  1  0.96591000  0.51488000  0.86981000  1.0 -0.5710510995
O  O263  1  0.64507000  0.09610000  0.13019000  1.0 -0.5710510995
O  O264  1  0.35493000  0.48512000  0.45103000  1.0 -0.5710510995
O  O265  1  0.45103000  0.48512000  0.35493000  1.0 -0.5814035464
O  O266  1  0.13019000  0.09610000  0.64507000  1.0 -0.5710510995
O  O267  1  0.86981000  0.51488000  0.96591000  1.0 -0.5710510995
O  O268  1  0.54897000  0.90390000  0.03409000  1.0 -0.5710510995
O  O269  1  0.35493000  0.45103000  0.48512000  1.0 -0.5710510995
O  O270  1  0.64507000  0.13019000  0.09610000  1.0 -0.5710510995
O  O271  1  0.96591000  0.86981000  0.51488000  1.0 -0.5710510995
O  O272  1  0.03409000  0.54897000  0.90390000  1.0 -0.5710510995
O  O273  1  0.48512000  0.35493000  0.45103000  1.0 -0.5710510995
O  O274  1  0.09610000  0.64507000  0.13019000  1.0 -0.5814035464
O  O275  1  0.51488000  0.96591000  0.86981000  1.0 -0.5710510995
O  O276  1  0.90390000  0.03409000  0.54897000  1.0 -0.5710510995
O  O277  1  0.90390000  0.86981000  0.35493000  1.0 -0.5710510995
O  O278  1  0.51488000  0.54897000  0.64507000  1.0 -0.5710510995
O  O279  1  0.09610000  0.45103000  0.96591000  1.0 -0.5710510995
O  O280  1  0.48512000  0.13019000  0.03409000  1.0 -0.5710510995
O  O281  1  0.13019000  0.03409000  0.48512000  1.0 -0.5710510995
O  O282  1  0.45103000  0.96591000  0.09610000  1.0 -0.5710510995
O  O283  1  0.54897000  0.64507000  0.51488000  1.0 -0.5710510995
O  O284  1  0.86981000  0.35493000  0.90390000  1.0 -0.5710510995
O  O285  1  0.96591000  0.09610000  0.45103000  1.0 -0.5710510995
O  O286  1  0.03409000  0.48512000  0.13019000  1.0 -0.5710510995
O  O287  1  0.35493000  0.90390000  0.86981000  1.0 -0.5710510995
O  O288  1  0.64507000  0.51488000  0.54897000  1.0 -0.5710510995
O  O289  1  0.61167000  0.57615000  0.68968000  1.0 -0.5814035464
O  O290  1  0.88647000  0.92199000  0.31032000  1.0 -0.5814035464
O  O291  1  0.11353000  0.42385000  0.03552000  1.0 -0.5814035464
O  O292  1  0.38833000  0.07801000  0.96448000  1.0 -0.5814035464
O  O293  1  0.68968000  0.61167000  0.57615000  1.0 -0.5814035464
O  O294  1  0.31032000  0.88647000  0.92199000  1.0 -0.5814035464
O  O295  1  0.03552000  0.11353000  0.42385000  1.0 -0.5814035464
O  O296  1  0.96448000  0.38833000  0.07801000  1.0 -0.5814035464
O  O297  1  0.57615000  0.68968000  0.61167000  1.0 -0.5814035464
O  O298  1  0.92199000  0.31032000  0.88647000  1.0 -0.5814035464
O  O299  1  0.42385000  0.03552000  0.11353000  1.0 -0.5814035464
O  O300  1  0.07801000  0.96448000  0.38833000  1.0 -0.5814035464
O  O301  1  0.07801000  0.11353000  0.68968000  1.0 -0.5814035464
O  O302  1  0.42385000  0.38833000  0.31032000  1.0 -0.5814035464
O  O303  1  0.92199000  0.61167000  0.03552000  1.0 -0.5814035464
O  O304  1  0.57615000  0.88647000  0.96448000  1.0 -0.5814035464
O  O305  1  0.88647000  0.96448000  0.57615000  1.0 -0.5814035464
O  O306  1  0.61167000  0.03552000  0.92199000  1.0 -0.5814035464
O  O307  1  0.38833000  0.31032000  0.42385000  1.0 -0.5814035464
O  O308  1  0.11353000  0.68968000  0.07801000  1.0 -0.5814035464
O  O309  1  0.03552000  0.92199000  0.61167000  1.0 -0.5814035464
O  O310  1  0.96448000  0.57615000  0.88647000  1.0 -0.5814035464
O  O311  1  0.68968000  0.07801000  0.11353000  1.0 -0.5814035464
O  O312  1  0.31032000  0.42385000  0.38833000  1.0 -0.5814035464
O  O313  1  0.38833000  0.42385000  0.31032000  1.0 -0.5814035464
O  O314  1  0.11353000  0.07801000  0.68968000  1.0 -0.5814035464
O  O315  1  0.88647000  0.57615000  0.96448000  1.0 -0.5814035464
O  O316  1  0.61167000  0.92199000  0.03552000  1.0 -0.5814035464
O  O317  1  0.31032000  0.38833000  0.42385000  1.0 -0.5814035464
O  O318  1  0.68968000  0.11353000  0.07801000  1.0 -0.5814035464
O  O319  1  0.96448000  0.88647000  0.57615000  1.0 -0.5814035464
O  O320  1  0.03552000  0.61167000  0.92199000  1.0 -0.5814035464
O  O321  1  0.42385000  0.31032000  0.38833000  1.0 -0.5814035464
O  O322  1  0.07801000  0.68968000  0.11353000  1.0 -0.5814035464
O  O323  1  0.57615000  0.96448000  0.88647000  1.0 -0.5814035464
O  O324  1  0.92199000  0.03552000  0.61167000  1.0 -0.5814035464
O  O325  1  0.92199000  0.88647000  0.31032000  1.0 -0.5814035464
O  O326  1  0.57615000  0.61167000  0.68968000  1.0 -0.5814035464
O  O327  1  0.07801000  0.38833000  0.96448000  1.0 -0.5814035464
O  O328  1  0.42385000  0.11353000  0.03552000  1.0 -0.5814035464
O  O329  1  0.11353000  0.03552000  0.42385000  1.0 -0.5814035464
O  O330  1  0.38833000  0.96448000  0.07801000  1.0 -0.5814035464
O  O331  1  0.61167000  0.68968000  0.57615000  1.0 -0.5814035464
O  O332  1  0.88647000  0.31032000  0.92199000  1.0 -0.5814035464
O  O333  1  0.96448000  0.07801000  0.38833000  1.0 -0.5814035464
O  O334  1  0.03552000  0.42385000  0.11353000  1.0 -0.5814035464
O  O335  1  0.31032000  0.92199000  0.88647000  1.0 -0.5814035464
O  O336  1  0.68968000  0.57615000  0.61167000  1.0 -0.5814035464
O  O337  1  0.65063000  0.58704000  0.74209000  1.0 -0.6303577947
O  O338  1  0.84495000  0.90854000  0.25791000  1.0 -0.6303577947
O  O339  1  0.15505000  0.41296000  0.06359000  1.0 -0.6303577947
O  O340  1  0.34937000  0.09146000  0.93641000  1.0 -0.6303577947
O  O341  1  0.74209000  0.65063000  0.58704000  1.0 -0.6303577947
O  O342  1  0.25791000  0.84495000  0.90854000  1.0 -0.6303577947
O  O343  1  0.06359000  0.15505000  0.41296000  1.0 -0.6303577947
O  O344  1  0.93641000  0.34937000  0.09146000  1.0 -0.6303577947
O  O345  1  0.58704000  0.74209000  0.65063000  1.0 -0.6303577947
O  O346  1  0.90854000  0.25791000  0.84495000  1.0 -0.6303577947
O  O347  1  0.41296000  0.06359000  0.15505000  1.0 -0.6303577947
O  O348  1  0.09146000  0.93641000  0.34937000  1.0 -0.6303577947
O  O349  1  0.09146000  0.15505000  0.74209000  1.0 -0.6303577947
O  O350  1  0.41296000  0.34937000  0.25791000  1.0 -0.6303577947
O  O351  1  0.90854000  0.65063000  0.06359000  1.0 -0.6303577947
O  O352  1  0.58704000  0.84495000  0.93641000  1.0 -0.6303577947
O  O353  1  0.84495000  0.93641000  0.58704000  1.0 -0.6303577947
O  O354  1  0.65063000  0.06359000  0.90854000  1.0 -0.6303577947
O  O355  1  0.34937000  0.25791000  0.41296000  1.0 -0.6303577947
O  O356  1  0.15505000  0.74209000  0.09146000  1.0 -0.6303577947
O  O357  1  0.06359000  0.90854000  0.65063000  1.0 -0.6303577947
O  O358  1  0.93641000  0.58704000  0.84495000  1.0 -0.6303577947
O  O359  1  0.74209000  0.09146000  0.15505000  1.0 -0.6303577947
O  O360  1  0.25791000  0.41296000  0.34937000  1.0 -0.6303577947
O  O361  1  0.34937000  0.41296000  0.25791000  1.0 -0.6303577947
O  O362  1  0.15505000  0.09146000  0.74209000  1.0 -0.6303577947
O  O363  1  0.84495000  0.58704000  0.93641000  1.0 -0.6303577947
O  O364  1  0.65063000  0.90854000  0.06359000  1.0 -0.6303577947
O  O365  1  0.25791000  0.34937000  0.41296000  1.0 -0.6303577947
O  O366  1  0.74209000  0.15505000  0.09146000  1.0 -0.6303577947
O  O367  1  0.93641000  0.84495000  0.58704000  1.0 -0.6303577947
O  O368  1  0.06359000  0.65063000  0.90854000  1.0 -0.6303577947
O  O369  1  0.41296000  0.25791000  0.34937000  1.0 -0.6303577947
O  O370  1  0.09146000  0.74209000  0.15505000  1.0 -0.6303577947
O  O371  1  0.58704000  0.93641000  0.84495000  1.0 -0.6303577947
O  O372  1  0.90854000  0.06359000  0.65063000  1.0 -0.6303577947
O  O373  1  0.90854000  0.84495000  0.25791000  1.0 -0.6303577947
O  O374  1  0.58704000  0.65063000  0.74209000  1.0 -0.6303577947
O  O375  1  0.09146000  0.34937000  0.93641000  1.0 -0.6303577947
O  O376  1  0.41296000  0.15505000  0.06359000  1.0 -0.6303577947
O  O377  1  0.15505000  0.06359000  0.41296000  1.0 -0.6303577947
O  O378  1  0.34937000  0.93641000  0.09146000  1.0 -0.6303577947
O  O379  1  0.65063000  0.74209000  0.58704000  1.0 -0.6303577947
O  O380  1  0.84495000  0.25791000  0.90854000  1.0 -0.6303577947
O  O381  1  0.93641000  0.09146000  0.34937000  1.0 -0.6303577947
O  O382  1  0.06359000  0.41296000  0.15505000  1.0 -0.6303577947
O  O383  1  0.25791000  0.90854000  0.84495000  1.0 -0.6303577947
O  O384  1  0.74209000  0.58704000  0.65063000  1.0 -0.6303577947
O  O385  1  0.64178000  0.57325000  0.82221000  1.0 -0.6163349316
O  O386  1  0.75104000  0.81957000  0.17779000  1.0 -0.6163349316
O  O387  1  0.24896000  0.42675000  0.06853000  1.0 -0.6163349316
O  O388  1  0.35822000  0.18043000  0.93147000  1.0 -0.612947361
O  O389  1  0.82221000  0.64178000  0.57325000  1.0 -0.6163349316
O  O390  1  0.17779000  0.75104000  0.81957000  1.0 -0.612947361
O  O391  1  0.06853000  0.24896000  0.42675000  1.0 -0.6163349316
O  O392  1  0.93147000  0.35822000  0.18043000  1.0 -0.612947361
O  O393  1  0.57325000  0.82221000  0.64178000  1.0 -0.6163349316
O  O394  1  0.81957000  0.17779000  0.75104000  1.0 -0.6163349316
O  O395  1  0.42675000  0.06853000  0.24896000  1.0 -0.6163349316
O  O396  1  0.18043000  0.93147000  0.35822000  1.0 -0.6163349316
O  O397  1  0.18043000  0.24896000  0.82221000  1.0 -0.6163349316
O  O398  1  0.42675000  0.35822000  0.17779000  1.0 -0.6163349316
O  O399  1  0.81957000  0.64178000  0.06853000  1.0 -0.6163349316
O  O400  1  0.57325000  0.75104000  0.93147000  1.0 -0.612947361
O  O401  1  0.75104000  0.93147000  0.57325000  1.0 -0.6163349316
O  O402  1  0.64178000  0.06853000  0.81957000  1.0 -0.6163349316
O  O403  1  0.35822000  0.17779000  0.42675000  1.0 -0.6163349316
O  O404  1  0.24896000  0.82221000  0.18043000  1.0 -0.6163349316
O  O405  1  0.06853000  0.81957000  0.64178000  1.0 -0.6163349316
O  O406  1  0.93147000  0.57325000  0.75104000  1.0 -0.6163349316
O  O407  1  0.82221000  0.18043000  0.24896000  1.0 -0.6163349316
O  O408  1  0.17779000  0.42675000  0.35822000  1.0 -0.6163349316
O  O409  1  0.35822000  0.42675000  0.17779000  1.0 -0.6163349316
O  O410  1  0.24896000  0.18043000  0.82221000  1.0 -0.6163349316
O  O411  1  0.75104000  0.57325000  0.93147000  1.0 -0.6163349316
O  O412  1  0.64178000  0.81957000  0.06853000  1.0 -0.612947361
O  O413  1  0.17779000  0.35822000  0.42675000  1.0 -0.6163349316
O  O414  1  0.82221000  0.24896000  0.18043000  1.0 -0.6163349316
O  O415  1  0.93147000  0.75104000  0.57325000  1.0 -0.6163349316
O  O416  1  0.06853000  0.64178000  0.81957000  1.0 -0.6163349316
O  O417  1  0.42675000  0.17779000  0.35822000  1.0 -0.6163349316
O  O418  1  0.18043000  0.82221000  0.24896000  1.0 -0.6163349316
O  O419  1  0.57325000  0.93147000  0.75104000  1.0 -0.6163349316
O  O420  1  0.81957000  0.06853000  0.64178000  1.0 -0.6163349316
O  O421  1  0.81957000  0.75104000  0.17779000  1.0 -0.6163349316
O  O422  1  0.57325000  0.64178000  0.82221000  1.0 -0.6163349316
O  O423  1  0.18043000  0.35822000  0.93147000  1.0 -0.612947361
O  O424  1  0.42675000  0.24896000  0.06853000  1.0 -0.612947361
O  O425  1  0.24896000  0.06853000  0.42675000  1.0 -0.6163349316
O  O426  1  0.35822000  0.93147000  0.18043000  1.0 -0.6163349316
O  O427  1  0.64178000  0.82221000  0.57325000  1.0 -0.6163349316
O  O428  1  0.75104000  0.17779000  0.81957000  1.0 -0.6163349316
O  O429  1  0.93147000  0.18043000  0.35822000  1.0 -0.6163349316
O  O430  1  0.06853000  0.42675000  0.24896000  1.0 -0.6163349316
O  O431  1  0.17779000  0.81957000  0.75104000  1.0 -0.6163349316
O  O432  1  0.82221000  0.57325000  0.64178000  1.0 -0.6163349316
O  O433  1  0.59857000  0.56343000  0.83602000  1.0 -0.5861444761
O  O434  1  0.72741000  0.76255000  0.16398000  1.0 -0.5861444761
O  O435  1  0.27259000  0.43657000  0.03514000  1.0 -0.5814035464
O  O436  1  0.40143000  0.23745000  0.96486000  1.0 -0.5814035464
O  O437  1  0.83602000  0.59857000  0.56343000  1.0 -0.5861444761
O  O438  1  0.16398000  0.72741000  0.76255000  1.0 -0.5814035464
O  O439  1  0.03514000  0.27259000  0.43657000  1.0 -0.5814035464
O  O440  1  0.96486000  0.40143000  0.23745000  1.0 -0.5814035464
O  O441  1  0.56343000  0.83602000  0.59857000  1.0 -0.5814035464
O  O442  1  0.76255000  0.16398000  0.72741000  1.0 -0.5861444761
O  O443  1  0.43657000  0.03514000  0.27259000  1.0 -0.5861444761
O  O444  1  0.23745000  0.96486000  0.40143000  1.0 -0.5861444761
O  O445  1  0.23745000  0.27259000  0.83602000  1.0 -0.5814035464
O  O446  1  0.43657000  0.40143000  0.16398000  1.0 -0.5814035464
O  O447  1  0.76255000  0.59857000  0.03514000  1.0 -0.5814035464
O  O448  1  0.56343000  0.72741000  0.96486000  1.0 -0.5814035464
O  O449  1  0.72741000  0.96486000  0.56343000  1.0 -0.5861444761
O  O450  1  0.59857000  0.03514000  0.76255000  1.0 -0.5814035464
O  O451  1  0.40143000  0.16398000  0.43657000  1.0 -0.5814035464
O  O452  1  0.27259000  0.83602000  0.23745000  1.0 -0.5814035464
O  O453  1  0.03514000  0.76255000  0.59857000  1.0 -0.5861444761
O  O454  1  0.96486000  0.56343000  0.72741000  1.0 -0.5861444761
O  O455  1  0.83602000  0.23745000  0.27259000  1.0 -0.5814035464
O  O456  1  0.16398000  0.43657000  0.40143000  1.0 -0.5814035464
O  O457  1  0.40143000  0.43657000  0.16398000  1.0 -0.5814035464
O  O458  1  0.27259000  0.23745000  0.83602000  1.0 -0.5814035464
O  O459  1  0.72741000  0.56343000  0.96486000  1.0 -0.5861444761
O  O460  1  0.59857000  0.76255000  0.03514000  1.0 -0.5814035464
O  O461  1  0.16398000  0.40143000  0.43657000  1.0 -0.5861444761
O  O462  1  0.83602000  0.27259000  0.23745000  1.0 -0.5814035464
O  O463  1  0.96486000  0.72741000  0.56343000  1.0 -0.5814035464
O  O464  1  0.03514000  0.59857000  0.76255000  1.0 -0.5861444761
O  O465  1  0.43657000  0.16398000  0.40143000  1.0 -0.5814035464
O  O466  1  0.23745000  0.83602000  0.27259000  1.0 -0.5861444761
O  O467  1  0.56343000  0.96486000  0.72741000  1.0 -0.5814035464
O  O468  1  0.76255000  0.03514000  0.59857000  1.0 -0.5814035464
O  O469  1  0.76255000  0.72741000  0.16398000  1.0 -0.5814035464
O  O470  1  0.56343000  0.59857000  0.83602000  1.0 -0.5861444761
O  O471  1  0.23745000  0.40143000  0.96486000  1.0 -0.5814035464
O  O472  1  0.43657000  0.27259000  0.03514000  1.0 -0.5814035464
O  O473  1  0.27259000  0.03514000  0.43657000  1.0 -0.5814035464
O  O474  1  0.40143000  0.96486000  0.23745000  1.0 -0.5814035464
O  O475  1  0.59857000  0.83602000  0.56343000  1.0 -0.5814035464
O  O476  1  0.72741000  0.16398000  0.76255000  1.0 -0.5814035464
O  O477  1  0.96486000  0.23745000  0.40143000  1.0 -0.5814035464
O  O478  1  0.03514000  0.43657000  0.27259000  1.0 -0.5861444761
O  O479  1  0.16398000  0.76255000  0.72741000  1.0 -0.5814035464
O  O480  1  0.83602000  0.56343000  0.59857000  1.0 -0.5861444761
O  O481  1  0.57597000  0.53608000  0.76325000  1.0 -1.1298307119
O  O482  1  0.77283000  0.81272000  0.23675000  1.0 -1.1298307119
O  O483  1  0.22717000  0.46392000  0.03989000  1.0 -1.1298307119
O  O484  1  0.42403000  0.18728000  0.96011000  1.0 -1.1298307119
O  O485  1  0.76325000  0.57597000  0.53608000  1.0 -1.1298307119
O  O486  1  0.23675000  0.77283000  0.81272000  1.0 -1.1298307119
O  O487  1  0.03989000  0.22717000  0.46392000  1.0 -1.1298307119
O  O488  1  0.96011000  0.42403000  0.18728000  1.0 -1.1298307119
O  O489  1  0.53608000  0.76325000  0.57597000  1.0 -1.1298307119
O  O490  1  0.81272000  0.23675000  0.77283000  1.0 -1.1298307119
O  O491  1  0.46392000  0.03989000  0.22717000  1.0 -1.1298307119
O  O492  1  0.18728000  0.96011000  0.42403000  1.0 -1.1298307119
O  O493  1  0.18728000  0.22717000  0.76325000  1.0 -1.1371450761
O  O494  1  0.46392000  0.42403000  0.23675000  1.0 -1.1371450761
O  O495  1  0.81272000  0.57597000  0.03989000  1.0 -1.1298307119
O  O496  1  0.53608000  0.77283000  0.96011000  1.0 -1.1298307119
O  O497  1  0.77283000  0.96011000  0.53608000  1.0 -1.1298307119
O  O498  1  0.57597000  0.03989000  0.81272000  1.0 -1.1298307119
O  O499  1  0.42403000  0.23675000  0.46392000  1.0 -1.1298307119
O  O500  1  0.22717000  0.76325000  0.18728000  1.0 -1.1371450761
O  O501  1  0.03989000  0.81272000  0.57597000  1.0 -1.1298307119
O  O502  1  0.96011000  0.53608000  0.77283000  1.0 -1.1298307119
O  O503  1  0.76325000  0.18728000  0.22717000  1.0 -1.1298307119
O  O504  1  0.23675000  0.46392000  0.42403000  1.0 -1.1298307119
O  O505  1  0.42403000  0.46392000  0.23675000  1.0 -1.1371450761
O  O506  1  0.22717000  0.18728000  0.76325000  1.0 -1.1298307119
O  O507  1  0.77283000  0.53608000  0.96011000  1.0 -1.1298307119
O  O508  1  0.57597000  0.81272000  0.03989000  1.0 -1.1298307119
O  O509  1  0.23675000  0.42403000  0.46392000  1.0 -1.1371450761
O  O510  1  0.76325000  0.22717000  0.18728000  1.0 -1.1298307119
O  O511  1  0.96011000  0.77283000  0.53608000  1.0 -1.1298307119
O  O512  1  0.03989000  0.57597000  0.81272000  1.0 -1.1298307119
O  O513  1  0.46392000  0.23675000  0.42403000  1.0 -1.1298307119
O  O514  1  0.18728000  0.76325000  0.22717000  1.0 -1.1371450761
O  O515  1  0.53608000  0.96011000  0.77283000  1.0 -1.1298307119
O  O516  1  0.81272000  0.03989000  0.57597000  1.0 -1.1298307119
O  O517  1  0.81272000  0.77283000  0.23675000  1.0 -1.1298307119
O  O518  1  0.53608000  0.57597000  0.76325000  1.0 -1.1298307119
O  O519  1  0.18728000  0.42403000  0.96011000  1.0 -1.1298307119
O  O520  1  0.46392000  0.22717000  0.03989000  1.0 -1.1298307119
O  O521  1  0.22717000  0.03989000  0.46392000  1.0 -1.1298307119
O  O522  1  0.42403000  0.96011000  0.18728000  1.0 -1.1298307119
O  O523  1  0.57597000  0.76325000  0.53608000  1.0 -1.1298307119
O  O524  1  0.77283000  0.23675000  0.81272000  1.0 -1.1298307119
O  O525  1  0.96011000  0.18728000  0.42403000  1.0 -1.1298307119
O  O526  1  0.03989000  0.46392000  0.22717000  1.0 -1.1298307119
O  O527  1  0.23675000  0.81272000  0.77283000  1.0 -1.1298307119
O  O528  1  0.76325000  0.53608000  0.57597000  1.0 -1.1298307119
O  O529  1  0.58616000  0.53342000  0.71406000  1.0 -1.0916137861
O  O530  1  0.81936000  0.87210000  0.28594000  1.0 -1.0916137861
O  O531  1  0.18064000  0.46658000  0.05274000  1.0 -1.0977836869
O  O532  1  0.41384000  0.12790000  0.94726000  1.0 -1.0916137861
O  O533  1  0.71406000  0.58616000  0.53342000  1.0 -1.0916137861
O  O534  1  0.28594000  0.81936000  0.87210000  1.0 -1.0916137861
O  O535  1  0.05274000  0.18064000  0.46658000  1.0 -1.0977836869
O  O536  1  0.94726000  0.41384000  0.12790000  1.0 -1.0977836869
O  O537  1  0.53342000  0.71406000  0.58616000  1.0 -1.0916137861
O  O538  1  0.87210000  0.28594000  0.81936000  1.0 -1.0916137861
O  O539  1  0.46658000  0.05274000  0.18064000  1.0 -1.0916137861
O  O540  1  0.12790000  0.94726000  0.41384000  1.0 -1.0916137861
O  O541  1  0.12790000  0.18064000  0.71406000  1.0 -1.0916137861
O  O542  1  0.46658000  0.41384000  0.28594000  1.0 -1.0916137861
O  O543  1  0.87210000  0.58616000  0.05274000  1.0 -1.0977836869
O  O544  1  0.53342000  0.81936000  0.94726000  1.0 -1.0916137861
O  O545  1  0.81936000  0.94726000  0.53342000  1.0 -1.0977836869
O  O546  1  0.58616000  0.05274000  0.87210000  1.0 -1.0916137861
O  O547  1  0.41384000  0.28594000  0.46658000  1.0 -1.0916137861
O  O548  1  0.18064000  0.71406000  0.12790000  1.0 -1.0916137861
O  O549  1  0.05274000  0.87210000  0.58616000  1.0 -1.0916137861
O  O550  1  0.94726000  0.53342000  0.81936000  1.0 -1.0916137861
O  O551  1  0.71406000  0.12790000  0.18064000  1.0 -1.0916137861
O  O552  1  0.28594000  0.46658000  0.41384000  1.0 -1.0916137861
O  O553  1  0.41384000  0.46658000  0.28594000  1.0 -1.0916137861
O  O554  1  0.18064000  0.12790000  0.71406000  1.0 -1.0977836869
O  O555  1  0.81936000  0.53342000  0.94726000  1.0 -1.0916137861
O  O556  1  0.58616000  0.87210000  0.05274000  1.0 -1.0977836869
O  O557  1  0.28594000  0.41384000  0.46658000  1.0 -1.0916137861
O  O558  1  0.71406000  0.18064000  0.12790000  1.0 -1.0916137861
O  O559  1  0.94726000  0.81936000  0.53342000  1.0 -1.0977836869
O  O560  1  0.05274000  0.58616000  0.87210000  1.0 -1.0916137861
O  O561  1  0.46658000  0.28594000  0.41384000  1.0 -1.0916137861
O  O562  1  0.12790000  0.71406000  0.18064000  1.0 -1.0916137861
O  O563  1  0.53342000  0.94726000  0.81936000  1.0 -1.0916137861
O  O564  1  0.87210000  0.05274000  0.58616000  1.0 -1.0977836869
O  O565  1  0.87210000  0.81936000  0.28594000  1.0 -1.0916137861
O  O566  1  0.53342000  0.58616000  0.71406000  1.0 -1.0916137861
O  O567  1  0.12790000  0.41384000  0.94726000  1.0 -1.0916137861
O  O568  1  0.46658000  0.18064000  0.05274000  1.0 -1.0916137861
O  O569  1  0.18064000  0.05274000  0.46658000  1.0 -1.0977836869
O  O570  1  0.41384000  0.94726000  0.12790000  1.0 -1.0916137861
O  O571  1  0.58616000  0.71406000  0.53342000  1.0 -1.0916137861
O  O572  1  0.81936000  0.28594000  0.87210000  1.0 -1.0916137861
O  O573  1  0.94726000  0.12790000  0.41384000  1.0 -1.0916137861
O  O574  1  0.05274000  0.46658000  0.18064000  1.0 -1.0977836869
O  O575  1  0.28594000  0.87210000  0.81936000  1.0 -1.0977836869
O  O576  1  0.71406000  0.53342000  0.58616000  1.0 -1.0977836869
O  O577  1  0.59419000  0.59419000  0.74490000  1.0 -1.1603036886
O  O578  1  0.84929000  0.84929000  0.25510000  1.0 -1.1603036886
O  O579  1  0.15071000  0.40581000  0.00000000  1.0 -1.1603036886
O  O580  1  0.40581000  0.15071000  0.00000000  1.0 -1.1603036886
O  O581  1  0.74490000  0.59419000  0.59419000  1.0 -1.1603036886
O  O582  1  0.25510000  0.84929000  0.84929000  1.0 -1.1603036886
O  O583  1  0.00000000  0.15071000  0.40581000  1.0 -1.1603036886
O  O584  1  0.00000000  0.40581000  0.15071000  1.0 -1.1603036886
O  O585  1  0.59419000  0.74490000  0.59419000  1.0 -1.1603036886
O  O586  1  0.84929000  0.25510000  0.84929000  1.0 -1.1603036886
O  O587  1  0.40581000  0.00000000  0.15071000  1.0 -1.1603036886
O  O588  1  0.15071000  0.00000000  0.40581000  1.0 -1.1603036886
O  O589  1  0.15071000  0.15071000  0.74490000  1.0 -1.1603036886
O  O590  1  0.40581000  0.40581000  0.25510000  1.0 -1.1603036886
O  O591  1  0.84929000  0.59419000  0.00000000  1.0 -1.1603036886
O  O592  1  0.59419000  0.84929000  0.00000000  1.0 -1.1603036886
O  O593  1  0.84929000  0.00000000  0.59419000  1.0 -1.1603036886
O  O594  1  0.59419000  0.00000000  0.84929000  1.0 -1.1603036886
O  O595  1  0.40581000  0.25510000  0.40581000  1.0 -1.1603036886
O  O596  1  0.15071000  0.74490000  0.15071000  1.0 -1.1603036886
O  O597  1  0.00000000  0.84929000  0.59419000  1.0 -1.1603036886
O  O598  1  0.00000000  0.59419000  0.84929000  1.0 -1.1603036886
O  O599  1  0.74490000  0.15071000  0.15071000  1.0 -1.1603036886
O  O600  1  0.25510000  0.40581000  0.40581000  1.0 -1.1603036886
O  O601  1  0.60188000  0.60188000  0.80254000  1.0 -1.192950957
O  O602  1  0.79934000  0.79934000  0.19746000  1.0 -1.192950957
O  O603  1  0.20066000  0.39812000  0.00000000  1.0 -1.2068996084
O  O604  1  0.39812000  0.20066000  0.00000000  1.0 -1.2068996084
O  O605  1  0.80254000  0.60188000  0.60188000  1.0 -1.192950957
O  O606  1  0.19746000  0.79934000  0.79934000  1.0 -1.1985969199
O  O607  1  0.00000000  0.20066000  0.39812000  1.0 -1.1985969199
O  O608  1  0.00000000  0.39812000  0.20066000  1.0 -1.1985969199
O  O609  1  0.60188000  0.80254000  0.60188000  1.0 -1.192950957
O  O610  1  0.79934000  0.19746000  0.79934000  1.0 -1.192950957
O  O611  1  0.39812000  0.00000000  0.20066000  1.0 -1.1985969199
O  O612  1  0.20066000  0.00000000  0.39812000  1.0 -1.1985969199
O  O613  1  0.20066000  0.20066000  0.80254000  1.0 -1.1985969199
O  O614  1  0.39812000  0.39812000  0.19746000  1.0 -1.192950957
O  O615  1  0.79934000  0.60188000  0.00000000  1.0 -1.192950957
O  O616  1  0.60188000  0.79934000  0.00000000  1.0 -1.1985969199
O  O617  1  0.79934000  0.00000000  0.60188000  1.0 -1.192950957
O  O618  1  0.60188000  0.00000000  0.79934000  1.0 -1.1985969199
O  O619  1  0.39812000  0.19746000  0.39812000  1.0 -1.1985969199
O  O620  1  0.20066000  0.80254000  0.20066000  1.0 -1.192950957
O  O621  1  0.00000000  0.79934000  0.60188000  1.0 -1.192950957
O  O622  1  0.00000000  0.60188000  0.79934000  1.0 -1.192950957
O  O623  1  0.80254000  0.20066000  0.20066000  1.0 -1.192950957
O  O624  1  0.19746000  0.39812000  0.39812000  1.0 -1.192950957
O  O625  1  0.52467000  0.52467000  0.69486000  1.0 -1.0916137861
O  O626  1  0.82981000  0.82981000  0.30514000  1.0 -1.0842709593
O  O627  1  0.17019000  0.47533000  0.00000000  1.0 -1.0916137861
O  O628  1  0.47533000  0.17019000  0.00000000  1.0 -1.0916137861
O  O629  1  0.69486000  0.52467000  0.52467000  1.0 -1.0842709593
O  O630  1  0.30514000  0.82981000  0.82981000  1.0 -1.0916137861
O  O631  1  0.00000000  0.17019000  0.47533000  1.0 -1.0916137861
O  O632  1  0.00000000  0.47533000  0.17019000  1.0 -1.0916137861
O  O633  1  0.52467000  0.69486000  0.52467000  1.0 -1.0916137861
O  O634  1  0.82981000  0.30514000  0.82981000  1.0 -1.0916137861
O  O635  1  0.47533000  0.00000000  0.17019000  1.0 -1.0916137861
O  O636  1  0.17019000  0.00000000  0.47533000  1.0 -1.0916137861
O  O637  1  0.17019000  0.17019000  0.69486000  1.0 -1.0916137861
O  O638  1  0.47533000  0.47533000  0.30514000  1.0 -1.0916137861
O  O639  1  0.82981000  0.52467000  0.00000000  1.0 -1.0842709593
O  O640  1  0.52467000  0.82981000  0.00000000  1.0 -1.0916137861
O  O641  1  0.82981000  0.00000000  0.52467000  1.0 -1.0916137861
O  O642  1  0.52467000  0.00000000  0.82981000  1.0 -1.0916137861
O  O643  1  0.47533000  0.30514000  0.47533000  1.0 -1.0916137861
O  O644  1  0.17019000  0.69486000  0.17019000  1.0 -1.0916137861
O  O645  1  0.00000000  0.82981000  0.52467000  1.0 -1.0916137861
O  O646  1  0.00000000  0.52467000  0.82981000  1.0 -1.0916137861
O  O647  1  0.69486000  0.17019000  0.17019000  1.0 -1.0916137861
O  O648  1  0.30514000  0.47533000  0.47533000  1.0 -1.0916137861
O  O649  1  0.50970000  0.50970000  0.73614000  1.0 -1.0523178022
O  O650  1  0.77356000  0.77356000  0.26386000  1.0 -1.0578880816
O  O651  1  0.22644000  0.49030000  0.00000000  1.0 -1.0578880816
O  O652  1  0.49030000  0.22644000  0.00000000  1.0 -1.0578880816
O  O653  1  0.73614000  0.50970000  0.50970000  1.0 -1.0578880816
O  O654  1  0.26386000  0.77356000  0.77356000  1.0 -1.0523178022
O  O655  1  0.00000000  0.22644000  0.49030000  1.0 -1.0523178022
O  O656  1  0.00000000  0.49030000  0.22644000  1.0 -1.0523178022
O  O657  1  0.50970000  0.73614000  0.50970000  1.0 -1.0523178022
O  O658  1  0.77356000  0.26386000  0.77356000  1.0 -1.0523178022
O  O659  1  0.49030000  0.00000000  0.22644000  1.0 -1.0523178022
O  O660  1  0.22644000  0.00000000  0.49030000  1.0 -1.0523178022
O  O661  1  0.22644000  0.22644000  0.73614000  1.0 -1.0523178022
O  O662  1  0.49030000  0.49030000  0.26386000  1.0 -1.0523178022
O  O663  1  0.77356000  0.50970000  0.00000000  1.0 -1.0578880816
O  O664  1  0.50970000  0.77356000  0.00000000  1.0 -1.0578880816
O  O665  1  0.77356000  0.00000000  0.50970000  1.0 -1.0523178022
O  O666  1  0.50970000  0.00000000  0.77356000  1.0 -1.0523178022
O  O667  1  0.49030000  0.26386000  0.49030000  1.0 -1.0523178022
O  O668  1  0.22644000  0.73614000  0.22644000  1.0 -1.0523178022
O  O669  1  0.00000000  0.77356000  0.50970000  1.0 -1.0523178022
O  O670  1  0.00000000  0.50970000  0.77356000  1.0 -1.0523178022
O  O671  1  0.73614000  0.22644000  0.22644000  1.0 -1.0523178022
O  O672  1  0.26386000  0.49030000  0.49030000  1.0 -1.0578880816
O  O673  1  0.52802000  0.29763000  0.76961000  1.0 -1.1494426382
O  O674  1  0.52802000  0.75841000  0.23039000  1.0 -1.1494426382
O  O675  1  0.47198000  0.70237000  0.23039000  1.0 -1.1371450761
O  O676  1  0.47198000  0.24159000  0.76961000  1.0 -1.1494426382
O  O677  1  0.76961000  0.52802000  0.29763000  1.0 -1.1494426382
O  O678  1  0.23039000  0.52802000  0.75841000  1.0 -1.1494426382
O  O679  1  0.23039000  0.47198000  0.70237000  1.0 -1.1603036886
O  O680  1  0.76961000  0.47198000  0.24159000  1.0 -1.1494426382
O  O681  1  0.29763000  0.76961000  0.52802000  1.0 -1.1494426382
O  O682  1  0.75841000  0.23039000  0.52802000  1.0 -1.1494426382
O  O683  1  0.70237000  0.23039000  0.47198000  1.0 -1.1494426382
O  O684  1  0.24159000  0.76961000  0.47198000  1.0 -1.1494426382
O  O685  1  0.24159000  0.47198000  0.76961000  1.0 -1.1494426382
O  O686  1  0.70237000  0.47198000  0.23039000  1.0 -1.1494426382
O  O687  1  0.75841000  0.52802000  0.23039000  1.0 -1.1494426382
O  O688  1  0.29763000  0.52802000  0.76961000  1.0 -1.1494426382
O  O689  1  0.52802000  0.76961000  0.29763000  1.0 -1.1494426382
O  O690  1  0.52802000  0.23039000  0.75841000  1.0 -1.1494426382
O  O691  1  0.47198000  0.23039000  0.70237000  1.0 -1.1494426382
O  O692  1  0.47198000  0.76961000  0.24159000  1.0 -1.1494426382
O  O693  1  0.23039000  0.75841000  0.52802000  1.0 -1.1494426382
O  O694  1  0.76961000  0.29763000  0.52802000  1.0 -1.1494426382
O  O695  1  0.76961000  0.24159000  0.47198000  1.0 -1.1494426382
O  O696  1  0.23039000  0.70237000  0.47198000  1.0 -1.1494426382
O  O697  1  0.46224000  0.27548000  0.73772000  1.0 -1.169068749
O  O698  1  0.53776000  0.72452000  0.26228000  1.0 -1.169068749
O  O699  1  0.46224000  0.72452000  0.18676000  1.0 -1.1603036886
O  O700  1  0.53776000  0.27548000  0.81324000  1.0 -1.169068749
O  O701  1  0.73772000  0.46224000  0.27548000  1.0 -1.169068749
O  O702  1  0.26228000  0.53776000  0.72452000  1.0 -1.1603036886
O  O703  1  0.18676000  0.46224000  0.72452000  1.0 -1.1603036886
O  O704  1  0.81324000  0.53776000  0.27548000  1.0 -1.169068749
O  O705  1  0.27548000  0.73772000  0.46224000  1.0 -1.169068749
O  O706  1  0.72452000  0.26228000  0.53776000  1.0 -1.169068749
O  O707  1  0.72452000  0.18676000  0.46224000  1.0 -1.169068749
O  O708  1  0.27548000  0.81324000  0.53776000  1.0 -1.1603036886
O  O709  1  0.27548000  0.46224000  0.73772000  1.0 -1.1603036886
O  O710  1  0.72452000  0.53776000  0.26228000  1.0 -1.1768892658
O  O711  1  0.72452000  0.46224000  0.18676000  1.0 -1.169068749
O  O712  1  0.27548000  0.53776000  0.81324000  1.0 -1.169068749
O  O713  1  0.53776000  0.81324000  0.27548000  1.0 -1.1603036886
O  O714  1  0.46224000  0.18676000  0.72452000  1.0 -1.169068749
O  O715  1  0.53776000  0.26228000  0.72452000  1.0 -1.169068749
O  O716  1  0.46224000  0.73772000  0.27548000  1.0 -1.169068749
O  O717  1  0.18676000  0.72452000  0.46224000  1.0 -1.169068749
O  O718  1  0.81324000  0.27548000  0.53776000  1.0 -1.169068749
O  O719  1  0.73772000  0.27548000  0.46224000  1.0 -1.169068749
O  O720  1  0.26228000  0.72452000  0.53776000  1.0 -1.1603036886
O  O721  1  0.57284000  0.46924000  0.71298000  1.0 -0.4873558652
O  O722  1  0.75626000  0.85986000  0.28702000  1.0 -0.4873558652
O  O723  1  0.24374000  0.53076000  0.10360000  1.0 -0.4873558652
O  O724  1  0.42716000  0.14014000  0.89640000  1.0 -0.4873558652
O  O725  1  0.71298000  0.57284000  0.46924000  1.0 -0.4873558652
O  O726  1  0.28702000  0.75626000  0.85986000  1.0 -0.4873558652
O  O727  1  0.10360000  0.24374000  0.53076000  1.0 -0.4873558652
O  O728  1  0.89640000  0.42716000  0.14014000  1.0 -0.4873558652
O  O729  1  0.46924000  0.71298000  0.57284000  1.0 -0.4873558652
O  O730  1  0.85986000  0.28702000  0.75626000  1.0 -0.4873558652
O  O731  1  0.53076000  0.10360000  0.24374000  1.0 -0.4873558652
O  O732  1  0.14014000  0.89640000  0.42716000  1.0 -0.4873558652
O  O733  1  0.14014000  0.24374000  0.71298000  1.0 -0.4873558652
O  O734  1  0.53076000  0.42716000  0.28702000  1.0 -0.4873558652
O  O735  1  0.85986000  0.57284000  0.10360000  1.0 -0.4873558652
O  O736  1  0.46924000  0.75626000  0.89640000  1.0 -0.4873558652
O  O737  1  0.75626000  0.89640000  0.46924000  1.0 -0.4873558652
O  O738  1  0.57284000  0.10360000  0.85986000  1.0 -0.4873558652
O  O739  1  0.42716000  0.28702000  0.53076000  1.0 -0.4873558652
O  O740  1  0.24374000  0.71298000  0.14014000  1.0 -0.4873558652
O  O741  1  0.10360000  0.85986000  0.57284000  1.0 -0.4873558652
O  O742  1  0.89640000  0.46924000  0.75626000  1.0 -0.4873558652
O  O743  1  0.71298000  0.14014000  0.24374000  1.0 -0.4873558652
O  O744  1  0.28702000  0.53076000  0.42716000  1.0 -0.4873558652
O  O745  1  0.42716000  0.53076000  0.28702000  1.0 -0.4873558652
O  O746  1  0.24374000  0.14014000  0.71298000  1.0 -0.4873558652
O  O747  1  0.75626000  0.46924000  0.89640000  1.0 -0.4873558652
O  O748  1  0.57284000  0.85986000  0.10360000  1.0 -0.4873558652
O  O749  1  0.28702000  0.42716000  0.53076000  1.0 -0.4873558652
O  O750  1  0.71298000  0.24374000  0.14014000  1.0 -0.4873558652
O  O751  1  0.89640000  0.75626000  0.46924000  1.0 -0.4873558652
O  O752  1  0.10360000  0.57284000  0.85986000  1.0 -0.4873558652
O  O753  1  0.53076000  0.28702000  0.42716000  1.0 -0.4873558652
O  O754  1  0.14014000  0.71298000  0.24374000  1.0 -0.4873558652
O  O755  1  0.46924000  0.89640000  0.75626000  1.0 -0.4873558652
O  O756  1  0.85986000  0.10360000  0.57284000  1.0 -0.4873558652
O  O757  1  0.85986000  0.75626000  0.28702000  1.0 -0.4873558652
O  O758  1  0.46924000  0.57284000  0.71298000  1.0 -0.4873558652
O  O759  1  0.14014000  0.42716000  0.89640000  1.0 -0.4873558652
O  O760  1  0.53076000  0.24374000  0.10360000  1.0 -0.4873558652
O  O761  1  0.24374000  0.10360000  0.53076000  1.0 -0.4873558652
O  O762  1  0.42716000  0.89640000  0.14014000  1.0 -0.4873558652
O  O763  1  0.57284000  0.71298000  0.46924000  1.0 -0.4873558652
O  O764  1  0.75626000  0.28702000  0.85986000  1.0 -0.4873558652
O  O765  1  0.89640000  0.14014000  0.42716000  1.0 -0.4873558652
O  O766  1  0.10360000  0.53076000  0.24374000  1.0 -0.4873558652
O  O767  1  0.28702000  0.85986000  0.75626000  1.0 -0.4873558652
O  O768  1  0.71298000  0.46924000  0.57284000  1.0 -0.4873558652
O  O769  1  0.61010000  0.48400000  0.69610000  1.0 -0.3628127137
O  O770  1  0.78790000  0.91400000  0.30390000  1.0 -0.3628127137
O  O771  1  0.21210000  0.51600000  0.12610000  1.0 -0.3628127137
O  O772  1  0.38990000  0.08600000  0.87390000  1.0 -0.3628127137
O  O773  1  0.69610000  0.61010000  0.48400000  1.0 -0.3628127137
O  O774  1  0.30390000  0.78790000  0.91400000  1.0 -0.3628127137
O  O775  1  0.12610000  0.21210000  0.51600000  1.0 -0.3628127137
O  O776  1  0.87390000  0.38990000  0.08600000  1.0 -0.3628127137
O  O777  1  0.48400000  0.69610000  0.61010000  1.0 -0.3628127137
O  O778  1  0.91400000  0.30390000  0.78790000  1.0 -0.3628127137
O  O779  1  0.51600000  0.12610000  0.21210000  1.0 -0.3628127137
O  O780  1  0.08600000  0.87390000  0.38990000  1.0 -0.3628127137
O  O781  1  0.08600000  0.21210000  0.69610000  1.0 -0.3628127137
O  O782  1  0.51600000  0.38990000  0.30390000  1.0 -0.3628127137
O  O783  1  0.91400000  0.61010000  0.12610000  1.0 -0.3628127137
O  O784  1  0.48400000  0.78790000  0.87390000  1.0 -0.3628127137
O  O785  1  0.78790000  0.87390000  0.48400000  1.0 -0.3628127137
O  O786  1  0.61010000  0.12610000  0.91400000  1.0 -0.3628127137
O  O787  1  0.38990000  0.30390000  0.51600000  1.0 -0.3628127137
O  O788  1  0.21210000  0.69610000  0.08600000  1.0 -0.3628127137
O  O789  1  0.12610000  0.91400000  0.61010000  1.0 -0.3628127137
O  O790  1  0.87390000  0.48400000  0.78790000  1.0 -0.3628127137
O  O791  1  0.69610000  0.08600000  0.21210000  1.0 -0.3628127137
O  O792  1  0.30390000  0.51600000  0.38990000  1.0 -0.3628127137
O  O793  1  0.38990000  0.51600000  0.30390000  1.0 -0.3660636497
O  O794  1  0.21210000  0.08600000  0.69610000  1.0 -0.3628127137
O  O795  1  0.78790000  0.48400000  0.87390000  1.0 -0.3628127137
O  O796  1  0.61010000  0.91400000  0.12610000  1.0 -0.3628127137
O  O797  1  0.30390000  0.38990000  0.51600000  1.0 -0.3628127137
O  O798  1  0.69610000  0.21210000  0.08600000  1.0 -0.3628127137
O  O799  1  0.87390000  0.78790000  0.48400000  1.0 -0.3628127137
O  O800  1  0.12610000  0.61010000  0.91400000  1.0 -0.3628127137
O  O801  1  0.51600000  0.30390000  0.38990000  1.0 -0.3628127137
O  O802  1  0.08600000  0.69610000  0.21210000  1.0 -0.3628127137
O  O803  1  0.48400000  0.87390000  0.78790000  1.0 -0.3628127137
O  O804  1  0.91400000  0.12610000  0.61010000  1.0 -0.3628127137
O  O805  1  0.91400000  0.78790000  0.30390000  1.0 -0.3628127137
O  O806  1  0.48400000  0.61010000  0.69610000  1.0 -0.3628127137
O  O807  1  0.08600000  0.38990000  0.87390000  1.0 -0.3628127137
O  O808  1  0.51600000  0.21210000  0.12610000  1.0 -0.3628127137
O  O809  1  0.21210000  0.12610000  0.51600000  1.0 -0.3628127137
O  O810  1  0.38990000  0.87390000  0.08600000  1.0 -0.3628127137
O  O811  1  0.61010000  0.69610000  0.48400000  1.0 -0.3628127137
O  O812  1  0.78790000  0.30390000  0.91400000  1.0 -0.3628127137
O  O813  1  0.87390000  0.08600000  0.38990000  1.0 -0.3628127137
O  O814  1  0.12610000  0.51600000  0.21210000  1.0 -0.3628127137
O  O815  1  0.30390000  0.91400000  0.78790000  1.0 -0.3628127137
O  O816  1  0.69610000  0.48400000  0.61010000  1.0 -0.3628127137
O  O817  1  0.48918000  0.44583000  0.67879000  1.0 -0.5710510995
O  O818  1  0.76704000  0.81039000  0.32121000  1.0 -0.5710510995
O  O819  1  0.23296000  0.55417000  0.04335000  1.0 -0.5710510995
O  O820  1  0.51082000  0.18961000  0.95665000  1.0 -0.5710510995
O  O821  1  0.67879000  0.48918000  0.44583000  1.0 -0.5710510995
O  O822  1  0.32121000  0.76704000  0.81039000  1.0 -0.5710510995
O  O823  1  0.04335000  0.23296000  0.55417000  1.0 -0.5710510995
O  O824  1  0.95665000  0.51082000  0.18961000  1.0 -0.5710510995
O  O825  1  0.44583000  0.67879000  0.48918000  1.0 -0.5710510995
O  O826  1  0.81039000  0.32121000  0.76704000  1.0 -0.5710510995
O  O827  1  0.55417000  0.04335000  0.23296000  1.0 -0.5710510995
O  O828  1  0.18961000  0.95665000  0.51082000  1.0 -0.5710510995
O  O829  1  0.18961000  0.23296000  0.67879000  1.0 -0.5710510995
O  O830  1  0.55417000  0.51082000  0.32121000  1.0 -0.5710510995
O  O831  1  0.81039000  0.48918000  0.04335000  1.0 -0.5710510995
O  O832  1  0.44583000  0.76704000  0.95665000  1.0 -0.5710510995
O  O833  1  0.76704000  0.95665000  0.44583000  1.0 -0.5710510995
O  O834  1  0.48918000  0.04335000  0.81039000  1.0 -0.5710510995
O  O835  1  0.51082000  0.32121000  0.55417000  1.0 -0.5710510995
O  O836  1  0.23296000  0.67879000  0.18961000  1.0 -0.5710510995
O  O837  1  0.04335000  0.81039000  0.48918000  1.0 -0.5710510995
O  O838  1  0.95665000  0.44583000  0.76704000  1.0 -0.5710510995
O  O839  1  0.67879000  0.18961000  0.23296000  1.0 -0.5710510995
O  O840  1  0.32121000  0.55417000  0.51082000  1.0 -0.5710510995
O  O841  1  0.51082000  0.55417000  0.32121000  1.0 -0.5710510995
O  O842  1  0.23296000  0.18961000  0.67879000  1.0 -0.5710510995
O  O843  1  0.76704000  0.44583000  0.95665000  1.0 -0.5710510995
O  O844  1  0.48918000  0.81039000  0.04335000  1.0 -0.5710510995
O  O845  1  0.32121000  0.51082000  0.55417000  1.0 -0.5710510995
O  O846  1  0.67879000  0.23296000  0.18961000  1.0 -0.5710510995
O  O847  1  0.95665000  0.76704000  0.44583000  1.0 -0.5710510995
O  O848  1  0.04335000  0.48918000  0.81039000  1.0 -0.5710510995
O  O849  1  0.55417000  0.32121000  0.51082000  1.0 -0.5710510995
O  O850  1  0.18961000  0.67879000  0.23296000  1.0 -0.5710510995
O  O851  1  0.44583000  0.95665000  0.76704000  1.0 -0.5710510995
O  O852  1  0.81039000  0.04335000  0.48918000  1.0 -0.5710510995
O  O853  1  0.81039000  0.76704000  0.32121000  1.0 -0.5710510995
O  O854  1  0.44583000  0.48918000  0.67879000  1.0 -0.5710510995
O  O855  1  0.18961000  0.51082000  0.95665000  1.0 -0.5710510995
O  O856  1  0.55417000  0.23296000  0.04335000  1.0 -0.5710510995
O  O857  1  0.23296000  0.04335000  0.55417000  1.0 -0.5710510995
O  O858  1  0.51082000  0.95665000  0.18961000  1.0 -0.5710510995
O  O859  1  0.48918000  0.67879000  0.44583000  1.0 -0.5710510995
O  O860  1  0.76704000  0.32121000  0.81039000  1.0 -0.5710510995
O  O861  1  0.95665000  0.18961000  0.51082000  1.0 -0.5710510995
O  O862  1  0.04335000  0.55417000  0.23296000  1.0 -0.5710510995
O  O863  1  0.32121000  0.81039000  0.76704000  1.0 -0.5710510995
O  O864  1  0.67879000  0.44583000  0.48918000  1.0 -0.5710510995
O  O865  1  0.43580000  0.43580000  0.63560000  1.0 -0.3628127137
O  O866  1  0.80020000  0.80020000  0.36440000  1.0 -0.3628127137
O  O867  1  0.19980000  0.56420000  0.00000000  1.0 -0.3628127137
O  O868  1  0.56420000  0.19980000  0.00000000  1.0 -0.3628127137
O  O869  1  0.63560000  0.43580000  0.43580000  1.0 -0.3628127137
O  O870  1  0.36440000  0.80020000  0.80020000  1.0 -0.3628127137
O  O871  1  0.00000000  0.19980000  0.56420000  1.0 -0.3628127137
O  O872  1  0.00000000  0.56420000  0.19980000  1.0 -0.3628127137
O  O873  1  0.43580000  0.63560000  0.43580000  1.0 -0.3628127137
O  O874  1  0.80020000  0.36440000  0.80020000  1.0 -0.3628127137
O  O875  1  0.56420000  0.00000000  0.19980000  1.0 -0.3628127137
O  O876  1  0.19980000  0.00000000  0.56420000  1.0 -0.3628127137
O  O877  1  0.19980000  0.19980000  0.63560000  1.0 -0.3628127137
O  O878  1  0.56420000  0.56420000  0.36440000  1.0 -0.3628127137
O  O879  1  0.80020000  0.43580000  0.00000000  1.0 -0.3628127137
O  O880  1  0.43580000  0.80020000  0.00000000  1.0 -0.3628127137
O  O881  1  0.80020000  0.00000000  0.43580000  1.0 -0.3628127137
O  O882  1  0.43580000  0.00000000  0.80020000  1.0 -0.3628127137
O  O883  1  0.56420000  0.36440000  0.56420000  1.0 -0.3628127137
O  O884  1  0.19980000  0.63560000  0.19980000  1.0 -0.3628127137
O  O885  1  0.00000000  0.80020000  0.43580000  1.0 -0.3628127137
O  O886  1  0.00000000  0.43580000  0.80020000  1.0 -0.3628127137
O  O887  1  0.63560000  0.19980000  0.19980000  1.0 -0.3628127137
O  O888  1  0.36440000  0.56420000  0.56420000  1.0 -0.3628127137
