# DDEC6 charges by PACMAN v1.1 (https://github.com/mtap-research/PACMAN-charge/)
data_XIDSUZ_ion_pacman
_symmetry_space_group_name_H-M   'P 1'
_cell_length_a   14.33100000
_cell_length_b   32.17000000
_cell_length_c   56.79200000
_cell_angle_alpha   90.00000000
_cell_angle_beta   90.00000000
_cell_angle_gamma   90.00000000
_symmetry_Int_Tables_number   1
_chemical_formula_structural   Cu3H72C96(N13O10)2
_chemical_formula_sum   'Cu12 H288 C384 N104 O80'
_cell_volume   26182.71750984
_cell_formula_units_Z   4
loop_
 _symmetry_equiv_pos_site_id
 _symmetry_equiv_pos_as_xyz
  1  'x, y, z'
loop_
 _atom_site_type_symbol
 _atom_site_label
 _atom_site_symmetry_multiplicity
 _atom_site_fract_x
 _atom_site_fract_y
 _atom_site_fract_z
 _atom_site_occupancy
 _atom_site_charge
Cu  Cu1  1  0.11790000  0.48232000  0.09386000  1.0 0.627637752
Cu  Cu2  1  0.38210000  0.01768000  0.09386000  1.0 0.627637752
Cu  Cu3  1  0.11790000  0.51768000  0.59386000  1.0 0.627637752
Cu  Cu4  1  0.38210000  0.98232000  0.59386000  1.0 0.627637752
Cu  Cu5  1  0.75000000  0.75000000  0.33968000  1.0 0.2977173185
Cu  Cu6  1  0.75000000  0.25000000  0.83968000  1.0 0.2977173185
Cu  Cu7  1  0.88210000  0.48232000  0.40614000  1.0 0.627637752
Cu  Cu8  1  0.61790000  0.01768000  0.40614000  1.0 0.627637752
Cu  Cu9  1  0.88210000  0.51768000  0.90614000  1.0 0.627637752
Cu  Cu10  1  0.61790000  0.98232000  0.90614000  1.0 0.627637752
Cu  Cu11  1  0.25000000  0.75000000  0.16032000  1.0 0.2977173185
Cu  Cu12  1  0.25000000  0.25000000  0.66032000  1.0 0.2977173185
H  H1  1  0.47820000  0.52360000  0.16440000  1.0 0.2801659995
H  H2  1  0.02180000  0.97640000  0.16440000  1.0 0.2801659995
H  H3  1  0.47820000  0.47640000  0.66440000  1.0 0.2801659995
H  H4  1  0.02180000  0.02360000  0.66440000  1.0 0.2801659995
H  H5  1  0.71660000  0.60620000  0.25690000  1.0 0.2871559728
H  H6  1  0.78340000  0.89380000  0.25690000  1.0 0.2871559728
H  H7  1  0.71660000  0.39380000  0.75690000  1.0 0.2871559728
H  H8  1  0.78340000  0.10620000  0.75690000  1.0 0.2871559728
H  H9  1  0.74950000  0.55180000  0.15110000  1.0 0.2871559728
H  H10  1  0.75050000  0.94820000  0.15110000  1.0 0.2871559728
H  H11  1  0.74950000  0.44820000  0.65110000  1.0 0.2871559728
H  H12  1  0.75050000  0.05180000  0.65110000  1.0 0.2871559728
H  H13  1  0.16590000  0.56430000  0.12370000  1.0 0.1189841889
H  H14  1  0.33410000  0.93570000  0.12370000  1.0 0.1189841889
H  H15  1  0.16590000  0.43570000  0.62370000  1.0 0.1189841889
H  H16  1  0.33410000  0.06430000  0.62370000  1.0 0.1189841889
H  H17  1  0.29240000  0.58410000  0.14850000  1.0 0.1403109207
H  H18  1  0.20760000  0.91590000  0.14850000  1.0 0.1403109207
H  H19  1  0.29240000  0.41590000  0.64850000  1.0 0.1403109207
H  H20  1  0.20760000  0.08410000  0.64850000  1.0 0.1403109207
H  H21  1  0.40250000  0.45810000  0.14290000  1.0 0.1515972297
H  H22  1  0.09750000  0.04190000  0.14290000  1.0 0.1515972297
H  H23  1  0.40250000  0.54190000  0.64290000  1.0 0.1515972297
H  H24  1  0.09750000  0.95810000  0.64290000  1.0 0.1515972297
H  H25  1  0.27100000  0.45010000  0.11500000  1.0 0.1189841889
H  H26  1  0.22900000  0.04990000  0.11500000  1.0 0.1189841889
H  H27  1  0.27100000  0.54990000  0.61500000  1.0 0.1189841889
H  H28  1  0.22900000  0.95010000  0.61500000  1.0 0.1189841889
H  H29  1  0.78700000  0.66910000  0.32520000  1.0 0.1036452606
H  H30  1  0.71300000  0.83090000  0.32520000  1.0 0.1036452606
H  H31  1  0.78700000  0.33090000  0.82520000  1.0 0.1036452606
H  H32  1  0.71300000  0.16910000  0.82520000  1.0 0.1036452606
H  H33  1  0.78490000  0.61920000  0.29270000  1.0 0.1403109207
H  H34  1  0.71510000  0.88080000  0.29270000  1.0 0.1403109207
H  H35  1  0.78490000  0.38080000  0.79270000  1.0 0.1403109207
H  H36  1  0.71510000  0.11920000  0.79270000  1.0 0.1403109207
H  H37  1  0.59520000  0.70230000  0.26590000  1.0 0.1761009412
H  H38  1  0.90480000  0.79770000  0.26590000  1.0 0.1761009412
H  H39  1  0.59520000  0.29770000  0.76590000  1.0 0.1761009412
H  H40  1  0.90480000  0.20230000  0.76590000  1.0 0.1761009412
H  H41  1  0.61940000  0.74600000  0.29560000  1.0 0.1114621563
H  H42  1  0.88060000  0.75400000  0.29560000  1.0 0.1114621563
H  H43  1  0.61940000  0.25400000  0.79560000  1.0 0.1114621563
H  H44  1  0.88060000  0.24600000  0.79560000  1.0 0.1114621563
H  H45  1  0.94530000  0.53680000  0.09190000  1.0 0.1114621563
H  H46  1  0.55470000  0.96320000  0.09190000  1.0 0.1114621563
H  H47  1  0.94530000  0.46320000  0.59190000  1.0 0.1189841889
H  H48  1  0.55470000  0.03680000  0.59190000  1.0 0.1114621563
H  H49  1  0.82260000  0.55840000  0.11580000  1.0 0.1403109207
H  H50  1  0.67740000  0.94160000  0.11580000  1.0 0.1403109207
H  H51  1  0.82260000  0.44160000  0.61580000  1.0 0.1403109207
H  H52  1  0.67740000  0.05840000  0.61580000  1.0 0.1403109207
H  H53  1  0.94220000  0.48590000  0.17050000  1.0 0.1515972297
H  H54  1  0.55780000  0.01410000  0.17050000  1.0 0.1566243262
H  H55  1  0.94220000  0.51410000  0.67050000  1.0 0.1566243262
H  H56  1  0.55780000  0.98590000  0.67050000  1.0 0.1566243262
H  H57  1  0.06100000  0.46810000  0.14480000  1.0 0.1189841889
H  H58  1  0.43900000  0.03190000  0.14480000  1.0 0.1189841889
H  H59  1  0.06100000  0.53190000  0.64480000  1.0 0.1189841889
H  H60  1  0.43900000  0.96810000  0.64480000  1.0 0.1189841889
H  H61  1  0.48800000  0.62580000  0.20740000  1.0 0.1290125629
H  H62  1  0.01200000  0.87420000  0.20740000  1.0 0.1290125629
H  H63  1  0.48800000  0.37420000  0.70740000  1.0 0.1290125629
H  H64  1  0.01200000  0.12580000  0.70740000  1.0 0.1290125629
H  H65  1  0.76010000  0.59480000  0.21760000  1.0 0.1290125629
H  H66  1  0.73990000  0.90520000  0.21760000  1.0 0.1189841889
H  H67  1  0.76010000  0.40520000  0.71760000  1.0 0.1189841889
H  H68  1  0.73990000  0.09480000  0.71760000  1.0 0.1189841889
H  H69  1  0.61020000  0.53590000  0.16510000  1.0 0.1114621563
H  H70  1  0.88980000  0.96410000  0.16510000  1.0 0.1114621563
H  H71  1  0.61020000  0.46410000  0.66510000  1.0 0.1114621563
H  H72  1  0.88980000  0.03590000  0.66510000  1.0 0.1114621563
H  H73  1  0.74630000  0.62410000  0.43150000  1.0 0.2871559728
H  H74  1  0.75370000  0.87590000  0.43150000  1.0 0.2871559728
H  H75  1  0.74630000  0.37590000  0.93150000  1.0 0.2871559728
H  H76  1  0.75370000  0.12410000  0.93150000  1.0 0.2871559728
H  H77  1  0.49130000  0.52990000  0.52530000  1.0 0.2801659995
H  H78  1  0.00870000  0.97010000  0.52530000  1.0 0.2801659995
H  H79  1  0.49130000  0.47010000  0.02530000  1.0 0.2801659995
H  H80  1  0.00870000  0.02990000  0.02530000  1.0 0.2801659995
H  H81  1  0.75160000  0.57310000  0.52900000  1.0 0.2801659995
H  H82  1  0.74840000  0.92690000  0.52900000  1.0 0.2801659995
H  H83  1  0.75160000  0.42690000  0.02900000  1.0 0.2801659995
H  H84  1  0.74840000  0.07310000  0.02900000  1.0 0.2801659995
H  H85  1  0.61040000  0.68600000  0.35540000  1.0 0.1114621563
H  H86  1  0.88960000  0.81400000  0.35540000  1.0 0.1114621563
H  H87  1  0.61040000  0.31400000  0.85540000  1.0 0.1114621563
H  H88  1  0.88960000  0.18600000  0.85540000  1.0 0.1114621563
H  H89  1  0.58810000  0.63840000  0.38410000  1.0 0.1566243262
H  H90  1  0.91190000  0.86160000  0.38410000  1.0 0.1566243262
H  H91  1  0.58810000  0.36160000  0.88410000  1.0 0.1566243262
H  H92  1  0.91190000  0.13840000  0.88410000  1.0 0.1566243262
H  H93  1  0.83310000  0.67230000  0.41170000  1.0 0.1515972297
H  H94  1  0.66690000  0.82770000  0.41170000  1.0 0.1515972297
H  H95  1  0.83310000  0.32770000  0.91170000  1.0 0.1515972297
H  H96  1  0.66690000  0.17230000  0.91170000  1.0 0.1515972297
H  H97  1  0.85720000  0.71990000  0.38230000  1.0 0.1114621563
H  H98  1  0.64280000  0.78010000  0.38230000  1.0 0.1114621563
H  H99  1  0.85720000  0.28010000  0.88230000  1.0 0.1114621563
H  H100  1  0.64280000  0.21990000  0.88230000  1.0 0.1114621563
H  H101  1  0.29240000  0.47500000  0.57670000  1.0 0.1036452606
H  H102  1  0.20760000  0.02500000  0.57670000  1.0 0.1036452606
H  H103  1  0.29240000  0.52500000  0.07670000  1.0 0.1036452606
H  H104  1  0.20760000  0.97500000  0.07670000  1.0 0.1036452606
H  H105  1  0.41660000  0.49090000  0.55360000  1.0 0.1403109207
H  H106  1  0.08340000  0.00910000  0.55360000  1.0 0.1403109207
H  H107  1  0.41660000  0.50910000  0.05360000  1.0 0.1403109207
H  H108  1  0.08340000  0.99090000  0.05360000  1.0 0.1403109207
H  H109  1  0.28340000  0.59520000  0.53040000  1.0 0.1566243262
H  H110  1  0.21660000  0.90480000  0.53040000  1.0 0.1566243262
H  H111  1  0.28340000  0.40480000  0.03040000  1.0 0.1566243262
H  H112  1  0.21660000  0.09520000  0.03040000  1.0 0.1566243262
H  H113  1  0.16700000  0.57780000  0.55890000  1.0 0.1114621563
H  H114  1  0.33300000  0.92220000  0.55890000  1.0 0.1114621563
H  H115  1  0.16700000  0.42220000  0.05890000  1.0 0.1114621563
H  H116  1  0.33300000  0.07780000  0.05890000  1.0 0.1114621563
H  H117  1  0.95420000  0.56950000  0.59060000  1.0 0.1114621563
H  H118  1  0.54580000  0.93050000  0.59060000  1.0 0.1114621563
H  H119  1  0.95420000  0.43050000  0.09060000  1.0 0.1114621563
H  H120  1  0.54580000  0.06950000  0.09060000  1.0 0.1114621563
H  H121  1  0.83690000  0.59000000  0.56530000  1.0 0.1403109207
H  H122  1  0.66310000  0.91000000  0.56530000  1.0 0.1403109207
H  H123  1  0.83690000  0.41000000  0.06530000  1.0 0.1403109207
H  H124  1  0.66310000  0.09000000  0.06530000  1.0 0.1403109207
H  H125  1  0.94620000  0.51170000  0.51550000  1.0 0.1566243262
H  H126  1  0.55380000  0.98830000  0.51550000  1.0 0.1566243262
H  H127  1  0.94620000  0.48830000  0.01550000  1.0 0.1566243262
H  H128  1  0.55380000  0.01170000  0.01550000  1.0 0.1566243262
H  H129  1  0.06450000  0.49180000  0.54550000  1.0 0.1114621563
H  H130  1  0.43550000  0.00820000  0.54550000  1.0 0.1114621563
H  H131  1  0.06450000  0.50820000  0.04550000  1.0 0.1114621563
H  H132  1  0.43550000  0.99180000  0.04550000  1.0 0.1114621563
H  H133  1  0.48310000  0.60680000  0.46320000  1.0 0.1403109207
H  H134  1  0.01690000  0.89320000  0.46320000  1.0 0.1403109207
H  H135  1  0.48310000  0.39320000  0.96320000  1.0 0.1403109207
H  H136  1  0.01690000  0.10680000  0.96320000  1.0 0.1403109207
H  H137  1  0.62160000  0.55620000  0.51780000  1.0 0.1114621563
H  H138  1  0.87840000  0.94380000  0.51780000  1.0 0.1114621563
H  H139  1  0.62160000  0.44380000  0.01780000  1.0 0.1114621563
H  H140  1  0.87840000  0.05620000  0.01780000  1.0 0.1114621563
H  H141  1  0.76630000  0.59090000  0.46080000  1.0 0.1189841889
H  H142  1  0.73370000  0.90910000  0.46080000  1.0 0.1189841889
H  H143  1  0.76630000  0.40910000  0.96080000  1.0 0.1189841889
H  H144  1  0.73370000  0.09090000  0.96080000  1.0 0.1189841889
H  H145  1  0.52180000  0.52360000  0.33560000  1.0 0.2801659995
H  H146  1  0.97820000  0.97640000  0.33560000  1.0 0.2801659995
H  H147  1  0.52180000  0.47640000  0.83560000  1.0 0.2801659995
H  H148  1  0.97820000  0.02360000  0.83560000  1.0 0.2801659995
H  H149  1  0.28340000  0.60620000  0.24310000  1.0 0.2871559728
H  H150  1  0.21660000  0.89380000  0.24310000  1.0 0.2871559728
H  H151  1  0.28340000  0.39380000  0.74310000  1.0 0.2871559728
H  H152  1  0.21660000  0.10620000  0.74310000  1.0 0.2871559728
H  H153  1  0.25050000  0.55180000  0.34890000  1.0 0.2871559728
H  H154  1  0.24950000  0.94820000  0.34890000  1.0 0.2871559728
H  H155  1  0.25050000  0.44820000  0.84890000  1.0 0.2871559728
H  H156  1  0.24950000  0.05180000  0.84890000  1.0 0.2871559728
H  H157  1  0.83410000  0.56430000  0.37630000  1.0 0.1189841889
H  H158  1  0.66590000  0.93570000  0.37630000  1.0 0.1189841889
H  H159  1  0.83410000  0.43570000  0.87630000  1.0 0.1189841889
H  H160  1  0.66590000  0.06430000  0.87630000  1.0 0.1189841889
H  H161  1  0.70760000  0.58410000  0.35150000  1.0 0.1403109207
H  H162  1  0.79240000  0.91590000  0.35150000  1.0 0.1403109207
H  H163  1  0.70760000  0.41590000  0.85150000  1.0 0.1403109207
H  H164  1  0.79240000  0.08410000  0.85150000  1.0 0.1403109207
H  H165  1  0.59750000  0.45810000  0.35710000  1.0 0.1515972297
H  H166  1  0.90250000  0.04190000  0.35710000  1.0 0.1515972297
H  H167  1  0.59750000  0.54190000  0.85710000  1.0 0.1515972297
H  H168  1  0.90250000  0.95810000  0.85710000  1.0 0.1515972297
H  H169  1  0.72900000  0.45010000  0.38500000  1.0 0.1189841889
H  H170  1  0.77100000  0.04990000  0.38500000  1.0 0.1189841889
H  H171  1  0.72900000  0.54990000  0.88500000  1.0 0.1189841889
H  H172  1  0.77100000  0.95010000  0.88500000  1.0 0.1189841889
H  H173  1  0.21300000  0.66910000  0.17480000  1.0 0.1036452606
H  H174  1  0.28700000  0.83090000  0.17480000  1.0 0.1036452606
H  H175  1  0.21300000  0.33090000  0.67480000  1.0 0.1036452606
H  H176  1  0.28700000  0.16910000  0.67480000  1.0 0.1036452606
H  H177  1  0.21510000  0.61920000  0.20730000  1.0 0.1403109207
H  H178  1  0.28490000  0.88080000  0.20730000  1.0 0.1403109207
H  H179  1  0.21510000  0.38080000  0.70730000  1.0 0.1403109207
H  H180  1  0.28490000  0.11920000  0.70730000  1.0 0.1403109207
H  H181  1  0.40480000  0.70230000  0.23410000  1.0 0.1761009412
H  H182  1  0.09520000  0.79770000  0.23410000  1.0 0.1742989054
H  H183  1  0.40480000  0.29770000  0.73410000  1.0 0.1761009412
H  H184  1  0.09520000  0.20230000  0.73410000  1.0 0.1761009412
H  H185  1  0.38060000  0.74600000  0.20440000  1.0 0.1114621563
H  H186  1  0.11940000  0.75400000  0.20440000  1.0 0.1114621563
H  H187  1  0.38060000  0.25400000  0.70440000  1.0 0.1114621563
H  H188  1  0.11940000  0.24600000  0.70440000  1.0 0.1114621563
H  H189  1  0.05470000  0.53680000  0.40810000  1.0 0.1114621563
H  H190  1  0.44530000  0.96320000  0.40810000  1.0 0.1189841889
H  H191  1  0.05470000  0.46320000  0.90810000  1.0 0.1114621563
H  H192  1  0.44530000  0.03680000  0.90810000  1.0 0.1114621563
H  H193  1  0.17740000  0.55840000  0.38420000  1.0 0.1403109207
H  H194  1  0.32260000  0.94160000  0.38420000  1.0 0.1403109207
H  H195  1  0.17740000  0.44160000  0.88420000  1.0 0.1403109207
H  H196  1  0.32260000  0.05840000  0.88420000  1.0 0.1403109207
H  H197  1  0.05780000  0.48590000  0.32950000  1.0 0.1566243262
H  H198  1  0.44220000  0.01410000  0.32950000  1.0 0.1566243262
H  H199  1  0.05780000  0.51410000  0.82950000  1.0 0.1566243262
H  H200  1  0.44220000  0.98590000  0.82950000  1.0 0.1515972297
H  H201  1  0.93900000  0.46810000  0.35520000  1.0 0.1189841889
H  H202  1  0.56100000  0.03190000  0.35520000  1.0 0.1189841889
H  H203  1  0.93900000  0.53190000  0.85520000  1.0 0.1189841889
H  H204  1  0.56100000  0.96810000  0.85520000  1.0 0.1189841889
H  H205  1  0.51200000  0.62580000  0.29260000  1.0 0.1290125629
H  H206  1  0.98800000  0.87420000  0.29260000  1.0 0.1290125629
H  H207  1  0.51200000  0.37420000  0.79260000  1.0 0.1290125629
H  H208  1  0.98800000  0.12580000  0.79260000  1.0 0.1290125629
H  H209  1  0.23990000  0.59480000  0.28240000  1.0 0.1290125629
H  H210  1  0.26010000  0.90520000  0.28240000  1.0 0.1189841889
H  H211  1  0.23990000  0.40520000  0.78240000  1.0 0.1189841889
H  H212  1  0.26010000  0.09480000  0.78240000  1.0 0.1189841889
H  H213  1  0.38980000  0.53590000  0.33490000  1.0 0.1114621563
H  H214  1  0.11020000  0.96410000  0.33490000  1.0 0.1114621563
H  H215  1  0.38980000  0.46410000  0.83490000  1.0 0.1114621563
H  H216  1  0.11020000  0.03590000  0.83490000  1.0 0.1114621563
H  H217  1  0.25370000  0.62410000  0.06850000  1.0 0.2871559728
H  H218  1  0.24630000  0.87590000  0.06850000  1.0 0.2871559728
H  H219  1  0.25370000  0.37590000  0.56850000  1.0 0.2871559728
H  H220  1  0.24630000  0.12410000  0.56850000  1.0 0.2871559728
H  H221  1  0.50870000  0.52990000  0.97470000  1.0 0.2801659995
H  H222  1  0.99130000  0.97010000  0.97470000  1.0 0.2801659995
H  H223  1  0.50870000  0.47010000  0.47470000  1.0 0.2801659995
H  H224  1  0.99130000  0.02990000  0.47470000  1.0 0.2801659995
H  H225  1  0.24840000  0.57310000  0.97100000  1.0 0.2801659995
H  H226  1  0.25160000  0.92690000  0.97100000  1.0 0.2801659995
H  H227  1  0.24840000  0.42690000  0.47100000  1.0 0.2801659995
H  H228  1  0.25160000  0.07310000  0.47100000  1.0 0.2801659995
H  H229  1  0.38960000  0.68600000  0.14460000  1.0 0.1114621563
H  H230  1  0.11040000  0.81400000  0.14460000  1.0 0.1114621563
H  H231  1  0.38960000  0.31400000  0.64460000  1.0 0.1114621563
H  H232  1  0.11040000  0.18600000  0.64460000  1.0 0.1114621563
H  H233  1  0.41190000  0.63840000  0.11590000  1.0 0.1566243262
H  H234  1  0.08810000  0.86160000  0.11590000  1.0 0.1566243262
H  H235  1  0.41190000  0.36160000  0.61590000  1.0 0.1566243262
H  H236  1  0.08810000  0.13840000  0.61590000  1.0 0.1566243262
H  H237  1  0.16690000  0.67230000  0.08830000  1.0 0.1515972297
H  H238  1  0.33310000  0.82770000  0.08830000  1.0 0.1515972297
H  H239  1  0.16690000  0.32770000  0.58830000  1.0 0.1515972297
H  H240  1  0.33310000  0.17230000  0.58830000  1.0 0.1515972297
H  H241  1  0.14280000  0.71990000  0.11770000  1.0 0.1189841889
H  H242  1  0.35720000  0.78010000  0.11770000  1.0 0.1114621563
H  H243  1  0.14280000  0.28010000  0.61770000  1.0 0.1189841889
H  H244  1  0.35720000  0.21990000  0.61770000  1.0 0.1114621563
H  H245  1  0.70760000  0.47500000  0.92330000  1.0 0.1036452606
H  H246  1  0.79240000  0.02500000  0.92330000  1.0 0.1036452606
H  H247  1  0.70760000  0.52500000  0.42330000  1.0 0.1036452606
H  H248  1  0.79240000  0.97500000  0.42330000  1.0 0.1036452606
H  H249  1  0.58340000  0.49090000  0.94640000  1.0 0.1403109207
H  H250  1  0.91660000  0.00910000  0.94640000  1.0 0.1403109207
H  H251  1  0.58340000  0.50910000  0.44640000  1.0 0.1403109207
H  H252  1  0.91660000  0.99090000  0.44640000  1.0 0.1403109207
H  H253  1  0.71660000  0.59520000  0.96960000  1.0 0.1566243262
H  H254  1  0.78340000  0.90480000  0.96960000  1.0 0.1566243262
H  H255  1  0.71660000  0.40480000  0.46960000  1.0 0.1566243262
H  H256  1  0.78340000  0.09520000  0.46960000  1.0 0.1566243262
H  H257  1  0.83300000  0.57780000  0.94110000  1.0 0.1114621563
H  H258  1  0.66700000  0.92220000  0.94110000  1.0 0.1114621563
H  H259  1  0.83300000  0.42220000  0.44110000  1.0 0.1114621563
H  H260  1  0.66700000  0.07780000  0.44110000  1.0 0.1114621563
H  H261  1  0.04580000  0.56950000  0.90940000  1.0 0.1114621563
H  H262  1  0.45420000  0.93050000  0.90940000  1.0 0.1114621563
H  H263  1  0.04580000  0.43050000  0.40940000  1.0 0.1114621563
H  H264  1  0.45420000  0.06950000  0.40940000  1.0 0.1114621563
H  H265  1  0.16310000  0.59000000  0.93470000  1.0 0.1403109207
H  H266  1  0.33690000  0.91000000  0.93470000  1.0 0.1403109207
H  H267  1  0.16310000  0.41000000  0.43470000  1.0 0.1403109207
H  H268  1  0.33690000  0.09000000  0.43470000  1.0 0.1403109207
H  H269  1  0.05380000  0.51170000  0.98450000  1.0 0.1566243262
H  H270  1  0.44620000  0.98830000  0.98450000  1.0 0.1566243262
H  H271  1  0.05380000  0.48830000  0.48450000  1.0 0.1566243262
H  H272  1  0.44620000  0.01170000  0.48450000  1.0 0.1566243262
H  H273  1  0.93550000  0.49180000  0.95450000  1.0 0.1114621563
H  H274  1  0.56450000  0.00820000  0.95450000  1.0 0.1114621563
H  H275  1  0.93550000  0.50820000  0.45450000  1.0 0.1114621563
H  H276  1  0.56450000  0.99180000  0.45450000  1.0 0.1114621563
H  H277  1  0.51690000  0.60680000  0.03680000  1.0 0.1403109207
H  H278  1  0.98310000  0.89320000  0.03680000  1.0 0.1403109207
H  H279  1  0.51690000  0.39320000  0.53680000  1.0 0.1403109207
H  H280  1  0.98310000  0.10680000  0.53680000  1.0 0.1403109207
H  H281  1  0.37840000  0.55620000  0.98220000  1.0 0.1114621563
H  H282  1  0.12160000  0.94380000  0.98220000  1.0 0.1114621563
H  H283  1  0.37840000  0.44380000  0.48220000  1.0 0.1114621563
H  H284  1  0.12160000  0.05620000  0.48220000  1.0 0.1114621563
H  H285  1  0.23370000  0.59090000  0.03920000  1.0 0.1189841889
H  H286  1  0.26630000  0.90910000  0.03920000  1.0 0.1189841889
H  H287  1  0.23370000  0.40910000  0.53920000  1.0 0.1189841889
H  H288  1  0.26630000  0.09090000  0.53920000  1.0 0.1189841889
C  C1  1  0.21410000  0.54500000  0.12717000  1.0 0.0794701545
C  C2  1  0.28590000  0.95500000  0.12717000  1.0 0.0794701545
C  C3  1  0.21410000  0.45500000  0.62717000  1.0 0.0794701545
C  C4  1  0.28590000  0.04500000  0.62717000  1.0 0.0794701545
C  C5  1  0.28740000  0.55680000  0.14221000  1.0 -0.2637171021
C  C6  1  0.21260000  0.94320000  0.14221000  1.0 -0.2637171021
C  C7  1  0.28740000  0.44320000  0.64221000  1.0 -0.2637171021
C  C8  1  0.21260000  0.05680000  0.64221000  1.0 -0.2637171021
C  C9  1  0.35480000  0.52450000  0.14746000  1.0 0.3296238041
C  C10  1  0.14520000  0.97550000  0.14746000  1.0 0.3296238041
C  C11  1  0.35480000  0.47550000  0.64746000  1.0 0.3296238041
C  C12  1  0.14520000  0.02450000  0.64746000  1.0 0.3296238041
C  C13  1  0.35880000  0.47910000  0.13886000  1.0 -0.309745557
C  C14  1  0.14120000  0.02090000  0.13886000  1.0 -0.309745557
C  C15  1  0.35880000  0.52090000  0.63886000  1.0 -0.309745557
C  C16  1  0.14120000  0.97910000  0.63886000  1.0 -0.309745557
C  C17  1  0.27780000  0.47610000  0.12274000  1.0 0.0944871955
C  C18  1  0.22220000  0.02390000  0.12274000  1.0 0.0944871955
C  C19  1  0.27780000  0.52390000  0.62274000  1.0 0.0944871955
C  C20  1  0.22220000  0.97610000  0.62274000  1.0 0.0944871955
C  C21  1  0.44150000  0.57880000  0.17157000  1.0 0.4710364633
C  C22  1  0.05850000  0.92120000  0.17157000  1.0 0.4710364633
C  C23  1  0.44150000  0.42120000  0.67157000  1.0 0.4710364633
C  C24  1  0.05850000  0.07880000  0.67157000  1.0 0.4710364633
C  C25  1  0.75120000  0.67800000  0.31206000  1.0 0.1114621563
C  C26  1  0.74880000  0.82200000  0.31206000  1.0 0.1114621563
C  C27  1  0.75120000  0.32200000  0.81206000  1.0 0.1114621563
C  C28  1  0.74880000  0.17800000  0.81206000  1.0 0.1114621563
C  C29  1  0.75060000  0.64440000  0.29281000  1.0 -0.3329501695
C  C30  1  0.74940000  0.85560000  0.29281000  1.0 -0.3377238133
C  C31  1  0.75060000  0.35560000  0.79281000  1.0 -0.3377238133
C  C32  1  0.74940000  0.14440000  0.79281000  1.0 -0.3377238133
C  C33  1  0.68740000  0.65910000  0.27501000  1.0 0.2494444443
C  C34  1  0.81260000  0.84090000  0.27501000  1.0 0.2494444443
C  C35  1  0.68740000  0.34090000  0.77501000  1.0 0.2494444443
C  C36  1  0.81260000  0.15910000  0.77501000  1.0 0.2494444443
C  C37  1  0.64010000  0.69500000  0.27752000  1.0 -0.177494678
C  C38  1  0.85990000  0.80500000  0.27752000  1.0 -0.177494678
C  C39  1  0.64010000  0.30500000  0.77752000  1.0 -0.177494678
C  C40  1  0.85990000  0.19500000  0.77752000  1.0 -0.177494678
C  C41  1  0.65360000  0.72070000  0.29544000  1.0 -0.0180745783
C  C42  1  0.84640000  0.77930000  0.29544000  1.0 -0.0180745783
C  C43  1  0.65360000  0.27930000  0.79544000  1.0 -0.0180745783
C  C44  1  0.84640000  0.22070000  0.79544000  1.0 -0.0180745783
C  C45  1  0.62500000  0.63350000  0.23760000  1.0 0.4377323284
C  C46  1  0.87500000  0.86650000  0.23760000  1.0 0.4377323284
C  C47  1  0.62500000  0.36650000  0.73760000  1.0 0.4377323284
C  C48  1  0.87500000  0.13350000  0.73760000  1.0 0.4377323284
C  C49  1  0.94250000  0.52690000  0.10766000  1.0 0.0608052471
C  C50  1  0.55750000  0.97310000  0.10766000  1.0 0.0608052471
C  C51  1  0.94250000  0.47310000  0.60766000  1.0 0.0608052471
C  C52  1  0.55750000  0.02690000  0.60766000  1.0 0.0608052471
C  C53  1  0.87020000  0.54040000  0.12130000  1.0 -0.2637171021
C  C54  1  0.62980000  0.95960000  0.12130000  1.0 -0.2637171021
C  C55  1  0.87020000  0.45960000  0.62130000  1.0 -0.2637171021
C  C56  1  0.62980000  0.04040000  0.62130000  1.0 -0.2637171021
C  C57  1  0.87390000  0.52380000  0.14560000  1.0 0.3097987404
C  C58  1  0.62610000  0.97620000  0.14560000  1.0 0.3097987404
C  C59  1  0.87390000  0.47620000  0.64560000  1.0 0.3097987404
C  C60  1  0.62610000  0.02380000  0.64560000  1.0 0.3097987404
C  C61  1  0.94370000  0.49600000  0.15483000  1.0 -0.2410394047
C  C62  1  0.55630000  0.00400000  0.15483000  1.0 -0.2410394047
C  C63  1  0.94370000  0.50400000  0.65483000  1.0 -0.2410394047
C  C64  1  0.55630000  0.99600000  0.65483000  1.0 -0.2410394047
C  C65  1  0.01200000  0.48550000  0.13923000  1.0 0.0794701545
C  C66  1  0.48800000  0.01450000  0.13923000  1.0 0.0794701545
C  C67  1  0.01200000  0.51450000  0.63923000  1.0 0.0794701545
C  C68  1  0.48800000  0.98550000  0.63923000  1.0 0.0794701545
C  C69  1  0.78640000  0.53880000  0.18249000  1.0 0.4710364633
C  C70  1  0.71360000  0.96120000  0.18249000  1.0 0.4710364633
C  C71  1  0.78640000  0.46120000  0.68249000  1.0 0.4710364633
C  C72  1  0.71360000  0.03880000  0.68249000  1.0 0.4710364633
C  C73  1  0.53740000  0.57910000  0.18559000  1.0 -0.0017218951
C  C74  1  0.96260000  0.92090000  0.18559000  1.0 -0.0017218951
C  C75  1  0.53740000  0.42090000  0.68559000  1.0 -0.0017218951
C  C76  1  0.96260000  0.07910000  0.68559000  1.0 -0.0017218951
C  C77  1  0.53810000  0.60740000  0.20400000  1.0 -0.1440265158
C  C78  1  0.96190000  0.89260000  0.20400000  1.0 -0.1440265158
C  C79  1  0.53810000  0.39260000  0.70400000  1.0 -0.1479380376
C  C80  1  0.96190000  0.10740000  0.70400000  1.0 -0.1440265158
C  C81  1  0.62100000  0.60590000  0.21698000  1.0 -0.0180745783
C  C82  1  0.87900000  0.89410000  0.21698000  1.0 -0.0180745783
C  C83  1  0.62100000  0.39410000  0.71698000  1.0 -0.0180745783
C  C84  1  0.87900000  0.10590000  0.71698000  1.0 -0.0180745783
C  C85  1  0.70290000  0.58800000  0.21006000  1.0 -0.1561737743
C  C86  1  0.79710000  0.91200000  0.21006000  1.0 -0.1561737743
C  C87  1  0.70290000  0.41200000  0.71006000  1.0 -0.1561737743
C  C88  1  0.79710000  0.08800000  0.71006000  1.0 -0.1561737743
C  C89  1  0.70010000  0.55900000  0.19118000  1.0 -0.0017218951
C  C90  1  0.79990000  0.94100000  0.19118000  1.0 -0.0017218951
C  C91  1  0.70010000  0.44100000  0.69118000  1.0 -0.0017218951
C  C92  1  0.79990000  0.05900000  0.69118000  1.0 -0.0017218951
C  C93  1  0.61490000  0.55440000  0.17808000  1.0 -0.2221765149
C  C94  1  0.88510000  0.94560000  0.17808000  1.0 -0.2221765149
C  C95  1  0.61490000  0.44560000  0.67808000  1.0 -0.2221765149
C  C96  1  0.88510000  0.05440000  0.67808000  1.0 -0.2221765149
C  C97  1  0.65830000  0.68320000  0.36682000  1.0 0.0794701545
C  C98  1  0.84170000  0.81680000  0.36682000  1.0 0.0794701545
C  C99  1  0.65830000  0.31680000  0.86682000  1.0 0.0794701545
C  C100  1  0.84170000  0.18320000  0.86682000  1.0 0.0794701545
C  C101  1  0.64210000  0.65550000  0.38422000  1.0 -0.2122518135
C  C102  1  0.85790000  0.84450000  0.38422000  1.0 -0.2122518135
C  C103  1  0.64210000  0.34450000  0.88422000  1.0 -0.2122518135
C  C104  1  0.85790000  0.15550000  0.88422000  1.0 -0.2122518135
C  C105  1  0.70750000  0.65280000  0.40255000  1.0 0.2494444443
C  C106  1  0.79250000  0.84720000  0.40255000  1.0 0.2494444443
C  C107  1  0.70750000  0.34720000  0.90255000  1.0 0.2494444443
C  C108  1  0.79250000  0.15280000  0.90255000  1.0 0.2494444443
C  C109  1  0.78570000  0.67570000  0.40012000  1.0 -0.2034736381
C  C110  1  0.71430000  0.82430000  0.40012000  1.0 -0.2034736381
C  C111  1  0.78570000  0.32430000  0.90012000  1.0 -0.2034736381
C  C112  1  0.71430000  0.17570000  0.90012000  1.0 -0.2034736381
C  C113  1  0.80230000  0.70340000  0.38246000  1.0 0.0217078702
C  C114  1  0.69770000  0.79660000  0.38246000  1.0 0.0217078702
C  C115  1  0.80230000  0.29660000  0.88246000  1.0 0.0217078702
C  C116  1  0.69770000  0.20340000  0.88246000  1.0 0.0217078702
C  C117  1  0.62150000  0.61550000  0.43291000  1.0 0.4482553719
C  C118  1  0.87850000  0.88450000  0.43291000  1.0 0.4482553719
C  C119  1  0.62150000  0.38450000  0.93291000  1.0 0.4482553719
C  C120  1  0.87850000  0.11550000  0.93291000  1.0 0.4482553719
C  C121  1  0.29060000  0.50000000  0.56786000  1.0 0.1189841889
C  C122  1  0.20940000  0.00000000  0.56786000  1.0 0.1189841889
C  C123  1  0.29060000  0.50000000  0.06786000  1.0 0.1189841889
C  C124  1  0.20940000  0.00000000  0.06786000  1.0 0.1189841889
C  C125  1  0.36400000  0.50900000  0.55346000  1.0 -0.2637171021
C  C126  1  0.13600000  0.99100000  0.55346000  1.0 -0.2637171021
C  C127  1  0.36400000  0.49100000  0.05346000  1.0 -0.2637171021
C  C128  1  0.13600000  0.00900000  0.05346000  1.0 -0.2637171021
C  C129  1  0.36530000  0.54360000  0.53855000  1.0 0.2977173185
C  C130  1  0.13470000  0.95640000  0.53855000  1.0 0.2977173185
C  C131  1  0.36530000  0.45640000  0.03855000  1.0 0.2977173185
C  C132  1  0.13470000  0.04360000  0.03855000  1.0 0.2977173185
C  C133  1  0.28830000  0.57100000  0.53993000  1.0 -0.2221765149
C  C134  1  0.21170000  0.92900000  0.53993000  1.0 -0.2221765149
C  C135  1  0.28830000  0.42900000  0.03993000  1.0 -0.2221765149
C  C136  1  0.21170000  0.07100000  0.03993000  1.0 -0.2221765149
C  C137  1  0.21820000  0.55940000  0.55672000  1.0 0.0608052471
C  C138  1  0.28180000  0.94060000  0.55672000  1.0 0.0608052471
C  C139  1  0.21820000  0.44060000  0.05672000  1.0 0.0608052471
C  C140  1  0.28180000  0.05940000  0.05672000  1.0 0.0608052471
C  C141  1  0.44610000  0.57290000  0.50448000  1.0 0.4622766158
C  C142  1  0.05390000  0.92710000  0.50448000  1.0 0.4622766158
C  C143  1  0.44610000  0.42710000  0.00448000  1.0 0.4622766158
C  C144  1  0.05390000  0.07290000  0.00448000  1.0 0.4622766158
C  C145  1  0.95370000  0.55850000  0.57507000  1.0 0.1036452606
C  C146  1  0.54630000  0.94150000  0.57507000  1.0 0.1036452606
C  C147  1  0.95370000  0.44150000  0.07507000  1.0 0.1036452606
C  C148  1  0.54630000  0.05850000  0.07507000  1.0 0.1036452606
C  C149  1  0.88150000  0.56970000  0.56069000  1.0 -0.2675926638
C  C150  1  0.61850000  0.93030000  0.56069000  1.0 -0.2675926638
C  C151  1  0.88150000  0.43030000  0.06069000  1.0 -0.2637171021
C  C152  1  0.61850000  0.06970000  0.06069000  1.0 -0.2675926638
C  C153  1  0.87680000  0.54930000  0.53838000  1.0 0.2740321016
C  C154  1  0.62320000  0.95070000  0.53838000  1.0 0.2740321016
C  C155  1  0.87680000  0.45070000  0.03838000  1.0 0.2740321016
C  C156  1  0.62320000  0.04930000  0.03838000  1.0 0.2740321016
C  C157  1  0.94550000  0.52290000  0.53100000  1.0 -0.2221765149
C  C158  1  0.55450000  0.97710000  0.53100000  1.0 -0.2221765149
C  C159  1  0.94550000  0.47710000  0.03100000  1.0 -0.2221765149
C  C160  1  0.55450000  0.02290000  0.03100000  1.0 -0.2221765149
C  C161  1  0.01970000  0.51280000  0.54874000  1.0 0.1114621563
C  C162  1  0.48030000  0.98720000  0.54874000  1.0 0.1036452606
C  C163  1  0.01970000  0.48720000  0.04874000  1.0 0.1114621563
C  C164  1  0.48030000  0.01280000  0.04874000  1.0 0.1114621563
C  C165  1  0.79640000  0.55430000  0.49908000  1.0 0.4710364633
C  C166  1  0.70360000  0.94570000  0.49908000  1.0 0.4710364633
C  C167  1  0.79640000  0.44570000  0.99908000  1.0 0.4710364633
C  C168  1  0.70360000  0.05430000  0.99908000  1.0 0.4710364633
C  C169  1  0.62090000  0.59740000  0.45709000  1.0 -0.0274383952
C  C170  1  0.87910000  0.90260000  0.45709000  1.0 -0.0274383952
C  C171  1  0.62090000  0.40260000  0.95709000  1.0 -0.0274383952
C  C172  1  0.87910000  0.09740000  0.95709000  1.0 -0.0274383952
C  C173  1  0.53840000  0.59480000  0.46951000  1.0 -0.1014068568
C  C174  1  0.96160000  0.90520000  0.46951000  1.0 -0.1014068568
C  C175  1  0.53840000  0.40520000  0.96951000  1.0 -0.1014068568
C  C176  1  0.96160000  0.09480000  0.96951000  1.0 -0.1014068568
C  C177  1  0.53550000  0.57440000  0.49127000  1.0 -0.0274383952
C  C178  1  0.96450000  0.92560000  0.49127000  1.0 -0.0274383952
C  C179  1  0.53550000  0.42560000  0.99127000  1.0 -0.0274383952
C  C180  1  0.96450000  0.07440000  0.99127000  1.0 -0.0274383952
C  C181  1  0.62070000  0.56420000  0.50175000  1.0 -0.1912059703
C  C182  1  0.87930000  0.93580000  0.50175000  1.0 -0.1912059703
C  C183  1  0.62070000  0.43580000  0.00175000  1.0 -0.1912059703
C  C184  1  0.87930000  0.06420000  0.00175000  1.0 -0.1912059703
C  C185  1  0.70520000  0.56540000  0.48916000  1.0 -0.0180745783
C  C186  1  0.79480000  0.93460000  0.48916000  1.0 -0.0180745783
C  C187  1  0.70520000  0.43460000  0.98916000  1.0 -0.0180745783
C  C188  1  0.79480000  0.06540000  0.98916000  1.0 -0.0180745783
C  C189  1  0.70830000  0.58520000  0.46820000  1.0 -0.1479380376
C  C190  1  0.79170000  0.91480000  0.46820000  1.0 -0.1479380376
C  C191  1  0.70830000  0.41480000  0.96820000  1.0 -0.1479380376
C  C192  1  0.79170000  0.08520000  0.96820000  1.0 -0.1479380376
C  C193  1  0.78590000  0.54500000  0.37283000  1.0 0.0794701545
C  C194  1  0.71410000  0.95500000  0.37283000  1.0 0.0794701545
C  C195  1  0.78590000  0.45500000  0.87283000  1.0 0.0794701545
C  C196  1  0.71410000  0.04500000  0.87283000  1.0 0.0794701545
C  C197  1  0.71260000  0.55680000  0.35779000  1.0 -0.2637171021
C  C198  1  0.78740000  0.94320000  0.35779000  1.0 -0.2637171021
C  C199  1  0.71260000  0.44320000  0.85779000  1.0 -0.2637171021
C  C200  1  0.78740000  0.05680000  0.85779000  1.0 -0.2637171021
C  C201  1  0.64520000  0.52450000  0.35254000  1.0 0.3296238041
C  C202  1  0.85480000  0.97550000  0.35254000  1.0 0.3296238041
C  C203  1  0.64520000  0.47550000  0.85254000  1.0 0.3296238041
C  C204  1  0.85480000  0.02450000  0.85254000  1.0 0.3296238041
C  C205  1  0.64120000  0.47910000  0.36114000  1.0 -0.309745557
C  C206  1  0.85880000  0.02090000  0.36114000  1.0 -0.309745557
C  C207  1  0.64120000  0.52090000  0.86114000  1.0 -0.309745557
C  C208  1  0.85880000  0.97910000  0.86114000  1.0 -0.309745557
C  C209  1  0.72220000  0.47610000  0.37726000  1.0 0.0944871955
C  C210  1  0.77780000  0.02390000  0.37726000  1.0 0.0944871955
C  C211  1  0.72220000  0.52390000  0.87726000  1.0 0.0944871955
C  C212  1  0.77780000  0.97610000  0.87726000  1.0 0.0944871955
C  C213  1  0.55850000  0.57880000  0.32843000  1.0 0.4710364633
C  C214  1  0.94150000  0.92120000  0.32843000  1.0 0.4710364633
C  C215  1  0.55850000  0.42120000  0.82843000  1.0 0.4710364633
C  C216  1  0.94150000  0.07880000  0.82843000  1.0 0.4710364633
C  C217  1  0.24880000  0.67800000  0.18794000  1.0 0.1114621563
C  C218  1  0.25120000  0.82200000  0.18794000  1.0 0.1114621563
C  C219  1  0.24880000  0.32200000  0.68794000  1.0 0.1114621563
C  C220  1  0.25120000  0.17800000  0.68794000  1.0 0.1114621563
C  C221  1  0.24940000  0.64440000  0.20719000  1.0 -0.3329501695
C  C222  1  0.25060000  0.85560000  0.20719000  1.0 -0.3377238133
C  C223  1  0.24940000  0.35560000  0.70719000  1.0 -0.3377238133
C  C224  1  0.25060000  0.14440000  0.70719000  1.0 -0.3329501695
C  C225  1  0.31260000  0.65910000  0.22499000  1.0 0.2494444443
C  C226  1  0.18740000  0.84090000  0.22499000  1.0 0.2494444443
C  C227  1  0.31260000  0.34090000  0.72499000  1.0 0.2494444443
C  C228  1  0.18740000  0.15910000  0.72499000  1.0 0.2494444443
C  C229  1  0.35990000  0.69500000  0.22248000  1.0 -0.177494678
C  C230  1  0.14010000  0.80500000  0.22248000  1.0 -0.177494678
C  C231  1  0.35990000  0.30500000  0.72248000  1.0 -0.177494678
C  C232  1  0.14010000  0.19500000  0.72248000  1.0 -0.177494678
C  C233  1  0.34640000  0.72070000  0.20456000  1.0 -0.0180745783
C  C234  1  0.15360000  0.77930000  0.20456000  1.0 -0.0180745783
C  C235  1  0.34640000  0.27930000  0.70456000  1.0 -0.0180745783
C  C236  1  0.15360000  0.22070000  0.70456000  1.0 -0.0180745783
C  C237  1  0.37500000  0.63350000  0.26240000  1.0 0.4377323284
C  C238  1  0.12500000  0.86650000  0.26240000  1.0 0.4377323284
C  C239  1  0.37500000  0.36650000  0.76240000  1.0 0.4377323284
C  C240  1  0.12500000  0.13350000  0.76240000  1.0 0.4377323284
C  C241  1  0.05750000  0.52690000  0.39234000  1.0 0.0608052471
C  C242  1  0.44250000  0.97310000  0.39234000  1.0 0.0608052471
C  C243  1  0.05750000  0.47310000  0.89234000  1.0 0.0608052471
C  C244  1  0.44250000  0.02690000  0.89234000  1.0 0.0608052471
C  C245  1  0.12980000  0.54040000  0.37870000  1.0 -0.2637171021
C  C246  1  0.37020000  0.95960000  0.37870000  1.0 -0.2637171021
C  C247  1  0.12980000  0.45960000  0.87870000  1.0 -0.2637171021
C  C248  1  0.37020000  0.04040000  0.87870000  1.0 -0.2637171021
C  C249  1  0.12610000  0.52380000  0.35440000  1.0 0.3097987404
C  C250  1  0.37390000  0.97620000  0.35440000  1.0 0.3097987404
C  C251  1  0.12610000  0.47620000  0.85440000  1.0 0.3097987404
C  C252  1  0.37390000  0.02380000  0.85440000  1.0 0.3097987404
C  C253  1  0.05630000  0.49600000  0.34517000  1.0 -0.2410394047
C  C254  1  0.44370000  0.00400000  0.34517000  1.0 -0.2410394047
C  C255  1  0.05630000  0.50400000  0.84517000  1.0 -0.2504435064
C  C256  1  0.44370000  0.99600000  0.84517000  1.0 -0.2410394047
C  C257  1  0.98800000  0.48550000  0.36077000  1.0 0.0794701545
C  C258  1  0.51200000  0.01450000  0.36077000  1.0 0.0794701545
C  C259  1  0.98800000  0.51450000  0.86077000  1.0 0.0794701545
C  C260  1  0.51200000  0.98550000  0.86077000  1.0 0.0794701545
C  C261  1  0.21360000  0.53880000  0.31751000  1.0 0.4710364633
C  C262  1  0.28640000  0.96120000  0.31751000  1.0 0.4710364633
C  C263  1  0.21360000  0.46120000  0.81751000  1.0 0.4710364633
C  C264  1  0.28640000  0.03880000  0.81751000  1.0 0.4710364633
C  C265  1  0.46260000  0.57910000  0.31441000  1.0 -0.0017218951
C  C266  1  0.03740000  0.92090000  0.31441000  1.0 -0.0017218951
C  C267  1  0.46260000  0.42090000  0.81441000  1.0 -0.0017218951
C  C268  1  0.03740000  0.07910000  0.81441000  1.0 -0.0017218951
C  C269  1  0.46190000  0.60740000  0.29600000  1.0 -0.1440265158
C  C270  1  0.03810000  0.89260000  0.29600000  1.0 -0.1440265158
C  C271  1  0.46190000  0.39260000  0.79600000  1.0 -0.1479380376
C  C272  1  0.03810000  0.10740000  0.79600000  1.0 -0.1479380376
C  C273  1  0.37900000  0.60590000  0.28302000  1.0 -0.0180745783
C  C274  1  0.12100000  0.89410000  0.28302000  1.0 -0.0147069295
C  C275  1  0.37900000  0.39410000  0.78302000  1.0 -0.0147069295
C  C276  1  0.12100000  0.10590000  0.78302000  1.0 -0.0180745783
C  C277  1  0.29710000  0.58800000  0.28994000  1.0 -0.1561737743
C  C278  1  0.20290000  0.91200000  0.28994000  1.0 -0.1561737743
C  C279  1  0.29710000  0.41200000  0.78994000  1.0 -0.1561737743
C  C280  1  0.20290000  0.08800000  0.78994000  1.0 -0.1561737743
C  C281  1  0.29990000  0.55900000  0.30882000  1.0 -0.0017218951
C  C282  1  0.20010000  0.94100000  0.30882000  1.0 -0.0017218951
C  C283  1  0.29990000  0.44100000  0.80882000  1.0 -0.0017218951
C  C284  1  0.20010000  0.05900000  0.80882000  1.0 -0.0017218951
C  C285  1  0.38510000  0.55440000  0.32192000  1.0 -0.2221765149
C  C286  1  0.11490000  0.94560000  0.32192000  1.0 -0.2221765149
C  C287  1  0.38510000  0.44560000  0.82192000  1.0 -0.2221765149
C  C288  1  0.11490000  0.05440000  0.82192000  1.0 -0.2221765149
C  C289  1  0.34170000  0.68320000  0.13318000  1.0 0.0794701545
C  C290  1  0.15830000  0.81680000  0.13318000  1.0 0.0794701545
C  C291  1  0.34170000  0.31680000  0.63318000  1.0 0.0794701545
C  C292  1  0.15830000  0.18320000  0.63318000  1.0 0.0794701545
C  C293  1  0.35790000  0.65550000  0.11578000  1.0 -0.2122518135
C  C294  1  0.14210000  0.84450000  0.11578000  1.0 -0.2122518135
C  C295  1  0.35790000  0.34450000  0.61578000  1.0 -0.2122518135
C  C296  1  0.14210000  0.15550000  0.61578000  1.0 -0.2122518135
C  C297  1  0.29250000  0.65280000  0.09745000  1.0 0.2494444443
C  C298  1  0.20750000  0.84720000  0.09745000  1.0 0.2494444443
C  C299  1  0.29250000  0.34720000  0.59745000  1.0 0.2494444443
C  C300  1  0.20750000  0.15280000  0.59745000  1.0 0.2494444443
C  C301  1  0.21430000  0.67570000  0.09988000  1.0 -0.2034736381
C  C302  1  0.28570000  0.82430000  0.09988000  1.0 -0.2034736381
C  C303  1  0.21430000  0.32430000  0.59988000  1.0 -0.2034736381
C  C304  1  0.28570000  0.17570000  0.59988000  1.0 -0.2034736381
C  C305  1  0.19770000  0.70340000  0.11754000  1.0 0.0217078702
C  C306  1  0.30230000  0.79660000  0.11754000  1.0 0.0217078702
C  C307  1  0.19770000  0.29660000  0.61754000  1.0 0.0217078702
C  C308  1  0.30230000  0.20340000  0.61754000  1.0 0.0217078702
C  C309  1  0.37850000  0.61550000  0.06709000  1.0 0.4482553719
C  C310  1  0.12150000  0.88450000  0.06709000  1.0 0.4482553719
C  C311  1  0.37850000  0.38450000  0.56709000  1.0 0.4482553719
C  C312  1  0.12150000  0.11550000  0.56709000  1.0 0.4482553719
C  C313  1  0.70940000  0.50000000  0.93214000  1.0 0.1189841889
C  C314  1  0.79060000  0.00000000  0.93214000  1.0 0.1189841889
C  C315  1  0.70940000  0.50000000  0.43214000  1.0 0.1189841889
C  C316  1  0.79060000  0.00000000  0.43214000  1.0 0.1189841889
C  C317  1  0.63600000  0.50900000  0.94654000  1.0 -0.2637171021
C  C318  1  0.86400000  0.99100000  0.94654000  1.0 -0.2637171021
C  C319  1  0.63600000  0.49100000  0.44654000  1.0 -0.2637171021
C  C320  1  0.86400000  0.00900000  0.44654000  1.0 -0.2637171021
C  C321  1  0.63470000  0.54360000  0.96145000  1.0 0.2977173185
C  C322  1  0.86530000  0.95640000  0.96145000  1.0 0.2977173185
C  C323  1  0.63470000  0.45640000  0.46145000  1.0 0.2977173185
C  C324  1  0.86530000  0.04360000  0.46145000  1.0 0.2977173185
C  C325  1  0.71170000  0.57100000  0.96007000  1.0 -0.2221765149
C  C326  1  0.78830000  0.92900000  0.96007000  1.0 -0.2221765149
C  C327  1  0.71170000  0.42900000  0.46007000  1.0 -0.2221765149
C  C328  1  0.78830000  0.07100000  0.46007000  1.0 -0.2221765149
C  C329  1  0.78180000  0.55940000  0.94328000  1.0 0.0608052471
C  C330  1  0.71820000  0.94060000  0.94328000  1.0 0.0608052471
C  C331  1  0.78180000  0.44060000  0.44328000  1.0 0.0608052471
C  C332  1  0.71820000  0.05940000  0.44328000  1.0 0.0608052471
C  C333  1  0.55390000  0.57290000  0.99552000  1.0 0.4622766158
C  C334  1  0.94610000  0.92710000  0.99552000  1.0 0.4622766158
C  C335  1  0.55390000  0.42710000  0.49552000  1.0 0.4622766158
C  C336  1  0.94610000  0.07290000  0.49552000  1.0 0.4622766158
C  C337  1  0.04630000  0.55850000  0.92493000  1.0 0.1036452606
C  C338  1  0.45370000  0.94150000  0.92493000  1.0 0.1036452606
C  C339  1  0.04630000  0.44150000  0.42493000  1.0 0.1036452606
C  C340  1  0.45370000  0.05850000  0.42493000  1.0 0.1036452606
C  C341  1  0.11850000  0.56970000  0.93931000  1.0 -0.2675926638
C  C342  1  0.38150000  0.93030000  0.93931000  1.0 -0.2675926638
C  C343  1  0.11850000  0.43030000  0.43931000  1.0 -0.2675926638
C  C344  1  0.38150000  0.06970000  0.43931000  1.0 -0.2675926638
C  C345  1  0.12320000  0.54930000  0.96162000  1.0 0.2740321016
C  C346  1  0.37680000  0.95070000  0.96162000  1.0 0.2740321016
C  C347  1  0.12320000  0.45070000  0.46162000  1.0 0.2740321016
C  C348  1  0.37680000  0.04930000  0.46162000  1.0 0.2740321016
C  C349  1  0.05450000  0.52290000  0.96900000  1.0 -0.2221765149
C  C350  1  0.44550000  0.97710000  0.96900000  1.0 -0.2221765149
C  C351  1  0.05450000  0.47710000  0.46900000  1.0 -0.2221765149
C  C352  1  0.44550000  0.02290000  0.46900000  1.0 -0.2221765149
C  C353  1  0.98030000  0.51280000  0.95126000  1.0 0.1114621563
C  C354  1  0.51970000  0.98720000  0.95126000  1.0 0.1114621563
C  C355  1  0.98030000  0.48720000  0.45126000  1.0 0.1114621563
C  C356  1  0.51970000  0.01280000  0.45126000  1.0 0.1114621563
C  C357  1  0.20360000  0.55430000  0.00092000  1.0 0.4710364633
C  C358  1  0.29640000  0.94570000  0.00092000  1.0 0.4710364633
C  C359  1  0.20360000  0.44570000  0.50092000  1.0 0.4710364633
C  C360  1  0.29640000  0.05430000  0.50092000  1.0 0.4710364633
C  C361  1  0.37910000  0.59740000  0.04291000  1.0 -0.0274383952
C  C362  1  0.12090000  0.90260000  0.04291000  1.0 -0.0274383952
C  C363  1  0.37910000  0.40260000  0.54291000  1.0 -0.0274383952
C  C364  1  0.12090000  0.09740000  0.54291000  1.0 -0.0274383952
C  C365  1  0.46160000  0.59480000  0.03049000  1.0 -0.1014068568
C  C366  1  0.03840000  0.90520000  0.03049000  1.0 -0.1014068568
C  C367  1  0.46160000  0.40520000  0.53049000  1.0 -0.1014068568
C  C368  1  0.03840000  0.09480000  0.53049000  1.0 -0.1014068568
C  C369  1  0.46450000  0.57440000  0.00873000  1.0 -0.0274383952
C  C370  1  0.03550000  0.92560000  0.00873000  1.0 -0.0274383952
C  C371  1  0.46450000  0.42560000  0.50873000  1.0 -0.0274383952
C  C372  1  0.03550000  0.07440000  0.50873000  1.0 -0.0274383952
C  C373  1  0.37930000  0.56420000  0.99825000  1.0 -0.1912059703
C  C374  1  0.12070000  0.93580000  0.99825000  1.0 -0.1912059703
C  C375  1  0.37930000  0.43580000  0.49825000  1.0 -0.1912059703
C  C376  1  0.12070000  0.06420000  0.49825000  1.0 -0.1912059703
C  C377  1  0.29480000  0.56540000  0.01084000  1.0 -0.0180745783
C  C378  1  0.20520000  0.93460000  0.01084000  1.0 -0.0180745783
C  C379  1  0.29480000  0.43460000  0.51084000  1.0 -0.0180745783
C  C380  1  0.20520000  0.06540000  0.51084000  1.0 -0.0180745783
C  C381  1  0.29170000  0.58520000  0.03180000  1.0 -0.1479380376
C  C382  1  0.20830000  0.91480000  0.03180000  1.0 -0.1479380376
C  C383  1  0.29170000  0.41480000  0.53180000  1.0 -0.1479380376
C  C384  1  0.20830000  0.08520000  0.53180000  1.0 -0.1479380376
N  N1  1  0.21110000  0.50510000  0.11723000  1.0 -0.2504435064
N  N2  1  0.28890000  0.99490000  0.11723000  1.0 -0.2504435064
N  N3  1  0.21110000  0.49490000  0.61723000  1.0 -0.2504435064
N  N4  1  0.28890000  0.00510000  0.61723000  1.0 -0.2504435064
N  N5  1  0.71990000  0.71239000  0.31561000  1.0 -0.2410394047
N  N6  1  0.78010000  0.78761000  0.31561000  1.0 -0.2410394047
N  N7  1  0.71990000  0.28761000  0.81561000  1.0 -0.2410394047
N  N8  1  0.78010000  0.21239000  0.81561000  1.0 -0.2410394047
N  N9  1  0.01580000  0.49850000  0.11524000  1.0 -0.2675926638
N  N10  1  0.48420000  0.00150000  0.11524000  1.0 -0.2784699866
N  N11  1  0.01580000  0.50150000  0.61524000  1.0 -0.2784699866
N  N12  1  0.48420000  0.99850000  0.61524000  1.0 -0.2784699866
N  N13  1  0.43190000  0.54100000  0.16185000  1.0 -0.3703661858
N  N14  1  0.06810000  0.95900000  0.16185000  1.0 -0.3703661858
N  N15  1  0.43190000  0.45900000  0.66185000  1.0 -0.3703661858
N  N16  1  0.06810000  0.04100000  0.66185000  1.0 -0.3703661858
N  N17  1  0.68160000  0.62860000  0.25609000  1.0 -0.3329501695
N  N18  1  0.81840000  0.87140000  0.25609000  1.0 -0.3329501695
N  N19  1  0.68160000  0.37140000  0.75609000  1.0 -0.3329501695
N  N20  1  0.81840000  0.12860000  0.75609000  1.0 -0.3329501695
N  N21  1  0.79510000  0.54010000  0.15911000  1.0 -0.379389047
N  N22  1  0.70490000  0.95990000  0.15911000  1.0 -0.379389047
N  N23  1  0.79510000  0.45990000  0.65911000  1.0 -0.379389047
N  N24  1  0.70490000  0.04010000  0.65911000  1.0 -0.379389047
N  N25  1  0.73320000  0.70681000  0.36382000  1.0 -0.2504435064
N  N26  1  0.76680000  0.79319000  0.36382000  1.0 -0.2410394047
N  N27  1  0.73320000  0.29319000  0.86382000  1.0 -0.2504435064
N  N28  1  0.76680000  0.20681000  0.86382000  1.0 -0.2504435064
N  N29  1  0.22010000  0.52340000  0.56998000  1.0 -0.2410394047
N  N30  1  0.27990000  0.97660000  0.56998000  1.0 -0.2410394047
N  N31  1  0.22010000  0.47660000  0.06998000  1.0 -0.2410394047
N  N32  1  0.27990000  0.02340000  0.06998000  1.0 -0.2410394047
N  N33  1  0.02220000  0.53360000  0.56914000  1.0 -0.2221765149
N  N34  1  0.47780000  0.96640000  0.56914000  1.0 -0.2221765149
N  N35  1  0.02220000  0.46640000  0.06914000  1.0 -0.2221765149
N  N36  1  0.47780000  0.03360000  0.06914000  1.0 -0.2221765149
N  N37  1  0.69470000  0.62950000  0.42367000  1.0 -0.3377238133
N  N38  1  0.80530000  0.87050000  0.42367000  1.0 -0.3377238133
N  N39  1  0.69470000  0.37050000  0.92367000  1.0 -0.3377238133
N  N40  1  0.80530000  0.12950000  0.92367000  1.0 -0.3377238133
N  N41  1  0.44310000  0.54630000  0.52286000  1.0 -0.3956860522
N  N42  1  0.05690000  0.95370000  0.52286000  1.0 -0.3956860522
N  N43  1  0.44310000  0.45370000  0.02286000  1.0 -0.3956860522
N  N44  1  0.05690000  0.04630000  0.02286000  1.0 -0.3956860522
N  N45  1  0.80000000  0.56080000  0.52253000  1.0 -0.3703661858
N  N46  1  0.70000000  0.93920000  0.52253000  1.0 -0.3643824974
N  N47  1  0.80000000  0.43920000  0.02253000  1.0 -0.3703661858
N  N48  1  0.70000000  0.06080000  0.02253000  1.0 -0.3703661858
N  N49  1  0.78890000  0.50510000  0.38277000  1.0 -0.2504435064
N  N50  1  0.71110000  0.99490000  0.38277000  1.0 -0.2504435064
N  N51  1  0.78890000  0.49490000  0.88277000  1.0 -0.2504435064
N  N52  1  0.71110000  0.00510000  0.88277000  1.0 -0.2504435064
N  N53  1  0.28010000  0.71239000  0.18439000  1.0 -0.2410394047
N  N54  1  0.21990000  0.78761000  0.18439000  1.0 -0.2410394047
N  N55  1  0.28010000  0.28761000  0.68439000  1.0 -0.2410394047
N  N56  1  0.21990000  0.21239000  0.68439000  1.0 -0.2410394047
N  N57  1  0.98420000  0.49850000  0.38476000  1.0 -0.2675926638
N  N58  1  0.51580000  0.00150000  0.38476000  1.0 -0.2784699866
N  N59  1  0.98420000  0.50150000  0.88476000  1.0 -0.2784699866
N  N60  1  0.51580000  0.99850000  0.88476000  1.0 -0.2784699866
N  N61  1  0.56810000  0.54100000  0.33815000  1.0 -0.3703661858
N  N62  1  0.93190000  0.95900000  0.33815000  1.0 -0.3703661858
N  N63  1  0.56810000  0.45900000  0.83815000  1.0 -0.3703661858
N  N64  1  0.93190000  0.04100000  0.83815000  1.0 -0.3703661858
N  N65  1  0.31840000  0.62860000  0.24391000  1.0 -0.3329501695
N  N66  1  0.18160000  0.87140000  0.24391000  1.0 -0.3329501695
N  N67  1  0.31840000  0.37140000  0.74391000  1.0 -0.3329501695
N  N68  1  0.18160000  0.12860000  0.74391000  1.0 -0.3329501695
N  N69  1  0.20490000  0.54010000  0.34089000  1.0 -0.379389047
N  N70  1  0.29510000  0.95990000  0.34089000  1.0 -0.379389047
N  N71  1  0.20490000  0.45990000  0.84089000  1.0 -0.379389047
N  N72  1  0.29510000  0.04010000  0.84089000  1.0 -0.379389047
N  N73  1  0.26680000  0.70681000  0.13618000  1.0 -0.2504435064
N  N74  1  0.23320000  0.79319000  0.13618000  1.0 -0.2504435064
N  N75  1  0.26680000  0.29319000  0.63618000  1.0 -0.2504435064
N  N76  1  0.23320000  0.20681000  0.63618000  1.0 -0.2504435064
N  N77  1  0.77990000  0.52340000  0.93002000  1.0 -0.2410394047
N  N78  1  0.72010000  0.97660000  0.93002000  1.0 -0.2410394047
N  N79  1  0.77990000  0.47660000  0.43002000  1.0 -0.2410394047
N  N80  1  0.72010000  0.02340000  0.43002000  1.0 -0.2410394047
N  N81  1  0.97780000  0.53360000  0.93086000  1.0 -0.2221765149
N  N82  1  0.52220000  0.96640000  0.93086000  1.0 -0.2221765149
N  N83  1  0.97780000  0.46640000  0.43086000  1.0 -0.2221765149
N  N84  1  0.52220000  0.03360000  0.43086000  1.0 -0.2221765149
N  N85  1  0.30530000  0.62950000  0.07633000  1.0 -0.3377238133
N  N86  1  0.19470000  0.87050000  0.07633000  1.0 -0.3377238133
N  N87  1  0.30530000  0.37050000  0.57633000  1.0 -0.3377238133
N  N88  1  0.19470000  0.12950000  0.57633000  1.0 -0.3377238133
N  N89  1  0.55690000  0.54630000  0.97714000  1.0 -0.3956860522
N  N90  1  0.94310000  0.95370000  0.97714000  1.0 -0.3947305897
N  N91  1  0.55690000  0.45370000  0.47714000  1.0 -0.3956860522
N  N92  1  0.94310000  0.04630000  0.47714000  1.0 -0.3947305897
N  N93  1  0.20000000  0.56080000  0.97747000  1.0 -0.3703661858
N  N94  1  0.30000000  0.93920000  0.97747000  1.0 -0.3703661858
N  N95  1  0.20000000  0.43920000  0.47747000  1.0 -0.3703661858
N  N96  1  0.30000000  0.06080000  0.47747000  1.0 -0.3703661858
N  N97  1  0.42790000  0.08560000  0.56619000  1.0 0.7188474989
N  N98  1  0.57210000  0.08560000  0.93381000  1.0 0.7188474989
N  N99  1  0.92790000  0.41440000  0.93381000  1.0 0.7188474989
N  N100  1  0.07210000  0.41440000  0.56619000  1.0 0.7188474989
N  N101  1  0.57210000  0.91440000  0.43381000  1.0 0.7188474989
N  N102  1  0.42790000  0.91440000  0.06619000  1.0 0.7188474989
N  N103  1  0.07210000  0.58560000  0.06619000  1.0 0.7188474989
N  N104  1  0.92790000  0.58560000  0.43381000  1.0 0.7188474989
O  O1  1  0.39270000  0.60610000  0.17084000  1.0 -0.4085258202
O  O2  1  0.10730000  0.89390000  0.17084000  1.0 -0.4085258202
O  O3  1  0.39270000  0.39390000  0.67084000  1.0 -0.4085258202
O  O4  1  0.10730000  0.10610000  0.67084000  1.0 -0.4085258202
O  O5  1  0.58780000  0.67570000  0.23223000  1.0 -0.5857591369
O  O6  1  0.91220000  0.82430000  0.23223000  1.0 -0.5857591369
O  O7  1  0.58780000  0.32430000  0.73223000  1.0 -0.5857591369
O  O8  1  0.91220000  0.17570000  0.73223000  1.0 -0.5857591369
O  O9  1  0.84650000  0.52460000  0.19681000  1.0 -0.4810189561
O  O10  1  0.65350000  0.97540000  0.19681000  1.0 -0.4810189561
O  O11  1  0.84650000  0.47540000  0.69681000  1.0 -0.4810189561
O  O12  1  0.65350000  0.02460000  0.69681000  1.0 -0.4810189561
O  O13  1  0.12260000  0.41150000  0.10949000  1.0 -0.5422683576
O  O14  1  0.37740000  0.08850000  0.10949000  1.0 -0.5422683576
O  O15  1  0.12260000  0.58850000  0.60949000  1.0 -0.5422683576
O  O16  1  0.37740000  0.91150000  0.60949000  1.0 -0.5422683576
O  O17  1  0.54220000  0.61830000  0.42207000  1.0 -0.4888462511
O  O18  1  0.95780000  0.88170000  0.42207000  1.0 -0.4888462511
O  O19  1  0.54220000  0.38170000  0.92207000  1.0 -0.4888462511
O  O20  1  0.95780000  0.11830000  0.92207000  1.0 -0.4888462511
O  O21  1  0.37840000  0.59320000  0.49706000  1.0 -0.4429510342
O  O22  1  0.12160000  0.90680000  0.49706000  1.0 -0.4429510342
O  O23  1  0.37840000  0.40680000  0.99706000  1.0 -0.4429510342
O  O24  1  0.12160000  0.09320000  0.99706000  1.0 -0.4429510342
O  O25  1  0.85420000  0.53680000  0.48774000  1.0 -0.4085258202
O  O26  1  0.64580000  0.96320000  0.48774000  1.0 -0.4085258202
O  O27  1  0.85420000  0.46320000  0.98774000  1.0 -0.4085258202
O  O28  1  0.64580000  0.03680000  0.98774000  1.0 -0.4085258202
O  O29  1  0.60730000  0.60610000  0.32916000  1.0 -0.4085258202
O  O30  1  0.89270000  0.89390000  0.32916000  1.0 -0.4085258202
O  O31  1  0.60730000  0.39390000  0.82916000  1.0 -0.4085258202
O  O32  1  0.89270000  0.10610000  0.82916000  1.0 -0.4085258202
O  O33  1  0.41220000  0.67570000  0.26777000  1.0 -0.5814643124
O  O34  1  0.08780000  0.82430000  0.26777000  1.0 -0.5857591369
O  O35  1  0.41220000  0.32430000  0.76777000  1.0 -0.5814643124
O  O36  1  0.08780000  0.17570000  0.76777000  1.0 -0.5814643124
O  O37  1  0.15350000  0.52460000  0.30319000  1.0 -0.4810189561
O  O38  1  0.34650000  0.97540000  0.30319000  1.0 -0.4810189561
O  O39  1  0.15350000  0.47540000  0.80319000  1.0 -0.4810189561
O  O40  1  0.34650000  0.02460000  0.80319000  1.0 -0.4810189561
O  O41  1  0.87740000  0.41150000  0.39051000  1.0 -0.5422683576
O  O42  1  0.62260000  0.08850000  0.39051000  1.0 -0.5422683576
O  O43  1  0.87740000  0.58850000  0.89051000  1.0 -0.5327759603
O  O44  1  0.62260000  0.91150000  0.89051000  1.0 -0.5422683576
O  O45  1  0.45780000  0.61830000  0.07793000  1.0 -0.4888462511
O  O46  1  0.04220000  0.88170000  0.07793000  1.0 -0.4888462511
O  O47  1  0.45780000  0.38170000  0.57793000  1.0 -0.4888462511
O  O48  1  0.04220000  0.11830000  0.57793000  1.0 -0.4888462511
O  O49  1  0.62160000  0.59320000  0.00294000  1.0 -0.4429510342
O  O50  1  0.87840000  0.90680000  0.00294000  1.0 -0.4429510342
O  O51  1  0.62160000  0.40680000  0.50294000  1.0 -0.4429510342
O  O52  1  0.87840000  0.09320000  0.50294000  1.0 -0.4429510342
O  O53  1  0.14580000  0.53680000  0.01226000  1.0 -0.4085258202
O  O54  1  0.35420000  0.96320000  0.01226000  1.0 -0.4085258202
O  O55  1  0.14580000  0.46320000  0.51226000  1.0 -0.4085258202
O  O56  1  0.35420000  0.03680000  0.51226000  1.0 -0.4085258202
O  O57  1  0.38100000  0.06130000  0.57721000  1.0 -0.4563549714
O  O58  1  0.39530000  0.12060000  0.55822000  1.0 -0.4888462511
O  O59  1  0.51460000  0.07870000  0.56117000  1.0 -0.4510294603
O  O60  1  0.61900000  0.06130000  0.92279000  1.0 -0.4563549714
O  O61  1  0.60470000  0.12060000  0.94178000  1.0 -0.4888462511
O  O62  1  0.48540000  0.07870000  0.93883000  1.0 -0.4510294603
O  O63  1  0.88100000  0.43870000  0.92279000  1.0 -0.4563549714
O  O64  1  0.89530000  0.37940000  0.94178000  1.0 -0.4888462511
O  O65  1  0.01460000  0.42130000  0.93883000  1.0 -0.4510294603
O  O66  1  0.11900000  0.43870000  0.57721000  1.0 -0.4563549714
O  O67  1  0.10470000  0.37940000  0.55822000  1.0 -0.4888462511
O  O68  1  0.98540000  0.42130000  0.56117000  1.0 -0.4510294603
O  O69  1  0.61900000  0.93870000  0.42279000  1.0 -0.4563549714
O  O70  1  0.60470000  0.87940000  0.44178000  1.0 -0.4888462511
O  O71  1  0.48540000  0.92130000  0.43883000  1.0 -0.4510294603
O  O72  1  0.38100000  0.93870000  0.07721000  1.0 -0.4563549714
O  O73  1  0.39530000  0.87940000  0.05822000  1.0 -0.4888462511
O  O74  1  0.51460000  0.92130000  0.06117000  1.0 -0.4510294603
O  O75  1  0.11900000  0.56130000  0.07721000  1.0 -0.4563549714
O  O76  1  0.10470000  0.62060000  0.05822000  1.0 -0.4888462511
O  O77  1  0.98540000  0.57870000  0.06117000  1.0 -0.4510294603
O  O78  1  0.88100000  0.56130000  0.42279000  1.0 -0.4563549714
O  O79  1  0.89530000  0.62060000  0.44178000  1.0 -0.4888462511
O  O80  1  0.01460000  0.57870000  0.43883000  1.0 -0.4510294603
