# DDEC6 charges by PACMAN v1.1 (https://github.com/mtap-research/PACMAN-charge/)
data_XIFLOP_FSR_pacman
_symmetry_space_group_name_H-M   'P 1'
_cell_length_a   16.17800000
_cell_length_b   16.17800000
_cell_length_c   6.83770000
_cell_angle_alpha   90.00000000
_cell_angle_beta   90.00000000
_cell_angle_gamma   90.00000000
_symmetry_Int_Tables_number   1
_chemical_formula_structural   CdC8(NO2)2
_chemical_formula_sum   'Cd8 C64 N16 O32'
_cell_volume   1789.61538489
_cell_formula_units_Z   8
loop_
 _symmetry_equiv_pos_site_id
 _symmetry_equiv_pos_as_xyz
  1  'x, y, z'
loop_
 _atom_site_type_symbol
 _atom_site_label
 _atom_site_symmetry_multiplicity
 _atom_site_fract_x
 _atom_site_fract_y
 _atom_site_fract_z
 _atom_site_occupancy
 _atom_site_charge
Cd  Cd1  1  0.29279000  0.70721000  0.00000000  1.0 0.9749620966
Cd  Cd2  1  0.70721000  0.29279000  0.00000000  1.0 0.9754124693
Cd  Cd3  1  0.20721000  0.20721000  0.50000000  1.0 0.9749620966
Cd  Cd4  1  0.79279000  0.79279000  0.50000000  1.0 0.9749620966
Cd  Cd5  1  0.20721000  0.79279000  0.50000000  1.0 0.9749620966
Cd  Cd6  1  0.79279000  0.20721000  0.50000000  1.0 0.9754124693
Cd  Cd7  1  0.29279000  0.29279000  0.00000000  1.0 0.9749620966
Cd  Cd8  1  0.70721000  0.70721000  0.00000000  1.0 0.9754124693
C  C1  1  0.34080000  0.50000000  0.25400000  1.0 -0.0853732734
C  C2  1  0.65920000  0.50000000  0.25400000  1.0 -0.0853732734
C  C3  1  0.00000000  0.15920000  0.75400000  1.0 -0.0853732734
C  C4  1  0.00000000  0.84080000  0.75400000  1.0 -0.0853732734
C  C5  1  0.84080000  0.00000000  0.24600000  1.0 -0.0853732734
C  C6  1  0.15920000  0.00000000  0.24600000  1.0 -0.0853732734
C  C7  1  0.50000000  0.34080000  0.74600000  1.0 -0.0853732734
C  C8  1  0.50000000  0.65920000  0.74600000  1.0 -0.0848199689
C  C9  1  0.21150000  0.60340000  0.65370000  1.0 0.5798772089
C  C10  1  0.78850000  0.39660000  0.65370000  1.0 0.5798772089
C  C11  1  0.10340000  0.28850000  0.15370000  1.0 0.5798772089
C  C12  1  0.89660000  0.71150000  0.15370000  1.0 0.5798772089
C  C13  1  0.71150000  0.89660000  0.84630000  1.0 0.5798772089
C  C14  1  0.28850000  0.10340000  0.84630000  1.0 0.5798772089
C  C15  1  0.60340000  0.21150000  0.34630000  1.0 0.5798772089
C  C16  1  0.39660000  0.78850000  0.34630000  1.0 0.5798772089
C  C17  1  0.28850000  0.89660000  0.84630000  1.0 0.5798772089
C  C18  1  0.71150000  0.10340000  0.84630000  1.0 0.5798772089
C  C19  1  0.39660000  0.21150000  0.34630000  1.0 0.5798772089
C  C20  1  0.60340000  0.78850000  0.34630000  1.0 0.5798772089
C  C21  1  0.78850000  0.60340000  0.65370000  1.0 0.5798772089
C  C22  1  0.21150000  0.39660000  0.65370000  1.0 0.5798772089
C  C23  1  0.89660000  0.28850000  0.15370000  1.0 0.5798772089
C  C24  1  0.10340000  0.71150000  0.15370000  1.0 0.5798772089
C  C25  1  0.23930000  0.54300000  0.79880000  1.0 0.0144401397
C  C26  1  0.76070000  0.45700000  0.79880000  1.0 0.0144401397
C  C27  1  0.04300000  0.26070000  0.29880000  1.0 0.0144401397
C  C28  1  0.95700000  0.73930000  0.29880000  1.0 0.0144401397
C  C29  1  0.73930000  0.95700000  0.70120000  1.0 0.0144401397
C  C30  1  0.26070000  0.04300000  0.70120000  1.0 0.0144401397
C  C31  1  0.54300000  0.23930000  0.20120000  1.0 0.0144401397
C  C32  1  0.45700000  0.76070000  0.20120000  1.0 0.0144401397
C  C33  1  0.26070000  0.95700000  0.70120000  1.0 0.0144401397
C  C34  1  0.73930000  0.04300000  0.70120000  1.0 0.0144401397
C  C35  1  0.45700000  0.23930000  0.20120000  1.0 0.0144401397
C  C36  1  0.54300000  0.76070000  0.20120000  1.0 0.0144401397
C  C37  1  0.76070000  0.54300000  0.79880000  1.0 0.0144401397
C  C38  1  0.23930000  0.45700000  0.79880000  1.0 0.0144401397
C  C39  1  0.95700000  0.26070000  0.29880000  1.0 0.0144401397
C  C40  1  0.04300000  0.73930000  0.29880000  1.0 0.0144401397
C  C41  1  0.29920000  0.50000000  0.06270000  1.0 0.3516869954
C  C42  1  0.70080000  0.50000000  0.06270000  1.0 0.3516869954
C  C43  1  0.00000000  0.20080000  0.56270000  1.0 0.3516869954
C  C44  1  0.00000000  0.79920000  0.56270000  1.0 0.3516869954
C  C45  1  0.79920000  0.00000000  0.43730000  1.0 0.3516869954
C  C46  1  0.20080000  0.00000000  0.43730000  1.0 0.3516869954
C  C47  1  0.50000000  0.29920000  0.93730000  1.0 0.3516869954
C  C48  1  0.50000000  0.70080000  0.93730000  1.0 0.3516869954
C  C49  1  0.36910000  0.42910000  0.35000000  1.0 0.0916288904
C  C50  1  0.63090000  0.57090000  0.35000000  1.0 0.0916288904
C  C51  1  0.92910000  0.13090000  0.85000000  1.0 0.0916288904
C  C52  1  0.07090000  0.86910000  0.85000000  1.0 0.0916288904
C  C53  1  0.86910000  0.07090000  0.15000000  1.0 0.0916288904
C  C54  1  0.13090000  0.92910000  0.15000000  1.0 0.0916288904
C  C55  1  0.42910000  0.36910000  0.65000000  1.0 0.0916288904
C  C56  1  0.57090000  0.63090000  0.65000000  1.0 0.0916288904
C  C57  1  0.13090000  0.07090000  0.15000000  1.0 0.0916288904
C  C58  1  0.86910000  0.92910000  0.15000000  1.0 0.0916288904
C  C59  1  0.57090000  0.36910000  0.65000000  1.0 0.0916288904
C  C60  1  0.42910000  0.63090000  0.65000000  1.0 0.0916288904
C  C61  1  0.63090000  0.42910000  0.35000000  1.0 0.0916288904
C  C62  1  0.36910000  0.57090000  0.35000000  1.0 0.0916288904
C  C63  1  0.07090000  0.13090000  0.85000000  1.0 0.0916288904
C  C64  1  0.92910000  0.86910000  0.85000000  1.0 0.0916288904
N  N1  1  0.27770000  0.56870000  0.96640000  1.0 -0.3944497342
N  N2  1  0.72230000  0.43130000  0.96640000  1.0 -0.3944497342
N  N3  1  0.06870000  0.22230000  0.46640000  1.0 -0.3944497342
N  N4  1  0.93130000  0.77770000  0.46640000  1.0 -0.3944497342
N  N5  1  0.77770000  0.93130000  0.53360000  1.0 -0.3944497342
N  N6  1  0.22230000  0.06870000  0.53360000  1.0 -0.3944497342
N  N7  1  0.56870000  0.27770000  0.03360000  1.0 -0.3944497342
N  N8  1  0.43130000  0.72230000  0.03360000  1.0 -0.3944497342
N  N9  1  0.22230000  0.93130000  0.53360000  1.0 -0.3944497342
N  N10  1  0.77770000  0.06870000  0.53360000  1.0 -0.3944497342
N  N11  1  0.43130000  0.27770000  0.03360000  1.0 -0.3944497342
N  N12  1  0.56870000  0.72230000  0.03360000  1.0 -0.3944497342
N  N13  1  0.72230000  0.56870000  0.96640000  1.0 -0.3944497342
N  N14  1  0.27770000  0.43130000  0.96640000  1.0 -0.3944497342
N  N15  1  0.93130000  0.22230000  0.46640000  1.0 -0.3944497342
N  N16  1  0.06870000  0.77770000  0.46640000  1.0 -0.3944497342
O  O1  1  0.16970000  0.57940000  0.50530000  1.0 -0.3944497342
O  O2  1  0.83030000  0.42060000  0.50530000  1.0 -0.3944497342
O  O3  1  0.07940000  0.33030000  0.00530000  1.0 -0.3944497342
O  O4  1  0.92060000  0.66970000  0.00530000  1.0 -0.3944497342
O  O5  1  0.66970000  0.92060000  0.99470000  1.0 -0.3944497342
O  O6  1  0.33030000  0.07940000  0.99470000  1.0 -0.3944497342
O  O7  1  0.57940000  0.16970000  0.49470000  1.0 -0.3944497342
O  O8  1  0.42060000  0.83030000  0.49470000  1.0 -0.3944497342
O  O9  1  0.33030000  0.92060000  0.99470000  1.0 -0.3944497342
O  O10  1  0.66970000  0.07940000  0.99470000  1.0 -0.3944497342
O  O11  1  0.42060000  0.16970000  0.49470000  1.0 -0.3944497342
O  O12  1  0.57940000  0.83030000  0.49470000  1.0 -0.3944497342
O  O13  1  0.83030000  0.57940000  0.50530000  1.0 -0.3944497342
O  O14  1  0.16970000  0.42060000  0.50530000  1.0 -0.3944497342
O  O15  1  0.92060000  0.33030000  0.00530000  1.0 -0.3944497342
O  O16  1  0.07940000  0.66970000  0.00530000  1.0 -0.3944497342
O  O17  1  0.23140000  0.67690000  0.68120000  1.0 -0.5178037063
O  O18  1  0.76860000  0.32310000  0.68120000  1.0 -0.5178037063
O  O19  1  0.17690000  0.26860000  0.18120000  1.0 -0.5178037063
O  O20  1  0.82310000  0.73140000  0.18120000  1.0 -0.5178037063
O  O21  1  0.73140000  0.82310000  0.81880000  1.0 -0.5178037063
O  O22  1  0.26860000  0.17690000  0.81880000  1.0 -0.5178037063
O  O23  1  0.67690000  0.23140000  0.31880000  1.0 -0.5178037063
O  O24  1  0.32310000  0.76860000  0.31880000  1.0 -0.5178037063
O  O25  1  0.26860000  0.82310000  0.81880000  1.0 -0.5178037063
O  O26  1  0.73140000  0.17690000  0.81880000  1.0 -0.5178037063
O  O27  1  0.32310000  0.23140000  0.31880000  1.0 -0.5178037063
O  O28  1  0.67690000  0.76860000  0.31880000  1.0 -0.5178037063
O  O29  1  0.76860000  0.67690000  0.68120000  1.0 -0.5178037063
O  O30  1  0.23140000  0.32310000  0.68120000  1.0 -0.5178037063
O  O31  1  0.82310000  0.26860000  0.18120000  1.0 -0.5178037063
O  O32  1  0.17690000  0.73140000  0.18120000  1.0 -0.5178037063
