# DDEC6 charges by PACMAN v1.1 (https://github.com/mtap-research/PACMAN-charge/)
data_XIJJEH_ASR_pacman
_symmetry_space_group_name_H-M   'P 1'
_cell_length_a   27.40530000
_cell_length_b   27.40530000
_cell_length_c   27.40530000
_cell_angle_alpha   60.00000000
_cell_angle_beta   60.00000000
_cell_angle_gamma   60.00000000
_symmetry_Int_Tables_number   1
_chemical_formula_structural   Co7H132(C11O6)6
_chemical_formula_sum   'Co28 H528 C264 O144'
_cell_volume   14554.21157085
_cell_formula_units_Z   4
loop_
 _symmetry_equiv_pos_site_id
 _symmetry_equiv_pos_as_xyz
  1  'x, y, z'
loop_
 _atom_site_type_symbol
 _atom_site_label
 _atom_site_symmetry_multiplicity
 _atom_site_fract_x
 _atom_site_fract_y
 _atom_site_fract_z
 _atom_site_occupancy
 _atom_site_charge
Co  Co1  1  0.19781000  0.80219000  0.19781000  1.0 0.9199130168
Co  Co2  1  0.80219000  0.19781000  0.80219000  1.0 0.9199130168
Co  Co3  1  0.19781000  0.19781000  0.80219000  1.0 0.9199130168
Co  Co4  1  0.80219000  0.80219000  0.19781000  1.0 0.9199130168
Co  Co5  1  0.80219000  0.19781000  0.19781000  1.0 0.9199130168
Co  Co6  1  0.19781000  0.80219000  0.80219000  1.0 0.9199130168
Co  Co7  1  0.27284000  0.72716000  0.27284000  1.0 0.8968706658
Co  Co8  1  0.72716000  0.27284000  0.72716000  1.0 0.8968706658
Co  Co9  1  0.27284000  0.27284000  0.72716000  1.0 0.8968706658
Co  Co10  1  0.72716000  0.72716000  0.27284000  1.0 0.8968706658
Co  Co11  1  0.72716000  0.27284000  0.27284000  1.0 0.8968706658
Co  Co12  1  0.27284000  0.72716000  0.72716000  1.0 0.8968706658
Co  Co13  1  0.62594000  0.62594000  0.12218000  1.0 0.7466771931
Co  Co14  1  0.62594000  0.62594000  0.62594000  1.0 0.7416331841
Co  Co15  1  0.12218000  0.62594000  0.62594000  1.0 0.7416331841
Co  Co16  1  0.62594000  0.12218000  0.62594000  1.0 0.7416331841
Co  Co17  1  0.37406000  0.37406000  0.37406000  1.0 0.7416331841
Co  Co18  1  0.37406000  0.37406000  0.87782000  1.0 0.7416331841
Co  Co19  1  0.87782000  0.37406000  0.37406000  1.0 0.7416331841
Co  Co20  1  0.37406000  0.87782000  0.37406000  1.0 0.7416331841
Co  Co21  1  0.67951000  0.67951000  0.96147000  1.0 0.8800500885
Co  Co22  1  0.67951000  0.67951000  0.67951000  1.0 0.8800500885
Co  Co23  1  0.96147000  0.67951000  0.67951000  1.0 0.8800500885
Co  Co24  1  0.67951000  0.96147000  0.67951000  1.0 0.8800500885
Co  Co25  1  0.32049000  0.32049000  0.32049000  1.0 0.8800500885
Co  Co26  1  0.32049000  0.32049000  0.03853000  1.0 0.8800500885
Co  Co27  1  0.03853000  0.32049000  0.32049000  1.0 0.8800500885
Co  Co28  1  0.32049000  0.03853000  0.32049000  1.0 0.8800500885
H  H1  1  0.33800000  0.81680000  0.02840000  1.0 0.2058344156
H  H2  1  0.81680000  0.33800000  0.81680000  1.0 0.2029348854
H  H3  1  0.02840000  0.81680000  0.33800000  1.0 0.2029348854
H  H4  1  0.81680000  0.02840000  0.81680000  1.0 0.2029348854
H  H5  1  0.02840000  0.33800000  0.81680000  1.0 0.2029348854
H  H6  1  0.81680000  0.81680000  0.33800000  1.0 0.2029348854
H  H7  1  0.33800000  0.02840000  0.81680000  1.0 0.2029348854
H  H8  1  0.81680000  0.81680000  0.02840000  1.0 0.2029348854
H  H9  1  0.81680000  0.02840000  0.33800000  1.0 0.2029348854
H  H10  1  0.33800000  0.81680000  0.81680000  1.0 0.2029348854
H  H11  1  0.81680000  0.33800000  0.02840000  1.0 0.2058344156
H  H12  1  0.02840000  0.81680000  0.81680000  1.0 0.2029348854
H  H13  1  0.66200000  0.18320000  0.18320000  1.0 0.2029348854
H  H14  1  0.18320000  0.66200000  0.97160000  1.0 0.2029348854
H  H15  1  0.97160000  0.18320000  0.18320000  1.0 0.2029348854
H  H16  1  0.18320000  0.97160000  0.66200000  1.0 0.2029348854
H  H17  1  0.97160000  0.66200000  0.18320000  1.0 0.2058344156
H  H18  1  0.18320000  0.18320000  0.97160000  1.0 0.2029348854
H  H19  1  0.66200000  0.97160000  0.18320000  1.0 0.2029348854
H  H20  1  0.18320000  0.18320000  0.66200000  1.0 0.2058344156
H  H21  1  0.18320000  0.97160000  0.18320000  1.0 0.2029348854
H  H22  1  0.66200000  0.18320000  0.97160000  1.0 0.2029348854
H  H23  1  0.18320000  0.66200000  0.18320000  1.0 0.2058344156
H  H24  1  0.97160000  0.18320000  0.66200000  1.0 0.2029348854
H  H25  1  0.51710000  0.76590000  0.95110000  1.0 0.2325126792
H  H26  1  0.76590000  0.51710000  0.76590000  1.0 0.2325126792
H  H27  1  0.95110000  0.76590000  0.51710000  1.0 0.2325126792
H  H28  1  0.76590000  0.95110000  0.76590000  1.0 0.2325126792
H  H29  1  0.95110000  0.51710000  0.76590000  1.0 0.2325126792
H  H30  1  0.76590000  0.76590000  0.51710000  1.0 0.2325126792
H  H31  1  0.51710000  0.95110000  0.76590000  1.0 0.2325126792
H  H32  1  0.76590000  0.76590000  0.95110000  1.0 0.2325126792
H  H33  1  0.76590000  0.95110000  0.51710000  1.0 0.2325126792
H  H34  1  0.51710000  0.76590000  0.76590000  1.0 0.2325126792
H  H35  1  0.76590000  0.51710000  0.95110000  1.0 0.2325126792
H  H36  1  0.95110000  0.76590000  0.76590000  1.0 0.2325126792
H  H37  1  0.48290000  0.23410000  0.23410000  1.0 0.2325126792
H  H38  1  0.23410000  0.48290000  0.04890000  1.0 0.2325126792
H  H39  1  0.04890000  0.23410000  0.23410000  1.0 0.2325126792
H  H40  1  0.23410000  0.04890000  0.48290000  1.0 0.2325126792
H  H41  1  0.04890000  0.48290000  0.23410000  1.0 0.2325126792
H  H42  1  0.23410000  0.23410000  0.04890000  1.0 0.2325126792
H  H43  1  0.48290000  0.04890000  0.23410000  1.0 0.2325126792
H  H44  1  0.23410000  0.23410000  0.48290000  1.0 0.2325126792
H  H45  1  0.23410000  0.04890000  0.23410000  1.0 0.2325126792
H  H46  1  0.48290000  0.23410000  0.04890000  1.0 0.2361602515
H  H47  1  0.23410000  0.48290000  0.23410000  1.0 0.2325126792
H  H48  1  0.04890000  0.23410000  0.48290000  1.0 0.2325126792
H  H49  1  0.44440000  0.71320000  0.12920000  1.0 0.1122652087
H  H50  1  0.71320000  0.44440000  0.71320000  1.0 0.1122652087
H  H51  1  0.12920000  0.71320000  0.44440000  1.0 0.1122652087
H  H52  1  0.71320000  0.12920000  0.71320000  1.0 0.1122652087
H  H53  1  0.12920000  0.44440000  0.71320000  1.0 0.1122652087
H  H54  1  0.71320000  0.71320000  0.44440000  1.0 0.1122652087
H  H55  1  0.44440000  0.12920000  0.71320000  1.0 0.1122652087
H  H56  1  0.71320000  0.71320000  0.12920000  1.0 0.1122652087
H  H57  1  0.71320000  0.12920000  0.44440000  1.0 0.1122652087
H  H58  1  0.44440000  0.71320000  0.71320000  1.0 0.1122652087
H  H59  1  0.71320000  0.44440000  0.12920000  1.0 0.1122652087
H  H60  1  0.12920000  0.71320000  0.71320000  1.0 0.1122652087
H  H61  1  0.55560000  0.28680000  0.28680000  1.0 0.1122652087
H  H62  1  0.28680000  0.55560000  0.87080000  1.0 0.1122652087
H  H63  1  0.87080000  0.28680000  0.28680000  1.0 0.1122652087
H  H64  1  0.28680000  0.87080000  0.55560000  1.0 0.1122652087
H  H65  1  0.87080000  0.55560000  0.28680000  1.0 0.1122652087
H  H66  1  0.28680000  0.28680000  0.87080000  1.0 0.1122652087
H  H67  1  0.55560000  0.87080000  0.28680000  1.0 0.1122652087
H  H68  1  0.28680000  0.28680000  0.55560000  1.0 0.1122652087
H  H69  1  0.28680000  0.87080000  0.28680000  1.0 0.1122652087
H  H70  1  0.55560000  0.28680000  0.87080000  1.0 0.1122652087
H  H71  1  0.28680000  0.55560000  0.28680000  1.0 0.1122652087
H  H72  1  0.87080000  0.28680000  0.55560000  1.0 0.1122652087
H  H73  1  0.71759000  0.56061000  0.16119000  1.0 0.0217258832
H  H74  1  0.56061000  0.71759000  0.56061000  1.0 0.0217258832
H  H75  1  0.16119000  0.56061000  0.71759000  1.0 0.0280940702
H  H76  1  0.56061000  0.16119000  0.56061000  1.0 0.0280940702
H  H77  1  0.16119000  0.71759000  0.56061000  1.0 0.0217258832
H  H78  1  0.56061000  0.56061000  0.71759000  1.0 0.0280940702
H  H79  1  0.71759000  0.16119000  0.56061000  1.0 0.0217258832
H  H80  1  0.56061000  0.56061000  0.16119000  1.0 0.0217258832
H  H81  1  0.56061000  0.16119000  0.71759000  1.0 0.0217258832
H  H82  1  0.71759000  0.56061000  0.56061000  1.0 0.0280940702
H  H83  1  0.56061000  0.71759000  0.16119000  1.0 0.0217258832
H  H84  1  0.16119000  0.56061000  0.56061000  1.0 0.0280940702
H  H85  1  0.28241000  0.43939000  0.43939000  1.0 0.0217258832
H  H86  1  0.43939000  0.28241000  0.83881000  1.0 0.0217258832
H  H87  1  0.83881000  0.43939000  0.43939000  1.0 0.0217258832
H  H88  1  0.43939000  0.83881000  0.28241000  1.0 0.0217258832
H  H89  1  0.83881000  0.28241000  0.43939000  1.0 0.0280940702
H  H90  1  0.43939000  0.43939000  0.83881000  1.0 0.0280940702
H  H91  1  0.28241000  0.83881000  0.43939000  1.0 0.0217258832
H  H92  1  0.43939000  0.43939000  0.28241000  1.0 0.0280940702
H  H93  1  0.43939000  0.83881000  0.43939000  1.0 0.0217258832
H  H94  1  0.28241000  0.43939000  0.83881000  1.0 0.0280940702
H  H95  1  0.43939000  0.28241000  0.43939000  1.0 0.0280940702
H  H96  1  0.83881000  0.43939000  0.28241000  1.0 0.0280940702
H  H97  1  0.46040000  0.71120000  0.92800000  1.0 -0.058172954
H  H98  1  0.71120000  0.46040000  0.90040000  1.0 -0.058172954
H  H99  1  0.92800000  0.90040000  0.46040000  1.0 -0.058172954
H  H100  1  0.90040000  0.92800000  0.71120000  1.0 -0.058172954
H  H101  1  0.92800000  0.46040000  0.71120000  1.0 -0.058172954
H  H102  1  0.90040000  0.71120000  0.46040000  1.0 -0.058172954
H  H103  1  0.46040000  0.92800000  0.90040000  1.0 -0.058172954
H  H104  1  0.71120000  0.90040000  0.92800000  1.0 -0.058172954
H  H105  1  0.71120000  0.92800000  0.46040000  1.0 -0.058172954
H  H106  1  0.46040000  0.90040000  0.71120000  1.0 -0.058172954
H  H107  1  0.90040000  0.46040000  0.92800000  1.0 -0.058172954
H  H108  1  0.92800000  0.71120000  0.90040000  1.0 -0.058172954
H  H109  1  0.53960000  0.28880000  0.09960000  1.0 -0.058172954
H  H110  1  0.28880000  0.53960000  0.07200000  1.0 -0.058172954
H  H111  1  0.07200000  0.09960000  0.28880000  1.0 -0.058172954
H  H112  1  0.09960000  0.07200000  0.53960000  1.0 -0.058172954
H  H113  1  0.07200000  0.53960000  0.09960000  1.0 -0.058172954
H  H114  1  0.09960000  0.28880000  0.07200000  1.0 -0.058172954
H  H115  1  0.53960000  0.07200000  0.28880000  1.0 -0.058172954
H  H116  1  0.28880000  0.09960000  0.53960000  1.0 -0.058172954
H  H117  1  0.28880000  0.07200000  0.09960000  1.0 -0.058172954
H  H118  1  0.53960000  0.09960000  0.07200000  1.0 -0.058172954
H  H119  1  0.09960000  0.53960000  0.28880000  1.0 -0.058172954
H  H120  1  0.07200000  0.28880000  0.53960000  1.0 -0.058172954
H  H121  1  0.53960000  0.28880000  0.07200000  1.0 -0.058172954
H  H122  1  0.28880000  0.53960000  0.09960000  1.0 -0.058172954
H  H123  1  0.07200000  0.09960000  0.53960000  1.0 -0.058172954
H  H124  1  0.09960000  0.07200000  0.28880000  1.0 -0.058172954
H  H125  1  0.07200000  0.53960000  0.28880000  1.0 -0.058172954
H  H126  1  0.09960000  0.28880000  0.53960000  1.0 -0.058172954
H  H127  1  0.53960000  0.07200000  0.09960000  1.0 -0.058172954
H  H128  1  0.28880000  0.09960000  0.07200000  1.0 -0.058172954
H  H129  1  0.28880000  0.07200000  0.53960000  1.0 -0.058172954
H  H130  1  0.53960000  0.09960000  0.28880000  1.0 -0.058172954
H  H131  1  0.09960000  0.53960000  0.07200000  1.0 -0.058172954
H  H132  1  0.07200000  0.28880000  0.09960000  1.0 -0.058172954
H  H133  1  0.46040000  0.71120000  0.90040000  1.0 -0.058172954
H  H134  1  0.71120000  0.46040000  0.92800000  1.0 -0.058172954
H  H135  1  0.92800000  0.90040000  0.71120000  1.0 -0.058172954
H  H136  1  0.90040000  0.92800000  0.46040000  1.0 -0.058172954
H  H137  1  0.92800000  0.46040000  0.90040000  1.0 -0.058172954
H  H138  1  0.90040000  0.71120000  0.92800000  1.0 -0.058172954
H  H139  1  0.46040000  0.92800000  0.71120000  1.0 -0.058172954
H  H140  1  0.71120000  0.90040000  0.46040000  1.0 -0.058172954
H  H141  1  0.71120000  0.92800000  0.90040000  1.0 -0.058172954
H  H142  1  0.46040000  0.90040000  0.92800000  1.0 -0.058172954
H  H143  1  0.90040000  0.46040000  0.71120000  1.0 -0.058172954
H  H144  1  0.92800000  0.71120000  0.46040000  1.0 -0.058172954
H  H145  1  0.39060000  0.73240000  0.95760000  1.0 -0.0509227853
H  H146  1  0.73240000  0.39060000  0.91940000  1.0 -0.0509227853
H  H147  1  0.95760000  0.91940000  0.39060000  1.0 -0.0509227853
H  H148  1  0.91940000  0.95760000  0.73240000  1.0 -0.0509227853
H  H149  1  0.95760000  0.39060000  0.73240000  1.0 -0.0509227853
H  H150  1  0.91940000  0.73240000  0.39060000  1.0 -0.058172954
H  H151  1  0.39060000  0.95760000  0.91940000  1.0 -0.0509227853
H  H152  1  0.73240000  0.91940000  0.95760000  1.0 -0.0509227853
H  H153  1  0.73240000  0.95760000  0.39060000  1.0 -0.0509227853
H  H154  1  0.39060000  0.91940000  0.73240000  1.0 -0.0509227853
H  H155  1  0.91940000  0.39060000  0.95760000  1.0 -0.0509227853
H  H156  1  0.95760000  0.73240000  0.91940000  1.0 -0.0509227853
H  H157  1  0.60940000  0.26760000  0.08060000  1.0 -0.0509227853
H  H158  1  0.26760000  0.60940000  0.04240000  1.0 -0.0509227853
H  H159  1  0.04240000  0.08060000  0.26760000  1.0 -0.0509227853
H  H160  1  0.08060000  0.04240000  0.60940000  1.0 -0.058172954
H  H161  1  0.04240000  0.60940000  0.08060000  1.0 -0.058172954
H  H162  1  0.08060000  0.26760000  0.04240000  1.0 -0.0509227853
H  H163  1  0.60940000  0.04240000  0.26760000  1.0 -0.0509227853
H  H164  1  0.26760000  0.08060000  0.60940000  1.0 -0.0509227853
H  H165  1  0.26760000  0.04240000  0.08060000  1.0 -0.0509227853
H  H166  1  0.60940000  0.08060000  0.04240000  1.0 -0.0509227853
H  H167  1  0.08060000  0.60940000  0.26760000  1.0 -0.058172954
H  H168  1  0.04240000  0.26760000  0.60940000  1.0 -0.0509227853
H  H169  1  0.60940000  0.26760000  0.04240000  1.0 -0.0509227853
H  H170  1  0.26760000  0.60940000  0.08060000  1.0 -0.0509227853
H  H171  1  0.04240000  0.08060000  0.60940000  1.0 -0.0509227853
H  H172  1  0.08060000  0.04240000  0.26760000  1.0 -0.0509227853
H  H173  1  0.04240000  0.60940000  0.26760000  1.0 -0.058172954
H  H174  1  0.08060000  0.26760000  0.60940000  1.0 -0.0509227853
H  H175  1  0.60940000  0.04240000  0.08060000  1.0 -0.0509227853
H  H176  1  0.26760000  0.08060000  0.04240000  1.0 -0.058172954
H  H177  1  0.26760000  0.04240000  0.60940000  1.0 -0.0509227853
H  H178  1  0.60940000  0.08060000  0.26760000  1.0 -0.0509227853
H  H179  1  0.08060000  0.60940000  0.04240000  1.0 -0.058172954
H  H180  1  0.04240000  0.26760000  0.08060000  1.0 -0.0509227853
H  H181  1  0.39060000  0.73240000  0.91940000  1.0 -0.0509227853
H  H182  1  0.73240000  0.39060000  0.95760000  1.0 -0.0509227853
H  H183  1  0.95760000  0.91940000  0.73240000  1.0 -0.0509227853
H  H184  1  0.91940000  0.95760000  0.39060000  1.0 -0.0509227853
H  H185  1  0.95760000  0.39060000  0.91940000  1.0 -0.0509227853
H  H186  1  0.91940000  0.73240000  0.95760000  1.0 -0.0509227853
H  H187  1  0.39060000  0.95760000  0.73240000  1.0 -0.0509227853
H  H188  1  0.73240000  0.91940000  0.39060000  1.0 -0.0509227853
H  H189  1  0.73240000  0.95760000  0.91940000  1.0 -0.0509227853
H  H190  1  0.39060000  0.91940000  0.95760000  1.0 -0.0509227853
H  H191  1  0.91940000  0.39060000  0.73240000  1.0 -0.0509227853
H  H192  1  0.95760000  0.73240000  0.39060000  1.0 -0.0509227853
H  H193  1  0.41980000  0.72360000  0.89540000  1.0 -0.0384832675
H  H194  1  0.72360000  0.41980000  0.96120000  1.0 -0.0384832675
H  H195  1  0.89540000  0.96120000  0.41980000  1.0 -0.0384832675
H  H196  1  0.96120000  0.89540000  0.72360000  1.0 -0.0384832675
H  H197  1  0.89540000  0.41980000  0.72360000  1.0 -0.0384832675
H  H198  1  0.96120000  0.72360000  0.41980000  1.0 -0.0384832675
H  H199  1  0.41980000  0.89540000  0.96120000  1.0 -0.0384832675
H  H200  1  0.72360000  0.96120000  0.89540000  1.0 -0.0384832675
H  H201  1  0.72360000  0.89540000  0.41980000  1.0 -0.0384832675
H  H202  1  0.41980000  0.96120000  0.72360000  1.0 -0.0384832675
H  H203  1  0.96120000  0.41980000  0.89540000  1.0 -0.0384832675
H  H204  1  0.89540000  0.72360000  0.96120000  1.0 -0.0306217585
H  H205  1  0.58020000  0.27640000  0.03880000  1.0 -0.0384832675
H  H206  1  0.27640000  0.58020000  0.10460000  1.0 -0.0384832675
H  H207  1  0.10460000  0.03880000  0.27640000  1.0 -0.0306217585
H  H208  1  0.03880000  0.10460000  0.58020000  1.0 -0.0306217585
H  H209  1  0.10460000  0.58020000  0.03880000  1.0 -0.0384832675
H  H210  1  0.03880000  0.27640000  0.10460000  1.0 -0.0384832675
H  H211  1  0.58020000  0.10460000  0.27640000  1.0 -0.0384832675
H  H212  1  0.27640000  0.03880000  0.58020000  1.0 -0.0306217585
H  H213  1  0.27640000  0.10460000  0.03880000  1.0 -0.0306217585
H  H214  1  0.58020000  0.03880000  0.10460000  1.0 -0.0306217585
H  H215  1  0.03880000  0.58020000  0.27640000  1.0 -0.0384832675
H  H216  1  0.10460000  0.27640000  0.58020000  1.0 -0.0384832675
H  H217  1  0.58020000  0.27640000  0.10460000  1.0 -0.0384832675
H  H218  1  0.27640000  0.58020000  0.03880000  1.0 -0.0384832675
H  H219  1  0.10460000  0.03880000  0.58020000  1.0 -0.0306217585
H  H220  1  0.03880000  0.10460000  0.27640000  1.0 -0.0384832675
H  H221  1  0.10460000  0.58020000  0.27640000  1.0 -0.0384832675
H  H222  1  0.03880000  0.27640000  0.58020000  1.0 -0.0384832675
H  H223  1  0.58020000  0.10460000  0.03880000  1.0 -0.0306217585
H  H224  1  0.27640000  0.03880000  0.10460000  1.0 -0.0306217585
H  H225  1  0.27640000  0.10460000  0.58020000  1.0 -0.0306217585
H  H226  1  0.58020000  0.03880000  0.27640000  1.0 -0.0306217585
H  H227  1  0.03880000  0.58020000  0.10460000  1.0 -0.0384832675
H  H228  1  0.10460000  0.27640000  0.03880000  1.0 -0.0384832675
H  H229  1  0.41980000  0.72360000  0.96120000  1.0 -0.0384832675
H  H230  1  0.72360000  0.41980000  0.89540000  1.0 -0.0306217585
H  H231  1  0.89540000  0.96120000  0.72360000  1.0 -0.0384832675
H  H232  1  0.96120000  0.89540000  0.41980000  1.0 -0.0384832675
H  H233  1  0.89540000  0.41980000  0.96120000  1.0 -0.0384832675
H  H234  1  0.96120000  0.72360000  0.89540000  1.0 -0.0384832675
H  H235  1  0.41980000  0.89540000  0.72360000  1.0 -0.0384832675
H  H236  1  0.72360000  0.96120000  0.41980000  1.0 -0.0384832675
H  H237  1  0.72360000  0.89540000  0.96120000  1.0 -0.0384832675
H  H238  1  0.41980000  0.96120000  0.89540000  1.0 -0.0384832675
H  H239  1  0.96120000  0.41980000  0.72360000  1.0 -0.0384832675
H  H240  1  0.89540000  0.72360000  0.41980000  1.0 -0.0384832675
H  H241  1  0.66539000  0.59421000  0.20737000  1.0 0.159419466
H  H242  1  0.59421000  0.66539000  0.53303000  1.0 0.159419466
H  H243  1  0.20737000  0.53303000  0.66539000  1.0 0.159419466
H  H244  1  0.53303000  0.20737000  0.59421000  1.0 0.159419466
H  H245  1  0.20737000  0.66539000  0.59421000  1.0 0.159419466
H  H246  1  0.53303000  0.59421000  0.66539000  1.0 0.159419466
H  H247  1  0.66539000  0.20737000  0.53303000  1.0 0.159419466
H  H248  1  0.59421000  0.53303000  0.20737000  1.0 0.159419466
H  H249  1  0.59421000  0.20737000  0.66539000  1.0 0.159419466
H  H250  1  0.66539000  0.53303000  0.59421000  1.0 0.159419466
H  H251  1  0.53303000  0.66539000  0.20737000  1.0 0.159419466
H  H252  1  0.20737000  0.59421000  0.53303000  1.0 0.159419466
H  H253  1  0.33461000  0.40579000  0.46697000  1.0 0.159419466
H  H254  1  0.40579000  0.33461000  0.79263000  1.0 0.159419466
H  H255  1  0.79263000  0.46697000  0.40579000  1.0 0.159419466
H  H256  1  0.46697000  0.79263000  0.33461000  1.0 0.159419466
H  H257  1  0.79263000  0.33461000  0.46697000  1.0 0.159419466
H  H258  1  0.46697000  0.40579000  0.79263000  1.0 0.159419466
H  H259  1  0.33461000  0.79263000  0.40579000  1.0 0.159419466
H  H260  1  0.40579000  0.46697000  0.33461000  1.0 0.159419466
H  H261  1  0.40579000  0.79263000  0.46697000  1.0 0.159419466
H  H262  1  0.33461000  0.46697000  0.79263000  1.0 0.159419466
H  H263  1  0.46697000  0.33461000  0.40579000  1.0 0.159419466
H  H264  1  0.79263000  0.40579000  0.33461000  1.0 0.159419466
H  H265  1  0.33461000  0.40579000  0.79263000  1.0 0.159419466
H  H266  1  0.40579000  0.33461000  0.46697000  1.0 0.159419466
H  H267  1  0.79263000  0.46697000  0.33461000  1.0 0.159419466
H  H268  1  0.46697000  0.79263000  0.40579000  1.0 0.159419466
H  H269  1  0.79263000  0.33461000  0.40579000  1.0 0.159419466
H  H270  1  0.46697000  0.40579000  0.33461000  1.0 0.159419466
H  H271  1  0.33461000  0.79263000  0.46697000  1.0 0.159419466
H  H272  1  0.40579000  0.46697000  0.79263000  1.0 0.159419466
H  H273  1  0.40579000  0.79263000  0.33461000  1.0 0.159419466
H  H274  1  0.33461000  0.46697000  0.40579000  1.0 0.159419466
H  H275  1  0.46697000  0.33461000  0.79263000  1.0 0.159419466
H  H276  1  0.79263000  0.40579000  0.46697000  1.0 0.159419466
H  H277  1  0.66539000  0.59421000  0.53303000  1.0 0.159419466
H  H278  1  0.59421000  0.66539000  0.20737000  1.0 0.159419466
H  H279  1  0.20737000  0.53303000  0.59421000  1.0 0.159419466
H  H280  1  0.53303000  0.20737000  0.66539000  1.0 0.159419466
H  H281  1  0.20737000  0.66539000  0.53303000  1.0 0.159419466
H  H282  1  0.53303000  0.59421000  0.20737000  1.0 0.159419466
H  H283  1  0.66539000  0.20737000  0.59421000  1.0 0.159419466
H  H284  1  0.59421000  0.53303000  0.66539000  1.0 0.159419466
H  H285  1  0.59421000  0.20737000  0.53303000  1.0 0.159419466
H  H286  1  0.66539000  0.53303000  0.20737000  1.0 0.159419466
H  H287  1  0.53303000  0.66539000  0.59421000  1.0 0.159419466
H  H288  1  0.20737000  0.59421000  0.66539000  1.0 0.159419466
H  H289  1  0.66150000  0.53538000  0.21082000  1.0 0.1338901683
H  H290  1  0.53538000  0.66150000  0.59230000  1.0 0.1384756321
H  H291  1  0.21082000  0.59230000  0.66150000  1.0 0.1384756321
H  H292  1  0.59230000  0.21082000  0.53538000  1.0 0.1384756321
H  H293  1  0.21082000  0.66150000  0.53538000  1.0 0.1384756321
H  H294  1  0.59230000  0.53538000  0.66150000  1.0 0.1384756321
H  H295  1  0.66150000  0.21082000  0.59230000  1.0 0.1384756321
H  H296  1  0.53538000  0.59230000  0.21082000  1.0 0.1338901683
H  H297  1  0.53538000  0.21082000  0.66150000  1.0 0.1384756321
H  H298  1  0.66150000  0.59230000  0.53538000  1.0 0.1384756321
H  H299  1  0.59230000  0.66150000  0.21082000  1.0 0.1384756321
H  H300  1  0.21082000  0.53538000  0.59230000  1.0 0.1384756321
H  H301  1  0.33850000  0.46462000  0.40770000  1.0 0.1384756321
H  H302  1  0.46462000  0.33850000  0.78918000  1.0 0.1384756321
H  H303  1  0.78918000  0.40770000  0.46462000  1.0 0.1384756321
H  H304  1  0.40770000  0.78918000  0.33850000  1.0 0.1384756321
H  H305  1  0.78918000  0.33850000  0.40770000  1.0 0.1384756321
H  H306  1  0.40770000  0.46462000  0.78918000  1.0 0.1338901683
H  H307  1  0.33850000  0.78918000  0.46462000  1.0 0.1384756321
H  H308  1  0.46462000  0.40770000  0.33850000  1.0 0.1384756321
H  H309  1  0.46462000  0.78918000  0.40770000  1.0 0.1384756321
H  H310  1  0.33850000  0.40770000  0.78918000  1.0 0.1338901683
H  H311  1  0.40770000  0.33850000  0.46462000  1.0 0.1384756321
H  H312  1  0.78918000  0.46462000  0.33850000  1.0 0.1384756321
H  H313  1  0.33850000  0.46462000  0.78918000  1.0 0.1338901683
H  H314  1  0.46462000  0.33850000  0.40770000  1.0 0.1384756321
H  H315  1  0.78918000  0.40770000  0.33850000  1.0 0.1384756321
H  H316  1  0.40770000  0.78918000  0.46462000  1.0 0.1384756321
H  H317  1  0.78918000  0.33850000  0.46462000  1.0 0.1384756321
H  H318  1  0.40770000  0.46462000  0.33850000  1.0 0.1384756321
H  H319  1  0.33850000  0.78918000  0.40770000  1.0 0.1384756321
H  H320  1  0.46462000  0.40770000  0.78918000  1.0 0.1338901683
H  H321  1  0.46462000  0.78918000  0.33850000  1.0 0.1384756321
H  H322  1  0.33850000  0.40770000  0.46462000  1.0 0.1338901683
H  H323  1  0.40770000  0.33850000  0.78918000  1.0 0.1384756321
H  H324  1  0.78918000  0.46462000  0.40770000  1.0 0.1384756321
H  H325  1  0.66150000  0.53538000  0.59230000  1.0 0.1384756321
H  H326  1  0.53538000  0.66150000  0.21082000  1.0 0.1384756321
H  H327  1  0.21082000  0.59230000  0.53538000  1.0 0.1384756321
H  H328  1  0.59230000  0.21082000  0.66150000  1.0 0.1384756321
H  H329  1  0.21082000  0.66150000  0.59230000  1.0 0.1384756321
H  H330  1  0.59230000  0.53538000  0.21082000  1.0 0.1338901683
H  H331  1  0.66150000  0.21082000  0.53538000  1.0 0.1384756321
H  H332  1  0.53538000  0.59230000  0.66150000  1.0 0.1384756321
H  H333  1  0.53538000  0.21082000  0.59230000  1.0 0.1384756321
H  H334  1  0.66150000  0.59230000  0.21082000  1.0 0.1338901683
H  H335  1  0.59230000  0.66150000  0.53538000  1.0 0.1384756321
H  H336  1  0.21082000  0.53538000  0.66150000  1.0 0.1384756321
H  H337  1  0.46485000  0.70811000  0.89693000  1.0 -0.0815953864
H  H338  1  0.70811000  0.46485000  0.93011000  1.0 -0.0815953864
H  H339  1  0.89693000  0.93011000  0.46485000  1.0 -0.0815953864
H  H340  1  0.93011000  0.89693000  0.70811000  1.0 -0.0815953864
H  H341  1  0.89693000  0.46485000  0.70811000  1.0 -0.0815953864
H  H342  1  0.93011000  0.70811000  0.46485000  1.0 -0.0815953864
H  H343  1  0.46485000  0.89693000  0.93011000  1.0 -0.0815953864
H  H344  1  0.70811000  0.93011000  0.89693000  1.0 -0.0815953864
H  H345  1  0.70811000  0.89693000  0.46485000  1.0 -0.0815953864
H  H346  1  0.46485000  0.93011000  0.70811000  1.0 -0.0815953864
H  H347  1  0.93011000  0.46485000  0.89693000  1.0 -0.0815953864
H  H348  1  0.89693000  0.70811000  0.93011000  1.0 -0.0815953864
H  H349  1  0.53515000  0.29189000  0.06989000  1.0 -0.0815953864
H  H350  1  0.29189000  0.53515000  0.10307000  1.0 -0.0815953864
H  H351  1  0.10307000  0.06989000  0.29189000  1.0 -0.0815953864
H  H352  1  0.06989000  0.10307000  0.53515000  1.0 -0.0815953864
H  H353  1  0.10307000  0.53515000  0.06989000  1.0 -0.0815953864
H  H354  1  0.06989000  0.29189000  0.10307000  1.0 -0.0815953864
H  H355  1  0.53515000  0.10307000  0.29189000  1.0 -0.0815953864
H  H356  1  0.29189000  0.06989000  0.53515000  1.0 -0.0815953864
H  H357  1  0.29189000  0.10307000  0.06989000  1.0 -0.0815953864
H  H358  1  0.53515000  0.06989000  0.10307000  1.0 -0.0815953864
H  H359  1  0.06989000  0.53515000  0.29189000  1.0 -0.0815953864
H  H360  1  0.10307000  0.29189000  0.53515000  1.0 -0.0815953864
H  H361  1  0.53515000  0.29189000  0.10307000  1.0 -0.0815953864
H  H362  1  0.29189000  0.53515000  0.06989000  1.0 -0.0815953864
H  H363  1  0.10307000  0.06989000  0.53515000  1.0 -0.0815953864
H  H364  1  0.06989000  0.10307000  0.29189000  1.0 -0.0815953864
H  H365  1  0.10307000  0.53515000  0.29189000  1.0 -0.0815953864
H  H366  1  0.06989000  0.29189000  0.53515000  1.0 -0.0815953864
H  H367  1  0.53515000  0.10307000  0.06989000  1.0 -0.0815953864
H  H368  1  0.29189000  0.06989000  0.10307000  1.0 -0.0815953864
H  H369  1  0.29189000  0.10307000  0.53515000  1.0 -0.0815953864
H  H370  1  0.53515000  0.06989000  0.29189000  1.0 -0.0815953864
H  H371  1  0.06989000  0.53515000  0.10307000  1.0 -0.0815953864
H  H372  1  0.10307000  0.29189000  0.06989000  1.0 -0.0815953864
H  H373  1  0.46485000  0.70811000  0.93011000  1.0 -0.0815953864
H  H374  1  0.70811000  0.46485000  0.89693000  1.0 -0.0815953864
H  H375  1  0.89693000  0.93011000  0.70811000  1.0 -0.0815953864
H  H376  1  0.93011000  0.89693000  0.46485000  1.0 -0.0815953864
H  H377  1  0.89693000  0.46485000  0.93011000  1.0 -0.0815953864
H  H378  1  0.93011000  0.70811000  0.89693000  1.0 -0.0815953864
H  H379  1  0.46485000  0.89693000  0.70811000  1.0 -0.0815953864
H  H380  1  0.70811000  0.93011000  0.46485000  1.0 -0.0815953864
H  H381  1  0.70811000  0.89693000  0.93011000  1.0 -0.0815953864
H  H382  1  0.46485000  0.93011000  0.89693000  1.0 -0.0815953864
H  H383  1  0.93011000  0.46485000  0.70811000  1.0 -0.0815953864
H  H384  1  0.89693000  0.70811000  0.46485000  1.0 -0.0815953864
H  H385  1  0.42077000  0.72143000  0.96629000  1.0 -0.0509227853
H  H386  1  0.72143000  0.42077000  0.89151000  1.0 -0.0509227853
H  H387  1  0.96629000  0.89151000  0.42077000  1.0 -0.0509227853
H  H388  1  0.89151000  0.96629000  0.72143000  1.0 -0.0509227853
H  H389  1  0.96629000  0.42077000  0.72143000  1.0 -0.0509227853
H  H390  1  0.89151000  0.72143000  0.42077000  1.0 -0.0509227853
H  H391  1  0.42077000  0.96629000  0.89151000  1.0 -0.0509227853
H  H392  1  0.72143000  0.89151000  0.96629000  1.0 -0.0509227853
H  H393  1  0.72143000  0.96629000  0.42077000  1.0 -0.0509227853
H  H394  1  0.42077000  0.89151000  0.72143000  1.0 -0.0509227853
H  H395  1  0.89151000  0.42077000  0.96629000  1.0 -0.0509227853
H  H396  1  0.96629000  0.72143000  0.89151000  1.0 -0.0509227853
H  H397  1  0.57923000  0.27857000  0.10849000  1.0 -0.0509227853
H  H398  1  0.27857000  0.57923000  0.03371000  1.0 -0.0509227853
H  H399  1  0.03371000  0.10849000  0.27857000  1.0 -0.0509227853
H  H400  1  0.10849000  0.03371000  0.57923000  1.0 -0.0509227853
H  H401  1  0.03371000  0.57923000  0.10849000  1.0 -0.0509227853
H  H402  1  0.10849000  0.27857000  0.03371000  1.0 -0.0509227853
H  H403  1  0.57923000  0.03371000  0.27857000  1.0 -0.0509227853
H  H404  1  0.27857000  0.10849000  0.57923000  1.0 -0.0509227853
H  H405  1  0.27857000  0.03371000  0.10849000  1.0 -0.0509227853
H  H406  1  0.57923000  0.10849000  0.03371000  1.0 -0.0509227853
H  H407  1  0.10849000  0.57923000  0.27857000  1.0 -0.0509227853
H  H408  1  0.03371000  0.27857000  0.57923000  1.0 -0.0509227853
H  H409  1  0.57923000  0.27857000  0.03371000  1.0 -0.0509227853
H  H410  1  0.27857000  0.57923000  0.10849000  1.0 -0.0509227853
H  H411  1  0.03371000  0.10849000  0.57923000  1.0 -0.0509227853
H  H412  1  0.10849000  0.03371000  0.27857000  1.0 -0.0509227853
H  H413  1  0.03371000  0.57923000  0.27857000  1.0 -0.0509227853
H  H414  1  0.10849000  0.27857000  0.57923000  1.0 -0.0509227853
H  H415  1  0.57923000  0.03371000  0.10849000  1.0 -0.0509227853
H  H416  1  0.27857000  0.10849000  0.03371000  1.0 -0.0509227853
H  H417  1  0.27857000  0.03371000  0.57923000  1.0 -0.0509227853
H  H418  1  0.57923000  0.10849000  0.27857000  1.0 -0.0509227853
H  H419  1  0.10849000  0.57923000  0.03371000  1.0 -0.0509227853
H  H420  1  0.03371000  0.27857000  0.10849000  1.0 -0.0509227853
H  H421  1  0.42077000  0.72143000  0.89151000  1.0 -0.0509227853
H  H422  1  0.72143000  0.42077000  0.96629000  1.0 -0.0509227853
H  H423  1  0.96629000  0.89151000  0.72143000  1.0 -0.0509227853
H  H424  1  0.89151000  0.96629000  0.42077000  1.0 -0.0509227853
H  H425  1  0.96629000  0.42077000  0.89151000  1.0 -0.0509227853
H  H426  1  0.89151000  0.72143000  0.96629000  1.0 -0.0509227853
H  H427  1  0.42077000  0.96629000  0.72143000  1.0 -0.0509227853
H  H428  1  0.72143000  0.89151000  0.42077000  1.0 -0.0509227853
H  H429  1  0.72143000  0.96629000  0.89151000  1.0 -0.0509227853
H  H430  1  0.42077000  0.89151000  0.96629000  1.0 -0.0509227853
H  H431  1  0.89151000  0.42077000  0.72143000  1.0 -0.0509227853
H  H432  1  0.96629000  0.72143000  0.42077000  1.0 -0.0509227853
H  H433  1  0.38559000  0.73207000  0.92037000  1.0 -0.0815953864
H  H434  1  0.73207000  0.38559000  0.96197000  1.0 -0.0815953864
H  H435  1  0.92037000  0.96197000  0.38559000  1.0 -0.0815953864
H  H436  1  0.96197000  0.92037000  0.73207000  1.0 -0.0815953864
H  H437  1  0.92037000  0.38559000  0.73207000  1.0 -0.0815953864
H  H438  1  0.96197000  0.73207000  0.38559000  1.0 -0.0815953864
H  H439  1  0.38559000  0.92037000  0.96197000  1.0 -0.0815953864
H  H440  1  0.73207000  0.96197000  0.92037000  1.0 -0.0815953864
H  H441  1  0.73207000  0.92037000  0.38559000  1.0 -0.0815953864
H  H442  1  0.38559000  0.96197000  0.73207000  1.0 -0.0815953864
H  H443  1  0.96197000  0.38559000  0.92037000  1.0 -0.0815953864
H  H444  1  0.92037000  0.73207000  0.96197000  1.0 -0.0815953864
H  H445  1  0.61441000  0.26793000  0.03803000  1.0 -0.0815953864
H  H446  1  0.26793000  0.61441000  0.07963000  1.0 -0.0815953864
H  H447  1  0.07963000  0.03803000  0.26793000  1.0 -0.0815953864
H  H448  1  0.03803000  0.07963000  0.61441000  1.0 -0.0815953864
H  H449  1  0.07963000  0.61441000  0.03803000  1.0 -0.0815953864
H  H450  1  0.03803000  0.26793000  0.07963000  1.0 -0.0815953864
H  H451  1  0.61441000  0.07963000  0.26793000  1.0 -0.0815953864
H  H452  1  0.26793000  0.03803000  0.61441000  1.0 -0.0815953864
H  H453  1  0.26793000  0.07963000  0.03803000  1.0 -0.0815953864
H  H454  1  0.61441000  0.03803000  0.07963000  1.0 -0.0815953864
H  H455  1  0.03803000  0.61441000  0.26793000  1.0 -0.0815953864
H  H456  1  0.07963000  0.26793000  0.61441000  1.0 -0.0815953864
H  H457  1  0.61441000  0.26793000  0.07963000  1.0 -0.0815953864
H  H458  1  0.26793000  0.61441000  0.03803000  1.0 -0.0815953864
H  H459  1  0.07963000  0.03803000  0.61441000  1.0 -0.0815953864
H  H460  1  0.03803000  0.07963000  0.26793000  1.0 -0.0815953864
H  H461  1  0.07963000  0.61441000  0.26793000  1.0 -0.0815953864
H  H462  1  0.03803000  0.26793000  0.61441000  1.0 -0.0815953864
H  H463  1  0.61441000  0.07963000  0.03803000  1.0 -0.0815953864
H  H464  1  0.26793000  0.03803000  0.07963000  1.0 -0.0815953864
H  H465  1  0.26793000  0.07963000  0.61441000  1.0 -0.0815953864
H  H466  1  0.61441000  0.03803000  0.26793000  1.0 -0.0815953864
H  H467  1  0.03803000  0.61441000  0.07963000  1.0 -0.0815953864
H  H468  1  0.07963000  0.26793000  0.03803000  1.0 -0.0815953864
H  H469  1  0.38559000  0.73207000  0.96197000  1.0 -0.0815953864
H  H470  1  0.73207000  0.38559000  0.92037000  1.0 -0.0815953864
H  H471  1  0.92037000  0.96197000  0.73207000  1.0 -0.0815953864
H  H472  1  0.96197000  0.92037000  0.38559000  1.0 -0.0815953864
H  H473  1  0.92037000  0.38559000  0.96197000  1.0 -0.0815953864
H  H474  1  0.96197000  0.73207000  0.92037000  1.0 -0.0815953864
H  H475  1  0.38559000  0.92037000  0.73207000  1.0 -0.0815953864
H  H476  1  0.73207000  0.96197000  0.38559000  1.0 -0.0815953864
H  H477  1  0.73207000  0.92037000  0.96197000  1.0 -0.0815953864
H  H478  1  0.38559000  0.96197000  0.92037000  1.0 -0.0815953864
H  H479  1  0.96197000  0.38559000  0.73207000  1.0 -0.0815953864
H  H480  1  0.92037000  0.73207000  0.38559000  1.0 -0.0815953864
H  H481  1  0.66341000  0.53415000  0.20913000  1.0 0.1484614843
H  H482  1  0.53415000  0.66341000  0.59331000  1.0 0.1484614843
H  H483  1  0.20913000  0.59331000  0.66341000  1.0 0.1484614843
H  H484  1  0.59331000  0.20913000  0.53415000  1.0 0.1484614843
H  H485  1  0.20913000  0.66341000  0.53415000  1.0 0.1484614843
H  H486  1  0.59331000  0.53415000  0.66341000  1.0 0.1484614843
H  H487  1  0.66341000  0.20913000  0.59331000  1.0 0.1484614843
H  H488  1  0.53415000  0.59331000  0.20913000  1.0 0.1484614843
H  H489  1  0.53415000  0.20913000  0.66341000  1.0 0.1484614843
H  H490  1  0.66341000  0.59331000  0.53415000  1.0 0.1484614843
H  H491  1  0.59331000  0.66341000  0.20913000  1.0 0.1484614843
H  H492  1  0.20913000  0.53415000  0.59331000  1.0 0.1484614843
H  H493  1  0.33659000  0.46585000  0.40669000  1.0 0.1484614843
H  H494  1  0.46585000  0.33659000  0.79087000  1.0 0.1384756321
H  H495  1  0.79087000  0.40669000  0.46585000  1.0 0.1484614843
H  H496  1  0.40669000  0.79087000  0.33659000  1.0 0.1484614843
H  H497  1  0.79087000  0.33659000  0.40669000  1.0 0.1484614843
H  H498  1  0.40669000  0.46585000  0.79087000  1.0 0.1384756321
H  H499  1  0.33659000  0.79087000  0.46585000  1.0 0.1484614843
H  H500  1  0.46585000  0.40669000  0.33659000  1.0 0.1484614843
H  H501  1  0.46585000  0.79087000  0.40669000  1.0 0.1484614843
H  H502  1  0.33659000  0.40669000  0.79087000  1.0 0.1384756321
H  H503  1  0.40669000  0.33659000  0.46585000  1.0 0.1484614843
H  H504  1  0.79087000  0.46585000  0.33659000  1.0 0.1484614843
H  H505  1  0.33659000  0.46585000  0.79087000  1.0 0.1384756321
H  H506  1  0.46585000  0.33659000  0.40669000  1.0 0.1484614843
H  H507  1  0.79087000  0.40669000  0.33659000  1.0 0.1484614843
H  H508  1  0.40669000  0.79087000  0.46585000  1.0 0.1484614843
H  H509  1  0.79087000  0.33659000  0.46585000  1.0 0.1484614843
H  H510  1  0.40669000  0.46585000  0.33659000  1.0 0.1484614843
H  H511  1  0.33659000  0.79087000  0.40669000  1.0 0.1484614843
H  H512  1  0.46585000  0.40669000  0.79087000  1.0 0.1384756321
H  H513  1  0.46585000  0.79087000  0.33659000  1.0 0.1484614843
H  H514  1  0.33659000  0.40669000  0.46585000  1.0 0.1484614843
H  H515  1  0.40669000  0.33659000  0.79087000  1.0 0.1384756321
H  H516  1  0.79087000  0.46585000  0.40669000  1.0 0.1484614843
H  H517  1  0.66341000  0.53415000  0.59331000  1.0 0.1484614843
H  H518  1  0.53415000  0.66341000  0.20913000  1.0 0.1484614843
H  H519  1  0.20913000  0.59331000  0.53415000  1.0 0.1484614843
H  H520  1  0.59331000  0.20913000  0.66341000  1.0 0.1484614843
H  H521  1  0.20913000  0.66341000  0.59331000  1.0 0.1484614843
H  H522  1  0.59331000  0.53415000  0.20913000  1.0 0.1484614843
H  H523  1  0.66341000  0.20913000  0.53415000  1.0 0.1484614843
H  H524  1  0.53415000  0.59331000  0.66341000  1.0 0.1484614843
H  H525  1  0.53415000  0.20913000  0.59331000  1.0 0.1484614843
H  H526  1  0.66341000  0.59331000  0.20913000  1.0 0.1484614843
H  H527  1  0.59331000  0.66341000  0.53415000  1.0 0.1484614843
H  H528  1  0.20913000  0.53415000  0.66341000  1.0 0.1484614843
C  C1  1  0.32720000  0.76620000  0.14040000  1.0 0.5790617496
C  C2  1  0.76620000  0.32720000  0.76620000  1.0 0.5790617496
C  C3  1  0.14040000  0.76620000  0.32720000  1.0 0.5790617496
C  C4  1  0.76620000  0.14040000  0.76620000  1.0 0.5790617496
C  C5  1  0.14040000  0.32720000  0.76620000  1.0 0.5790617496
C  C6  1  0.76620000  0.76620000  0.32720000  1.0 0.5790617496
C  C7  1  0.32720000  0.14040000  0.76620000  1.0 0.5790617496
C  C8  1  0.76620000  0.76620000  0.14040000  1.0 0.5790617496
C  C9  1  0.76620000  0.14040000  0.32720000  1.0 0.5790617496
C  C10  1  0.32720000  0.76620000  0.76620000  1.0 0.5790617496
C  C11  1  0.76620000  0.32720000  0.14040000  1.0 0.5790617496
C  C12  1  0.14040000  0.76620000  0.76620000  1.0 0.5790617496
C  C13  1  0.67280000  0.23380000  0.23380000  1.0 0.5790617496
C  C14  1  0.23380000  0.67280000  0.85960000  1.0 0.5790617496
C  C15  1  0.85960000  0.23380000  0.23380000  1.0 0.5790617496
C  C16  1  0.23380000  0.85960000  0.67280000  1.0 0.5790617496
C  C17  1  0.85960000  0.67280000  0.23380000  1.0 0.5790617496
C  C18  1  0.23380000  0.23380000  0.85960000  1.0 0.5790617496
C  C19  1  0.67280000  0.85960000  0.23380000  1.0 0.5790617496
C  C20  1  0.23380000  0.23380000  0.67280000  1.0 0.5790617496
C  C21  1  0.23380000  0.85960000  0.23380000  1.0 0.5790617496
C  C22  1  0.67280000  0.23380000  0.85960000  1.0 0.5790617496
C  C23  1  0.23380000  0.67280000  0.23380000  1.0 0.5790617496
C  C24  1  0.85960000  0.23380000  0.67280000  1.0 0.5790617496
C  C25  1  0.38354000  0.76470000  0.08706000  1.0 -0.0033217385
C  C26  1  0.76470000  0.38354000  0.76470000  1.0 -0.0033217385
C  C27  1  0.08706000  0.76470000  0.38354000  1.0 -0.0033217385
C  C28  1  0.76470000  0.08706000  0.76470000  1.0 -0.0033217385
C  C29  1  0.08706000  0.38354000  0.76470000  1.0 -0.0033217385
C  C30  1  0.76470000  0.76470000  0.38354000  1.0 -0.0033217385
C  C31  1  0.38354000  0.08706000  0.76470000  1.0 -0.0033217385
C  C32  1  0.76470000  0.76470000  0.08706000  1.0 -0.0033217385
C  C33  1  0.76470000  0.08706000  0.38354000  1.0 -0.0033217385
C  C34  1  0.38354000  0.76470000  0.76470000  1.0 -0.0033217385
C  C35  1  0.76470000  0.38354000  0.08706000  1.0 -0.0033217385
C  C36  1  0.08706000  0.76470000  0.76470000  1.0 -0.0033217385
C  C37  1  0.61646000  0.23530000  0.23530000  1.0 -0.0033217385
C  C38  1  0.23530000  0.61646000  0.91294000  1.0 -0.0033217385
C  C39  1  0.91294000  0.23530000  0.23530000  1.0 -0.0033217385
C  C40  1  0.23530000  0.91294000  0.61646000  1.0 -0.0033217385
C  C41  1  0.91294000  0.61646000  0.23530000  1.0 -0.0033217385
C  C42  1  0.23530000  0.23530000  0.91294000  1.0 -0.0033217385
C  C43  1  0.61646000  0.91294000  0.23530000  1.0 -0.0033217385
C  C44  1  0.23530000  0.23530000  0.61646000  1.0 -0.0050090577
C  C45  1  0.23530000  0.91294000  0.23530000  1.0 -0.0033217385
C  C46  1  0.61646000  0.23530000  0.91294000  1.0 -0.0033217385
C  C47  1  0.23530000  0.61646000  0.23530000  1.0 -0.0033217385
C  C48  1  0.91294000  0.23530000  0.61646000  1.0 -0.0050090577
C  C49  1  0.37620000  0.79630000  0.03120000  1.0 -0.0384832675
C  C50  1  0.79630000  0.37620000  0.79630000  1.0 -0.0384832675
C  C51  1  0.03120000  0.79630000  0.37620000  1.0 -0.0384832675
C  C52  1  0.79630000  0.03120000  0.79630000  1.0 -0.0384832675
C  C53  1  0.03120000  0.37620000  0.79630000  1.0 -0.0384832675
C  C54  1  0.79630000  0.79630000  0.37620000  1.0 -0.0384832675
C  C55  1  0.37620000  0.03120000  0.79630000  1.0 -0.0384832675
C  C56  1  0.79630000  0.79630000  0.03120000  1.0 -0.0384832675
C  C57  1  0.79630000  0.03120000  0.37620000  1.0 -0.0384832675
C  C58  1  0.37620000  0.79630000  0.79630000  1.0 -0.0384832675
C  C59  1  0.79630000  0.37620000  0.03120000  1.0 -0.0384832675
C  C60  1  0.03120000  0.79630000  0.79630000  1.0 -0.0384832675
C  C61  1  0.62380000  0.20370000  0.20370000  1.0 -0.0384832675
C  C62  1  0.20370000  0.62380000  0.96880000  1.0 -0.0384832675
C  C63  1  0.96880000  0.20370000  0.20370000  1.0 -0.0384832675
C  C64  1  0.20370000  0.96880000  0.62380000  1.0 -0.0384832675
C  C65  1  0.96880000  0.62380000  0.20370000  1.0 -0.0384832675
C  C66  1  0.20370000  0.20370000  0.96880000  1.0 -0.0384832675
C  C67  1  0.62380000  0.96880000  0.20370000  1.0 -0.0384832675
C  C68  1  0.20370000  0.20370000  0.62380000  1.0 -0.0384832675
C  C69  1  0.20370000  0.96880000  0.20370000  1.0 -0.0384832675
C  C70  1  0.62380000  0.20370000  0.96880000  1.0 -0.0384832675
C  C71  1  0.20370000  0.62380000  0.20370000  1.0 -0.0384832675
C  C72  1  0.96880000  0.20370000  0.62380000  1.0 -0.0384832675
C  C73  1  0.42772000  0.79740000  0.97748000  1.0 0.0676760828
C  C74  1  0.79740000  0.42772000  0.79740000  1.0 0.0676760828
C  C75  1  0.97748000  0.79740000  0.42772000  1.0 0.0676760828
C  C76  1  0.79740000  0.97748000  0.79740000  1.0 0.0676760828
C  C77  1  0.97748000  0.42772000  0.79740000  1.0 0.0676760828
C  C78  1  0.79740000  0.79740000  0.42772000  1.0 0.0676760828
C  C79  1  0.42772000  0.97748000  0.79740000  1.0 0.0676760828
C  C80  1  0.79740000  0.79740000  0.97748000  1.0 0.0676760828
C  C81  1  0.79740000  0.97748000  0.42772000  1.0 0.0676760828
C  C82  1  0.42772000  0.79740000  0.79740000  1.0 0.0676760828
C  C83  1  0.79740000  0.42772000  0.97748000  1.0 0.0676760828
C  C84  1  0.97748000  0.79740000  0.79740000  1.0 0.0676760828
C  C85  1  0.57228000  0.20260000  0.20260000  1.0 0.0676760828
C  C86  1  0.20260000  0.57228000  0.02252000  1.0 0.0676760828
C  C87  1  0.02252000  0.20260000  0.20260000  1.0 0.0676760828
C  C88  1  0.20260000  0.02252000  0.57228000  1.0 0.0676760828
C  C89  1  0.02252000  0.57228000  0.20260000  1.0 0.0676760828
C  C90  1  0.20260000  0.20260000  0.02252000  1.0 0.0676760828
C  C91  1  0.57228000  0.02252000  0.20260000  1.0 0.0676760828
C  C92  1  0.20260000  0.20260000  0.57228000  1.0 0.0676760828
C  C93  1  0.20260000  0.02252000  0.20260000  1.0 0.0676760828
C  C94  1  0.57228000  0.20260000  0.02252000  1.0 0.0676760828
C  C95  1  0.20260000  0.57228000  0.20260000  1.0 0.0676760828
C  C96  1  0.02252000  0.20260000  0.57228000  1.0 0.0676760828
C  C97  1  0.48290000  0.76620000  0.98470000  1.0 -0.1230098041
C  C98  1  0.76620000  0.48290000  0.76620000  1.0 -0.1230098041
C  C99  1  0.98470000  0.76620000  0.48290000  1.0 -0.1230098041
C  C100  1  0.76620000  0.98470000  0.76620000  1.0 -0.1230098041
C  C101  1  0.98470000  0.48290000  0.76620000  1.0 -0.1230098041
C  C102  1  0.76620000  0.76620000  0.48290000  1.0 -0.1230098041
C  C103  1  0.48290000  0.98470000  0.76620000  1.0 -0.1230098041
C  C104  1  0.76620000  0.76620000  0.98470000  1.0 -0.1230098041
C  C105  1  0.76620000  0.98470000  0.48290000  1.0 -0.1230098041
C  C106  1  0.48290000  0.76620000  0.76620000  1.0 -0.1230098041
C  C107  1  0.76620000  0.48290000  0.98470000  1.0 -0.1230098041
C  C108  1  0.98470000  0.76620000  0.76620000  1.0 -0.1230098041
C  C109  1  0.51710000  0.23380000  0.23380000  1.0 -0.1230098041
C  C110  1  0.23380000  0.51710000  0.01530000  1.0 -0.1230098041
C  C111  1  0.01530000  0.23380000  0.23380000  1.0 -0.1230098041
C  C112  1  0.23380000  0.01530000  0.51710000  1.0 -0.1230098041
C  C113  1  0.01530000  0.51710000  0.23380000  1.0 -0.1230098041
C  C114  1  0.23380000  0.23380000  0.01530000  1.0 -0.1230098041
C  C115  1  0.51710000  0.01530000  0.23380000  1.0 -0.125073497
C  C116  1  0.23380000  0.23380000  0.51710000  1.0 -0.1230098041
C  C117  1  0.23380000  0.01530000  0.23380000  1.0 -0.1230098041
C  C118  1  0.51710000  0.23380000  0.01530000  1.0 -0.1230098041
C  C119  1  0.23380000  0.51710000  0.23380000  1.0 -0.1230098041
C  C120  1  0.01530000  0.23380000  0.51710000  1.0 -0.1230098041
C  C121  1  0.48880000  0.73560000  0.04000000  1.0 0.0022603858
C  C122  1  0.73560000  0.48880000  0.73560000  1.0 0.0022603858
C  C123  1  0.04000000  0.73560000  0.48880000  1.0 0.0022603858
C  C124  1  0.73560000  0.04000000  0.73560000  1.0 0.0022603858
C  C125  1  0.04000000  0.48880000  0.73560000  1.0 0.0022603858
C  C126  1  0.73560000  0.73560000  0.48880000  1.0 0.0022603858
C  C127  1  0.48880000  0.04000000  0.73560000  1.0 0.0022603858
C  C128  1  0.73560000  0.73560000  0.04000000  1.0 0.0022603858
C  C129  1  0.73560000  0.04000000  0.48880000  1.0 0.0022603858
C  C130  1  0.48880000  0.73560000  0.73560000  1.0 0.0022603858
C  C131  1  0.73560000  0.48880000  0.04000000  1.0 0.0022603858
C  C132  1  0.04000000  0.73560000  0.73560000  1.0 0.0022603858
C  C133  1  0.51120000  0.26440000  0.26440000  1.0 0.0022603858
C  C134  1  0.26440000  0.51120000  0.96000000  1.0 0.0022603858
C  C135  1  0.96000000  0.26440000  0.26440000  1.0 0.0022603858
C  C136  1  0.26440000  0.96000000  0.51120000  1.0 0.0022603858
C  C137  1  0.96000000  0.51120000  0.26440000  1.0 0.0022603858
C  C138  1  0.26440000  0.26440000  0.96000000  1.0 0.0022603858
C  C139  1  0.51120000  0.96000000  0.26440000  1.0 0.0022603858
C  C140  1  0.26440000  0.26440000  0.51120000  1.0 0.0022603858
C  C141  1  0.26440000  0.96000000  0.26440000  1.0 0.0022603858
C  C142  1  0.51120000  0.26440000  0.96000000  1.0 0.0022603858
C  C143  1  0.26440000  0.51120000  0.26440000  1.0 0.0022603858
C  C144  1  0.96000000  0.26440000  0.51120000  1.0 0.0022603858
C  C145  1  0.43958000  0.73430000  0.09182000  1.0 -0.0306217585
C  C146  1  0.73430000  0.43958000  0.73430000  1.0 -0.0306217585
C  C147  1  0.09182000  0.73430000  0.43958000  1.0 -0.0306217585
C  C148  1  0.73430000  0.09182000  0.73430000  1.0 -0.0306217585
C  C149  1  0.09182000  0.43958000  0.73430000  1.0 -0.0306217585
C  C150  1  0.73430000  0.73430000  0.43958000  1.0 -0.0306217585
C  C151  1  0.43958000  0.09182000  0.73430000  1.0 -0.0306217585
C  C152  1  0.73430000  0.73430000  0.09182000  1.0 -0.0306217585
C  C153  1  0.73430000  0.09182000  0.43958000  1.0 -0.0306217585
C  C154  1  0.43958000  0.73430000  0.73430000  1.0 -0.0306217585
C  C155  1  0.73430000  0.43958000  0.09182000  1.0 -0.0306217585
C  C156  1  0.09182000  0.73430000  0.73430000  1.0 -0.0306217585
C  C157  1  0.56042000  0.26570000  0.26570000  1.0 -0.0306217585
C  C158  1  0.26570000  0.56042000  0.90818000  1.0 -0.0306217585
C  C159  1  0.90818000  0.26570000  0.26570000  1.0 -0.0306217585
C  C160  1  0.26570000  0.90818000  0.56042000  1.0 -0.0306217585
C  C161  1  0.90818000  0.56042000  0.26570000  1.0 -0.0306217585
C  C162  1  0.26570000  0.26570000  0.90818000  1.0 -0.0306217585
C  C163  1  0.56042000  0.90818000  0.26570000  1.0 -0.0306217585
C  C164  1  0.26570000  0.26570000  0.56042000  1.0 -0.0306217585
C  C165  1  0.26570000  0.90818000  0.26570000  1.0 -0.0306217585
C  C166  1  0.56042000  0.26570000  0.90818000  1.0 -0.0306217585
C  C167  1  0.26570000  0.56042000  0.26570000  1.0 -0.0306217585
C  C168  1  0.90818000  0.26570000  0.56042000  1.0 -0.0306217585
C  C169  1  0.55280000  0.70100000  0.04520000  1.0 0.4759434691
C  C170  1  0.70100000  0.55280000  0.70100000  1.0 0.4741622776
C  C171  1  0.04520000  0.70100000  0.55280000  1.0 0.4741622776
C  C172  1  0.70100000  0.04520000  0.70100000  1.0 0.4741622776
C  C173  1  0.04520000  0.55280000  0.70100000  1.0 0.4741622776
C  C174  1  0.70100000  0.70100000  0.55280000  1.0 0.4741622776
C  C175  1  0.55280000  0.04520000  0.70100000  1.0 0.4759434691
C  C176  1  0.70100000  0.70100000  0.04520000  1.0 0.4759434691
C  C177  1  0.70100000  0.04520000  0.55280000  1.0 0.4759434691
C  C178  1  0.55280000  0.70100000  0.70100000  1.0 0.4741622776
C  C179  1  0.70100000  0.55280000  0.04520000  1.0 0.4759434691
C  C180  1  0.04520000  0.70100000  0.70100000  1.0 0.4741622776
C  C181  1  0.44720000  0.29900000  0.29900000  1.0 0.4741622776
C  C182  1  0.29900000  0.44720000  0.95480000  1.0 0.4741622776
C  C183  1  0.95480000  0.29900000  0.29900000  1.0 0.4741622776
C  C184  1  0.29900000  0.95480000  0.44720000  1.0 0.4741622776
C  C185  1  0.95480000  0.44720000  0.29900000  1.0 0.4759434691
C  C186  1  0.29900000  0.29900000  0.95480000  1.0 0.4759434691
C  C187  1  0.44720000  0.95480000  0.29900000  1.0 0.4741622776
C  C188  1  0.29900000  0.29900000  0.44720000  1.0 0.4741622776
C  C189  1  0.29900000  0.95480000  0.29900000  1.0 0.4741622776
C  C190  1  0.44720000  0.29900000  0.95480000  1.0 0.4759434691
C  C191  1  0.29900000  0.44720000  0.29900000  1.0 0.4759434691
C  C192  1  0.95480000  0.29900000  0.44720000  1.0 0.4741622776
C  C193  1  0.42330000  0.83040000  0.91590000  1.0 -0.0384832675
C  C194  1  0.83040000  0.42330000  0.83040000  1.0 -0.0384832675
C  C195  1  0.91590000  0.83040000  0.42330000  1.0 -0.0384832675
C  C196  1  0.83040000  0.91590000  0.83040000  1.0 -0.0384832675
C  C197  1  0.91590000  0.42330000  0.83040000  1.0 -0.0384832675
C  C198  1  0.83040000  0.83040000  0.42330000  1.0 -0.0384832675
C  C199  1  0.42330000  0.91590000  0.83040000  1.0 -0.0384832675
C  C200  1  0.83040000  0.83040000  0.91590000  1.0 -0.0384832675
C  C201  1  0.83040000  0.91590000  0.42330000  1.0 -0.0384832675
C  C202  1  0.42330000  0.83040000  0.83040000  1.0 -0.0384832675
C  C203  1  0.83040000  0.42330000  0.91590000  1.0 -0.0384832675
C  C204  1  0.91590000  0.83040000  0.83040000  1.0 -0.0384832675
C  C205  1  0.57670000  0.16960000  0.16960000  1.0 -0.0384832675
C  C206  1  0.16960000  0.57670000  0.08410000  1.0 -0.0384832675
C  C207  1  0.08410000  0.16960000  0.16960000  1.0 -0.0384832675
C  C208  1  0.16960000  0.08410000  0.57670000  1.0 -0.0384832675
C  C209  1  0.08410000  0.57670000  0.16960000  1.0 -0.0384832675
C  C210  1  0.16960000  0.16960000  0.08410000  1.0 -0.0384832675
C  C211  1  0.57670000  0.08410000  0.16960000  1.0 -0.0384832675
C  C212  1  0.16960000  0.16960000  0.57670000  1.0 -0.0384832675
C  C213  1  0.16960000  0.08410000  0.16960000  1.0 -0.0384832675
C  C214  1  0.57670000  0.16960000  0.08410000  1.0 -0.0384832675
C  C215  1  0.16960000  0.57670000  0.16960000  1.0 -0.0384832675
C  C216  1  0.08410000  0.16960000  0.57670000  1.0 -0.0384832675
C  C217  1  0.42092000  0.80208000  0.88850000  1.0 -0.0033217385
C  C218  1  0.80208000  0.42092000  0.88850000  1.0 -0.0033217385
C  C219  1  0.88850000  0.88850000  0.42092000  1.0 -0.0033217385
C  C220  1  0.88850000  0.88850000  0.80208000  1.0 -0.0033217385
C  C221  1  0.88850000  0.42092000  0.80208000  1.0 -0.0050090577
C  C222  1  0.88850000  0.80208000  0.42092000  1.0 -0.0033217385
C  C223  1  0.42092000  0.88850000  0.88850000  1.0 -0.0033217385
C  C224  1  0.80208000  0.88850000  0.88850000  1.0 -0.0033217385
C  C225  1  0.80208000  0.88850000  0.42092000  1.0 -0.0033217385
C  C226  1  0.42092000  0.88850000  0.80208000  1.0 -0.0033217385
C  C227  1  0.88850000  0.42092000  0.88850000  1.0 -0.0033217385
C  C228  1  0.88850000  0.80208000  0.88850000  1.0 -0.0033217385
C  C229  1  0.57908000  0.19792000  0.11150000  1.0 -0.0033217385
C  C230  1  0.19792000  0.57908000  0.11150000  1.0 -0.0033217385
C  C231  1  0.11150000  0.11150000  0.19792000  1.0 -0.0033217385
C  C232  1  0.11150000  0.11150000  0.57908000  1.0 -0.0033217385
C  C233  1  0.11150000  0.57908000  0.11150000  1.0 -0.0033217385
C  C234  1  0.11150000  0.19792000  0.11150000  1.0 -0.0033217385
C  C235  1  0.57908000  0.11150000  0.19792000  1.0 -0.0033217385
C  C236  1  0.19792000  0.11150000  0.57908000  1.0 -0.0033217385
C  C237  1  0.19792000  0.11150000  0.11150000  1.0 -0.0033217385
C  C238  1  0.57908000  0.11150000  0.11150000  1.0 -0.0033217385
C  C239  1  0.11150000  0.57908000  0.19792000  1.0 -0.0033217385
C  C240  1  0.11150000  0.19792000  0.57908000  1.0 -0.0033217385
C  C241  1  0.42320000  0.73600000  0.92040000  1.0 -0.2166591813
C  C242  1  0.73600000  0.42320000  0.92040000  1.0 -0.2166591813
C  C243  1  0.92040000  0.92040000  0.42320000  1.0 -0.2166591813
C  C244  1  0.92040000  0.92040000  0.73600000  1.0 -0.2166591813
C  C245  1  0.92040000  0.42320000  0.73600000  1.0 -0.2166591813
C  C246  1  0.92040000  0.73600000  0.42320000  1.0 -0.2166591813
C  C247  1  0.42320000  0.92040000  0.92040000  1.0 -0.2166591813
C  C248  1  0.73600000  0.92040000  0.92040000  1.0 -0.2166591813
C  C249  1  0.73600000  0.92040000  0.42320000  1.0 -0.2166591813
C  C250  1  0.42320000  0.92040000  0.73600000  1.0 -0.2166591813
C  C251  1  0.92040000  0.42320000  0.92040000  1.0 -0.2166591813
C  C252  1  0.92040000  0.73600000  0.92040000  1.0 -0.2166591813
C  C253  1  0.57680000  0.26400000  0.07960000  1.0 -0.2166591813
C  C254  1  0.26400000  0.57680000  0.07960000  1.0 -0.2166591813
C  C255  1  0.07960000  0.07960000  0.26400000  1.0 -0.2141547441
C  C256  1  0.07960000  0.07960000  0.57680000  1.0 -0.2141547441
C  C257  1  0.07960000  0.57680000  0.07960000  1.0 -0.2166591813
C  C258  1  0.07960000  0.26400000  0.07960000  1.0 -0.2166591813
C  C259  1  0.57680000  0.07960000  0.26400000  1.0 -0.2166591813
C  C260  1  0.26400000  0.07960000  0.57680000  1.0 -0.2141547441
C  C261  1  0.26400000  0.07960000  0.07960000  1.0 -0.2141547441
C  C262  1  0.57680000  0.07960000  0.07960000  1.0 -0.2141547441
C  C263  1  0.07960000  0.57680000  0.26400000  1.0 -0.2166591813
C  C264  1  0.07960000  0.26400000  0.57680000  1.0 -0.2166591813
O  O1  1  0.33580000  0.73690000  0.19040000  1.0 -0.5724620845
O  O2  1  0.73690000  0.33580000  0.73690000  1.0 -0.5756153881
O  O3  1  0.19040000  0.73690000  0.33580000  1.0 -0.5724620845
O  O4  1  0.73690000  0.19040000  0.73690000  1.0 -0.5724620845
O  O5  1  0.19040000  0.33580000  0.73690000  1.0 -0.5756153881
O  O6  1  0.73690000  0.73690000  0.33580000  1.0 -0.5724620845
O  O7  1  0.33580000  0.19040000  0.73690000  1.0 -0.5756153881
O  O8  1  0.73690000  0.73690000  0.19040000  1.0 -0.5724620845
O  O9  1  0.73690000  0.19040000  0.33580000  1.0 -0.5724620845
O  O10  1  0.33580000  0.73690000  0.73690000  1.0 -0.5756153881
O  O11  1  0.73690000  0.33580000  0.19040000  1.0 -0.5724620845
O  O12  1  0.19040000  0.73690000  0.73690000  1.0 -0.5724620845
O  O13  1  0.66420000  0.26310000  0.26310000  1.0 -0.5724620845
O  O14  1  0.26310000  0.66420000  0.80960000  1.0 -0.5756153881
O  O15  1  0.80960000  0.26310000  0.26310000  1.0 -0.5756153881
O  O16  1  0.26310000  0.80960000  0.66420000  1.0 -0.5756153881
O  O17  1  0.80960000  0.66420000  0.26310000  1.0 -0.5756153881
O  O18  1  0.26310000  0.26310000  0.80960000  1.0 -0.5756153881
O  O19  1  0.66420000  0.80960000  0.26310000  1.0 -0.5756153881
O  O20  1  0.26310000  0.26310000  0.66420000  1.0 -0.5756153881
O  O21  1  0.26310000  0.80960000  0.26310000  1.0 -0.5756153881
O  O22  1  0.66420000  0.26310000  0.80960000  1.0 -0.5756153881
O  O23  1  0.26310000  0.66420000  0.26310000  1.0 -0.5756153881
O  O24  1  0.80960000  0.26310000  0.66420000  1.0 -0.5756153881
O  O25  1  0.27766000  0.79450000  0.13334000  1.0 -0.4772755138
O  O26  1  0.79450000  0.27766000  0.79450000  1.0 -0.4772755138
O  O27  1  0.13334000  0.79450000  0.27766000  1.0 -0.4772755138
O  O28  1  0.79450000  0.13334000  0.79450000  1.0 -0.4772755138
O  O29  1  0.13334000  0.27766000  0.79450000  1.0 -0.4772755138
O  O30  1  0.79450000  0.79450000  0.27766000  1.0 -0.4772755138
O  O31  1  0.27766000  0.13334000  0.79450000  1.0 -0.4772755138
O  O32  1  0.79450000  0.79450000  0.13334000  1.0 -0.4772755138
O  O33  1  0.79450000  0.13334000  0.27766000  1.0 -0.4772755138
O  O34  1  0.27766000  0.79450000  0.79450000  1.0 -0.4772755138
O  O35  1  0.79450000  0.27766000  0.13334000  1.0 -0.4772755138
O  O36  1  0.13334000  0.79450000  0.79450000  1.0 -0.4772755138
O  O37  1  0.72234000  0.20550000  0.20550000  1.0 -0.4772755138
O  O38  1  0.20550000  0.72234000  0.86666000  1.0 -0.4772755138
O  O39  1  0.86666000  0.20550000  0.20550000  1.0 -0.4772755138
O  O40  1  0.20550000  0.86666000  0.72234000  1.0 -0.4772755138
O  O41  1  0.86666000  0.72234000  0.20550000  1.0 -0.4772755138
O  O42  1  0.20550000  0.20550000  0.86666000  1.0 -0.4772755138
O  O43  1  0.72234000  0.86666000  0.20550000  1.0 -0.4772755138
O  O44  1  0.20550000  0.20550000  0.72234000  1.0 -0.4772755138
O  O45  1  0.20550000  0.86666000  0.20550000  1.0 -0.4772755138
O  O46  1  0.72234000  0.20550000  0.86666000  1.0 -0.4772755138
O  O47  1  0.20550000  0.72234000  0.20550000  1.0 -0.4772755138
O  O48  1  0.86666000  0.20550000  0.72234000  1.0 -0.4772755138
O  O49  1  0.59517000  0.70485000  0.99513000  1.0 -0.5144940286
O  O50  1  0.70485000  0.59517000  0.70485000  1.0 -0.5161895684
O  O51  1  0.99513000  0.70485000  0.59517000  1.0 -0.5161895684
O  O52  1  0.70485000  0.99513000  0.70485000  1.0 -0.5144940286
O  O53  1  0.99513000  0.59517000  0.70485000  1.0 -0.5144940286
O  O54  1  0.70485000  0.70485000  0.59517000  1.0 -0.5144940286
O  O55  1  0.59517000  0.99513000  0.70485000  1.0 -0.5161895684
O  O56  1  0.70485000  0.70485000  0.99513000  1.0 -0.5161895684
O  O57  1  0.70485000  0.99513000  0.59517000  1.0 -0.5161895684
O  O58  1  0.59517000  0.70485000  0.70485000  1.0 -0.5161895684
O  O59  1  0.70485000  0.59517000  0.99513000  1.0 -0.5161895684
O  O60  1  0.99513000  0.70485000  0.70485000  1.0 -0.5161895684
O  O61  1  0.40483000  0.29515000  0.29515000  1.0 -0.5144940286
O  O62  1  0.29515000  0.40483000  0.00487000  1.0 -0.5161895684
O  O63  1  0.00487000  0.29515000  0.29515000  1.0 -0.5161895684
O  O64  1  0.29515000  0.00487000  0.40483000  1.0 -0.5144940286
O  O65  1  0.00487000  0.40483000  0.29515000  1.0 -0.5161895684
O  O66  1  0.29515000  0.29515000  0.00487000  1.0 -0.5161895684
O  O67  1  0.40483000  0.00487000  0.29515000  1.0 -0.5144940286
O  O68  1  0.29515000  0.29515000  0.40483000  1.0 -0.5161895684
O  O69  1  0.29515000  0.00487000  0.29515000  1.0 -0.5161895684
O  O70  1  0.40483000  0.29515000  0.00487000  1.0 -0.5161895684
O  O71  1  0.29515000  0.40483000  0.29515000  1.0 -0.5144940286
O  O72  1  0.00487000  0.29515000  0.40483000  1.0 -0.5161895684
O  O73  1  0.55588000  0.67484000  0.09444000  1.0 -0.5724620845
O  O74  1  0.67484000  0.55588000  0.67484000  1.0 -0.5724620845
O  O75  1  0.09444000  0.67484000  0.55588000  1.0 -0.5724620845
O  O76  1  0.67484000  0.09444000  0.67484000  1.0 -0.5724620845
O  O77  1  0.09444000  0.55588000  0.67484000  1.0 -0.5724620845
O  O78  1  0.67484000  0.67484000  0.55588000  1.0 -0.5724620845
O  O79  1  0.55588000  0.09444000  0.67484000  1.0 -0.5724620845
O  O80  1  0.67484000  0.67484000  0.09444000  1.0 -0.5724620845
O  O81  1  0.67484000  0.09444000  0.55588000  1.0 -0.5724620845
O  O82  1  0.55588000  0.67484000  0.67484000  1.0 -0.5724620845
O  O83  1  0.67484000  0.55588000  0.09444000  1.0 -0.5724620845
O  O84  1  0.09444000  0.67484000  0.67484000  1.0 -0.5724620845
O  O85  1  0.44412000  0.32516000  0.32516000  1.0 -0.5724620845
O  O86  1  0.32516000  0.44412000  0.90556000  1.0 -0.5724620845
O  O87  1  0.90556000  0.32516000  0.32516000  1.0 -0.5724620845
O  O88  1  0.32516000  0.90556000  0.44412000  1.0 -0.5724620845
O  O89  1  0.90556000  0.44412000  0.32516000  1.0 -0.5724620845
O  O90  1  0.32516000  0.32516000  0.90556000  1.0 -0.5724620845
O  O91  1  0.44412000  0.90556000  0.32516000  1.0 -0.5724620845
O  O92  1  0.32516000  0.32516000  0.44412000  1.0 -0.5724620845
O  O93  1  0.32516000  0.90556000  0.32516000  1.0 -0.5724620845
O  O94  1  0.44412000  0.32516000  0.90556000  1.0 -0.5724620845
O  O95  1  0.32516000  0.44412000  0.32516000  1.0 -0.5756153881
O  O96  1  0.90556000  0.32516000  0.44412000  1.0 -0.5724620845
O  O97  1  0.67400000  0.57120000  0.18360000  1.0 -0.3088901771
O  O98  1  0.57120000  0.67400000  0.57120000  1.0 -0.3088901771
O  O99  1  0.18360000  0.57120000  0.67400000  1.0 -0.3088901771
O  O100  1  0.57120000  0.18360000  0.57120000  1.0 -0.3088901771
O  O101  1  0.18360000  0.67400000  0.57120000  1.0 -0.3088901771
O  O102  1  0.57120000  0.57120000  0.67400000  1.0 -0.3088901771
O  O103  1  0.67400000  0.18360000  0.57120000  1.0 -0.3088901771
O  O104  1  0.57120000  0.57120000  0.18360000  1.0 -0.3088901771
O  O105  1  0.57120000  0.18360000  0.67400000  1.0 -0.3088901771
O  O106  1  0.67400000  0.57120000  0.57120000  1.0 -0.3088901771
O  O107  1  0.57120000  0.67400000  0.18360000  1.0 -0.3088901771
O  O108  1  0.18360000  0.57120000  0.57120000  1.0 -0.3088901771
O  O109  1  0.32600000  0.42880000  0.42880000  1.0 -0.3088901771
O  O110  1  0.42880000  0.32600000  0.81640000  1.0 -0.3035267263
O  O111  1  0.81640000  0.42880000  0.42880000  1.0 -0.3088901771
O  O112  1  0.42880000  0.81640000  0.32600000  1.0 -0.3088901771
O  O113  1  0.81640000  0.32600000  0.42880000  1.0 -0.3088901771
O  O114  1  0.42880000  0.42880000  0.81640000  1.0 -0.3035267263
O  O115  1  0.32600000  0.81640000  0.42880000  1.0 -0.3088901771
O  O116  1  0.42880000  0.42880000  0.32600000  1.0 -0.3088901771
O  O117  1  0.42880000  0.81640000  0.42880000  1.0 -0.3088901771
O  O118  1  0.32600000  0.42880000  0.81640000  1.0 -0.3088901771
O  O119  1  0.42880000  0.32600000  0.42880000  1.0 -0.3088901771
O  O120  1  0.81640000  0.42880000  0.32600000  1.0 -0.3088901771
O  O121  1  0.61480000  0.58700000  0.21120000  1.0 0.041105337
O  O122  1  0.58700000  0.61480000  0.58700000  1.0 0.041105337
O  O123  1  0.21120000  0.58700000  0.61480000  1.0 0.0456933382
O  O124  1  0.58700000  0.21120000  0.58700000  1.0 0.0456933382
O  O125  1  0.21120000  0.61480000  0.58700000  1.0 0.041105337
O  O126  1  0.58700000  0.58700000  0.61480000  1.0 0.041105337
O  O127  1  0.61480000  0.21120000  0.58700000  1.0 0.0456933382
O  O128  1  0.58700000  0.58700000  0.21120000  1.0 0.041105337
O  O129  1  0.58700000  0.21120000  0.61480000  1.0 0.041105337
O  O130  1  0.61480000  0.58700000  0.58700000  1.0 0.041105337
O  O131  1  0.58700000  0.61480000  0.21120000  1.0 0.041105337
O  O132  1  0.21120000  0.58700000  0.58700000  1.0 0.0456933382
O  O133  1  0.38520000  0.41300000  0.41300000  1.0 0.041105337
O  O134  1  0.41300000  0.38520000  0.78880000  1.0 0.041105337
O  O135  1  0.78880000  0.41300000  0.41300000  1.0 0.041105337
O  O136  1  0.41300000  0.78880000  0.38520000  1.0 0.0456933382
O  O137  1  0.78880000  0.38520000  0.41300000  1.0 0.0456933382
O  O138  1  0.41300000  0.41300000  0.78880000  1.0 0.041105337
O  O139  1  0.38520000  0.78880000  0.41300000  1.0 0.0456933382
O  O140  1  0.41300000  0.41300000  0.38520000  1.0 0.0456933382
O  O141  1  0.41300000  0.78880000  0.41300000  1.0 0.0456933382
O  O142  1  0.38520000  0.41300000  0.78880000  1.0 0.041105337
O  O143  1  0.41300000  0.38520000  0.41300000  1.0 0.0456933382
O  O144  1  0.78880000  0.41300000  0.38520000  1.0 0.0456933382
