# DDEC6 charges by PACMAN v1.1 (https://github.com/mtap-research/PACMAN-charge/)
data_XIKNOX_FSR_pacman
_symmetry_space_group_name_H-M   'P 1'
_cell_length_a   13.44260000
_cell_length_b   13.44260000
_cell_length_c   18.14880000
_cell_angle_alpha   85.79370000
_cell_angle_beta   94.20630000
_cell_angle_gamma   62.21430000
_symmetry_Int_Tables_number   1
_chemical_formula_structural   NdH21C21N6(ClO3)3
_chemical_formula_sum   'Nd4 H84 C84 N24 Cl12 O36'
_cell_volume   2872.02173041
_cell_formula_units_Z   4
loop_
 _symmetry_equiv_pos_site_id
 _symmetry_equiv_pos_as_xyz
  1  'x, y, z'
loop_
 _atom_site_type_symbol
 _atom_site_label
 _atom_site_symmetry_multiplicity
 _atom_site_fract_x
 _atom_site_fract_y
 _atom_site_fract_z
 _atom_site_occupancy
 _atom_site_charge
Nd  Nd1  1  0.85307000  0.30737000  0.12056000  1.0 2.0084466183
Nd  Nd2  1  0.14693000  0.69263000  0.87944000  1.0 2.0084466183
Nd  Nd3  1  0.30737000  0.85307000  0.37944000  1.0 2.0084466183
Nd  Nd4  1  0.69263000  0.14693000  0.62056000  1.0 2.0084466183
H  H1  1  0.06050000  0.19470000  0.29670000  1.0 0.0786452913
H  H2  1  0.16600000  0.42000000  0.29790000  1.0 0.0962017611
H  H3  1  0.15190000  0.38070000  0.22040000  1.0 0.1201409145
H  H4  1  0.04460000  0.46180000  0.25600000  1.0 0.1201409145
H  H5  1  0.21370000  0.29930000  0.39370000  1.0 0.1121596027
H  H6  1  0.12220000  0.26340000  0.41280000  1.0 0.0881820284
H  H7  1  0.23050000  0.17890000  0.37990000  1.0 0.1270443195
H  H8  1  0.70060000  0.26840000  0.24330000  1.0 0.0881820284
H  H9  1  0.67420000  0.09680000  0.38230000  1.0 0.1121596027
H  H10  1  0.64800000  0.22380000  0.37050000  1.0 0.1201409145
H  H11  1  0.59720000  0.17580000  0.31090000  1.0 0.1121596027
H  H12  1  0.83820000  0.97100000  0.36370000  1.0 0.0786452913
H  H13  1  0.86370000  0.97230000  0.28080000  1.0 0.1270443195
H  H14  1  0.92320000  0.01320000  0.33980000  1.0 0.1270443195
H  H15  1  0.83230000  0.50990000  0.23760000  1.0 0.0881820284
H  H16  1  0.63000000  0.53460000  0.38760000  1.0 0.1201409145
H  H17  1  0.59090000  0.51770000  0.30810000  1.0 0.1201409145
H  H18  1  0.69320000  0.41660000  0.35810000  1.0 0.0786452913
H  H19  1  0.71750000  0.62870000  0.39290000  1.0 0.1201409145
H  H20  1  0.83880000  0.57220000  0.36740000  1.0 0.1121596027
H  H21  1  0.73870000  0.67510000  0.31720000  1.0 0.0962017611
H  H22  1  0.93950000  0.80530000  0.70330000  1.0 0.0786452913
H  H23  1  0.83400000  0.58000000  0.70210000  1.0 0.0962017611
H  H24  1  0.84810000  0.61930000  0.77960000  1.0 0.1201409145
H  H25  1  0.95540000  0.53820000  0.74400000  1.0 0.1201409145
H  H26  1  0.78630000  0.70070000  0.60630000  1.0 0.1121596027
H  H27  1  0.87780000  0.73660000  0.58720000  1.0 0.0881820284
H  H28  1  0.76950000  0.82110000  0.62010000  1.0 0.1270443195
H  H29  1  0.29940000  0.73160000  0.75670000  1.0 0.0881820284
H  H30  1  0.32580000  0.90320000  0.61770000  1.0 0.1121596027
H  H31  1  0.35200000  0.77620000  0.62950000  1.0 0.1201409145
H  H32  1  0.40280000  0.82420000  0.68910000  1.0 0.1121596027
H  H33  1  0.16180000  0.02900000  0.63630000  1.0 0.0786452913
H  H34  1  0.13630000  0.02770000  0.71920000  1.0 0.1270443195
H  H35  1  0.07680000  0.98680000  0.66020000  1.0 0.1270443195
H  H36  1  0.16770000  0.49010000  0.76240000  1.0 0.0881820284
H  H37  1  0.37000000  0.46540000  0.61240000  1.0 0.1201409145
H  H38  1  0.40910000  0.48230000  0.69190000  1.0 0.1201409145
H  H39  1  0.30680000  0.58340000  0.64190000  1.0 0.0786452913
H  H40  1  0.28250000  0.37130000  0.60710000  1.0 0.1201409145
H  H41  1  0.16120000  0.42780000  0.63260000  1.0 0.1121596027
H  H42  1  0.26130000  0.32490000  0.68280000  1.0 0.0962017611
H  H43  1  0.19470000  0.06050000  0.20330000  1.0 0.0786452913
H  H44  1  0.42000000  0.16600000  0.20210000  1.0 0.0962017611
H  H45  1  0.38070000  0.15190000  0.27960000  1.0 0.1201409145
H  H46  1  0.46180000  0.04460000  0.24400000  1.0 0.1201409145
H  H47  1  0.29930000  0.21370000  0.10630000  1.0 0.1121596027
H  H48  1  0.26340000  0.12220000  0.08720000  1.0 0.0881820284
H  H49  1  0.17890000  0.23050000  0.12010000  1.0 0.1270443195
H  H50  1  0.26840000  0.70060000  0.25670000  1.0 0.0881820284
H  H51  1  0.09680000  0.67420000  0.11770000  1.0 0.1121596027
H  H52  1  0.22380000  0.64800000  0.12950000  1.0 0.1201409145
H  H53  1  0.17580000  0.59720000  0.18910000  1.0 0.1121596027
H  H54  1  0.97100000  0.83820000  0.13630000  1.0 0.0786452913
H  H55  1  0.97230000  0.86370000  0.21920000  1.0 0.1270443195
H  H56  1  0.01320000  0.92320000  0.16020000  1.0 0.1270443195
H  H57  1  0.50990000  0.83230000  0.26240000  1.0 0.0881820284
H  H58  1  0.53460000  0.63000000  0.11240000  1.0 0.1201409145
H  H59  1  0.51770000  0.59090000  0.19190000  1.0 0.1201409145
H  H60  1  0.41660000  0.69320000  0.14190000  1.0 0.0786452913
H  H61  1  0.62870000  0.71750000  0.10710000  1.0 0.1201409145
H  H62  1  0.57220000  0.83880000  0.13260000  1.0 0.1121596027
H  H63  1  0.67510000  0.73870000  0.18280000  1.0 0.0962017611
H  H64  1  0.80530000  0.93950000  0.79670000  1.0 0.0786452913
H  H65  1  0.58000000  0.83400000  0.79790000  1.0 0.0962017611
H  H66  1  0.61930000  0.84810000  0.72040000  1.0 0.1201409145
H  H67  1  0.53820000  0.95540000  0.75600000  1.0 0.1201409145
H  H68  1  0.70070000  0.78630000  0.89370000  1.0 0.1121596027
H  H69  1  0.73660000  0.87780000  0.91280000  1.0 0.0881820284
H  H70  1  0.82110000  0.76950000  0.87990000  1.0 0.1270443195
H  H71  1  0.73160000  0.29940000  0.74330000  1.0 0.0881820284
H  H72  1  0.90320000  0.32580000  0.88230000  1.0 0.1121596027
H  H73  1  0.77620000  0.35200000  0.87050000  1.0 0.1201409145
H  H74  1  0.82420000  0.40280000  0.81090000  1.0 0.1121596027
H  H75  1  0.02900000  0.16180000  0.86370000  1.0 0.0786452913
H  H76  1  0.02770000  0.13630000  0.78080000  1.0 0.1270443195
H  H77  1  0.98680000  0.07680000  0.83980000  1.0 0.1270443195
H  H78  1  0.49010000  0.16770000  0.73760000  1.0 0.0881820284
H  H79  1  0.46540000  0.37000000  0.88760000  1.0 0.1201409145
H  H80  1  0.48230000  0.40910000  0.80810000  1.0 0.1201409145
H  H81  1  0.58340000  0.30680000  0.85810000  1.0 0.0786452913
H  H82  1  0.37130000  0.28250000  0.89290000  1.0 0.1201409145
H  H83  1  0.42780000  0.16120000  0.86740000  1.0 0.1121596027
H  H84  1  0.32490000  0.26130000  0.81720000  1.0 0.0962017611
C  C1  1  0.90080000  0.09920000  0.01610000  1.0 0.2216488621
C  C2  1  0.01770000  0.05830000  0.05940000  1.0 0.2216488621
C  C3  1  0.88870000  0.03710000  0.96060000  1.0 -0.1756938851
C  C4  1  0.61910000  0.47130000  0.00270000  1.0 0.2293292651
C  C5  1  0.57530000  0.41990000  0.06210000  1.0 0.2216488621
C  C6  1  0.46020000  0.45020000  0.05710000  1.0 -0.2005925669
C  C7  1  0.98980000  0.39800000  0.01180000  1.0 0.1940438816
C  C8  1  0.92740000  0.49900000  0.05450000  1.0 0.2216488621
C  C9  1  0.93990000  0.59610000  0.03980000  1.0 -0.2005925669
C  C10  1  0.06070000  0.25670000  0.27050000  1.0 0.2523438974
C  C11  1  0.12000000  0.39940000  0.26620000  1.0 -0.3542364916
C  C12  1  0.17590000  0.25710000  0.37900000  1.0 -0.3773155665
C  C13  1  0.76360000  0.19700000  0.25390000  1.0 0.2811233172
C  C14  1  0.66170000  0.15850000  0.34600000  1.0 -0.3709706744
C  C15  1  0.85460000  0.01080000  0.32440000  1.0 -0.3609009391
C  C16  1  0.77960000  0.48920000  0.25350000  1.0 0.2584060574
C  C17  1  0.65510000  0.49710000  0.34440000  1.0 -0.3709706744
C  C18  1  0.75910000  0.60830000  0.35080000  1.0 -0.3773155665
C  C19  1  0.41990000  0.36930000  0.11720000  1.0 0.2523438974
C  C20  1  0.88580000  0.69240000  0.09820000  1.0 0.2523438974
C  C21  1  0.75170000  0.09170000  0.91060000  1.0 0.0422461893
C  C22  1  0.09920000  0.90080000  0.98390000  1.0 0.2216488621
C  C23  1  0.98230000  0.94170000  0.94060000  1.0 0.2135684335
C  C24  1  0.11130000  0.96290000  0.03940000  1.0 -0.1756938851
C  C25  1  0.38090000  0.52870000  0.99730000  1.0 0.2293292651
C  C26  1  0.42470000  0.58010000  0.93790000  1.0 0.2216488621
C  C27  1  0.53980000  0.54980000  0.94290000  1.0 -0.2005925669
C  C28  1  0.01020000  0.60200000  0.98820000  1.0 0.1940438816
C  C29  1  0.07260000  0.50100000  0.94550000  1.0 0.2216488621
C  C30  1  0.06010000  0.40390000  0.96020000  1.0 -0.2005925669
C  C31  1  0.93930000  0.74330000  0.72950000  1.0 0.2523438974
C  C32  1  0.88000000  0.60060000  0.73380000  1.0 -0.3542364916
C  C33  1  0.82410000  0.74290000  0.62100000  1.0 -0.3773155665
C  C34  1  0.23640000  0.80300000  0.74610000  1.0 0.2811233172
C  C35  1  0.33830000  0.84150000  0.65400000  1.0 -0.3709706744
C  C36  1  0.14540000  0.98920000  0.67560000  1.0 -0.3609009391
C  C37  1  0.22040000  0.51080000  0.74650000  1.0 0.2584060574
C  C38  1  0.34490000  0.50290000  0.65560000  1.0 -0.3709706744
C  C39  1  0.24090000  0.39170000  0.64920000  1.0 -0.3773155665
C  C40  1  0.58010000  0.63070000  0.88280000  1.0 0.2523438974
C  C41  1  0.11420000  0.30760000  0.90180000  1.0 0.2523438974
C  C42  1  0.24830000  0.90830000  0.08940000  1.0 0.0422461893
C  C43  1  0.09920000  0.90080000  0.48390000  1.0 0.2216488621
C  C44  1  0.05830000  0.01770000  0.44060000  1.0 0.2135684335
C  C45  1  0.03710000  0.88870000  0.53940000  1.0 -0.1756938851
C  C46  1  0.47130000  0.61910000  0.49730000  1.0 0.2293292651
C  C47  1  0.41990000  0.57530000  0.43790000  1.0 0.2216488621
C  C48  1  0.45020000  0.46020000  0.44290000  1.0 -0.2005925669
C  C49  1  0.39800000  0.98980000  0.48820000  1.0 0.1940438816
C  C50  1  0.49900000  0.92740000  0.44550000  1.0 0.2216488621
C  C51  1  0.59610000  0.93990000  0.46020000  1.0 -0.2005925669
C  C52  1  0.25670000  0.06070000  0.22950000  1.0 0.2523438974
C  C53  1  0.39940000  0.12000000  0.23380000  1.0 -0.3542364916
C  C54  1  0.25710000  0.17590000  0.12100000  1.0 -0.3773155665
C  C55  1  0.19700000  0.76360000  0.24610000  1.0 0.2811233172
C  C56  1  0.15850000  0.66170000  0.15400000  1.0 -0.3709706744
C  C57  1  0.01080000  0.85460000  0.17560000  1.0 -0.3609009391
C  C58  1  0.48920000  0.77960000  0.24650000  1.0 0.2584060574
C  C59  1  0.49710000  0.65510000  0.15560000  1.0 -0.3709706744
C  C60  1  0.60830000  0.75910000  0.14920000  1.0 -0.3773155665
C  C61  1  0.36930000  0.41990000  0.38280000  1.0 0.2523438974
C  C62  1  0.69240000  0.88580000  0.40180000  1.0 0.2523438974
C  C63  1  0.09170000  0.75170000  0.58940000  1.0 0.0422461893
C  C64  1  0.90080000  0.09920000  0.51610000  1.0 0.2216488621
C  C65  1  0.94170000  0.98230000  0.55940000  1.0 0.2135684335
C  C66  1  0.96290000  0.11130000  0.46060000  1.0 -0.1747377819
C  C67  1  0.52870000  0.38090000  0.50270000  1.0 0.2293292651
C  C68  1  0.58010000  0.42470000  0.56210000  1.0 0.2216488621
C  C69  1  0.54980000  0.53980000  0.55710000  1.0 -0.2005925669
C  C70  1  0.60200000  0.01020000  0.51180000  1.0 0.1940438816
C  C71  1  0.50100000  0.07260000  0.55450000  1.0 0.2216488621
C  C72  1  0.40390000  0.06010000  0.53980000  1.0 -0.2005925669
C  C73  1  0.74330000  0.93930000  0.77050000  1.0 0.2523438974
C  C74  1  0.60060000  0.88000000  0.76620000  1.0 -0.3542364916
C  C75  1  0.74290000  0.82410000  0.87900000  1.0 -0.3773155665
C  C76  1  0.80300000  0.23640000  0.75390000  1.0 0.2811233172
C  C77  1  0.84150000  0.33830000  0.84600000  1.0 -0.3709706744
C  C78  1  0.98920000  0.14540000  0.82440000  1.0 -0.3609009391
C  C79  1  0.51080000  0.22040000  0.75350000  1.0 0.2584060574
C  C80  1  0.50290000  0.34490000  0.84440000  1.0 -0.3709706744
C  C81  1  0.39170000  0.24090000  0.85080000  1.0 -0.3773155665
C  C82  1  0.63070000  0.58010000  0.61720000  1.0 0.2523438974
C  C83  1  0.30760000  0.11420000  0.59820000  1.0 0.2523438974
C  C84  1  0.90830000  0.24830000  0.41060000  1.0 0.0422461893
N  N1  1  0.11610000  0.30290000  0.30290000  1.0 0.0076546021
N  N2  1  0.76100000  0.12640000  0.30720000  1.0 -0.0004916234
N  N3  1  0.73240000  0.53100000  0.31300000  1.0 -0.0247810088
N  N4  1  0.38550000  0.36810000  0.15930000  1.0 -0.1210586643
N  N5  1  0.82800000  0.77060000  0.10640000  1.0 -0.1144415668
N  N6  1  0.68820000  0.09940000  0.89180000  1.0 0.0786452913
N  N7  1  0.88390000  0.69710000  0.69710000  1.0 0.0076546021
N  N8  1  0.23900000  0.87360000  0.69280000  1.0 -0.0004916234
N  N9  1  0.26760000  0.46900000  0.68700000  1.0 -0.0257882982
N  N10  1  0.61450000  0.63190000  0.84070000  1.0 -0.1210586643
N  N11  1  0.17200000  0.22940000  0.89360000  1.0 -0.1144415668
N  N12  1  0.31180000  0.90060000  0.10820000  1.0 0.0786452913
N  N13  1  0.30290000  0.11610000  0.19710000  1.0 0.0076546021
N  N14  1  0.12640000  0.76100000  0.19280000  1.0 -0.0004916234
N  N15  1  0.53100000  0.73240000  0.18700000  1.0 -0.0257882982
N  N16  1  0.36810000  0.38550000  0.34070000  1.0 -0.1210586643
N  N17  1  0.77060000  0.82800000  0.39360000  1.0 -0.1210586643
N  N18  1  0.09940000  0.68820000  0.60820000  1.0 0.0786452913
N  N19  1  0.69710000  0.88390000  0.80290000  1.0 0.0076546021
N  N20  1  0.87360000  0.23900000  0.80720000  1.0 -0.0004916234
N  N21  1  0.46900000  0.26760000  0.81300000  1.0 -0.0257882982
N  N22  1  0.63190000  0.61450000  0.65930000  1.0 -0.1210586643
N  N23  1  0.22940000  0.17200000  0.60640000  1.0 -0.1144415668
N  N24  1  0.90060000  0.31180000  0.39180000  1.0 0.0748853454
Cl  Cl1  1  0.75990000  0.08430000  0.91150000  1.0 0.3071677481
Cl  Cl2  1  0.41450000  0.39790000  0.12690000  1.0 0.3071677481
Cl  Cl3  1  0.86119000  0.71659000  0.08240000  1.0 0.2896807262
Cl  Cl4  1  0.24010000  0.91570000  0.08850000  1.0 0.3071677481
Cl  Cl5  1  0.58550000  0.60210000  0.87310000  1.0 0.3033969247
Cl  Cl6  1  0.13881000  0.28341000  0.91760000  1.0 0.2896807262
Cl  Cl7  1  0.08430000  0.75990000  0.58850000  1.0 0.3071677481
Cl  Cl8  1  0.39790000  0.41450000  0.37310000  1.0 0.3033969247
Cl  Cl9  1  0.71659000  0.86119000  0.41760000  1.0 0.2896807262
Cl  Cl10  1  0.91570000  0.24010000  0.41150000  1.0 0.3071677481
Cl  Cl11  1  0.60210000  0.58550000  0.62690000  1.0 0.3071677481
Cl  Cl12  1  0.28341000  0.13881000  0.58240000  1.0 0.2896807262
O  O1  1  0.02066000  0.11326000  0.11100000  1.0 -0.5062656856
O  O2  1  0.82171000  0.18911000  0.03260000  1.0 -0.5285538143
O  O3  1  0.72179000  0.44119000  0.01100000  1.0 -0.500510728
O  O4  1  0.64953000  0.35153000  0.11250000  1.0 -0.5399997128
O  O5  1  0.97364000  0.31424000  0.02640000  1.0 -0.5399997128
O  O6  1  0.86851000  0.48771000  0.10130000  1.0 -0.5399997128
O  O7  1  0.00803000  0.29043000  0.20670000  1.0 -0.5791125601
O  O8  1  0.84341000  0.17541000  0.21680000  1.0 -0.5590585327
O  O9  1  0.75996000  0.42536000  0.21750000  1.0 -0.5399997128
O  O10  1  0.97934000  0.88674000  0.88900000  1.0 -0.500510728
O  O11  1  0.17829000  0.81089000  0.96740000  1.0 -0.5285538143
O  O12  1  0.27821000  0.55881000  0.98900000  1.0 -0.500510728
O  O13  1  0.35047000  0.64847000  0.88750000  1.0 -0.5399997128
O  O14  1  0.02636000  0.68576000  0.97360000  1.0 -0.5399997128
O  O15  1  0.13149000  0.51229000  0.89870000  1.0 -0.5399997128
O  O16  1  0.99197000  0.70957000  0.79330000  1.0 -0.5791125601
O  O17  1  0.15659000  0.82459000  0.78320000  1.0 -0.5590585327
O  O18  1  0.24004000  0.57464000  0.78250000  1.0 -0.5399997128
O  O19  1  0.11326000  0.02066000  0.38900000  1.0 -0.5062656856
O  O20  1  0.18911000  0.82171000  0.46740000  1.0 -0.5285538143
O  O21  1  0.44119000  0.72179000  0.48900000  1.0 -0.500510728
O  O22  1  0.35153000  0.64953000  0.38750000  1.0 -0.5399997128
O  O23  1  0.31424000  0.97364000  0.47360000  1.0 -0.5399997128
O  O24  1  0.48771000  0.86851000  0.39870000  1.0 -0.5399997128
O  O25  1  0.29043000  0.00803000  0.29330000  1.0 -0.5791125601
O  O26  1  0.17541000  0.84341000  0.28320000  1.0 -0.5590585327
O  O27  1  0.42536000  0.75996000  0.28250000  1.0 -0.5399997128
O  O28  1  0.88674000  0.97934000  0.61100000  1.0 -0.500510728
O  O29  1  0.81089000  0.17829000  0.53260000  1.0 -0.5285538143
O  O30  1  0.55881000  0.27821000  0.51100000  1.0 -0.500510728
O  O31  1  0.64847000  0.35047000  0.61250000  1.0 -0.5399997128
O  O32  1  0.68576000  0.02636000  0.52640000  1.0 -0.5399997128
O  O33  1  0.51229000  0.13149000  0.60130000  1.0 -0.5399997128
O  O34  1  0.70957000  0.99197000  0.70670000  1.0 -0.5791125601
O  O35  1  0.82459000  0.15659000  0.71680000  1.0 -0.5590585327
O  O36  1  0.57464000  0.24004000  0.71750000  1.0 -0.5399997128
