# DDEC6 charges by PACMAN v1.1 (https://github.com/mtap-research/PACMAN-charge/)
data_XILDOO_ASR_pacman
_symmetry_space_group_name_H-M   'P 1'
_cell_length_a   30.50910000
_cell_length_b   30.50910000
_cell_length_c   20.77000000
_cell_angle_alpha   90.00000000
_cell_angle_beta   90.00000000
_cell_angle_gamma   152.26000000
_symmetry_Int_Tables_number   1
_chemical_formula_structural   Cd2H52C72S2N20O7
_chemical_formula_sum   'Cd8 H208 C288 S8 N80 O28'
_cell_volume   8998.65713391
_cell_formula_units_Z   4
loop_
 _symmetry_equiv_pos_site_id
 _symmetry_equiv_pos_as_xyz
  1  'x, y, z'
loop_
 _atom_site_type_symbol
 _atom_site_label
 _atom_site_symmetry_multiplicity
 _atom_site_fract_x
 _atom_site_fract_y
 _atom_site_fract_z
 _atom_site_occupancy
 _atom_site_charge
Cd  Cd1  1  0.99788000  0.00212000  0.25000000  1.0 0.8483661634
Cd  Cd2  1  0.00212000  0.99788000  0.75000000  1.0 0.8438876492
Cd  Cd3  1  0.49504000  0.50496000  0.25000000  1.0 0.7933819514
Cd  Cd4  1  0.50496000  0.49504000  0.75000000  1.0 0.7933819514
Cd  Cd5  1  0.52351000  0.01641000  0.74404000  1.0 0.7581296386
Cd  Cd6  1  0.47649000  0.98359000  0.24404000  1.0 0.7581296386
Cd  Cd7  1  0.98359000  0.47649000  0.75596000  1.0 0.7581296386
Cd  Cd8  1  0.01641000  0.52351000  0.25596000  1.0 0.754942618
H  H1  1  0.10780000  0.88980000  0.91730000  1.0 0.288112668
H  H2  1  0.96740000  0.86320000  0.78270000  1.0 0.1120097678
H  H3  1  0.99590000  0.83690000  0.86240000  1.0 0.1196936595
H  H4  1  0.12470000  0.04290000  0.96930000  1.0 0.1289575046
H  H5  1  0.09620000  0.06920000  0.88950000  1.0 0.1120097678
H  H6  1  0.14520000  0.05440000  0.21940000  1.0 0.1120097678
H  H7  1  0.17660000  0.02760000  0.14460000  1.0 0.1289575046
H  H8  1  0.95530000  0.87150000  0.03890000  1.0 0.1196936595
H  H9  1  0.92400000  0.89820000  0.11380000  1.0 0.1120097678
H  H10  1  0.20420000  0.83960000  0.11670000  1.0 0.1000056443
H  H11  1  0.16790000  0.88150000  0.11060000  1.0 0.1196936595
H  H12  1  0.12540000  0.83220000  0.92010000  1.0 0.1196936595
H  H13  1  0.16170000  0.79030000  0.92620000  1.0 0.0910605272
H  H14  1  0.59110000  0.37930000  0.39360000  1.0 0.2784654204
H  H15  1  0.58370000  0.56410000  0.39450000  1.0 0.1196936595
H  H16  1  0.61350000  0.53290000  0.46470000  1.0 0.1289575046
H  H17  1  0.47710000  0.32970000  0.34610000  1.0 0.1196936595
H  H18  1  0.44730000  0.36090000  0.27590000  1.0 0.1120097678
H  H19  1  0.42260000  0.39160000  0.60920000  1.0 0.1120097678
H  H20  1  0.45000000  0.36480000  0.52860000  1.0 0.1196936595
H  H21  1  0.65980000  0.49820000  0.63330000  1.0 0.1289575046
H  H22  1  0.63240000  0.52500000  0.71390000  1.0 0.1120097678
H  H23  1  0.69690000  0.33030000  0.58060000  1.0 0.1000056443
H  H24  1  0.65390000  0.36570000  0.58000000  1.0 0.1289575046
H  H25  1  0.64560000  0.35660000  0.38670000  1.0 0.1120097678
H  H26  1  0.68860000  0.32120000  0.38720000  1.0 0.0910605272
H  H27  1  0.89220000  0.11020000  0.41730000  1.0 0.288112668
H  H28  1  0.03260000  0.13680000  0.28270000  1.0 0.1120097678
H  H29  1  0.00410000  0.16310000  0.36240000  1.0 0.1196936595
H  H30  1  0.87530000  0.95710000  0.46930000  1.0 0.1289575046
H  H31  1  0.90380000  0.93080000  0.38950000  1.0 0.1120097678
H  H32  1  0.85480000  0.94560000  0.71940000  1.0 0.1120097678
H  H33  1  0.82340000  0.97240000  0.64460000  1.0 0.1289575046
H  H34  1  0.04470000  0.12850000  0.53890000  1.0 0.1196936595
H  H35  1  0.07600000  0.10180000  0.61380000  1.0 0.1120097678
H  H36  1  0.79580000  0.16040000  0.61670000  1.0 0.1000056443
H  H37  1  0.83210000  0.11850000  0.61060000  1.0 0.1196936595
H  H38  1  0.87460000  0.16780000  0.42010000  1.0 0.1196936595
H  H39  1  0.83830000  0.20970000  0.42620000  1.0 0.0910605272
H  H40  1  0.40890000  0.62070000  0.89360000  1.0 0.2784654204
H  H41  1  0.41630000  0.43590000  0.89450000  1.0 0.1196936595
H  H42  1  0.38650000  0.46710000  0.96470000  1.0 0.1289575046
H  H43  1  0.52290000  0.67030000  0.84610000  1.0 0.1196936595
H  H44  1  0.55270000  0.63910000  0.77590000  1.0 0.1120097678
H  H45  1  0.57740000  0.60840000  0.10920000  1.0 0.1120097678
H  H46  1  0.55000000  0.63520000  0.02860000  1.0 0.1196936595
H  H47  1  0.34020000  0.50180000  0.13330000  1.0 0.1289575046
H  H48  1  0.36760000  0.47500000  0.21390000  1.0 0.1120097678
H  H49  1  0.30310000  0.66970000  0.08060000  1.0 0.1000056443
H  H50  1  0.34610000  0.63430000  0.08000000  1.0 0.1289575046
H  H51  1  0.35440000  0.64340000  0.88670000  1.0 0.1120097678
H  H52  1  0.31140000  0.67880000  0.88720000  1.0 0.0910605272
H  H53  1  0.11020000  0.89220000  0.58270000  1.0 0.288112668
H  H54  1  0.13680000  0.03260000  0.71730000  1.0 0.1120097678
H  H55  1  0.16310000  0.00410000  0.63760000  1.0 0.1196936595
H  H56  1  0.95710000  0.87530000  0.53070000  1.0 0.1289575046
H  H57  1  0.93080000  0.90380000  0.61050000  1.0 0.1120097678
H  H58  1  0.94560000  0.85480000  0.28060000  1.0 0.1120097678
H  H59  1  0.97240000  0.82340000  0.35540000  1.0 0.1289575046
H  H60  1  0.12850000  0.04470000  0.46110000  1.0 0.1196936595
H  H61  1  0.10180000  0.07600000  0.38620000  1.0 0.1120097678
H  H62  1  0.16040000  0.79580000  0.38330000  1.0 0.1000056443
H  H63  1  0.11850000  0.83210000  0.38940000  1.0 0.1196936595
H  H64  1  0.16780000  0.87460000  0.57990000  1.0 0.1196936595
H  H65  1  0.20970000  0.83830000  0.57380000  1.0 0.0910605272
H  H66  1  0.62070000  0.40890000  0.10640000  1.0 0.2784654204
H  H67  1  0.43590000  0.41630000  0.10550000  1.0 0.1196936595
H  H68  1  0.46710000  0.38650000  0.03530000  1.0 0.1289575046
H  H69  1  0.67030000  0.52290000  0.15390000  1.0 0.1196936595
H  H70  1  0.63910000  0.55270000  0.22410000  1.0 0.1120097678
H  H71  1  0.60840000  0.57740000  0.89080000  1.0 0.1120097678
H  H72  1  0.63520000  0.55000000  0.97140000  1.0 0.1196936595
H  H73  1  0.50180000  0.34020000  0.86670000  1.0 0.1289575046
H  H74  1  0.47500000  0.36760000  0.78610000  1.0 0.1120097678
H  H75  1  0.66970000  0.30310000  0.91940000  1.0 0.1000056443
H  H76  1  0.63430000  0.34610000  0.92000000  1.0 0.1289575046
H  H77  1  0.64340000  0.35440000  0.11330000  1.0 0.1120097678
H  H78  1  0.67880000  0.31140000  0.11280000  1.0 0.0910605272
H  H79  1  0.88980000  0.10780000  0.08270000  1.0 0.288112668
H  H80  1  0.86320000  0.96740000  0.21730000  1.0 0.1120097678
H  H81  1  0.83690000  0.99590000  0.13760000  1.0 0.1196936595
H  H82  1  0.04290000  0.12470000  0.03070000  1.0 0.1289575046
H  H83  1  0.06920000  0.09620000  0.11050000  1.0 0.1120097678
H  H84  1  0.05440000  0.14520000  0.78060000  1.0 0.1120097678
H  H85  1  0.02760000  0.17660000  0.85540000  1.0 0.1289575046
H  H86  1  0.87150000  0.95530000  0.96110000  1.0 0.1196936595
H  H87  1  0.89820000  0.92400000  0.88620000  1.0 0.1120097678
H  H88  1  0.83960000  0.20420000  0.88330000  1.0 0.1000056443
H  H89  1  0.88150000  0.16790000  0.88940000  1.0 0.1196936595
H  H90  1  0.83220000  0.12540000  0.07990000  1.0 0.1196936595
H  H91  1  0.79030000  0.16170000  0.07380000  1.0 0.0910605272
H  H92  1  0.37930000  0.59110000  0.60640000  1.0 0.2784654204
H  H93  1  0.56410000  0.58370000  0.60550000  1.0 0.1196936595
H  H94  1  0.53290000  0.61350000  0.53530000  1.0 0.1289575046
H  H95  1  0.32970000  0.47710000  0.65390000  1.0 0.1196936595
H  H96  1  0.36090000  0.44730000  0.72410000  1.0 0.1120097678
H  H97  1  0.39160000  0.42260000  0.39080000  1.0 0.1120097678
H  H98  1  0.36480000  0.45000000  0.47140000  1.0 0.1196936595
H  H99  1  0.49820000  0.65980000  0.36670000  1.0 0.1289575046
H  H100  1  0.52500000  0.63240000  0.28610000  1.0 0.1120097678
H  H101  1  0.33030000  0.69690000  0.41940000  1.0 0.1000056443
H  H102  1  0.36570000  0.65390000  0.42000000  1.0 0.1289575046
H  H103  1  0.35660000  0.64560000  0.61330000  1.0 0.1120097678
H  H104  1  0.32120000  0.68860000  0.61280000  1.0 0.0910605272
H  H105  1  0.60910000  0.89410000  0.91220000  1.0 0.288112668
H  H106  1  0.65430000  0.05370000  0.78740000  1.0 0.1000056443
H  H107  1  0.67190000  0.01550000  0.86570000  1.0 0.1196936595
H  H108  1  0.44850000  0.86630000  0.96070000  1.0 0.1196936595
H  H109  1  0.43100000  0.90440000  0.88250000  1.0 0.1000056443
H  H110  1  0.58110000  0.06030000  0.10140000  1.0 0.1000056443
H  H111  1  0.61540000  0.03400000  0.03050000  1.0 0.1289575046
H  H112  1  0.47460000  0.82520000  0.14380000  1.0 0.1289575046
H  H113  1  0.44050000  0.85150000  0.21470000  1.0 0.1120097678
H  H114  1  0.70550000  0.83990000  0.90800000  1.0 0.1000056443
H  H115  1  0.65720000  0.86980000  0.90870000  1.0 0.1196936595
H  H116  1  0.62880000  0.83960000  0.10110000  1.0 0.1289575046
H  H117  1  0.67710000  0.80970000  0.10030000  1.0 0.1000056443
H  H118  1  0.38640000  0.11100000  0.06830000  1.0 0.288112668
H  H119  1  0.57530000  0.10130000  0.88700000  1.0 0.1120097678
H  H120  1  0.53610000  0.12190000  0.95900000  1.0 0.1289575046
H  H121  1  0.32520000  0.97320000  0.84260000  1.0 0.1289575046
H  H122  1  0.36440000  0.95260000  0.77060000  1.0 0.1000056443
H  H123  1  0.39690000  0.92770000  0.09940000  1.0 0.1000056443
H  H124  1  0.37370000  0.95910000  0.01930000  1.0 0.1196936595
H  H125  1  0.48050000  0.14670000  0.13510000  1.0 0.1120097678
H  H126  1  0.50360000  0.11540000  0.21520000  1.0 0.1000056443
H  H127  1  0.33600000  0.21200000  0.05040000  1.0 0.1000056443
H  H128  1  0.36580000  0.16420000  0.06310000  1.0 0.1196936595
H  H129  1  0.33390000  0.11810000  0.87270000  1.0 0.1289575046
H  H130  1  0.30400000  0.16580000  0.86000000  1.0 0.1120097678
H  H131  1  0.39090000  0.10590000  0.41220000  1.0 0.288112668
H  H132  1  0.34570000  0.94630000  0.28740000  1.0 0.1000056443
H  H133  1  0.32810000  0.98450000  0.36570000  1.0 0.1196936595
H  H134  1  0.55150000  0.13370000  0.46070000  1.0 0.1196936595
H  H135  1  0.56900000  0.09560000  0.38250000  1.0 0.1000056443
H  H136  1  0.41890000  0.93970000  0.60140000  1.0 0.1000056443
H  H137  1  0.38460000  0.96600000  0.53050000  1.0 0.1289575046
H  H138  1  0.52540000  0.17480000  0.64380000  1.0 0.1289575046
H  H139  1  0.55950000  0.14850000  0.71470000  1.0 0.1120097678
H  H140  1  0.29450000  0.16010000  0.40800000  1.0 0.1000056443
H  H141  1  0.34280000  0.13020000  0.40870000  1.0 0.1196936595
H  H142  1  0.37120000  0.16040000  0.60110000  1.0 0.1289575046
H  H143  1  0.32290000  0.19030000  0.60030000  1.0 0.1000056443
H  H144  1  0.61360000  0.88900000  0.56830000  1.0 0.288112668
H  H145  1  0.42470000  0.89870000  0.38700000  1.0 0.1120097678
H  H146  1  0.46390000  0.87810000  0.45900000  1.0 0.1289575046
H  H147  1  0.67480000  0.02680000  0.34260000  1.0 0.1289575046
H  H148  1  0.63560000  0.04740000  0.27060000  1.0 0.1000056443
H  H149  1  0.60310000  0.07230000  0.59940000  1.0 0.1000056443
H  H150  1  0.62630000  0.04090000  0.51930000  1.0 0.1196936595
H  H151  1  0.51950000  0.85330000  0.63510000  1.0 0.1120097678
H  H152  1  0.49640000  0.88460000  0.71520000  1.0 0.1000056443
H  H153  1  0.66400000  0.78800000  0.55040000  1.0 0.1000056443
H  H154  1  0.63420000  0.83580000  0.56310000  1.0 0.1196936595
H  H155  1  0.66610000  0.88190000  0.37270000  1.0 0.1289575046
H  H156  1  0.69600000  0.83420000  0.36000000  1.0 0.1120097678
H  H157  1  0.10590000  0.39090000  0.58780000  1.0 0.288112668
H  H158  1  0.94630000  0.34570000  0.71260000  1.0 0.1000056443
H  H159  1  0.98450000  0.32810000  0.63430000  1.0 0.1196936595
H  H160  1  0.13370000  0.55150000  0.53930000  1.0 0.1196936595
H  H161  1  0.09560000  0.56900000  0.61750000  1.0 0.1000056443
H  H162  1  0.93970000  0.41890000  0.39860000  1.0 0.1000056443
H  H163  1  0.96600000  0.38460000  0.46950000  1.0 0.1289575046
H  H164  1  0.17480000  0.52540000  0.35620000  1.0 0.1289575046
H  H165  1  0.14850000  0.55950000  0.28530000  1.0 0.1120097678
H  H166  1  0.16010000  0.29450000  0.59200000  1.0 0.1000056443
H  H167  1  0.13020000  0.34280000  0.59130000  1.0 0.1196936595
H  H168  1  0.16040000  0.37120000  0.39890000  1.0 0.1289575046
H  H169  1  0.19030000  0.32290000  0.39970000  1.0 0.1000056443
H  H170  1  0.88900000  0.61360000  0.43170000  1.0 0.288112668
H  H171  1  0.89870000  0.42470000  0.61300000  1.0 0.1120097678
H  H172  1  0.87810000  0.46390000  0.54100000  1.0 0.1289575046
H  H173  1  0.02680000  0.67480000  0.65740000  1.0 0.1289575046
H  H174  1  0.04740000  0.63560000  0.72940000  1.0 0.1000056443
H  H175  1  0.07230000  0.60310000  0.40060000  1.0 0.1000056443
H  H176  1  0.04090000  0.62630000  0.48070000  1.0 0.1196936595
H  H177  1  0.85330000  0.51950000  0.36490000  1.0 0.1120097678
H  H178  1  0.88460000  0.49640000  0.28480000  1.0 0.1000056443
H  H179  1  0.78800000  0.66400000  0.44960000  1.0 0.1000056443
H  H180  1  0.83580000  0.63420000  0.43690000  1.0 0.1196936595
H  H181  1  0.88190000  0.66610000  0.62730000  1.0 0.1289575046
H  H182  1  0.83420000  0.69600000  0.64000000  1.0 0.1120097678
H  H183  1  0.89410000  0.60910000  0.08780000  1.0 0.288112668
H  H184  1  0.05370000  0.65430000  0.21260000  1.0 0.1000056443
H  H185  1  0.01550000  0.67190000  0.13430000  1.0 0.1196936595
H  H186  1  0.86630000  0.44850000  0.03930000  1.0 0.1196936595
H  H187  1  0.90440000  0.43100000  0.11750000  1.0 0.1000056443
H  H188  1  0.06030000  0.58110000  0.89860000  1.0 0.1000056443
H  H189  1  0.03400000  0.61540000  0.96950000  1.0 0.1289575046
H  H190  1  0.82520000  0.47460000  0.85620000  1.0 0.1289575046
H  H191  1  0.85150000  0.44050000  0.78530000  1.0 0.1120097678
H  H192  1  0.83990000  0.70550000  0.09200000  1.0 0.1000056443
H  H193  1  0.86980000  0.65720000  0.09130000  1.0 0.1196936595
H  H194  1  0.83960000  0.62880000  0.89890000  1.0 0.1289575046
H  H195  1  0.80970000  0.67710000  0.89970000  1.0 0.1000056443
H  H196  1  0.11100000  0.38640000  0.93170000  1.0 0.288112668
H  H197  1  0.10130000  0.57530000  0.11300000  1.0 0.1120097678
H  H198  1  0.12190000  0.53610000  0.04100000  1.0 0.1289575046
H  H199  1  0.97320000  0.32520000  0.15740000  1.0 0.1289575046
H  H200  1  0.95260000  0.36440000  0.22940000  1.0 0.1000056443
H  H201  1  0.92770000  0.39690000  0.90060000  1.0 0.1000056443
H  H202  1  0.95910000  0.37370000  0.98070000  1.0 0.1196936595
H  H203  1  0.14670000  0.48050000  0.86490000  1.0 0.1120097678
H  H204  1  0.11540000  0.50360000  0.78480000  1.0 0.1000056443
H  H205  1  0.21200000  0.33600000  0.94960000  1.0 0.1000056443
H  H206  1  0.16420000  0.36580000  0.93690000  1.0 0.1196936595
H  H207  1  0.11810000  0.33390000  0.12730000  1.0 0.1289575046
H  H208  1  0.16580000  0.30400000  0.14000000  1.0 0.1120097678
C  C1  1  0.08410000  0.92170000  0.97230000  1.0 0.0635153685
C  C2  1  0.08793000  0.92607000  0.03680000  1.0 0.0506573657
C  C3  1  0.12120000  0.89100000  0.01520000  1.0 0.2784654204
C  C4  1  0.99897000  0.89923000  0.82010000  1.0 0.0808412767
C  C5  1  0.01600000  0.88340000  0.86790000  1.0 -0.2100226454
C  C6  1  0.06315000  0.93725000  0.92380000  1.0 0.0910605272
C  C7  1  0.09317000  0.00683000  0.93190000  1.0 -0.1807214422
C  C8  1  0.07615000  0.02265000  0.88410000  1.0 0.0808412767
C  C9  1  0.10720000  0.01780000  0.18320000  1.0 0.0910605272
C  C10  1  0.12591000  0.00169000  0.13840000  1.0 -0.1883136335
C  C11  1  0.06907000  0.94693000  0.08430000  1.0 0.1120097678
C  C12  1  0.99342000  0.90818000  0.07510000  1.0 -0.2100226454
C  C13  1  0.97460000  0.92420000  0.12000000  1.0 0.0808412767
C  C14  1  0.18831000  0.83809000  0.07730000  1.0 0.0506573657
C  C15  1  0.16658000  0.86322000  0.07370000  1.0 -0.1987290675
C  C16  1  0.14300000  0.86100000  0.01480000  1.0 0.0506573657
C  C17  1  0.14114000  0.83366000  0.95950000  1.0 -0.1987290675
C  C18  1  0.16287000  0.80853000  0.96320000  1.0 0.0394561413
C  C19  1  0.57060000  0.41040000  0.46050000  1.0 0.0267980468
C  C20  1  0.57560000  0.41140000  0.52450000  1.0 0.0635153685
C  C21  1  0.61050000  0.37990000  0.48550000  1.0 0.288112668
C  C22  1  0.56234000  0.51706000  0.38480000  1.0 0.0910605272
C  C23  1  0.58019000  0.49841000  0.42680000  1.0 -0.1987290675
C  C24  1  0.54832000  0.42828000  0.41230000  1.0 0.1120097678
C  C25  1  0.49849000  0.37671000  0.35580000  1.0 -0.2209752019
C  C26  1  0.48064000  0.39536000  0.31370000  1.0 0.0808412767
C  C27  1  0.47020000  0.41300000  0.61410000  1.0 0.0808412767
C  C28  1  0.48654000  0.39686000  0.56580000  1.0 -0.1987290675
C  C29  1  0.55760000  0.42880000  0.57300000  1.0 0.1000056443
C  C30  1  0.61222000  0.47678000  0.62850000  1.0 -0.1687747057
C  C31  1  0.59588000  0.49292000  0.67680000  1.0 0.0710566413
C  C32  1  0.68660000  0.33560000  0.54170000  1.0 0.0506573657
C  C33  1  0.66090000  0.35670000  0.54140000  1.0 -0.1687747057
C  C34  1  0.64544000  0.36456000  0.48330000  1.0 0.0506573657
C  C35  1  0.65588000  0.35132000  0.42550000  1.0 -0.2209752019
C  C36  1  0.68164000  0.33016000  0.42590000  1.0 0.0394561413
C  C37  1  0.91590000  0.07830000  0.47230000  1.0 0.0635153685
C  C38  1  0.91207000  0.07393000  0.53680000  1.0 0.0506573657
C  C39  1  0.87880000  0.10900000  0.51520000  1.0 0.2784654204
C  C40  1  0.00103000  0.10077000  0.32010000  1.0 0.0808412767
C  C41  1  0.98400000  0.11660000  0.36790000  1.0 -0.2100226454
C  C42  1  0.93685000  0.06275000  0.42380000  1.0 0.0910605272
C  C43  1  0.90683000  0.99317000  0.43190000  1.0 -0.1807214422
C  C44  1  0.92385000  0.97735000  0.38410000  1.0 0.0808412767
C  C45  1  0.89280000  0.98220000  0.68320000  1.0 0.0910605272
C  C46  1  0.87409000  0.99831000  0.63840000  1.0 -0.1883136335
C  C47  1  0.93093000  0.05307000  0.58430000  1.0 0.1120097678
C  C48  1  0.00658000  0.09182000  0.57510000  1.0 -0.2100226454
C  C49  1  0.02540000  0.07580000  0.62000000  1.0 0.0808412767
C  C50  1  0.81169000  0.16191000  0.57730000  1.0 0.0506573657
C  C51  1  0.83342000  0.13678000  0.57370000  1.0 -0.1987290675
C  C52  1  0.85700000  0.13900000  0.51480000  1.0 0.0506573657
C  C53  1  0.85886000  0.16634000  0.45950000  1.0 -0.1987290675
C  C54  1  0.83713000  0.19147000  0.46320000  1.0 0.0394561413
C  C55  1  0.42940000  0.58960000  0.96050000  1.0 0.0267980468
C  C56  1  0.42440000  0.58860000  0.02450000  1.0 0.0635153685
C  C57  1  0.38950000  0.62010000  0.98550000  1.0 0.288112668
C  C58  1  0.43766000  0.48294000  0.88480000  1.0 0.0910605272
C  C59  1  0.41981000  0.50159000  0.92680000  1.0 -0.1987290675
C  C60  1  0.45168000  0.57172000  0.91230000  1.0 0.1120097678
C  C61  1  0.50151000  0.62329000  0.85580000  1.0 -0.2209752019
C  C62  1  0.51936000  0.60464000  0.81370000  1.0 0.0808412767
C  C63  1  0.52980000  0.58700000  0.11410000  1.0 0.0808412767
C  C64  1  0.51346000  0.60314000  0.06580000  1.0 -0.1987290675
C  C65  1  0.44240000  0.57120000  0.07300000  1.0 0.1000056443
C  C66  1  0.38778000  0.52322000  0.12850000  1.0 -0.1687747057
C  C67  1  0.40412000  0.50708000  0.17680000  1.0 0.0710566413
C  C68  1  0.31340000  0.66440000  0.04170000  1.0 0.0506573657
C  C69  1  0.33910000  0.64330000  0.04140000  1.0 -0.1687747057
C  C70  1  0.35456000  0.63544000  0.98330000  1.0 0.0506573657
C  C71  1  0.34412000  0.64868000  0.92550000  1.0 -0.2209752019
C  C72  1  0.31836000  0.66984000  0.92590000  1.0 0.0394561413
C  C73  1  0.07830000  0.91590000  0.52770000  1.0 0.0635153685
C  C74  1  0.07393000  0.91207000  0.46320000  1.0 0.0506573657
C  C75  1  0.10900000  0.87880000  0.48480000  1.0 0.2784654204
C  C76  1  0.10077000  0.00103000  0.67990000  1.0 0.0808412767
C  C77  1  0.11660000  0.98400000  0.63210000  1.0 -0.2100226454
C  C78  1  0.06275000  0.93685000  0.57620000  1.0 0.0910605272
C  C79  1  0.99317000  0.90683000  0.56810000  1.0 -0.1807214422
C  C80  1  0.97735000  0.92385000  0.61590000  1.0 0.0808412767
C  C81  1  0.98220000  0.89280000  0.31680000  1.0 0.0910605272
C  C82  1  0.99831000  0.87409000  0.36160000  1.0 -0.1883136335
C  C83  1  0.05307000  0.93093000  0.41570000  1.0 0.1120097678
C  C84  1  0.09182000  0.00658000  0.42490000  1.0 -0.2100226454
C  C85  1  0.07580000  0.02540000  0.38000000  1.0 0.0808412767
C  C86  1  0.16191000  0.81169000  0.42270000  1.0 0.0506573657
C  C87  1  0.13678000  0.83342000  0.42630000  1.0 -0.1987290675
C  C88  1  0.13900000  0.85700000  0.48520000  1.0 0.0506573657
C  C89  1  0.16634000  0.85886000  0.54050000  1.0 -0.1987290675
C  C90  1  0.19147000  0.83713000  0.53680000  1.0 0.0394561413
C  C91  1  0.58960000  0.42940000  0.03950000  1.0 0.0267980468
C  C92  1  0.58860000  0.42440000  0.97550000  1.0 0.0635153685
C  C93  1  0.62010000  0.38950000  0.01450000  1.0 0.288112668
C  C94  1  0.48294000  0.43766000  0.11520000  1.0 0.0910605272
C  C95  1  0.50159000  0.41981000  0.07320000  1.0 -0.1987290675
C  C96  1  0.57172000  0.45168000  0.08770000  1.0 0.1120097678
C  C97  1  0.62329000  0.50151000  0.14420000  1.0 -0.2209752019
C  C98  1  0.60464000  0.51936000  0.18630000  1.0 0.0808412767
C  C99  1  0.58700000  0.52980000  0.88590000  1.0 0.0808412767
C  C100  1  0.60314000  0.51346000  0.93420000  1.0 -0.1987290675
C  C101  1  0.57120000  0.44240000  0.92700000  1.0 0.1000056443
C  C102  1  0.52322000  0.38778000  0.87150000  1.0 -0.1687747057
C  C103  1  0.50708000  0.40412000  0.82320000  1.0 0.0710566413
C  C104  1  0.66440000  0.31340000  0.95830000  1.0 0.0506573657
C  C105  1  0.64330000  0.33910000  0.95860000  1.0 -0.1687747057
C  C106  1  0.63544000  0.35456000  0.01670000  1.0 0.0506573657
C  C107  1  0.64868000  0.34412000  0.07450000  1.0 -0.2209752019
C  C108  1  0.66984000  0.31836000  0.07410000  1.0 0.0394561413
C  C109  1  0.92170000  0.08410000  0.02770000  1.0 0.0635153685
C  C110  1  0.92607000  0.08793000  0.96320000  1.0 0.0506573657
C  C111  1  0.89100000  0.12120000  0.98480000  1.0 0.2784654204
C  C112  1  0.89923000  0.99897000  0.17990000  1.0 0.0808412767
C  C113  1  0.88340000  0.01600000  0.13210000  1.0 -0.2100226454
C  C114  1  0.93725000  0.06315000  0.07620000  1.0 0.0910605272
C  C115  1  0.00683000  0.09317000  0.06810000  1.0 -0.1807214422
C  C116  1  0.02265000  0.07615000  0.11590000  1.0 0.0808412767
C  C117  1  0.01780000  0.10720000  0.81680000  1.0 0.0910605272
C  C118  1  0.00169000  0.12591000  0.86160000  1.0 -0.1883136335
C  C119  1  0.94693000  0.06907000  0.91570000  1.0 0.1120097678
C  C120  1  0.90818000  0.99342000  0.92490000  1.0 -0.2100226454
C  C121  1  0.92420000  0.97460000  0.88000000  1.0 0.0808412767
C  C122  1  0.83809000  0.18831000  0.92270000  1.0 0.0506573657
C  C123  1  0.86322000  0.16658000  0.92630000  1.0 -0.1987290675
C  C124  1  0.86100000  0.14300000  0.98520000  1.0 0.0506573657
C  C125  1  0.83366000  0.14114000  0.04050000  1.0 -0.1987290675
C  C126  1  0.80853000  0.16287000  0.03680000  1.0 0.0394561413
C  C127  1  0.41040000  0.57060000  0.53950000  1.0 0.0267980468
C  C128  1  0.41140000  0.57560000  0.47550000  1.0 0.0635153685
C  C129  1  0.37990000  0.61050000  0.51450000  1.0 0.288112668
C  C130  1  0.51706000  0.56234000  0.61520000  1.0 0.0910605272
C  C131  1  0.49841000  0.58019000  0.57320000  1.0 -0.1987290675
C  C132  1  0.42828000  0.54832000  0.58770000  1.0 0.1120097678
C  C133  1  0.37671000  0.49849000  0.64420000  1.0 -0.2209752019
C  C134  1  0.39536000  0.48064000  0.68630000  1.0 0.0808412767
C  C135  1  0.41300000  0.47020000  0.38590000  1.0 0.0808412767
C  C136  1  0.39686000  0.48654000  0.43420000  1.0 -0.1987290675
C  C137  1  0.42880000  0.55760000  0.42700000  1.0 0.1000056443
C  C138  1  0.47678000  0.61222000  0.37150000  1.0 -0.1687747057
C  C139  1  0.49292000  0.59588000  0.32320000  1.0 0.0710566413
C  C140  1  0.33560000  0.68660000  0.45830000  1.0 0.0506573657
C  C141  1  0.35670000  0.66090000  0.45860000  1.0 -0.1687747057
C  C142  1  0.36456000  0.64544000  0.51670000  1.0 0.0506573657
C  C143  1  0.35132000  0.65588000  0.57450000  1.0 -0.2209752019
C  C144  1  0.33016000  0.68164000  0.57410000  1.0 0.0394561413
C  C145  1  0.57635000  0.91525000  0.96960000  1.0 0.0506573657
C  C146  1  0.57098000  0.91122000  0.03750000  1.0 0.0808412767
C  C147  1  0.61145000  0.88075000  0.00320000  1.0 0.2719107491
C  C148  1  0.61309000  0.01611000  0.82210000  1.0 0.0808412767
C  C149  1  0.62356000  0.99324000  0.86900000  1.0 -0.1987290675
C  C150  1  0.56189000  0.93711000  0.92100000  1.0 0.0910605272
C  C151  1  0.48974000  0.90386000  0.92600000  1.0 -0.1987290675
C  C152  1  0.47927000  0.92673000  0.87910000  1.0 0.0635153685
C  C153  1  0.55981000  0.01319000  0.10990000  1.0 0.0506573657
C  C154  1  0.58034000  0.99746000  0.06740000  1.0 -0.1987290675
C  C155  1  0.54840000  0.92700000  0.08010000  1.0 0.0910605272
C  C156  1  0.49604000  0.87236000  0.13530000  1.0 -0.1807214422
C  C157  1  0.47551000  0.88809000  0.17780000  1.0 0.0710566413
C  C158  1  0.69016000  0.83984000  0.94670000  1.0 0.0506573657
C  C159  1  0.66124000  0.85776000  0.94710000  1.0 -0.2100226454
C  C160  1  0.63819000  0.85761000  0.00500000  1.0 0.0506573657
C  C161  1  0.64416000  0.83964000  0.06240000  1.0 -0.1807214422
C  C162  1  0.67308000  0.82172000  0.06190000  1.0 0.0506573657
C  C163  1  0.40442000  0.06738000  0.95020000  1.0 0.0808412767
C  C164  1  0.40888000  0.07572000  0.01670000  1.0 0.0506573657
C  C165  1  0.37570000  0.11030000  0.97460000  1.0 0.2784654204
C  C166  1  0.52516000  0.07564000  0.87810000  1.0 0.0808412767
C  C167  1  0.50167000  0.08793000  0.92120000  1.0 -0.1987290675
C  C168  1  0.42682000  0.04958000  0.90790000  1.0 0.1000056443
C  C169  1  0.37535000  0.99885000  0.85150000  1.0 -0.1883136335
C  C170  1  0.39884000  0.98656000  0.80840000  1.0 0.0506573657
C  C171  1  0.41369000  0.97171000  0.10660000  1.0 0.0808412767
C  C172  1  0.39974000  0.99046000  0.05860000  1.0 -0.1883136335
C  C173  1  0.42476000  0.05604000  0.06930000  1.0 0.1000056443
C  C174  1  0.46372000  0.10288000  0.12790000  1.0 -0.2100226454
C  C175  1  0.47757000  0.08403000  0.17590000  1.0 0.0635153685
C  C176  1  0.33549000  0.19311000  0.01480000  1.0 0.0394561413
C  C177  1  0.35346000  0.16454000  0.02240000  1.0 -0.1987290675
C  C178  1  0.35283000  0.13637000  0.96920000  1.0 0.0394561413
C  C179  1  0.33433000  0.13687000  0.90830000  1.0 -0.1883136335
C  C180  1  0.31646000  0.16554000  0.90070000  1.0 0.0635153685
C  C181  1  0.42365000  0.08475000  0.46960000  1.0 0.0506573657
C  C182  1  0.42902000  0.08878000  0.53750000  1.0 0.0808412767
C  C183  1  0.38855000  0.11925000  0.50320000  1.0 0.2719107491
C  C184  1  0.38691000  0.98389000  0.32210000  1.0 0.0808412767
C  C185  1  0.37644000  0.00676000  0.36900000  1.0 -0.1987290675
C  C186  1  0.43811000  0.06289000  0.42100000  1.0 0.0910605272
C  C187  1  0.51026000  0.09614000  0.42600000  1.0 -0.1987290675
C  C188  1  0.52073000  0.07327000  0.37910000  1.0 0.0635153685
C  C189  1  0.44019000  0.98681000  0.60990000  1.0 0.0506573657
C  C190  1  0.41966000  0.00254000  0.56740000  1.0 -0.1987290675
C  C191  1  0.45160000  0.07300000  0.58010000  1.0 0.0910605272
C  C192  1  0.50396000  0.12764000  0.63530000  1.0 -0.1807214422
C  C193  1  0.52449000  0.11191000  0.67780000  1.0 0.0710566413
C  C194  1  0.30984000  0.16016000  0.44670000  1.0 0.0506573657
C  C195  1  0.33876000  0.14224000  0.44710000  1.0 -0.2100226454
C  C196  1  0.36181000  0.14239000  0.50500000  1.0 0.0506573657
C  C197  1  0.35584000  0.16036000  0.56240000  1.0 -0.1807214422
C  C198  1  0.32692000  0.17828000  0.56190000  1.0 0.0506573657
C  C199  1  0.59558000  0.93262000  0.45020000  1.0 0.0808412767
C  C200  1  0.59112000  0.92428000  0.51670000  1.0 0.0506573657
C  C201  1  0.62430000  0.88970000  0.47460000  1.0 0.2719107491
C  C202  1  0.47484000  0.92436000  0.37810000  1.0 0.0808412767
C  C203  1  0.49833000  0.91207000  0.42120000  1.0 -0.1987290675
C  C204  1  0.57318000  0.95042000  0.40790000  1.0 0.1000056443
C  C205  1  0.62465000  0.00115000  0.35150000  1.0 -0.1883136335
C  C206  1  0.60116000  0.01344000  0.30840000  1.0 0.0506573657
C  C207  1  0.58631000  0.02829000  0.60660000  1.0 0.0808412767
C  C208  1  0.60026000  0.00954000  0.55860000  1.0 -0.1883136335
C  C209  1  0.57524000  0.94396000  0.56930000  1.0 0.1000056443
C  C210  1  0.53628000  0.89712000  0.62790000  1.0 -0.2100226454
C  C211  1  0.52243000  0.91597000  0.67590000  1.0 0.0635153685
C  C212  1  0.66451000  0.80689000  0.51480000  1.0 0.0394561413
C  C213  1  0.64654000  0.83546000  0.52240000  1.0 -0.1987290675
C  C214  1  0.64717000  0.86363000  0.46920000  1.0 0.0394561413
C  C215  1  0.66567000  0.86313000  0.40830000  1.0 -0.1883136335
C  C216  1  0.68354000  0.83446000  0.40070000  1.0 0.0635153685
C  C217  1  0.08475000  0.42365000  0.53040000  1.0 0.0506573657
C  C218  1  0.08878000  0.42902000  0.46250000  1.0 0.0808412767
C  C219  1  0.11925000  0.38855000  0.49680000  1.0 0.2719107491
C  C220  1  0.98389000  0.38691000  0.67790000  1.0 0.0808412767
C  C221  1  0.00676000  0.37644000  0.63100000  1.0 -0.1987290675
C  C222  1  0.06289000  0.43811000  0.57900000  1.0 0.0910605272
C  C223  1  0.09614000  0.51026000  0.57400000  1.0 -0.1987290675
C  C224  1  0.07327000  0.52073000  0.62090000  1.0 0.0635153685
C  C225  1  0.98681000  0.44019000  0.39010000  1.0 0.0506573657
C  C226  1  0.00254000  0.41966000  0.43260000  1.0 -0.1987290675
C  C227  1  0.07300000  0.45160000  0.41990000  1.0 0.0910605272
C  C228  1  0.12764000  0.50396000  0.36470000  1.0 -0.1807214422
C  C229  1  0.11191000  0.52449000  0.32220000  1.0 0.0710566413
C  C230  1  0.16016000  0.30984000  0.55330000  1.0 0.0506573657
C  C231  1  0.14224000  0.33876000  0.55290000  1.0 -0.2100226454
C  C232  1  0.14239000  0.36181000  0.49500000  1.0 0.0506573657
C  C233  1  0.16036000  0.35584000  0.43760000  1.0 -0.1807214422
C  C234  1  0.17828000  0.32692000  0.43810000  1.0 0.0506573657
C  C235  1  0.93262000  0.59558000  0.54980000  1.0 0.0808412767
C  C236  1  0.92428000  0.59112000  0.48330000  1.0 0.0506573657
C  C237  1  0.88970000  0.62430000  0.52540000  1.0 0.2784654204
C  C238  1  0.92436000  0.47484000  0.62190000  1.0 0.0808412767
C  C239  1  0.91207000  0.49833000  0.57880000  1.0 -0.1987290675
C  C240  1  0.95042000  0.57318000  0.59210000  1.0 0.1000056443
C  C241  1  0.00115000  0.62465000  0.64850000  1.0 -0.1883136335
C  C242  1  0.01344000  0.60116000  0.69160000  1.0 0.0506573657
C  C243  1  0.02829000  0.58631000  0.39340000  1.0 0.0808412767
C  C244  1  0.00954000  0.60026000  0.44140000  1.0 -0.1883136335
C  C245  1  0.94396000  0.57524000  0.43070000  1.0 0.1000056443
C  C246  1  0.89712000  0.53628000  0.37210000  1.0 -0.2100226454
C  C247  1  0.91597000  0.52243000  0.32410000  1.0 0.0635153685
C  C248  1  0.80689000  0.66451000  0.48520000  1.0 0.0394561413
C  C249  1  0.83546000  0.64654000  0.47760000  1.0 -0.1987290675
C  C250  1  0.86363000  0.64717000  0.53080000  1.0 0.0394561413
C  C251  1  0.86313000  0.66567000  0.59170000  1.0 -0.1883136335
C  C252  1  0.83446000  0.68354000  0.59930000  1.0 0.0635153685
C  C253  1  0.91525000  0.57635000  0.03040000  1.0 0.0506573657
C  C254  1  0.91122000  0.57098000  0.96250000  1.0 0.0808412767
C  C255  1  0.88075000  0.61145000  0.99680000  1.0 0.2719107491
C  C256  1  0.01611000  0.61309000  0.17790000  1.0 0.0808412767
C  C257  1  0.99324000  0.62356000  0.13100000  1.0 -0.1987290675
C  C258  1  0.93711000  0.56189000  0.07900000  1.0 0.0910605272
C  C259  1  0.90386000  0.48974000  0.07400000  1.0 -0.1987290675
C  C260  1  0.92673000  0.47927000  0.12090000  1.0 0.0635153685
C  C261  1  0.01319000  0.55981000  0.89010000  1.0 0.0506573657
C  C262  1  0.99746000  0.58034000  0.93260000  1.0 -0.1987290675
C  C263  1  0.92700000  0.54840000  0.91990000  1.0 0.0910605272
C  C264  1  0.87236000  0.49604000  0.86470000  1.0 -0.1807214422
C  C265  1  0.88809000  0.47551000  0.82220000  1.0 0.0710566413
C  C266  1  0.83984000  0.69016000  0.05330000  1.0 0.0506573657
C  C267  1  0.85776000  0.66124000  0.05290000  1.0 -0.2100226454
C  C268  1  0.85761000  0.63819000  0.99500000  1.0 0.0506573657
C  C269  1  0.83964000  0.64416000  0.93760000  1.0 -0.1807214422
C  C270  1  0.82172000  0.67308000  0.93810000  1.0 0.0506573657
C  C271  1  0.06738000  0.40442000  0.04980000  1.0 0.0808412767
C  C272  1  0.07572000  0.40888000  0.98330000  1.0 0.0506573657
C  C273  1  0.11030000  0.37570000  0.02540000  1.0 0.2784654204
C  C274  1  0.07564000  0.52516000  0.12190000  1.0 0.0808412767
C  C275  1  0.08793000  0.50167000  0.07880000  1.0 -0.1987290675
C  C276  1  0.04958000  0.42682000  0.09210000  1.0 0.1000056443
C  C277  1  0.99885000  0.37535000  0.14850000  1.0 -0.1883136335
C  C278  1  0.98656000  0.39884000  0.19160000  1.0 0.0506573657
C  C279  1  0.97171000  0.41369000  0.89340000  1.0 0.0808412767
C  C280  1  0.99046000  0.39974000  0.94140000  1.0 -0.1883136335
C  C281  1  0.05604000  0.42476000  0.93070000  1.0 0.1000056443
C  C282  1  0.10288000  0.46372000  0.87210000  1.0 -0.2100226454
C  C283  1  0.08403000  0.47757000  0.82410000  1.0 0.0635153685
C  C284  1  0.19311000  0.33549000  0.98520000  1.0 0.0394561413
C  C285  1  0.16454000  0.35346000  0.97760000  1.0 -0.1987290675
C  C286  1  0.13637000  0.35283000  0.03080000  1.0 0.0394561413
C  C287  1  0.13687000  0.33433000  0.09170000  1.0 -0.1883136335
C  C288  1  0.16554000  0.31646000  0.09930000  1.0 0.0635153685
S  S1  1  0.74429000  0.76251000  0.27030000  1.0 1.3957042914
S  S2  1  0.25571000  0.23749000  0.77030000  1.0 1.3957042914
S  S3  1  0.23749000  0.25571000  0.22970000  1.0 1.3957042914
S  S4  1  0.76251000  0.74429000  0.72970000  1.0 1.3957042914
S  S5  1  0.75980000  0.24100000  0.73180000  1.0 0.5280864459
S  S6  1  0.24020000  0.75900000  0.23180000  1.0 0.5280864459
S  S7  1  0.75900000  0.24020000  0.76820000  1.0 0.5280864459
S  S8  1  0.24100000  0.75980000  0.26820000  1.0 0.5280864459
N  N1  1  0.10899000  0.90421000  0.06110000  1.0 -0.3462399322
N  N2  1  0.10495000  0.89825000  0.95540000  1.0 -0.3012771535
N  N3  1  0.02899000  0.96881000  0.82820000  1.0 -0.2820264199
N  N4  1  0.03155000  0.97905000  0.17400000  1.0 -0.2575627519
N  N5  1  0.18655000  0.81085000  0.02200000  1.0 -0.288942402
N  N6  1  0.59118000  0.38702000  0.43350000  1.0 -0.3162787634
N  N7  1  0.60452000  0.39588000  0.54140000  1.0 -0.375877865
N  N8  1  0.51251000  0.46549000  0.32820000  1.0 -0.2575627519
N  N9  1  0.52482000  0.46098000  0.66960000  1.0 -0.2684400346
N  N10  1  0.69695000  0.32225000  0.48390000  1.0 -0.288942402
N  N11  1  0.89101000  0.09579000  0.56110000  1.0 -0.3462399322
N  N12  1  0.89505000  0.10175000  0.45540000  1.0 -0.3012771535
N  N13  1  0.97101000  0.03119000  0.32820000  1.0 -0.2820264199
N  N14  1  0.96845000  0.02095000  0.67400000  1.0 -0.2575627519
N  N15  1  0.81345000  0.18915000  0.52200000  1.0 -0.2820264199
N  N16  1  0.40882000  0.61298000  0.93350000  1.0 -0.3162787634
N  N17  1  0.39548000  0.60412000  0.04140000  1.0 -0.375877865
N  N18  1  0.48749000  0.53451000  0.82820000  1.0 -0.2575627519
N  N19  1  0.47518000  0.53902000  0.16960000  1.0 -0.2684400346
N  N20  1  0.30305000  0.67775000  0.98390000  1.0 -0.288942402
N  N21  1  0.09579000  0.89101000  0.43890000  1.0 -0.3462399322
N  N22  1  0.10175000  0.89505000  0.54460000  1.0 -0.3012771535
N  N23  1  0.03119000  0.97101000  0.67180000  1.0 -0.2820264199
N  N24  1  0.02095000  0.96845000  0.32600000  1.0 -0.2575627519
N  N25  1  0.18915000  0.81345000  0.47800000  1.0 -0.288942402
N  N26  1  0.61298000  0.40882000  0.06650000  1.0 -0.3162787634
N  N27  1  0.60412000  0.39548000  0.95860000  1.0 -0.375877865
N  N28  1  0.53451000  0.48749000  0.17180000  1.0 -0.2575627519
N  N29  1  0.53902000  0.47518000  0.83040000  1.0 -0.2684400346
N  N30  1  0.67775000  0.30305000  0.01610000  1.0 -0.288942402
N  N31  1  0.90421000  0.10899000  0.93890000  1.0 -0.3462399322
N  N32  1  0.89825000  0.10495000  0.04460000  1.0 -0.3012771535
N  N33  1  0.96881000  0.02899000  0.17180000  1.0 -0.2820264199
N  N34  1  0.97905000  0.03155000  0.82600000  1.0 -0.2575627519
N  N35  1  0.81085000  0.18655000  0.97800000  1.0 -0.2820264199
N  N36  1  0.38702000  0.59118000  0.56650000  1.0 -0.3162787634
N  N37  1  0.39588000  0.60452000  0.45860000  1.0 -0.375877865
N  N38  1  0.46549000  0.51251000  0.67180000  1.0 -0.2575627519
N  N39  1  0.46098000  0.52482000  0.33040000  1.0 -0.2684400346
N  N40  1  0.32225000  0.69695000  0.51610000  1.0 -0.288942402
N  N41  1  0.60134000  0.89606000  0.95120000  1.0 -0.2684400346
N  N42  1  0.59156000  0.88804000  0.05770000  1.0 -0.3869727406
N  N43  1  0.54095000  0.98285000  0.82720000  1.0 -0.288942402
N  N44  1  0.50745000  0.95855000  0.16510000  1.0 -0.288942402
N  N45  1  0.69613000  0.82187000  0.00410000  1.0 -0.2820264199
N  N46  1  0.38356000  0.08844000  0.92470000  1.0 -0.3869727406
N  N47  1  0.38928000  0.10192000  0.03070000  1.0 -0.288942402
N  N48  1  0.47370000  0.02490000  0.82170000  1.0 -0.2820264199
N  N49  1  0.45256000  0.01844000  0.16520000  1.0 -0.288942402
N  N50  1  0.31699000  0.19361000  0.95390000  1.0 -0.2575627519
N  N51  1  0.39866000  0.10394000  0.45120000  1.0 -0.2684400346
N  N52  1  0.40844000  0.11196000  0.55770000  1.0 -0.3869727406
N  N53  1  0.45905000  0.01715000  0.32720000  1.0 -0.288942402
N  N54  1  0.49255000  0.04145000  0.66510000  1.0 -0.288942402
N  N55  1  0.30387000  0.17813000  0.50410000  1.0 -0.2820264199
N  N56  1  0.61644000  0.91156000  0.42470000  1.0 -0.3869727406
N  N57  1  0.61072000  0.89808000  0.53070000  1.0 -0.288942402
N  N58  1  0.52630000  0.97510000  0.32170000  1.0 -0.288942402
N  N59  1  0.54744000  0.98156000  0.66520000  1.0 -0.288942402
N  N60  1  0.68301000  0.80639000  0.45390000  1.0 -0.2575627519
N  N61  1  0.10394000  0.39866000  0.54880000  1.0 -0.2684400346
N  N62  1  0.11196000  0.40844000  0.44230000  1.0 -0.3869727406
N  N63  1  0.01715000  0.45905000  0.67280000  1.0 -0.288942402
N  N64  1  0.04145000  0.49255000  0.33490000  1.0 -0.288942402
N  N65  1  0.17813000  0.30387000  0.49590000  1.0 -0.2820264199
N  N66  1  0.91156000  0.61644000  0.57530000  1.0 -0.3869727406
N  N67  1  0.89808000  0.61072000  0.46930000  1.0 -0.288942402
N  N68  1  0.97510000  0.52630000  0.67830000  1.0 -0.288942402
N  N69  1  0.98156000  0.54744000  0.33480000  1.0 -0.288942402
N  N70  1  0.80639000  0.68301000  0.54610000  1.0 -0.2575627519
N  N71  1  0.89606000  0.60134000  0.04880000  1.0 -0.2684400346
N  N72  1  0.88804000  0.59156000  0.94230000  1.0 -0.3869727406
N  N73  1  0.98285000  0.54095000  0.17280000  1.0 -0.288942402
N  N74  1  0.95855000  0.50745000  0.83490000  1.0 -0.288942402
N  N75  1  0.82187000  0.69613000  0.99590000  1.0 -0.2820264199
N  N76  1  0.08844000  0.38356000  0.07530000  1.0 -0.3869727406
N  N77  1  0.10192000  0.38928000  0.96930000  1.0 -0.288942402
N  N78  1  0.02490000  0.47370000  0.17830000  1.0 -0.288942402
N  N79  1  0.01844000  0.45256000  0.83480000  1.0 -0.288942402
N  N80  1  0.19361000  0.31699000  0.04610000  1.0 -0.2575627519
O  O1  1  0.76980000  0.74100000  0.34250000  1.0 -0.6524005908
O  O2  1  0.72370000  0.78750000  0.28090000  1.0 -0.6157796163
O  O3  1  0.66330000  0.67530000  0.23340000  1.0 -0.6524005908
O  O4  1  0.84390000  0.84130000  0.24260000  1.0 -0.6797097701
O  O5  1  0.23020000  0.25900000  0.84250000  1.0 -0.6580757577
O  O6  1  0.27630000  0.21250000  0.78090000  1.0 -0.6157796163
O  O7  1  0.33670000  0.32470000  0.73340000  1.0 -0.6524005908
O  O8  1  0.15610000  0.15870000  0.74260000  1.0 -0.6797097701
O  O9  1  0.25900000  0.23020000  0.15750000  1.0 -0.6580757577
O  O10  1  0.21250000  0.27630000  0.21910000  1.0 -0.6157796163
O  O11  1  0.32470000  0.33670000  0.26660000  1.0 -0.6524005908
O  O12  1  0.15870000  0.15610000  0.25740000  1.0 -0.6797097701
O  O13  1  0.74100000  0.76980000  0.65750000  1.0 -0.6524005908
O  O14  1  0.78750000  0.72370000  0.71910000  1.0 -0.6157796163
O  O15  1  0.67530000  0.66330000  0.76660000  1.0 -0.6524005908
O  O16  1  0.84130000  0.84390000  0.75740000  1.0 -0.6797097701
O  O17  1  0.66920000  0.17100000  0.75940000  1.0 -0.4419211227
O  O18  1  0.74960000  0.22000000  0.67350000  1.0 -0.2820264199
O  O19  1  0.76640000  0.20100000  0.71130000  1.0 -0.243895315
O  O20  1  0.33080000  0.82900000  0.25940000  1.0 -0.4419211227
O  O21  1  0.25040000  0.78000000  0.17350000  1.0 -0.2820264199
O  O22  1  0.23360000  0.79900000  0.21130000  1.0 -0.243895315
O  O23  1  0.82900000  0.33080000  0.74060000  1.0 -0.4419211227
O  O24  1  0.78000000  0.25040000  0.82650000  1.0 -0.2820264199
O  O25  1  0.79900000  0.23360000  0.78870000  1.0 -0.243895315
O  O26  1  0.17100000  0.66920000  0.24060000  1.0 -0.4419211227
O  O27  1  0.22000000  0.74960000  0.32650000  1.0 -0.2820264199
O  O28  1  0.20100000  0.76640000  0.28870000  1.0 -0.2475545931
