# DDEC6 charges by PACMAN v1.1 (https://github.com/mtap-research/PACMAN-charge/)
data_XILSIW_ASR_pacman
_symmetry_space_group_name_H-M   'P 1'
_cell_length_a   9.86060000
_cell_length_b   11.67370000
_cell_length_c   12.51240000
_cell_angle_alpha   66.93000000
_cell_angle_beta   74.60200000
_cell_angle_gamma   65.78700000
_symmetry_Int_Tables_number   1
_chemical_formula_structural   CdC8(OF)4
_chemical_formula_sum   'Cd3 C24 O12 F12'
_cell_volume   1199.07387944
_cell_formula_units_Z   3
loop_
 _symmetry_equiv_pos_site_id
 _symmetry_equiv_pos_as_xyz
  1  'x, y, z'
loop_
 _atom_site_type_symbol
 _atom_site_label
 _atom_site_symmetry_multiplicity
 _atom_site_fract_x
 _atom_site_fract_y
 _atom_site_fract_z
 _atom_site_occupancy
 _atom_site_charge
Cd  Cd1  1  0.58309000  0.12632000  0.35238000  1.0 1.0657595174
Cd  Cd2  1  0.41691000  0.87368000  0.64762000  1.0 1.0648363607
Cd  Cd3  1  0.00000000  0.00000000  0.00000000  1.0 1.0947575347
C  C1  1  0.67540000  0.33980000  0.38220000  1.0 0.6074053572
C  C2  1  0.32460000  0.66020000  0.61780000  1.0 0.6074053572
C  C3  1  0.65120000  0.47780000  0.38090000  1.0 -0.2059197089
C  C4  1  0.34880000  0.52220000  0.61910000  1.0 -0.2059197089
C  C5  1  0.54270000  0.59100000  0.32130000  1.0 0.1498734312
C  C6  1  0.45730000  0.40900000  0.67870000  1.0 0.1498734312
C  C7  1  0.52900000  0.71690000  0.31410000  1.0 0.1498734312
C  C8  1  0.47100000  0.28310000  0.68590000  1.0 0.1498734312
C  C9  1  0.61890000  0.73690000  0.36880000  1.0 -0.1922901495
C  C10  1  0.38110000  0.26310000  0.63120000  1.0 -0.1922901495
C  C11  1  0.72210000  0.62390000  0.43090000  1.0 0.1498734312
C  C12  1  0.27790000  0.37610000  0.56910000  1.0 0.1498734312
C  C13  1  0.73820000  0.49920000  0.43640000  1.0 0.1349785106
C  C14  1  0.26180000  0.50080000  0.56360000  1.0 0.1349785106
C  C15  1  0.60310000  0.87520000  0.36170000  1.0 0.6074053572
C  C16  1  0.39690000  0.12480000  0.63830000  1.0 0.6074053572
C  C17  1  0.73600000  0.23760000  0.06960000  1.0 0.6371435599
C  C18  1  0.26400000  0.76240000  0.93040000  1.0 0.6371435599
C  C19  1  0.61250000  0.37390000  0.03480000  1.0 -0.2059197089
C  C20  1  0.38750000  0.62610000  0.96520000  1.0 -0.2059197089
C  C21  1  0.48970000  0.39220000  0.98900000  1.0 0.1498734312
C  C22  1  0.51030000  0.60780000  0.01100000  1.0 0.1498734312
C  C23  1  0.62010000  0.48480000  0.04530000  1.0 0.1498734312
C  C24  1  0.37990000  0.51520000  0.95470000  1.0 0.1498734312
O  O1  1  0.56650000  0.31830000  0.37100000  1.0 -0.5556060298
O  O2  1  0.43350000  0.68170000  0.62900000  1.0 -0.5544759853
O  O3  1  0.80620000  0.26070000  0.38820000  1.0 -0.4671744926
O  O4  1  0.19380000  0.73930000  0.61180000  1.0 -0.4646777137
O  O5  1  0.64530000  0.94840000  0.26800000  1.0 -0.4888027086
O  O6  1  0.35470000  0.05160000  0.73200000  1.0 -0.4888027086
O  O7  1  0.55040000  0.90870000  0.44900000  1.0 -0.5165173932
O  O8  1  0.44960000  0.09130000  0.55100000  1.0 -0.5165173932
O  O9  1  0.74410000  0.17730000  0.17610000  1.0 -0.5392612739
O  O10  1  0.25590000  0.82270000  0.82390000  1.0 -0.5392612739
O  O11  1  0.81980000  0.20200000  0.98710000  1.0 -0.5544759853
O  O12  1  0.18020000  0.79800000  0.01290000  1.0 -0.5544759853
F  F1  1  0.44670000  0.58280000  0.26770000  1.0 -0.102164544
F  F2  1  0.55330000  0.41720000  0.73230000  1.0 -0.102164544
F  F3  1  0.42420000  0.82280000  0.25200000  1.0 -0.1079728518
F  F4  1  0.57580000  0.17720000  0.74800000  1.0 -0.1079728518
F  F5  1  0.81170000  0.63640000  0.48710000  1.0 -0.1079728518
F  F6  1  0.18830000  0.36360000  0.51290000  1.0 -0.1079728518
F  F7  1  0.84330000  0.39630000  0.49930000  1.0 -0.1079728518
F  F8  1  0.15670000  0.60370000  0.50070000  1.0 -0.1079728518
F  F9  1  0.47400000  0.28860000  0.97840000  1.0 -0.1079728518
F  F10  1  0.52600000  0.71140000  0.02160000  1.0 -0.1079728518
F  F11  1  0.73890000  0.47250000  0.08860000  1.0 -0.090766657
F  F12  1  0.26110000  0.52750000  0.91140000  1.0 -0.090766657
