# DDEC6 charges by PACMAN v1.1 (https://github.com/mtap-research/PACMAN-charge/)
data_XIMNOZ_ASR_pacman
_symmetry_space_group_name_H-M   'P 1'
_cell_length_a   13.85600000
_cell_length_b   19.75500000
_cell_length_c   21.00800000
_cell_angle_alpha   90.00000000
_cell_angle_beta   130.90900000
_cell_angle_gamma   90.00000000
_symmetry_Int_Tables_number   1
_chemical_formula_structural   ZnH14C18(NO)4
_chemical_formula_sum   'Zn8 H112 C144 N32 O32'
_cell_volume   4345.88395789
_cell_formula_units_Z   8
loop_
 _symmetry_equiv_pos_site_id
 _symmetry_equiv_pos_as_xyz
  1  'x, y, z'
loop_
 _atom_site_type_symbol
 _atom_site_label
 _atom_site_symmetry_multiplicity
 _atom_site_fract_x
 _atom_site_fract_y
 _atom_site_fract_z
 _atom_site_occupancy
 _atom_site_charge
Zn  Zn1  1  0.34417000  0.23425000  0.75024000  1.0 0.8252224986
Zn  Zn2  1  0.06569000  0.27284000  0.74365000  1.0 0.800656027
Zn  Zn3  1  0.65583000  0.73425000  0.74976000  1.0 0.8252224986
Zn  Zn4  1  0.93431000  0.77284000  0.75635000  1.0 0.800656027
Zn  Zn5  1  0.65583000  0.76575000  0.24976000  1.0 0.8252224986
Zn  Zn6  1  0.93431000  0.72716000  0.25635000  1.0 0.800656027
Zn  Zn7  1  0.34417000  0.26575000  0.25024000  1.0 0.8252224986
Zn  Zn8  1  0.06569000  0.22716000  0.24365000  1.0 0.800656027
H  H1  1  0.48020000  0.15280000  0.91120000  1.0 0.1193833462
H  H2  1  0.76640000  0.79430000  0.08000000  1.0 0.1108627777
H  H3  1  0.50350000  0.51940000  0.73110000  1.0 0.1298538934
H  H4  1  0.24150000  0.95320000  0.77190000  1.0 0.1193833462
H  H5  1  0.10550000  0.65750000  0.42510000  1.0 0.1108627777
H  H6  1  0.37810000  0.42940000  0.73280000  1.0 0.1108627777
H  H7  1  0.56390000  0.54010000  0.92680000  1.0 0.1108627777
H  H8  1  0.25050000  0.90690000  0.59660000  1.0 0.1108627777
H  H9  1  0.70420000  0.39450000  0.09820000  1.0 0.1108627777
H  H10  1  0.31510000  0.56740000  0.73000000  1.0 0.1193833462
H  H11  1  0.18230000  0.48020000  0.72390000  1.0 0.1455746394
H  H12  1  0.05670000  0.91350000  0.77720000  1.0 0.1298538934
H  H13  1  0.07860000  0.03640000  0.77520000  1.0 0.1193833462
H  H14  1  0.26920000  0.07620000  0.77470000  1.0 0.1455746394
H  H15  1  0.69870000  0.27030000  0.11460000  1.0 0.1393483121
H  H16  1  0.28080000  0.78270000  0.62220000  1.0 0.1393483121
H  H17  1  0.04450000  0.85170000  0.38520000  1.0 0.1108627777
H  H18  1  0.62000000  0.16400000  0.05540000  1.0 0.1393483121
H  H19  1  0.49010000  0.34740000  0.88270000  1.0 0.1108627777
H  H20  1  0.61320000  0.77200000  0.93900000  1.0 0.1393483121
H  H21  1  0.02260000  0.04630000  0.42440000  1.0 0.1108627777
H  H22  1  0.24200000  0.67290000  0.56920000  1.0 0.1393483121
H  H23  1  0.16050000  0.30330000  0.57940000  1.0 0.1108627777
H  H24  1  0.54760000  0.66110000  0.89410000  1.0 0.1298538934
H  H25  1  0.23500000  0.11130000  0.63270000  1.0 0.1108627777
H  H26  1  0.97770000  0.16960000  0.39190000  1.0 0.1193833462
H  H27  1  0.01240000  0.28110000  0.43700000  1.0 0.1393483121
H  H28  1  0.79240000  0.60370000  0.13620000  1.0 0.1108627777
H  H29  1  0.51980000  0.65280000  0.58880000  1.0 0.1193833462
H  H30  1  0.23360000  0.29430000  0.42000000  1.0 0.1108627777
H  H31  1  0.49650000  0.01940000  0.76890000  1.0 0.1298538934
H  H32  1  0.75850000  0.45320000  0.72810000  1.0 0.1193833462
H  H33  1  0.89450000  0.15750000  0.07490000  1.0 0.1108627777
H  H34  1  0.62190000  0.92940000  0.76720000  1.0 0.1108627777
H  H35  1  0.43610000  0.04010000  0.57320000  1.0 0.1108627777
H  H36  1  0.74950000  0.40690000  0.90340000  1.0 0.1108627777
H  H37  1  0.29580000  0.89450000  0.40180000  1.0 0.1108627777
H  H38  1  0.68490000  0.06740000  0.77000000  1.0 0.1193833462
H  H39  1  0.81770000  0.98020000  0.77610000  1.0 0.1455746394
H  H40  1  0.94330000  0.41350000  0.72280000  1.0 0.1298538934
H  H41  1  0.92140000  0.53640000  0.72480000  1.0 0.1193833462
H  H42  1  0.73080000  0.57620000  0.72530000  1.0 0.1455746394
H  H43  1  0.30130000  0.77030000  0.38540000  1.0 0.1393483121
H  H44  1  0.71920000  0.28270000  0.87780000  1.0 0.1393483121
H  H45  1  0.95550000  0.35170000  0.11480000  1.0 0.1108627777
H  H46  1  0.38000000  0.66400000  0.44460000  1.0 0.1393483121
H  H47  1  0.50990000  0.84740000  0.61730000  1.0 0.1108627777
H  H48  1  0.38680000  0.27200000  0.56100000  1.0 0.1393483121
H  H49  1  0.97740000  0.54630000  0.07560000  1.0 0.1108627777
H  H50  1  0.75800000  0.17290000  0.93080000  1.0 0.1393483121
H  H51  1  0.83950000  0.80330000  0.92060000  1.0 0.1108627777
H  H52  1  0.45240000  0.16110000  0.60590000  1.0 0.1298538934
H  H53  1  0.76500000  0.61130000  0.86730000  1.0 0.1108627777
H  H54  1  0.02230000  0.66960000  0.10810000  1.0 0.1298538934
H  H55  1  0.98760000  0.78110000  0.06300000  1.0 0.1393483121
H  H56  1  0.20760000  0.10370000  0.36380000  1.0 0.1108627777
H  H57  1  0.51980000  0.84720000  0.08880000  1.0 0.1193833462
H  H58  1  0.23360000  0.20570000  0.92000000  1.0 0.1108627777
H  H59  1  0.49650000  0.48060000  0.26890000  1.0 0.1298538934
H  H60  1  0.75850000  0.04680000  0.22810000  1.0 0.1193833462
H  H61  1  0.89450000  0.34250000  0.57490000  1.0 0.1108627777
H  H62  1  0.62190000  0.57060000  0.26720000  1.0 0.1108627777
H  H63  1  0.43610000  0.45990000  0.07320000  1.0 0.1108627777
H  H64  1  0.74950000  0.09310000  0.40340000  1.0 0.1108627777
H  H65  1  0.29580000  0.60550000  0.90180000  1.0 0.1108627777
H  H66  1  0.68490000  0.43260000  0.27000000  1.0 0.1193833462
H  H67  1  0.81770000  0.51980000  0.27610000  1.0 0.1455746394
H  H68  1  0.94330000  0.08650000  0.22280000  1.0 0.1298538934
H  H69  1  0.92140000  0.96360000  0.22480000  1.0 0.1193833462
H  H70  1  0.73080000  0.92380000  0.22530000  1.0 0.1455746394
H  H71  1  0.30130000  0.72970000  0.88540000  1.0 0.1393483121
H  H72  1  0.71920000  0.21730000  0.37780000  1.0 0.1393483121
H  H73  1  0.95550000  0.14830000  0.61480000  1.0 0.1108627777
H  H74  1  0.38000000  0.83600000  0.94460000  1.0 0.1393483121
H  H75  1  0.50990000  0.65260000  0.11730000  1.0 0.1108627777
H  H76  1  0.38680000  0.22800000  0.06100000  1.0 0.1393483121
H  H77  1  0.97740000  0.95370000  0.57560000  1.0 0.1108627777
H  H78  1  0.75800000  0.32710000  0.43080000  1.0 0.1393483121
H  H79  1  0.83950000  0.69670000  0.42060000  1.0 0.1108627777
H  H80  1  0.45240000  0.33890000  0.10590000  1.0 0.1298538934
H  H81  1  0.76500000  0.88870000  0.36730000  1.0 0.1108627777
H  H82  1  0.02230000  0.83040000  0.60810000  1.0 0.1193833462
H  H83  1  0.98760000  0.71890000  0.56300000  1.0 0.1393483121
H  H84  1  0.20760000  0.39630000  0.86380000  1.0 0.1108627777
H  H85  1  0.48020000  0.34720000  0.41120000  1.0 0.1193833462
H  H86  1  0.76640000  0.70570000  0.58000000  1.0 0.1108627777
H  H87  1  0.50350000  0.98060000  0.23110000  1.0 0.1298538934
H  H88  1  0.24150000  0.54680000  0.27190000  1.0 0.1193833462
H  H89  1  0.10550000  0.84250000  0.92510000  1.0 0.1108627777
H  H90  1  0.37810000  0.07060000  0.23280000  1.0 0.1108627777
H  H91  1  0.56390000  0.95990000  0.42680000  1.0 0.1108627777
H  H92  1  0.25050000  0.59310000  0.09660000  1.0 0.1108627777
H  H93  1  0.70420000  0.10550000  0.59820000  1.0 0.1108627777
H  H94  1  0.31510000  0.93260000  0.23000000  1.0 0.1193833462
H  H95  1  0.18230000  0.01980000  0.22390000  1.0 0.1455746394
H  H96  1  0.05670000  0.58650000  0.27720000  1.0 0.1298538934
H  H97  1  0.07860000  0.46360000  0.27520000  1.0 0.1193833462
H  H98  1  0.26920000  0.42380000  0.27470000  1.0 0.1455746394
H  H99  1  0.69870000  0.22970000  0.61460000  1.0 0.1393483121
H  H100  1  0.28080000  0.71730000  0.12220000  1.0 0.1393483121
H  H101  1  0.04450000  0.64830000  0.88520000  1.0 0.1108627777
H  H102  1  0.62000000  0.33600000  0.55540000  1.0 0.1393483121
H  H103  1  0.49010000  0.15260000  0.38270000  1.0 0.1108627777
H  H104  1  0.61320000  0.72800000  0.43900000  1.0 0.1393483121
H  H105  1  0.02260000  0.45370000  0.92440000  1.0 0.1108627777
H  H106  1  0.24200000  0.82710000  0.06920000  1.0 0.1393483121
H  H107  1  0.16050000  0.19670000  0.07940000  1.0 0.1108627777
H  H108  1  0.54760000  0.83890000  0.39410000  1.0 0.1298538934
H  H109  1  0.23500000  0.38870000  0.13270000  1.0 0.1108627777
H  H110  1  0.97770000  0.33040000  0.89190000  1.0 0.1193833462
H  H111  1  0.01240000  0.21890000  0.93700000  1.0 0.1393483121
H  H112  1  0.79240000  0.89630000  0.63620000  1.0 0.1108627777
C  C1  1  0.51090000  0.19560000  0.93480000  1.0 0.0688888308
C  C2  1  0.73960000  0.74980000  0.06280000  1.0 0.0574328646
C  C3  1  0.20060000  0.37420000  0.72460000  1.0 0.6162749145
C  C4  1  0.45550000  0.55230000  0.73110000  1.0 -0.2387439359
C  C5  1  0.16000000  0.15290000  0.76920000  1.0 0.5832592908
C  C6  1  0.17640000  0.96050000  0.77310000  1.0 -0.0580366377
C  C7  1  0.12030000  0.70120000  0.44630000  1.0 0.0688888308
C  C8  1  0.32940000  0.46370000  0.73000000  1.0 -0.0499946151
C  C9  1  0.62230000  0.54950000  0.98410000  1.0 0.049134011
C  C10  1  0.18640000  0.89830000  0.53930000  1.0 0.0405562375
C  C11  1  0.64730000  0.38850000  0.04010000  1.0 0.0405562375
C  C12  1  0.36210000  0.53360000  0.73030000  1.0 -0.0695711209
C  C13  1  0.23110000  0.44650000  0.72590000  1.0 -0.2595248084
C  C14  1  0.11980000  0.90670000  0.77400000  1.0 -0.2703899156
C  C15  1  0.14350000  0.02900000  0.77390000  1.0 -0.0499946151
C  C16  1  0.20120000  0.08300000  0.77300000  1.0 -0.2595248084
C  C17  1  0.64070000  0.26500000  0.05640000  1.0 -0.0695711209
C  C18  1  0.10310000  0.12730000  0.50710000  1.0 0.0295873994
C  C19  1  0.22570000  0.77520000  0.56440000  1.0 -0.0873389888
C  C20  1  0.15210000  0.83620000  0.76990000  1.0 0.5973310534
C  C21  1  0.59950000  0.32100000  0.00410000  1.0 0.0295873994
C  C22  1  0.48410000  0.62560000  0.73190000  1.0 0.5973310534
C  C23  1  0.08420000  0.81550000  0.42270000  1.0 0.049134011
C  C24  1  0.59490000  0.20180000  0.02140000  1.0 -0.1293288853
C  C25  1  0.51630000  0.31040000  0.91800000  1.0 0.0405562375
C  C26  1  0.64810000  0.73690000  0.97790000  1.0 -0.1293288853
C  C27  1  0.08660000  0.05690000  0.48110000  1.0 0.049134011
C  C28  1  0.20290000  0.70990000  0.53300000  1.0 -0.1293288853
C  C29  1  0.14540000  0.25860000  0.56120000  1.0 0.0574328646
C  C30  1  0.60870000  0.67110000  0.95130000  1.0 -0.0873389888
C  C31  1  0.66150000  0.61960000  0.01100000  1.0 0.0295873994
C  C32  1  0.18980000  0.14540000  0.59260000  1.0 0.0574328646
C  C33  1  0.03650000  0.17950000  0.44910000  1.0 -0.0844908964
C  C34  1  0.05690000  0.24600000  0.47560000  1.0 -0.1293288853
C  C35  1  0.75470000  0.63780000  0.09590000  1.0 0.049134011
C  C36  1  0.16590000  0.82910000  0.50920000  1.0 0.0232326009
C  C37  1  0.48910000  0.69560000  0.56520000  1.0 0.0688888308
C  C38  1  0.26040000  0.24980000  0.43720000  1.0 0.0574328646
C  C39  1  0.79940000  0.87420000  0.77540000  1.0 0.6162749145
C  C40  1  0.54450000  0.05230000  0.76890000  1.0 -0.2387439359
C  C41  1  0.84000000  0.65290000  0.73080000  1.0 0.5832592908
C  C42  1  0.82360000  0.46050000  0.72690000  1.0 -0.0580366377
C  C43  1  0.87970000  0.20120000  0.05370000  1.0 0.0688888308
C  C44  1  0.67060000  0.96370000  0.77000000  1.0 -0.0499946151
C  C45  1  0.37770000  0.04950000  0.51590000  1.0 0.049134011
C  C46  1  0.81360000  0.39830000  0.96070000  1.0 0.0405562375
C  C47  1  0.35270000  0.88850000  0.45990000  1.0 0.0405562375
C  C48  1  0.63790000  0.03360000  0.76970000  1.0 -0.0695711209
C  C49  1  0.76890000  0.94650000  0.77410000  1.0 -0.2595248084
C  C50  1  0.88020000  0.40670000  0.72600000  1.0 -0.2703899156
C  C51  1  0.85650000  0.52900000  0.72610000  1.0 -0.0445114497
C  C52  1  0.79880000  0.58300000  0.72700000  1.0 -0.2595248084
C  C53  1  0.35930000  0.76500000  0.44360000  1.0 -0.0695711209
C  C54  1  0.89690000  0.62730000  0.99290000  1.0 0.0295873994
C  C55  1  0.77430000  0.27520000  0.93560000  1.0 -0.0873389888
C  C56  1  0.84790000  0.33620000  0.73010000  1.0 0.5973310534
C  C57  1  0.40050000  0.82100000  0.49590000  1.0 0.0295873994
C  C58  1  0.51590000  0.12560000  0.76810000  1.0 0.5973310534
C  C59  1  0.91580000  0.31550000  0.07730000  1.0 0.049134011
C  C60  1  0.40510000  0.70180000  0.47860000  1.0 -0.1293288853
C  C61  1  0.48370000  0.81040000  0.58200000  1.0 0.0405562375
C  C62  1  0.35190000  0.23690000  0.52210000  1.0 -0.1293288853
C  C63  1  0.91340000  0.55690000  0.01890000  1.0 0.049134011
C  C64  1  0.79710000  0.20990000  0.96700000  1.0 -0.1293288853
C  C65  1  0.85460000  0.75860000  0.93880000  1.0 0.0574328646
C  C66  1  0.39130000  0.17110000  0.54870000  1.0 -0.0873389888
C  C67  1  0.33850000  0.11960000  0.48900000  1.0 0.0295873994
C  C68  1  0.81020000  0.64540000  0.90740000  1.0 0.0574328646
C  C69  1  0.96350000  0.67950000  0.05090000  1.0 -0.0844908964
C  C70  1  0.94310000  0.74600000  0.02440000  1.0 -0.1293288853
C  C71  1  0.24530000  0.13780000  0.40410000  1.0 0.049134011
C  C72  1  0.83410000  0.32910000  0.99080000  1.0 0.0232326009
C  C73  1  0.48910000  0.80440000  0.06520000  1.0 0.0688888308
C  C74  1  0.26040000  0.25020000  0.93720000  1.0 0.0574328646
C  C75  1  0.79940000  0.62580000  0.27540000  1.0 0.6162749145
C  C76  1  0.54450000  0.44770000  0.26890000  1.0 -0.2387439359
C  C77  1  0.84000000  0.84710000  0.23080000  1.0 0.5832592908
C  C78  1  0.82360000  0.03950000  0.22690000  1.0 -0.0580366377
C  C79  1  0.87970000  0.29880000  0.55370000  1.0 0.0688888308
C  C80  1  0.67060000  0.53630000  0.27000000  1.0 -0.0499946151
C  C81  1  0.37770000  0.45050000  0.01590000  1.0 0.049134011
C  C82  1  0.81360000  0.10170000  0.46070000  1.0 0.0405562375
C  C83  1  0.35270000  0.61150000  0.95990000  1.0 0.0405562375
C  C84  1  0.63790000  0.46640000  0.26970000  1.0 -0.0695711209
C  C85  1  0.76890000  0.55350000  0.27410000  1.0 -0.2595248084
C  C86  1  0.88020000  0.09330000  0.22600000  1.0 -0.2703899156
C  C87  1  0.85650000  0.97100000  0.22610000  1.0 -0.0445114497
C  C88  1  0.79880000  0.91700000  0.22700000  1.0 -0.2595248084
C  C89  1  0.35930000  0.73500000  0.94360000  1.0 -0.0695711209
C  C90  1  0.89690000  0.87270000  0.49290000  1.0 0.0295873994
C  C91  1  0.77430000  0.22480000  0.43560000  1.0 -0.0873389888
C  C92  1  0.84790000  0.16380000  0.23010000  1.0 0.5973310534
C  C93  1  0.40050000  0.67900000  0.99590000  1.0 0.0295873994
C  C94  1  0.51590000  0.37440000  0.26810000  1.0 0.5973310534
C  C95  1  0.91580000  0.18450000  0.57730000  1.0 0.049134011
C  C96  1  0.40510000  0.79820000  0.97860000  1.0 -0.1293288853
C  C97  1  0.48370000  0.68960000  0.08200000  1.0 0.0405562375
C  C98  1  0.35190000  0.26310000  0.02210000  1.0 -0.1293288853
C  C99  1  0.91340000  0.94310000  0.51890000  1.0 0.049134011
C  C100  1  0.79710000  0.29010000  0.46700000  1.0 -0.1293288853
C  C101  1  0.85460000  0.74140000  0.43880000  1.0 0.0574328646
C  C102  1  0.39130000  0.32890000  0.04870000  1.0 -0.0873389888
C  C103  1  0.33850000  0.38040000  0.98900000  1.0 0.0295873994
C  C104  1  0.81020000  0.85460000  0.40740000  1.0 0.0574328646
C  C105  1  0.96350000  0.82050000  0.55090000  1.0 -0.0844908964
C  C106  1  0.94310000  0.75400000  0.52440000  1.0 -0.1293288853
C  C107  1  0.24530000  0.36220000  0.90410000  1.0 0.049134011
C  C108  1  0.83410000  0.17090000  0.49080000  1.0 0.0232326009
C  C109  1  0.51090000  0.30440000  0.43480000  1.0 0.0688888308
C  C110  1  0.73960000  0.75020000  0.56280000  1.0 0.0574328646
C  C111  1  0.20060000  0.12580000  0.22460000  1.0 0.6162749145
C  C112  1  0.45550000  0.94770000  0.23110000  1.0 -0.2387439359
C  C113  1  0.16000000  0.34710000  0.26920000  1.0 0.5832592908
C  C114  1  0.17640000  0.53950000  0.27310000  1.0 -0.0580366377
C  C115  1  0.12030000  0.79880000  0.94630000  1.0 0.0688888308
C  C116  1  0.32940000  0.03630000  0.23000000  1.0 -0.0499946151
C  C117  1  0.62230000  0.95050000  0.48410000  1.0 0.049134011
C  C118  1  0.18640000  0.60170000  0.03930000  1.0 0.0405562375
C  C119  1  0.64730000  0.11150000  0.54010000  1.0 0.0405562375
C  C120  1  0.36210000  0.96640000  0.23030000  1.0 -0.0695711209
C  C121  1  0.23110000  0.05350000  0.22590000  1.0 -0.2595248084
C  C122  1  0.11980000  0.59330000  0.27400000  1.0 -0.2703899156
C  C123  1  0.14350000  0.47100000  0.27390000  1.0 -0.0445114497
C  C124  1  0.20120000  0.41700000  0.27300000  1.0 -0.2595248084
C  C125  1  0.64070000  0.23500000  0.55640000  1.0 -0.0695711209
C  C126  1  0.10310000  0.37270000  0.00710000  1.0 0.0295873994
C  C127  1  0.22570000  0.72480000  0.06440000  1.0 -0.0873389888
C  C128  1  0.15210000  0.66380000  0.26990000  1.0 0.5973310534
C  C129  1  0.59950000  0.17900000  0.50410000  1.0 0.0295873994
C  C130  1  0.48410000  0.87440000  0.23190000  1.0 0.5973310534
C  C131  1  0.08420000  0.68450000  0.92270000  1.0 0.049134011
C  C132  1  0.59490000  0.29820000  0.52140000  1.0 -0.1293288853
C  C133  1  0.51630000  0.18960000  0.41800000  1.0 0.0405562375
C  C134  1  0.64810000  0.76310000  0.47790000  1.0 -0.1293288853
C  C135  1  0.08660000  0.44310000  0.98110000  1.0 0.049134011
C  C136  1  0.20290000  0.79010000  0.03300000  1.0 -0.1293288853
C  C137  1  0.14540000  0.24140000  0.06120000  1.0 0.0574328646
C  C138  1  0.60870000  0.82890000  0.45130000  1.0 -0.0873389888
C  C139  1  0.66150000  0.88040000  0.51100000  1.0 0.0295873994
C  C140  1  0.18980000  0.35460000  0.09260000  1.0 0.0574328646
C  C141  1  0.03650000  0.32050000  0.94910000  1.0 -0.0844908964
C  C142  1  0.05690000  0.25400000  0.97560000  1.0 -0.1293288853
C  C143  1  0.75470000  0.86220000  0.59590000  1.0 0.049134011
C  C144  1  0.16590000  0.67090000  0.00920000  1.0 0.0232326009
N  N1  1  0.66500000  0.50050000  0.03600000  1.0 -0.1901285138
N  N2  1  0.06110000  0.75270000  0.39180000  1.0 -0.2216635482
N  N3  1  0.47160000  0.24890000  0.88320000  1.0 -0.2216635482
N  N4  1  0.79230000  0.70150000  0.12200000  1.0 -0.2216635482
N  N5  1  0.61050000  0.43920000  0.99130000  1.0 -0.1731940891
N  N6  1  0.21040000  0.20970000  0.61910000  1.0 -0.2266076442
N  N7  1  0.12020000  0.94710000  0.49050000  1.0 -0.1798327949
N  N8  1  0.15550000  0.01000000  0.53220000  1.0 -0.1798327949
N  N9  1  0.33500000  0.00050000  0.46400000  1.0 -0.1901285138
N  N10  1  0.93890000  0.25270000  0.10820000  1.0 -0.2216635482
N  N11  1  0.52840000  0.74890000  0.61680000  1.0 -0.2216635482
N  N12  1  0.20770000  0.20150000  0.37800000  1.0 -0.2216635482
N  N13  1  0.38950000  0.93920000  0.50870000  1.0 -0.1731940891
N  N14  1  0.78960000  0.70970000  0.88090000  1.0 -0.2266076442
N  N15  1  0.87980000  0.44710000  0.00950000  1.0 -0.1798327949
N  N16  1  0.84450000  0.51000000  0.96780000  1.0 -0.1798327949
N  N17  1  0.33500000  0.49950000  0.96400000  1.0 -0.1901285138
N  N18  1  0.93890000  0.24730000  0.60820000  1.0 -0.2216635482
N  N19  1  0.52840000  0.75110000  0.11680000  1.0 -0.2216635482
N  N20  1  0.20770000  0.29850000  0.87800000  1.0 -0.2216635482
N  N21  1  0.38950000  0.56080000  0.00870000  1.0 -0.1731940891
N  N22  1  0.78960000  0.79030000  0.38090000  1.0 -0.2266076442
N  N23  1  0.87980000  0.05290000  0.50950000  1.0 -0.1798327949
N  N24  1  0.84450000  0.99000000  0.46780000  1.0 -0.1798327949
N  N25  1  0.66500000  0.99950000  0.53600000  1.0 -0.1901285138
N  N26  1  0.06110000  0.74730000  0.89180000  1.0 -0.2216635482
N  N27  1  0.47160000  0.25110000  0.38320000  1.0 -0.2216635482
N  N28  1  0.79230000  0.79850000  0.62200000  1.0 -0.2216635482
N  N29  1  0.61050000  0.06080000  0.49130000  1.0 -0.1731940891
N  N30  1  0.21040000  0.29030000  0.11910000  1.0 -0.2266076442
N  N31  1  0.12020000  0.55290000  0.99050000  1.0 -0.1798327949
N  N32  1  0.15550000  0.49000000  0.03220000  1.0 -0.1798327949
O  O1  1  0.08550000  0.78856000  0.76430000  1.0 -0.5607526437
O  O2  1  0.21120000  0.20163000  0.76120000  1.0 -0.5607526437
O  O3  1  0.10400000  0.36314000  0.71900000  1.0 -0.5684101022
O  O4  1  0.26820000  0.33073000  0.72870000  1.0 -0.5607526437
O  O5  1  0.56970000  0.63877000  0.72830000  1.0 -0.5908674534
O  O6  1  0.07360000  0.16498000  0.77140000  1.0 -0.5163733896
O  O7  1  0.42520000  0.66852000  0.73850000  1.0 -0.5684101022
O  O8  1  0.24320000  0.82619000  0.77180000  1.0 -0.5684101022
O  O9  1  0.91450000  0.28856000  0.73570000  1.0 -0.5607526437
O  O10  1  0.78880000  0.70163000  0.73880000  1.0 -0.5607526437
O  O11  1  0.89600000  0.86314000  0.78100000  1.0 -0.5684101022
O  O12  1  0.73180000  0.83073000  0.77130000  1.0 -0.5607526437
O  O13  1  0.43030000  0.13877000  0.77170000  1.0 -0.5908674534
O  O14  1  0.92640000  0.66498000  0.72860000  1.0 -0.5163733896
O  O15  1  0.57480000  0.16852000  0.76150000  1.0 -0.5684101022
O  O16  1  0.75680000  0.32619000  0.72820000  1.0 -0.5684101022
O  O17  1  0.91450000  0.21144000  0.23570000  1.0 -0.5607526437
O  O18  1  0.78880000  0.79837000  0.23880000  1.0 -0.5607526437
O  O19  1  0.89600000  0.63686000  0.28100000  1.0 -0.5684101022
O  O20  1  0.73180000  0.66927000  0.27130000  1.0 -0.5607526437
O  O21  1  0.43030000  0.36123000  0.27170000  1.0 -0.5908674534
O  O22  1  0.92640000  0.83502000  0.22860000  1.0 -0.5163733896
O  O23  1  0.57480000  0.33148000  0.26150000  1.0 -0.5684101022
O  O24  1  0.75680000  0.17381000  0.22820000  1.0 -0.5684101022
O  O25  1  0.08550000  0.71144000  0.26430000  1.0 -0.5607526437
O  O26  1  0.21120000  0.29837000  0.26120000  1.0 -0.5607526437
O  O27  1  0.10400000  0.13686000  0.21900000  1.0 -0.5684101022
O  O28  1  0.26820000  0.16927000  0.22870000  1.0 -0.5607526437
O  O29  1  0.56970000  0.86123000  0.22830000  1.0 -0.5908674534
O  O30  1  0.07360000  0.33502000  0.27140000  1.0 -0.5163733896
O  O31  1  0.42520000  0.83148000  0.23850000  1.0 -0.5684101022
O  O32  1  0.24320000  0.67381000  0.27180000  1.0 -0.5684101022
