# DDEC6 charges by PACMAN v1.1 (https://github.com/mtap-research/PACMAN-charge/)
data_XINFUW_ASR_pacman
_symmetry_space_group_name_H-M   'P 1'
_cell_length_a   12.69770000
_cell_length_b   15.10330000
_cell_length_c   18.90300000
_cell_angle_alpha   90.00000000
_cell_angle_beta   90.00000000
_cell_angle_gamma   90.00000000
_symmetry_Int_Tables_number   1
_chemical_formula_structural   ZnH4(C2O)4
_chemical_formula_sum   'Zn8 H32 C64 O32'
_cell_volume   3625.16389007
_cell_formula_units_Z   8
loop_
 _symmetry_equiv_pos_site_id
 _symmetry_equiv_pos_as_xyz
  1  'x, y, z'
loop_
 _atom_site_type_symbol
 _atom_site_label
 _atom_site_symmetry_multiplicity
 _atom_site_fract_x
 _atom_site_fract_y
 _atom_site_fract_z
 _atom_site_occupancy
 _atom_site_charge
Zn  Zn1  1  0.80121000  0.95172000  0.77425000  1.0 1.0504046318
Zn  Zn2  1  0.69879000  0.04828000  0.27425000  1.0 1.0504046318
Zn  Zn3  1  0.19879000  0.45172000  0.72575000  1.0 1.0504046318
Zn  Zn4  1  0.30121000  0.54828000  0.22575000  1.0 1.0504046318
Zn  Zn5  1  0.87233000  0.80877000  0.61801000  1.0 0.9306665299
Zn  Zn6  1  0.62767000  0.19123000  0.11801000  1.0 0.9306665299
Zn  Zn7  1  0.12767000  0.30877000  0.88199000  1.0 0.9306665299
Zn  Zn8  1  0.37233000  0.69123000  0.38199000  1.0 0.9306665299
H  H1  1  0.53400000  0.02350000  0.68100000  1.0 0.1132877444
H  H2  1  0.96600000  0.97650000  0.18100000  1.0 0.1132877444
H  H3  1  0.46600000  0.52350000  0.81900000  1.0 0.1132877444
H  H4  1  0.03400000  0.47650000  0.31900000  1.0 0.1132877444
H  H5  1  0.35780000  0.03670000  0.64860000  1.0 0.1026621342
H  H6  1  0.14220000  0.96330000  0.14860000  1.0 0.1026621342
H  H7  1  0.64220000  0.53670000  0.85140000  1.0 0.1026621342
H  H8  1  0.85780000  0.46330000  0.35140000  1.0 0.1026621342
H  H9  1  0.28910000  0.94790000  0.56050000  1.0 0.1026621342
H  H10  1  0.21090000  0.05210000  0.06050000  1.0 0.1026621342
H  H11  1  0.71090000  0.44790000  0.93950000  1.0 0.1026621342
H  H12  1  0.78910000  0.55210000  0.43950000  1.0 0.1026621342
H  H13  1  0.56830000  0.82570000  0.54020000  1.0 0.1381795046
H  H14  1  0.93170000  0.17430000  0.04020000  1.0 0.1381795046
H  H15  1  0.43170000  0.32570000  0.95980000  1.0 0.1381795046
H  H16  1  0.06830000  0.67430000  0.45980000  1.0 0.1381795046
H  H17  1  0.78060000  0.73610000  0.89440000  1.0 0.1132877444
H  H18  1  0.71940000  0.26390000  0.39440000  1.0 0.1132877444
H  H19  1  0.21940000  0.23610000  0.60560000  1.0 0.1132877444
H  H20  1  0.28060000  0.76390000  0.10560000  1.0 0.1132877444
H  H21  1  0.80870000  0.62740000  0.97860000  1.0 0.1198077884
H  H22  1  0.69130000  0.37260000  0.47860000  1.0 0.1198077884
H  H23  1  0.19130000  0.12740000  0.52140000  1.0 0.1198077884
H  H24  1  0.30870000  0.87260000  0.02140000  1.0 0.1198077884
H  H25  1  0.90980000  0.50430000  0.95070000  1.0 0.1313487769
H  H26  1  0.59020000  0.49570000  0.45070000  1.0 0.1313487769
H  H27  1  0.09020000  0.00430000  0.54930000  1.0 0.1313487769
H  H28  1  0.40980000  0.99570000  0.04930000  1.0 0.1313487769
H  H29  1  0.94880000  0.59600000  0.75300000  1.0 0.1313487769
H  H30  1  0.55120000  0.40400000  0.25300000  1.0 0.1313487769
H  H31  1  0.05120000  0.09600000  0.74700000  1.0 0.1313487769
H  H32  1  0.44880000  0.90400000  0.24700000  1.0 0.1313487769
C  C1  1  0.68280000  0.91245000  0.63435000  1.0 0.6059498327
C  C2  1  0.81720000  0.08755000  0.13435000  1.0 0.5965826647
C  C3  1  0.31720000  0.41245000  0.86565000  1.0 0.6059498327
C  C4  1  0.18280000  0.58755000  0.36565000  1.0 0.6059498327
C  C5  1  0.56880000  0.92355000  0.61357000  1.0 -0.0295459048
C  C6  1  0.93120000  0.07645000  0.11357000  1.0 -0.0295459048
C  C7  1  0.43120000  0.42355000  0.88643000  1.0 -0.0295459048
C  C8  1  0.06880000  0.57645000  0.38643000  1.0 -0.0295459048
C  C9  1  0.50600000  0.98685000  0.64624000  1.0 -0.0937250691
C  C10  1  0.99400000  0.01315000  0.14624000  1.0 -0.0937250691
C  C11  1  0.49400000  0.48685000  0.85376000  1.0 -0.0937250691
C  C12  1  0.00600000  0.51315000  0.35376000  1.0 -0.0937250691
C  C13  1  0.40050000  0.99510000  0.62646000  1.0 -0.1090190687
C  C14  1  0.09950000  0.00490000  0.12646000  1.0 -0.1090190687
C  C15  1  0.59950000  0.49510000  0.87354000  1.0 -0.1090190687
C  C16  1  0.90050000  0.50490000  0.37354000  1.0 -0.1090190687
C  C17  1  0.35910000  0.94140000  0.57402000  1.0 -0.1090190687
C  C18  1  0.14090000  0.05860000  0.07402000  1.0 -0.1090190687
C  C19  1  0.64090000  0.44140000  0.92598000  1.0 -0.1090190687
C  C20  1  0.85910000  0.55860000  0.42598000  1.0 -0.1090190687
C  C21  1  0.42150000  0.87781000  0.54141000  1.0 -0.0105268242
C  C22  1  0.07850000  0.12219000  0.04141000  1.0 -0.0105268242
C  C23  1  0.57850000  0.37781000  0.95859000  1.0 -0.0105268242
C  C24  1  0.92150000  0.62219000  0.45859000  1.0 -0.0105268242
C  C25  1  0.52640000  0.86857000  0.56151000  1.0 -0.0980129957
C  C26  1  0.97360000  0.13143000  0.06151000  1.0 -0.0980129957
C  C27  1  0.47360000  0.36857000  0.93849000  1.0 -0.0980129957
C  C28  1  0.02640000  0.63143000  0.43849000  1.0 -0.0980129957
C  C29  1  0.37550000  0.82152000  0.48283000  1.0 0.5405284104
C  C30  1  0.12450000  0.17848000  0.98283000  1.0 0.5405284104
C  C31  1  0.62450000  0.32152000  0.01717000  1.0 0.5405284104
C  C32  1  0.87550000  0.67848000  0.51717000  1.0 0.5405284104
C  C33  1  0.84430000  0.74852000  0.76063000  1.0 0.5965826647
C  C34  1  0.65570000  0.25148000  0.26063000  1.0 0.5965826647
C  C35  1  0.15570000  0.24852000  0.73937000  1.0 0.5965826647
C  C36  1  0.34430000  0.75148000  0.23937000  1.0 0.5965826647
C  C37  1  0.82010000  0.68621000  0.88299000  1.0 -0.0980129957
C  C38  1  0.67990000  0.31379000  0.38299000  1.0 -0.0980129957
C  C39  1  0.17990000  0.18621000  0.61701000  1.0 -0.0980129957
C  C40  1  0.32010000  0.81379000  0.11701000  1.0 -0.0980129957
C  C41  1  0.83730000  0.62145000  0.93359000  1.0 -0.1188916776
C  C42  1  0.66270000  0.37855000  0.43359000  1.0 -0.1188916776
C  C43  1  0.16270000  0.12145000  0.56641000  1.0 -0.1188916776
C  C44  1  0.33730000  0.87855000  0.06641000  1.0 -0.1188916776
C  C45  1  0.89760000  0.54758000  0.91671000  1.0 -0.0980129957
C  C46  1  0.60240000  0.45242000  0.41671000  1.0 -0.0980129957
C  C47  1  0.10240000  0.04758000  0.58329000  1.0 -0.0980129957
C  C48  1  0.39760000  0.95242000  0.08329000  1.0 -0.0980129957
C  C49  1  0.93968000  0.53797000  0.84926000  1.0 -0.0295459048
C  C50  1  0.56032000  0.46203000  0.34926000  1.0 -0.0295459048
C  C51  1  0.06032000  0.03797000  0.65074000  1.0 -0.0295459048
C  C52  1  0.43968000  0.96203000  0.15074000  1.0 -0.0295459048
C  C53  1  0.92130000  0.60255000  0.79826000  1.0 -0.0980129957
C  C54  1  0.57870000  0.39745000  0.29826000  1.0 -0.0980129957
C  C55  1  0.07870000  0.10255000  0.70174000  1.0 -0.0980129957
C  C56  1  0.42130000  0.89745000  0.20174000  1.0 -0.0980129957
C  C57  1  0.86150000  0.67721000  0.81512000  1.0 -0.0295459048
C  C58  1  0.63850000  0.32279000  0.31512000  1.0 -0.0295459048
C  C59  1  0.13850000  0.17721000  0.68488000  1.0 -0.0295459048
C  C60  1  0.36150000  0.82279000  0.18488000  1.0 -0.0295459048
C  C61  1  0.01154000  0.46074000  0.83283000  1.0 0.5965826647
C  C62  1  0.48846000  0.53926000  0.33283000  1.0 0.5965826647
C  C63  1  0.98846000  0.96074000  0.66717000  1.0 0.5965826647
C  C64  1  0.51154000  0.03926000  0.16717000  1.0 0.5965826647
O  O1  1  0.72165000  0.96438000  0.67906000  1.0 -0.5931634444
O  O2  1  0.77835000  0.03562000  0.17906000  1.0 -0.5931634444
O  O3  1  0.27835000  0.46438000  0.82094000  1.0 -0.5931634444
O  O4  1  0.22165000  0.53562000  0.32094000  1.0 -0.5931634444
O  O5  1  0.73029000  0.85078000  0.60298000  1.0 -0.5213935778
O  O6  1  0.76971000  0.14922000  0.10298000  1.0 -0.5213935778
O  O7  1  0.26971000  0.35078000  0.89702000  1.0 -0.5213935778
O  O8  1  0.23029000  0.64922000  0.39702000  1.0 -0.5213935778
O  O9  1  0.43398000  0.75882000  0.45987000  1.0 -0.5213935778
O  O10  1  0.06602000  0.24118000  0.95987000  1.0 -0.5143460694
O  O11  1  0.56602000  0.25882000  0.04013000  1.0 -0.5213935778
O  O12  1  0.93398000  0.74118000  0.54013000  1.0 -0.5213935778
O  O13  1  0.28720000  0.83783000  0.46024000  1.0 -0.4775800023
O  O14  1  0.21280000  0.16217000  0.96024000  1.0 -0.4775800023
O  O15  1  0.71280000  0.33783000  0.03976000  1.0 -0.4775800023
O  O16  1  0.78720000  0.66217000  0.53976000  1.0 -0.4775800023
O  O17  1  0.78776000  0.81341000  0.77669000  1.0 -0.5931634444
O  O18  1  0.71224000  0.18659000  0.27669000  1.0 -0.5931634444
O  O19  1  0.21224000  0.31341000  0.72331000  1.0 -0.5931634444
O  O20  1  0.28776000  0.68659000  0.22331000  1.0 -0.5931634444
O  O21  1  0.88984000  0.73610000  0.70198000  1.0 -0.533061451
O  O22  1  0.61016000  0.26390000  0.20198000  1.0 -0.533061451
O  O23  1  0.11016000  0.23610000  0.79802000  1.0 -0.533061451
O  O24  1  0.38984000  0.76390000  0.29802000  1.0 -0.533061451
O  O25  1  0.04646000  0.45223000  0.77187000  1.0 -0.5780310693
O  O26  1  0.45354000  0.54777000  0.27187000  1.0 -0.5780310693
O  O27  1  0.95354000  0.95223000  0.72813000  1.0 -0.5780310693
O  O28  1  0.54646000  0.04777000  0.22813000  1.0 -0.5780310693
O  O29  1  0.03103000  0.41046000  0.88471000  1.0 -0.533061451
O  O30  1  0.46897000  0.58954000  0.38471000  1.0 -0.533061451
O  O31  1  0.96897000  0.91046000  0.61529000  1.0 -0.533061451
O  O32  1  0.53103000  0.08954000  0.11529000  1.0 -0.533061451
