# DDEC6 charges by PACMAN v1.1 (https://github.com/mtap-research/PACMAN-charge/)
data_XINQEU_ASR_pacman
_symmetry_space_group_name_H-M   'P 1'
_cell_length_a   26.55870000
_cell_length_b   26.55870000
_cell_length_c   26.55870000
_cell_angle_alpha   142.20400000
_cell_angle_beta   127.79900000
_cell_angle_gamma   66.22910000
_symmetry_Int_Tables_number   1
_chemical_formula_structural   ZnH16C25NO4
_chemical_formula_sum   'Zn4 H64 C100 N4 O16'
_cell_volume   8943.28608308
_cell_formula_units_Z   4
loop_
 _symmetry_equiv_pos_site_id
 _symmetry_equiv_pos_as_xyz
  1  'x, y, z'
loop_
 _atom_site_type_symbol
 _atom_site_label
 _atom_site_symmetry_multiplicity
 _atom_site_fract_x
 _atom_site_fract_y
 _atom_site_fract_z
 _atom_site_occupancy
 _atom_site_charge
Zn  Zn1  1  0.97580000  0.91711000  0.94131000  1.0 0.9498447512
Zn  Zn2  1  0.52420000  0.46551000  0.94131000  1.0 0.9498447512
Zn  Zn3  1  0.47580000  0.53449000  0.05869000  1.0 0.9498447512
Zn  Zn4  1  0.02420000  0.08289000  0.05869000  1.0 0.9498447512
H  H1  1  0.21126000  0.03112000  0.08676000  1.0 0.1288086076
H  H2  1  0.28874000  0.37550000  0.81986000  1.0 0.1288086076
H  H3  1  0.44436000  0.62450000  0.91324000  1.0 0.1288086076
H  H4  1  0.05564000  0.96888000  0.18014000  1.0 0.1288086076
H  H5  1  0.78874000  0.96888000  0.91324000  1.0 0.1288086076
H  H6  1  0.71126000  0.62450000  0.18014000  1.0 0.1288086076
H  H7  1  0.55564000  0.37550000  0.08676000  1.0 0.1288086076
H  H8  1  0.94436000  0.03112000  0.81986000  1.0 0.1288086076
H  H9  1  0.30767000  0.98462000  0.08717000  1.0 0.1288086076
H  H10  1  0.19233000  0.27950000  0.67695000  1.0 0.1288086076
H  H11  1  0.39745000  0.72050000  0.91283000  1.0 0.1288086076
H  H12  1  0.10255000  0.01538000  0.32305000  1.0 0.1288086076
H  H13  1  0.69233000  0.01538000  0.91283000  1.0 0.1288086076
H  H14  1  0.80767000  0.72050000  0.32305000  1.0 0.1288086076
H  H15  1  0.60255000  0.27950000  0.08717000  1.0 0.1288086076
H  H16  1  0.89745000  0.98462000  0.67695000  1.0 0.1288086076
H  H17  1  0.23566000  0.75288000  0.90972000  1.0 0.1288086076
H  H18  1  0.26434000  0.17406000  0.51722000  1.0 0.1288086076
H  H19  1  0.34316000  0.82594000  0.09028000  1.0 0.1288086076
H  H20  1  0.15684000  0.24712000  0.48278000  1.0 0.1288086076
H  H21  1  0.76434000  0.24712000  0.09028000  1.0 0.1288086076
H  H22  1  0.73566000  0.82594000  0.48278000  1.0 0.1288086076
H  H23  1  0.65684000  0.17406000  0.90972000  1.0 0.1288086076
H  H24  1  0.84316000  0.75288000  0.51722000  1.0 0.1288086076
H  H25  1  0.14207000  0.79920000  0.91261000  1.0 0.1288086076
H  H26  1  0.35793000  0.27054000  0.65713000  1.0 0.1288086076
H  H27  1  0.38659000  0.72946000  0.08739000  1.0 0.1288086076
H  H28  1  0.11341000  0.20080000  0.34287000  1.0 0.1288086076
H  H29  1  0.85793000  0.20080000  0.08739000  1.0 0.1288086076
H  H30  1  0.64207000  0.72946000  0.34287000  1.0 0.1288086076
H  H31  1  0.61341000  0.27054000  0.91261000  1.0 0.1288086076
H  H32  1  0.88659000  0.79920000  0.65713000  1.0 0.1288086076
H  H33  1  0.46196000  0.89931000  0.10663000  1.0 0.1288086076
H  H34  1  0.03804000  0.14467000  0.43735000  1.0 0.1288086076
H  H35  1  0.29268000  0.85533000  0.89337000  1.0 0.1288086076
H  H36  1  0.20732000  0.10069000  0.56265000  1.0 0.1288086076
H  H37  1  0.53804000  0.10069000  0.89337000  1.0 0.1288086076
H  H38  1  0.96196000  0.85533000  0.56265000  1.0 0.1288086076
H  H39  1  0.70732000  0.14467000  0.10663000  1.0 0.1288086076
H  H40  1  0.79268000  0.89931000  0.43735000  1.0 0.1288086076
H  H41  1  0.51339000  0.94678000  0.10209000  1.0 0.1102639983
H  H42  1  0.98661000  0.08870000  0.43339000  1.0 0.1102639983
H  H43  1  0.34469000  0.91130000  0.89791000  1.0 0.1102639983
H  H44  1  0.15531000  0.05322000  0.56661000  1.0 0.1102639983
H  H45  1  0.48661000  0.05322000  0.89791000  1.0 0.1102639983
H  H46  1  0.01339000  0.91130000  0.56661000  1.0 0.1102639983
H  H47  1  0.65531000  0.08870000  0.10209000  1.0 0.1102639983
H  H48  1  0.84469000  0.94678000  0.43339000  1.0 0.1102639983
H  H49  1  0.53919000  0.04564000  0.13803000  1.0 0.0993509709
H  H50  1  0.96081000  0.09884000  0.50645000  1.0 0.0993509709
H  H51  1  0.40761000  0.90116000  0.86198000  1.0 0.0993509709
H  H52  1  0.09239000  0.95437000  0.49356000  1.0 0.0993509709
H  H53  1  0.46081000  0.95437000  0.86198000  1.0 0.0993509709
H  H54  1  0.03919000  0.90116000  0.49356000  1.0 0.0993509709
H  H55  1  0.59239000  0.09884000  0.13803000  1.0 0.0993509709
H  H56  1  0.90761000  0.04564000  0.50645000  1.0 0.0993509709
H  H57  1  0.55026000  0.92465000  0.02545000  1.0 0.0993509709
H  H58  1  0.94974000  0.97519000  0.37439000  1.0 0.0993509709
H  H59  1  0.39920000  0.02481000  0.97455000  1.0 0.0993509709
H  H60  1  0.10080000  0.07535000  0.62561000  1.0 0.0993509709
H  H61  1  0.44974000  0.07535000  0.97455000  1.0 0.0993509709
H  H62  1  0.05026000  0.02481000  0.62561000  1.0 0.0993509709
H  H63  1  0.60080000  0.97519000  0.02545000  1.0 0.0993509709
H  H64  1  0.89920000  0.92465000  0.37439000  1.0 0.0993509709
C  C1  1  0.10519000  0.94826000  0.99933000  1.0 0.5966463123
C  C2  1  0.39481000  0.39414000  0.84307000  1.0 0.5966463123
C  C3  1  0.44893000  0.60586000  0.00067000  1.0 0.5966463123
C  C4  1  0.05107000  0.05174000  0.15693000  1.0 0.5966463123
C  C5  1  0.89481000  0.05174000  0.00067000  1.0 0.5966463123
C  C6  1  0.60519000  0.60586000  0.15693000  1.0 0.5966463123
C  C7  1  0.55107000  0.39414000  0.99933000  1.0 0.5966463123
C  C8  1  0.94893000  0.94826000  0.84307000  1.0 0.5966463123
C  C9  1  0.16751000  0.91802000  0.99889000  1.0 -0.0424903527
C  C10  1  0.33249000  0.33138000  0.75051000  1.0 -0.0424903527
C  C11  1  0.41913000  0.66862000  0.00111000  1.0 -0.0424903527
C  C12  1  0.08087000  0.08198000  0.24949000  1.0 -0.0424903527
C  C13  1  0.83249000  0.08198000  0.00111000  1.0 -0.0424903527
C  C14  1  0.66751000  0.66862000  0.24949000  1.0 -0.0424903527
C  C15  1  0.58087000  0.33138000  0.99889000  1.0 -0.0424903527
C  C16  1  0.91913000  0.91802000  0.75051000  1.0 -0.0424903527
C  C17  1  0.21652000  0.97508000  0.05164000  1.0 -0.0820088125
C  C18  1  0.28348000  0.33512000  0.75856000  1.0 -0.0820088125
C  C19  1  0.42344000  0.66488000  0.94836000  1.0 -0.0820088125
C  C20  1  0.07656000  0.02492000  0.24144000  1.0 -0.0820088125
C  C21  1  0.78348000  0.02492000  0.94836000  1.0 -0.0820088125
C  C22  1  0.71652000  0.66488000  0.24144000  1.0 -0.0820088125
C  C23  1  0.57656000  0.33512000  0.05164000  1.0 -0.0820088125
C  C24  1  0.92344000  0.97508000  0.75856000  1.0 -0.0820088125
C  C25  1  0.27313000  0.94701000  0.05092000  1.0 -0.1913394176
C  C26  1  0.22687000  0.27779000  0.67388000  1.0 -0.1913394176
C  C27  1  0.39609000  0.72221000  0.94908000  1.0 -0.1913394176
C  C28  1  0.10391000  0.05299000  0.32612000  1.0 -0.1913394176
C  C29  1  0.72687000  0.05299000  0.94908000  1.0 -0.1913394176
C  C30  1  0.77313000  0.72221000  0.32612000  1.0 -0.1913394176
C  C31  1  0.60391000  0.27779000  0.05092000  1.0 -0.1913394176
C  C32  1  0.89609000  0.94701000  0.67388000  1.0 -0.1913394176
C  C33  1  0.27983000  0.86413000  0.99750000  1.0 0.1716538143
C  C34  1  0.22017000  0.21767000  0.58430000  1.0 0.1716538143
C  C35  1  0.36663000  0.78233000  0.00250000  1.0 0.1716538143
C  C36  1  0.13337000  0.13587000  0.41570000  1.0 0.1716538143
C  C37  1  0.72017000  0.13587000  0.00250000  1.0 0.1716538143
C  C38  1  0.77983000  0.78233000  0.41570000  1.0 0.1716538143
C  C39  1  0.63337000  0.21767000  0.99750000  1.0 0.1716538143
C  C40  1  0.86663000  0.86413000  0.58430000  1.0 0.1716538143
C  C41  1  0.23107000  0.80926000  0.94601000  1.0 -0.1913394176
C  C42  1  0.26893000  0.21494000  0.57819000  1.0 -0.1832353588
C  C43  1  0.36325000  0.78506000  0.05399000  1.0 -0.1913394176
C  C44  1  0.13675000  0.19074000  0.42181000  1.0 -0.1832353588
C  C45  1  0.76893000  0.19074000  0.05399000  1.0 -0.1832353588
C  C46  1  0.73107000  0.78506000  0.42181000  1.0 -0.1913394176
C  C47  1  0.63675000  0.21494000  0.94601000  1.0 -0.1832353588
C  C48  1  0.86325000  0.80926000  0.57819000  1.0 -0.1832353588
C  C49  1  0.17586000  0.83704000  0.94782000  1.0 -0.0820088125
C  C50  1  0.32414000  0.27196000  0.66118000  1.0 -0.0820088125
C  C51  1  0.38922000  0.72804000  0.05218000  1.0 -0.0820088125
C  C52  1  0.11078000  0.16296000  0.33882000  1.0 -0.0820088125
C  C53  1  0.82414000  0.16296000  0.05218000  1.0 -0.0820088125
C  C54  1  0.67586000  0.72804000  0.33882000  1.0 -0.0820088125
C  C55  1  0.61078000  0.27196000  0.94782000  1.0 -0.0820088125
C  C56  1  0.88922000  0.83704000  0.66118000  1.0 -0.0820088125
C  C57  1  0.37293000  0.87293000  0.00000000  1.0 0.1369906474
C  C58  1  0.12707000  0.12707000  0.50000000  1.0 0.1369906474
C  C59  1  0.62707000  0.12707000  0.00000000  1.0 0.1369906474
C  C60  1  0.87293000  0.87293000  0.50000000  1.0 0.1369906474
C  C61  1  0.43807000  0.90046000  0.06261000  1.0 -0.1623889472
C  C62  1  0.06193000  0.12454000  0.46239000  1.0 -0.1623889472
C  C63  1  0.33785000  0.87546000  0.93739000  1.0 -0.1623889472
C  C64  1  0.16215000  0.09954000  0.53761000  1.0 -0.1623889472
C  C65  1  0.56193000  0.09954000  0.93739000  1.0 -0.1623889472
C  C66  1  0.93807000  0.87546000  0.53761000  1.0 -0.1623889472
C  C67  1  0.66215000  0.12454000  0.06261000  1.0 -0.1623889472
C  C68  1  0.83785000  0.90046000  0.46239000  1.0 -0.1623889472
C  C69  1  0.46786000  0.92942000  0.06044000  1.0 -0.1481644962
C  C70  1  0.03214000  0.09258000  0.46156000  1.0 -0.1481644962
C  C71  1  0.36898000  0.90742000  0.93956000  1.0 -0.1481644962
C  C72  1  0.13102000  0.07058000  0.53844000  1.0 -0.1481644962
C  C73  1  0.53214000  0.07058000  0.93956000  1.0 -0.1481644962
C  C74  1  0.96786000  0.90742000  0.53844000  1.0 -0.1481644962
C  C75  1  0.63102000  0.09258000  0.06044000  1.0 -0.1481644962
C  C76  1  0.86898000  0.92942000  0.46156000  1.0 -0.1481644962
C  C77  1  0.43432000  0.93432000  0.00000000  1.0 0.0211470273
C  C78  1  0.06568000  0.06568000  0.50000000  1.0 0.011656361
C  C79  1  0.56568000  0.06568000  0.00000000  1.0 0.011656361
C  C80  1  0.93432000  0.93432000  0.50000000  1.0 0.0211470273
C  C81  1  0.46806000  0.96806000  0.00000000  1.0 0.0022766977
C  C82  1  0.03194000  0.03194000  0.50000000  1.0 0.0022766977
C  C83  1  0.53194000  0.03194000  0.00000000  1.0 0.011656361
C  C84  1  0.96806000  0.96806000  0.50000000  1.0 0.0022766977
C  C85  1  0.52200000  0.02580000  0.08020000  1.0 -0.0877552937
C  C86  1  0.97800000  0.05820000  0.50380000  1.0 -0.0820088125
C  C87  1  0.44560000  0.94180000  0.91980000  1.0 -0.0877552937
C  C88  1  0.05440000  0.97420000  0.49620000  1.0 -0.0877552937
C  C89  1  0.47800000  0.97420000  0.91980000  1.0 -0.0877552937
C  C90  1  0.02200000  0.94180000  0.49620000  1.0 -0.0877552937
C  C91  1  0.55440000  0.05820000  0.08020000  1.0 -0.0877552937
C  C92  1  0.94560000  0.02580000  0.50380000  1.0 -0.0877552937
C  C93  1  0.52810000  0.95610000  0.01460000  1.0 -0.0877552937
C  C94  1  0.97190000  0.98650000  0.42800000  1.0 -0.0877552937
C  C95  1  0.44150000  0.01350000  0.98540000  1.0 -0.0877552937
C  C96  1  0.05850000  0.04390000  0.57200000  1.0 -0.0877552937
C  C97  1  0.47190000  0.04390000  0.98540000  1.0 -0.0877552937
C  C98  1  0.02810000  0.01350000  0.57200000  1.0 -0.0877552937
C  C99  1  0.55850000  0.98650000  0.01460000  1.0 -0.0877552937
C  C100  1  0.94150000  0.95610000  0.42800000  1.0 -0.0877552937
N  N1  1  0.33990000  0.83990000  0.00000000  1.0 -0.1832353588
N  N2  1  0.16010000  0.16010000  0.50000000  1.0 -0.1832353588
N  N3  1  0.66010000  0.16010000  0.00000000  1.0 -0.1832353588
N  N4  1  0.83990000  0.83990000  0.50000000  1.0 -0.1832353588
O  O1  1  0.06285000  0.89677000  0.95470000  1.0 -0.5420836102
O  O2  1  0.43715000  0.39185000  0.83392000  1.0 -0.5420836102
O  O3  1  0.44207000  0.60815000  0.04530000  1.0 -0.5420836102
O  O4  1  0.05793000  0.10323000  0.16608000  1.0 -0.5420836102
O  O5  1  0.93715000  0.10323000  0.04530000  1.0 -0.5420836102
O  O6  1  0.56285000  0.60815000  0.16608000  1.0 -0.5420836102
O  O7  1  0.55793000  0.39185000  0.95470000  1.0 -0.5420836102
O  O8  1  0.94207000  0.89677000  0.83392000  1.0 -0.5420836102
O  O9  1  0.10039000  0.02433000  0.04560000  1.0 -0.5720696713
O  O10  1  0.39961000  0.44521000  0.92394000  1.0 -0.5720696713
O  O11  1  0.47873000  0.55479000  0.95440000  1.0 -0.5720696713
O  O12  1  0.02127000  0.97567000  0.07606000  1.0 -0.5720696713
O  O13  1  0.89961000  0.97567000  0.95440000  1.0 -0.5720696713
O  O14  1  0.60039000  0.55479000  0.07606000  1.0 -0.5720696713
O  O15  1  0.52127000  0.44521000  0.04560000  1.0 -0.5720696713
O  O16  1  0.97873000  0.02433000  0.92394000  1.0 -0.5720696713
