# DDEC6 charges by PACMAN v1.1 (https://github.com/mtap-research/PACMAN-charge/)
data_XIPBII_FSR_pacman
_symmetry_space_group_name_H-M   'P 1'
_cell_length_a   15.43180000
_cell_length_b   15.43180000
_cell_length_c   15.27640000
_cell_angle_alpha   90.00000000
_cell_angle_beta   90.00000000
_cell_angle_gamma   120.00000000
_symmetry_Int_Tables_number   1
_chemical_formula_structural   Nd2Co3H42C42(NO5)6
_chemical_formula_sum   'Nd4 Co6 H84 C84 N12 O60'
_cell_volume   3150.53874871
_cell_formula_units_Z   2
loop_
 _symmetry_equiv_pos_site_id
 _symmetry_equiv_pos_as_xyz
  1  'x, y, z'
loop_
 _atom_site_type_symbol
 _atom_site_label
 _atom_site_symmetry_multiplicity
 _atom_site_fract_x
 _atom_site_fract_y
 _atom_site_fract_z
 _atom_site_occupancy
 _atom_site_charge
Nd  Nd1  1  0.66666667  0.33333333  0.25000000  1.0 1.8705508802
Nd  Nd2  1  0.33333333  0.66666667  0.25000000  1.0 1.8705508802
Nd  Nd3  1  0.33333333  0.66666667  0.75000000  1.0 1.8705508802
Nd  Nd4  1  0.66666667  0.33333333  0.75000000  1.0 1.8705508802
Co  Co1  1  0.50000000  0.00000000  0.00000000  1.0 1.0251561496
Co  Co2  1  0.00000000  0.50000000  0.00000000  1.0 1.0243626032
Co  Co3  1  0.50000000  0.50000000  0.00000000  1.0 1.0243626032
Co  Co4  1  0.00000000  0.50000000  0.50000000  1.0 1.0243626032
Co  Co5  1  0.50000000  0.00000000  0.50000000  1.0 1.0251561496
Co  Co6  1  0.50000000  0.50000000  0.50000000  1.0 1.0243626032
H  H1  1  0.28710000  0.05300000  0.15560000  1.0 0.1400812057
H  H2  1  0.94700000  0.23410000  0.15560000  1.0 0.1400812057
H  H3  1  0.76590000  0.71290000  0.15560000  1.0 0.1400812057
H  H4  1  0.05300000  0.76590000  0.15560000  1.0 0.1400812057
H  H5  1  0.23410000  0.28710000  0.15560000  1.0 0.1400812057
H  H6  1  0.05300000  0.28710000  0.34440000  1.0 0.1400812057
H  H7  1  0.76590000  0.05300000  0.34440000  1.0 0.1400812057
H  H8  1  0.28710000  0.23410000  0.34440000  1.0 0.1400812057
H  H9  1  0.71290000  0.94700000  0.15560000  1.0 0.1400812057
H  H10  1  0.23410000  0.94700000  0.34440000  1.0 0.1400812057
H  H11  1  0.71290000  0.76590000  0.34440000  1.0 0.1400812057
H  H12  1  0.94700000  0.71290000  0.34440000  1.0 0.1400812057
H  H13  1  0.71290000  0.94700000  0.84440000  1.0 0.1400812057
H  H14  1  0.05300000  0.76590000  0.84440000  1.0 0.1400812057
H  H15  1  0.23410000  0.28710000  0.84440000  1.0 0.1400812057
H  H16  1  0.94700000  0.23410000  0.84440000  1.0 0.1400812057
H  H17  1  0.76590000  0.71290000  0.84440000  1.0 0.1400812057
H  H18  1  0.94700000  0.71290000  0.65560000  1.0 0.1400812057
H  H19  1  0.23410000  0.94700000  0.65560000  1.0 0.1400812057
H  H20  1  0.71290000  0.76590000  0.65560000  1.0 0.1400812057
H  H21  1  0.28710000  0.05300000  0.84440000  1.0 0.1400812057
H  H22  1  0.76590000  0.05300000  0.65560000  1.0 0.1400812057
H  H23  1  0.28710000  0.23410000  0.65560000  1.0 0.1400812057
H  H24  1  0.05300000  0.28710000  0.65560000  1.0 0.1400812057
H  H25  1  0.20000000  0.10000000  0.25000000  1.0 0.1095442418
H  H26  1  0.90000000  0.10000000  0.25000000  1.0 0.1095442418
H  H27  1  0.90000000  0.80000000  0.25000000  1.0 0.1095442418
H  H28  1  0.10000000  0.90000000  0.25000000  1.0 0.1095442418
H  H29  1  0.10000000  0.20000000  0.25000000  1.0 0.1095442418
H  H30  1  0.80000000  0.90000000  0.25000000  1.0 0.1095442418
H  H31  1  0.80000000  0.90000000  0.75000000  1.0 0.1095442418
H  H32  1  0.10000000  0.90000000  0.75000000  1.0 0.1095442418
H  H33  1  0.10000000  0.20000000  0.75000000  1.0 0.1095442418
H  H34  1  0.90000000  0.10000000  0.75000000  1.0 0.1095442418
H  H35  1  0.90000000  0.80000000  0.75000000  1.0 0.1095442418
H  H36  1  0.20000000  0.10000000  0.75000000  1.0 0.1095442418
H  H37  1  0.65550000  0.18200000  0.03330000  1.0 0.1642530287
H  H38  1  0.81800000  0.47350000  0.03330000  1.0 0.1642530287
H  H39  1  0.52650000  0.34450000  0.03330000  1.0 0.1642530287
H  H40  1  0.18200000  0.52650000  0.03330000  1.0 0.1642530287
H  H41  1  0.47350000  0.65550000  0.03330000  1.0 0.1642530287
H  H42  1  0.18200000  0.65550000  0.46670000  1.0 0.1642530287
H  H43  1  0.52650000  0.18200000  0.46670000  1.0 0.1642530287
H  H44  1  0.65550000  0.47350000  0.46670000  1.0 0.1642530287
H  H45  1  0.34450000  0.81800000  0.03330000  1.0 0.1642530287
H  H46  1  0.47350000  0.81800000  0.46670000  1.0 0.1642530287
H  H47  1  0.34450000  0.52650000  0.46670000  1.0 0.1642530287
H  H48  1  0.81800000  0.34450000  0.46670000  1.0 0.1642530287
H  H49  1  0.34450000  0.81800000  0.96670000  1.0 0.1642530287
H  H50  1  0.18200000  0.52650000  0.96670000  1.0 0.1642530287
H  H51  1  0.47350000  0.65550000  0.96670000  1.0 0.1642530287
H  H52  1  0.81800000  0.47350000  0.96670000  1.0 0.1642530287
H  H53  1  0.52650000  0.34450000  0.96670000  1.0 0.1642530287
H  H54  1  0.81800000  0.34450000  0.53330000  1.0 0.1642530287
H  H55  1  0.47350000  0.81800000  0.53330000  1.0 0.1642530287
H  H56  1  0.34450000  0.52650000  0.53330000  1.0 0.1642530287
H  H57  1  0.65550000  0.18200000  0.96670000  1.0 0.1642530287
H  H58  1  0.52650000  0.18200000  0.53330000  1.0 0.1642530287
H  H59  1  0.65550000  0.47350000  0.53330000  1.0 0.1642530287
H  H60  1  0.18200000  0.65550000  0.53330000  1.0 0.1642530287
H  H61  1  0.69050000  0.13740000  0.96670000  1.0 0.1290107053
H  H62  1  0.86260000  0.55310000  0.96670000  1.0 0.1290107053
H  H63  1  0.44690000  0.30950000  0.96670000  1.0 0.1290107053
H  H64  1  0.13740000  0.44690000  0.96670000  1.0 0.1290107053
H  H65  1  0.55310000  0.69050000  0.96670000  1.0 0.1290107053
H  H66  1  0.13740000  0.69050000  0.53330000  1.0 0.1290107053
H  H67  1  0.44690000  0.13740000  0.53330000  1.0 0.1290107053
H  H68  1  0.69050000  0.55310000  0.53330000  1.0 0.1290107053
H  H69  1  0.30950000  0.86260000  0.96670000  1.0 0.1290107053
H  H70  1  0.55310000  0.86260000  0.53330000  1.0 0.1290107053
H  H71  1  0.30950000  0.44690000  0.53330000  1.0 0.1290107053
H  H72  1  0.86260000  0.30950000  0.53330000  1.0 0.1290107053
H  H73  1  0.30950000  0.86260000  0.03330000  1.0 0.1290107053
H  H74  1  0.13740000  0.44690000  0.03330000  1.0 0.1290107053
H  H75  1  0.55310000  0.69050000  0.03330000  1.0 0.1290107053
H  H76  1  0.86260000  0.55310000  0.03330000  1.0 0.1290107053
H  H77  1  0.44690000  0.30950000  0.03330000  1.0 0.1290107053
H  H78  1  0.86260000  0.30950000  0.46670000  1.0 0.1290107053
H  H79  1  0.55310000  0.86260000  0.46670000  1.0 0.1290107053
H  H80  1  0.30950000  0.44690000  0.46670000  1.0 0.1290107053
H  H81  1  0.69050000  0.13740000  0.03330000  1.0 0.1290107053
H  H82  1  0.44690000  0.13740000  0.46670000  1.0 0.1290107053
H  H83  1  0.69050000  0.55310000  0.46670000  1.0 0.1290107053
H  H84  1  0.13740000  0.69050000  0.46670000  1.0 0.1290107053
C  C1  1  0.48850000  0.13500000  0.13880000  1.0 0.5519180018
C  C2  1  0.86500000  0.35350000  0.13880000  1.0 0.5519180018
C  C3  1  0.64650000  0.51150000  0.13880000  1.0 0.5519180018
C  C4  1  0.13500000  0.64650000  0.13880000  1.0 0.5519180018
C  C5  1  0.35350000  0.48850000  0.13880000  1.0 0.5519180018
C  C6  1  0.13500000  0.48850000  0.36120000  1.0 0.5519180018
C  C7  1  0.64650000  0.13500000  0.36120000  1.0 0.5519180018
C  C8  1  0.48850000  0.35350000  0.36120000  1.0 0.5519180018
C  C9  1  0.51150000  0.86500000  0.13880000  1.0 0.5519180018
C  C10  1  0.35350000  0.86500000  0.36120000  1.0 0.5519180018
C  C11  1  0.51150000  0.64650000  0.36120000  1.0 0.5519180018
C  C12  1  0.86500000  0.51150000  0.36120000  1.0 0.5519180018
C  C13  1  0.51150000  0.86500000  0.86120000  1.0 0.5519180018
C  C14  1  0.13500000  0.64650000  0.86120000  1.0 0.5519180018
C  C15  1  0.35350000  0.48850000  0.86120000  1.0 0.5519180018
C  C16  1  0.86500000  0.35350000  0.86120000  1.0 0.5519180018
C  C17  1  0.64650000  0.51150000  0.86120000  1.0 0.5519180018
C  C18  1  0.86500000  0.51150000  0.63880000  1.0 0.5519180018
C  C19  1  0.35350000  0.86500000  0.63880000  1.0 0.5519180018
C  C20  1  0.51150000  0.64650000  0.63880000  1.0 0.5519180018
C  C21  1  0.48850000  0.13500000  0.86120000  1.0 0.5519180018
C  C22  1  0.64650000  0.13500000  0.63880000  1.0 0.5519180018
C  C23  1  0.48850000  0.35350000  0.63880000  1.0 0.5519180018
C  C24  1  0.13500000  0.48850000  0.63880000  1.0 0.5519180018
C  C25  1  0.42460000  0.15960000  0.19660000  1.0 0.1290107053
C  C26  1  0.84040000  0.26500000  0.19660000  1.0 0.1290107053
C  C27  1  0.73500000  0.57540000  0.19660000  1.0 0.1290107053
C  C28  1  0.15960000  0.73500000  0.19660000  1.0 0.1290107053
C  C29  1  0.26500000  0.42460000  0.19660000  1.0 0.1290107053
C  C30  1  0.15960000  0.42460000  0.30340000  1.0 0.1290107053
C  C31  1  0.73500000  0.15960000  0.30340000  1.0 0.1290107053
C  C32  1  0.42460000  0.26500000  0.30340000  1.0 0.1290107053
C  C33  1  0.57540000  0.84040000  0.19660000  1.0 0.1290107053
C  C34  1  0.26500000  0.84040000  0.30340000  1.0 0.1290107053
C  C35  1  0.57540000  0.73500000  0.30340000  1.0 0.1290107053
C  C36  1  0.84040000  0.57540000  0.30340000  1.0 0.1290107053
C  C37  1  0.57540000  0.84040000  0.80340000  1.0 0.1290107053
C  C38  1  0.15960000  0.73500000  0.80340000  1.0 0.1290107053
C  C39  1  0.26500000  0.42460000  0.80340000  1.0 0.1290107053
C  C40  1  0.84040000  0.26500000  0.80340000  1.0 0.1290107053
C  C41  1  0.73500000  0.57540000  0.80340000  1.0 0.1290107053
C  C42  1  0.84040000  0.57540000  0.69660000  1.0 0.1290107053
C  C43  1  0.26500000  0.84040000  0.69660000  1.0 0.1290107053
C  C44  1  0.57540000  0.73500000  0.69660000  1.0 0.1290107053
C  C45  1  0.42460000  0.15960000  0.80340000  1.0 0.1290107053
C  C46  1  0.73500000  0.15960000  0.69660000  1.0 0.1290107053
C  C47  1  0.42460000  0.26500000  0.69660000  1.0 0.1290107053
C  C48  1  0.15960000  0.42460000  0.69660000  1.0 0.1290107053
C  C49  1  0.32100000  0.10640000  0.19400000  1.0 -0.1441144528
C  C50  1  0.89360000  0.21460000  0.19400000  1.0 -0.1441144528
C  C51  1  0.78540000  0.67900000  0.19400000  1.0 -0.1441144528
C  C52  1  0.10640000  0.78540000  0.19400000  1.0 -0.1441144528
C  C53  1  0.21460000  0.32100000  0.19400000  1.0 -0.1441144528
C  C54  1  0.10640000  0.32100000  0.30600000  1.0 -0.1441144528
C  C55  1  0.78540000  0.10640000  0.30600000  1.0 -0.1441144528
C  C56  1  0.32100000  0.21460000  0.30600000  1.0 -0.1441144528
C  C57  1  0.67900000  0.89360000  0.19400000  1.0 -0.1441144528
C  C58  1  0.21460000  0.89360000  0.30600000  1.0 -0.1441144528
C  C59  1  0.67900000  0.78540000  0.30600000  1.0 -0.1441144528
C  C60  1  0.89360000  0.67900000  0.30600000  1.0 -0.1441144528
C  C61  1  0.67900000  0.89360000  0.80600000  1.0 -0.1441144528
C  C62  1  0.10640000  0.78540000  0.80600000  1.0 -0.1441144528
C  C63  1  0.21460000  0.32100000  0.80600000  1.0 -0.1441144528
C  C64  1  0.89360000  0.21460000  0.80600000  1.0 -0.1441144528
C  C65  1  0.78540000  0.67900000  0.80600000  1.0 -0.1441144528
C  C66  1  0.89360000  0.67900000  0.69400000  1.0 -0.1441144528
C  C67  1  0.21460000  0.89360000  0.69400000  1.0 -0.1441144528
C  C68  1  0.67900000  0.78540000  0.69400000  1.0 -0.1441144528
C  C69  1  0.32100000  0.10640000  0.80600000  1.0 -0.1441144528
C  C70  1  0.78540000  0.10640000  0.69400000  1.0 -0.1441144528
C  C71  1  0.32100000  0.21460000  0.69400000  1.0 -0.1441144528
C  C72  1  0.10640000  0.32100000  0.69400000  1.0 -0.1441144528
C  C73  1  0.26960000  0.13480000  0.25000000  1.0 -0.0623146575
C  C74  1  0.86520000  0.13480000  0.25000000  1.0 -0.0623146575
C  C75  1  0.86520000  0.73040000  0.25000000  1.0 -0.0623146575
C  C76  1  0.13480000  0.86520000  0.25000000  1.0 -0.0623146575
C  C77  1  0.13480000  0.26960000  0.25000000  1.0 -0.0623146575
C  C78  1  0.73040000  0.86520000  0.25000000  1.0 -0.0623146575
C  C79  1  0.73040000  0.86520000  0.75000000  1.0 -0.0623146575
C  C80  1  0.13480000  0.86520000  0.75000000  1.0 -0.0623146575
C  C81  1  0.13480000  0.26960000  0.75000000  1.0 -0.0623146575
C  C82  1  0.86520000  0.13480000  0.75000000  1.0 -0.0623146575
C  C83  1  0.86520000  0.73040000  0.75000000  1.0 -0.0623146575
C  C84  1  0.26960000  0.13480000  0.75000000  1.0 -0.0623146575
N  N1  1  0.47510000  0.23755000  0.25000000  1.0 -0.3541444745
N  N2  1  0.76245000  0.23755000  0.25000000  1.0 -0.3541444745
N  N3  1  0.76245000  0.52490000  0.25000000  1.0 -0.3541444745
N  N4  1  0.23755000  0.76245000  0.25000000  1.0 -0.3541444745
N  N5  1  0.23755000  0.47510000  0.25000000  1.0 -0.3541444745
N  N6  1  0.52490000  0.76245000  0.25000000  1.0 -0.3541444745
N  N7  1  0.52490000  0.76245000  0.75000000  1.0 -0.3541444745
N  N8  1  0.23755000  0.76245000  0.75000000  1.0 -0.3541444745
N  N9  1  0.23755000  0.47510000  0.75000000  1.0 -0.3541444745
N  N10  1  0.76245000  0.23755000  0.75000000  1.0 -0.3541444745
N  N11  1  0.76245000  0.52490000  0.75000000  1.0 -0.3541444745
N  N12  1  0.47510000  0.23755000  0.75000000  1.0 -0.3541444745
O  O1  1  0.58260000  0.19600000  0.14150000  1.0 -0.6049118545
O  O2  1  0.80400000  0.38660000  0.14150000  1.0 -0.6049118545
O  O3  1  0.61340000  0.41740000  0.14150000  1.0 -0.6053280141
O  O4  1  0.19600000  0.61340000  0.14150000  1.0 -0.6053280141
O  O5  1  0.38660000  0.58260000  0.14150000  1.0 -0.6053280141
O  O6  1  0.19600000  0.58260000  0.35850000  1.0 -0.6049118545
O  O7  1  0.61340000  0.19600000  0.35850000  1.0 -0.6053280141
O  O8  1  0.58260000  0.38660000  0.35850000  1.0 -0.6053280141
O  O9  1  0.41740000  0.80400000  0.14150000  1.0 -0.6053280141
O  O10  1  0.38660000  0.80400000  0.35850000  1.0 -0.6053280141
O  O11  1  0.41740000  0.61340000  0.35850000  1.0 -0.6053280141
O  O12  1  0.80400000  0.41740000  0.35850000  1.0 -0.6053280141
O  O13  1  0.41740000  0.80400000  0.85850000  1.0 -0.6053280141
O  O14  1  0.19600000  0.61340000  0.85850000  1.0 -0.6053280141
O  O15  1  0.38660000  0.58260000  0.85850000  1.0 -0.6053280141
O  O16  1  0.80400000  0.38660000  0.85850000  1.0 -0.6049118545
O  O17  1  0.61340000  0.41740000  0.85850000  1.0 -0.6053280141
O  O18  1  0.80400000  0.41740000  0.64150000  1.0 -0.6053280141
O  O19  1  0.38660000  0.80400000  0.64150000  1.0 -0.6053280141
O  O20  1  0.41740000  0.61340000  0.64150000  1.0 -0.6053280141
O  O21  1  0.58260000  0.19600000  0.85850000  1.0 -0.6049118545
O  O22  1  0.61340000  0.19600000  0.64150000  1.0 -0.6053280141
O  O23  1  0.58260000  0.38660000  0.64150000  1.0 -0.6053280141
O  O24  1  0.19600000  0.58260000  0.64150000  1.0 -0.6049118545
O  O25  1  0.44540000  0.05800000  0.09400000  1.0 -0.5318106916
O  O26  1  0.94200000  0.38740000  0.09400000  1.0 -0.5318106916
O  O27  1  0.61260000  0.55460000  0.09400000  1.0 -0.5318106916
O  O28  1  0.05800000  0.61260000  0.09400000  1.0 -0.5318106916
O  O29  1  0.38740000  0.44540000  0.09400000  1.0 -0.5318106916
O  O30  1  0.05800000  0.44540000  0.40600000  1.0 -0.5318106916
O  O31  1  0.61260000  0.05800000  0.40600000  1.0 -0.5318106916
O  O32  1  0.44540000  0.38740000  0.40600000  1.0 -0.5318106916
O  O33  1  0.55460000  0.94200000  0.09400000  1.0 -0.5318106916
O  O34  1  0.38740000  0.94200000  0.40600000  1.0 -0.5318106916
O  O35  1  0.55460000  0.61260000  0.40600000  1.0 -0.5318106916
O  O36  1  0.94200000  0.55460000  0.40600000  1.0 -0.5318106916
O  O37  1  0.55460000  0.94200000  0.90600000  1.0 -0.5318106916
O  O38  1  0.05800000  0.61260000  0.90600000  1.0 -0.5318106916
O  O39  1  0.38740000  0.44540000  0.90600000  1.0 -0.5318106916
O  O40  1  0.94200000  0.38740000  0.90600000  1.0 -0.5318106916
O  O41  1  0.61260000  0.55460000  0.90600000  1.0 -0.5318106916
O  O42  1  0.94200000  0.55460000  0.59400000  1.0 -0.5318106916
O  O43  1  0.38740000  0.94200000  0.59400000  1.0 -0.5318106916
O  O44  1  0.55460000  0.61260000  0.59400000  1.0 -0.5318106916
O  O45  1  0.44540000  0.05800000  0.90600000  1.0 -0.5318106916
O  O46  1  0.61260000  0.05800000  0.59400000  1.0 -0.5318106916
O  O47  1  0.44540000  0.38740000  0.59400000  1.0 -0.5318106916
O  O48  1  0.05800000  0.44540000  0.59400000  1.0 -0.5318106916
O  O49  1  0.64450000  0.13330000  0.00000000  1.0 -0.4946240392
O  O50  1  0.86670000  0.51120000  0.00000000  1.0 -0.4946240392
O  O51  1  0.48880000  0.35550000  0.00000000  1.0 -0.4946240392
O  O52  1  0.13330000  0.48880000  0.00000000  1.0 -0.4955508616
O  O53  1  0.51120000  0.64450000  0.00000000  1.0 -0.4955508616
O  O54  1  0.13330000  0.64450000  0.50000000  1.0 -0.4955508616
O  O55  1  0.48880000  0.13330000  0.50000000  1.0 -0.4955508616
O  O56  1  0.64450000  0.51120000  0.50000000  1.0 -0.4946240392
O  O57  1  0.35550000  0.86670000  0.00000000  1.0 -0.4955508616
O  O58  1  0.51120000  0.86670000  0.50000000  1.0 -0.4955508616
O  O59  1  0.35550000  0.48880000  0.50000000  1.0 -0.4955508616
O  O60  1  0.86670000  0.35550000  0.50000000  1.0 -0.4946240392
