# DDEC6 charges by PACMAN v1.1 (https://github.com/mtap-research/PACMAN-charge/)
data_XIPBOO_ASR_pacman
_symmetry_space_group_name_H-M   'P 1'
_cell_length_a   15.21200000
_cell_length_b   15.21200000
_cell_length_c   15.45100000
_cell_angle_alpha   90.00000000
_cell_angle_beta   90.00000000
_cell_angle_gamma   120.00000000
_symmetry_Int_Tables_number   1
_chemical_formula_structural   Gd2Co3H18C42(NO4)6
_chemical_formula_sum   'Gd4 Co6 H36 C84 N12 O48'
_cell_volume   3096.41995557
_cell_formula_units_Z   2
loop_
 _symmetry_equiv_pos_site_id
 _symmetry_equiv_pos_as_xyz
  1  'x, y, z'
loop_
 _atom_site_type_symbol
 _atom_site_label
 _atom_site_symmetry_multiplicity
 _atom_site_fract_x
 _atom_site_fract_y
 _atom_site_fract_z
 _atom_site_occupancy
 _atom_site_charge
Gd  Gd1  1  0.33333333  0.66666667  0.25000000  1.0 1.7772509764
Gd  Gd2  1  0.66666667  0.33333333  0.25000000  1.0 1.7772509764
Gd  Gd3  1  0.66666667  0.33333333  0.75000000  1.0 1.7772509764
Gd  Gd4  1  0.33333333  0.66666667  0.75000000  1.0 1.7772509764
Co  Co1  1  0.50000000  0.00000000  0.00000000  1.0 1.0610438993
Co  Co2  1  0.00000000  0.50000000  0.00000000  1.0 1.0610438993
Co  Co3  1  0.50000000  0.50000000  0.00000000  1.0 1.0610438993
Co  Co4  1  0.00000000  0.50000000  0.50000000  1.0 1.0610438993
Co  Co5  1  0.50000000  0.00000000  0.50000000  1.0 1.0610438993
Co  Co6  1  0.50000000  0.50000000  0.50000000  1.0 1.0610438993
H  H1  1  0.23307000  0.94690000  0.15480000  1.0 0.1364021454
H  H2  1  0.05310000  0.28617000  0.15480000  1.0 0.1364021454
H  H3  1  0.71383000  0.76693000  0.15480000  1.0 0.1364021454
H  H4  1  0.94690000  0.71383000  0.15480000  1.0 0.1364021454
H  H5  1  0.28617000  0.23307000  0.15480000  1.0 0.1364021454
H  H6  1  0.94690000  0.23307000  0.34520000  1.0 0.1364021454
H  H7  1  0.71383000  0.94690000  0.34520000  1.0 0.1364021454
H  H8  1  0.23307000  0.28617000  0.34520000  1.0 0.1364021454
H  H9  1  0.76693000  0.05310000  0.15480000  1.0 0.1364021454
H  H10  1  0.28617000  0.05310000  0.34520000  1.0 0.1364021454
H  H11  1  0.76693000  0.71383000  0.34520000  1.0 0.1364021454
H  H12  1  0.05310000  0.76693000  0.34520000  1.0 0.1364021454
H  H13  1  0.76693000  0.05310000  0.84520000  1.0 0.1364021454
H  H14  1  0.94690000  0.71383000  0.84520000  1.0 0.1364021454
H  H15  1  0.28617000  0.23307000  0.84520000  1.0 0.1364021454
H  H16  1  0.05310000  0.28617000  0.84520000  1.0 0.1364021454
H  H17  1  0.71383000  0.76693000  0.84520000  1.0 0.1364021454
H  H18  1  0.05310000  0.76693000  0.65480000  1.0 0.1364021454
H  H19  1  0.28617000  0.05310000  0.65480000  1.0 0.1364021454
H  H20  1  0.76693000  0.71383000  0.65480000  1.0 0.1364021454
H  H21  1  0.23307000  0.94690000  0.84520000  1.0 0.1364021454
H  H22  1  0.71383000  0.94690000  0.65480000  1.0 0.1364021454
H  H23  1  0.23307000  0.28617000  0.65480000  1.0 0.1364021454
H  H24  1  0.94690000  0.23307000  0.65480000  1.0 0.1364021454
H  H25  1  0.09903000  0.90097000  0.25000000  1.0 0.1060233518
H  H26  1  0.09903000  0.19807000  0.25000000  1.0 0.1060233518
H  H27  1  0.80193000  0.90097000  0.25000000  1.0 0.1060233518
H  H28  1  0.90097000  0.80193000  0.25000000  1.0 0.1060233518
H  H29  1  0.19807000  0.09903000  0.25000000  1.0 0.1060233518
H  H30  1  0.90097000  0.09903000  0.25000000  1.0 0.1060233518
H  H31  1  0.90097000  0.09903000  0.75000000  1.0 0.1060233518
H  H32  1  0.90097000  0.80193000  0.75000000  1.0 0.1060233518
H  H33  1  0.19807000  0.09903000  0.75000000  1.0 0.1060233518
H  H34  1  0.09903000  0.19807000  0.75000000  1.0 0.1060233518
H  H35  1  0.80193000  0.90097000  0.75000000  1.0 0.1060233518
H  H36  1  0.09903000  0.90097000  0.75000000  1.0 0.1060233518
C  C1  1  0.35457000  0.86340000  0.13890000  1.0 0.5734934395
C  C2  1  0.13660000  0.49117000  0.13890000  1.0 0.5734934395
C  C3  1  0.50883000  0.64543000  0.13890000  1.0 0.5734934395
C  C4  1  0.86340000  0.50883000  0.13890000  1.0 0.5734934395
C  C5  1  0.49117000  0.35457000  0.13890000  1.0 0.5734934395
C  C6  1  0.86340000  0.35457000  0.36110000  1.0 0.5734934395
C  C7  1  0.50883000  0.86340000  0.36110000  1.0 0.5734934395
C  C8  1  0.35457000  0.49117000  0.36110000  1.0 0.5734934395
C  C9  1  0.64543000  0.13660000  0.13890000  1.0 0.5734934395
C  C10  1  0.49117000  0.13660000  0.36110000  1.0 0.5734934395
C  C11  1  0.64543000  0.50883000  0.36110000  1.0 0.5734934395
C  C12  1  0.13660000  0.64543000  0.36110000  1.0 0.5734934395
C  C13  1  0.64543000  0.13660000  0.86110000  1.0 0.5734934395
C  C14  1  0.86340000  0.50883000  0.86110000  1.0 0.5734934395
C  C15  1  0.49117000  0.35457000  0.86110000  1.0 0.5734934395
C  C16  1  0.13660000  0.49117000  0.86110000  1.0 0.5734934395
C  C17  1  0.50883000  0.64543000  0.86110000  1.0 0.5734934395
C  C18  1  0.13660000  0.64543000  0.63890000  1.0 0.5734934395
C  C19  1  0.49117000  0.13660000  0.63890000  1.0 0.5734934395
C  C20  1  0.64543000  0.50883000  0.63890000  1.0 0.5734934395
C  C21  1  0.35457000  0.86340000  0.86110000  1.0 0.5734934395
C  C22  1  0.50883000  0.86340000  0.63890000  1.0 0.5734934395
C  C23  1  0.35457000  0.49117000  0.63890000  1.0 0.5734934395
C  C24  1  0.86340000  0.35457000  0.63890000  1.0 0.5734934395
C  C25  1  0.26537000  0.83930000  0.19600000  1.0 0.1364021454
C  C26  1  0.16070000  0.42607000  0.19600000  1.0 0.1364021454
C  C27  1  0.57393000  0.73463000  0.19600000  1.0 0.1364021454
C  C28  1  0.83930000  0.57393000  0.19600000  1.0 0.1364021454
C  C29  1  0.42607000  0.26537000  0.19600000  1.0 0.1364021454
C  C30  1  0.83930000  0.26537000  0.30400000  1.0 0.1364021454
C  C31  1  0.57393000  0.83930000  0.30400000  1.0 0.1364021454
C  C32  1  0.26537000  0.42607000  0.30400000  1.0 0.1364021454
C  C33  1  0.73463000  0.16070000  0.19600000  1.0 0.1364021454
C  C34  1  0.42607000  0.16070000  0.30400000  1.0 0.1364021454
C  C35  1  0.73463000  0.57393000  0.30400000  1.0 0.1364021454
C  C36  1  0.16070000  0.73463000  0.30400000  1.0 0.1364021454
C  C37  1  0.73463000  0.16070000  0.80400000  1.0 0.1364021454
C  C38  1  0.83930000  0.57393000  0.80400000  1.0 0.1364021454
C  C39  1  0.42607000  0.26537000  0.80400000  1.0 0.1364021454
C  C40  1  0.16070000  0.42607000  0.80400000  1.0 0.1364021454
C  C41  1  0.57393000  0.73463000  0.80400000  1.0 0.1364021454
C  C42  1  0.16070000  0.73463000  0.69600000  1.0 0.1364021454
C  C43  1  0.42607000  0.16070000  0.69600000  1.0 0.1364021454
C  C44  1  0.73463000  0.57393000  0.69600000  1.0 0.1364021454
C  C45  1  0.26537000  0.83930000  0.80400000  1.0 0.1364021454
C  C46  1  0.57393000  0.83930000  0.69600000  1.0 0.1364021454
C  C47  1  0.26537000  0.42607000  0.69600000  1.0 0.1364021454
C  C48  1  0.83930000  0.26537000  0.69600000  1.0 0.1364021454
C  C49  1  0.21417000  0.89350000  0.19350000  1.0 -0.1352164586
C  C50  1  0.10650000  0.32067000  0.19350000  1.0 -0.1345705528
C  C51  1  0.67933000  0.78583000  0.19350000  1.0 -0.1345705528
C  C52  1  0.89350000  0.67933000  0.19350000  1.0 -0.1345705528
C  C53  1  0.32067000  0.21417000  0.19350000  1.0 -0.1345705528
C  C54  1  0.89350000  0.21417000  0.30650000  1.0 -0.1345705528
C  C55  1  0.67933000  0.89350000  0.30650000  1.0 -0.1345705528
C  C56  1  0.21417000  0.32067000  0.30650000  1.0 -0.1345705528
C  C57  1  0.78583000  0.10650000  0.19350000  1.0 -0.1345705528
C  C58  1  0.32067000  0.10650000  0.30650000  1.0 -0.1345705528
C  C59  1  0.78583000  0.67933000  0.30650000  1.0 -0.1345705528
C  C60  1  0.10650000  0.78583000  0.30650000  1.0 -0.1352164586
C  C61  1  0.78583000  0.10650000  0.80650000  1.0 -0.1345705528
C  C62  1  0.89350000  0.67933000  0.80650000  1.0 -0.1345705528
C  C63  1  0.32067000  0.21417000  0.80650000  1.0 -0.1345705528
C  C64  1  0.10650000  0.32067000  0.80650000  1.0 -0.1345705528
C  C65  1  0.67933000  0.78583000  0.80650000  1.0 -0.1345705528
C  C66  1  0.10650000  0.78583000  0.69350000  1.0 -0.1345705528
C  C67  1  0.32067000  0.10650000  0.69350000  1.0 -0.1345705528
C  C68  1  0.78583000  0.67933000  0.69350000  1.0 -0.1345705528
C  C69  1  0.21417000  0.89350000  0.80650000  1.0 -0.1352164586
C  C70  1  0.67933000  0.89350000  0.69350000  1.0 -0.1345705528
C  C71  1  0.21417000  0.32067000  0.69350000  1.0 -0.1345705528
C  C72  1  0.89350000  0.21417000  0.69350000  1.0 -0.1345705528
C  C73  1  0.13433000  0.86567000  0.25000000  1.0 -0.0631834618
C  C74  1  0.13433000  0.26867000  0.25000000  1.0 -0.0631834618
C  C75  1  0.73133000  0.86567000  0.25000000  1.0 -0.0631834618
C  C76  1  0.86567000  0.73133000  0.25000000  1.0 -0.0631834618
C  C77  1  0.26867000  0.13433000  0.25000000  1.0 -0.0631834618
C  C78  1  0.86567000  0.13433000  0.25000000  1.0 -0.0631834618
C  C79  1  0.86567000  0.13433000  0.75000000  1.0 -0.0631834618
C  C80  1  0.86567000  0.73133000  0.75000000  1.0 -0.0631834618
C  C81  1  0.26867000  0.13433000  0.75000000  1.0 -0.0631834618
C  C82  1  0.13433000  0.26867000  0.75000000  1.0 -0.0631834618
C  C83  1  0.73133000  0.86567000  0.75000000  1.0 -0.0631834618
C  C84  1  0.13433000  0.86567000  0.75000000  1.0 -0.0631834618
N  N1  1  0.23875000  0.76125000  0.25000000  1.0 -0.3201519191
N  N2  1  0.23875000  0.47751000  0.25000000  1.0 -0.3201519191
N  N3  1  0.52249000  0.76125000  0.25000000  1.0 -0.3201519191
N  N4  1  0.76125000  0.52249000  0.25000000  1.0 -0.3201519191
N  N5  1  0.47751000  0.23875000  0.25000000  1.0 -0.3201519191
N  N6  1  0.76125000  0.23875000  0.25000000  1.0 -0.3201519191
N  N7  1  0.76125000  0.23875000  0.75000000  1.0 -0.3201519191
N  N8  1  0.76125000  0.52249000  0.75000000  1.0 -0.3201519191
N  N9  1  0.47751000  0.23875000  0.75000000  1.0 -0.3201519191
N  N10  1  0.23875000  0.47751000  0.75000000  1.0 -0.3201519191
N  N11  1  0.52249000  0.76125000  0.75000000  1.0 -0.3201519191
N  N12  1  0.23875000  0.76125000  0.75000000  1.0 -0.3201519191
O  O1  1  0.38855000  0.80232000  0.14294000  1.0 -0.5834185023
O  O2  1  0.19768000  0.58623000  0.14294000  1.0 -0.5834185023
O  O3  1  0.41377000  0.61145000  0.14294000  1.0 -0.5834185023
O  O4  1  0.80232000  0.41377000  0.14294000  1.0 -0.5834185023
O  O5  1  0.58623000  0.38855000  0.14294000  1.0 -0.5834185023
O  O6  1  0.80232000  0.38855000  0.35706000  1.0 -0.5834185023
O  O7  1  0.41377000  0.80232000  0.35706000  1.0 -0.5834185023
O  O8  1  0.38855000  0.58623000  0.35706000  1.0 -0.5834185023
O  O9  1  0.61145000  0.19768000  0.14294000  1.0 -0.5834185023
O  O10  1  0.58623000  0.19768000  0.35706000  1.0 -0.5834185023
O  O11  1  0.61145000  0.41377000  0.35706000  1.0 -0.5834185023
O  O12  1  0.19768000  0.61145000  0.35706000  1.0 -0.5834185023
O  O13  1  0.61145000  0.19768000  0.85706000  1.0 -0.5834185023
O  O14  1  0.80232000  0.41377000  0.85706000  1.0 -0.5834185023
O  O15  1  0.58623000  0.38855000  0.85706000  1.0 -0.5834185023
O  O16  1  0.19768000  0.58623000  0.85706000  1.0 -0.5834185023
O  O17  1  0.41377000  0.61145000  0.85706000  1.0 -0.5834185023
O  O18  1  0.19768000  0.61145000  0.64294000  1.0 -0.5834185023
O  O19  1  0.58623000  0.19768000  0.64294000  1.0 -0.5834185023
O  O20  1  0.61145000  0.41377000  0.64294000  1.0 -0.5834185023
O  O21  1  0.38855000  0.80232000  0.85706000  1.0 -0.5834185023
O  O22  1  0.41377000  0.80232000  0.64294000  1.0 -0.5834185023
O  O23  1  0.38855000  0.58623000  0.64294000  1.0 -0.5834185023
O  O24  1  0.80232000  0.38855000  0.64294000  1.0 -0.5834185023
O  O25  1  0.38657000  0.93980000  0.09282000  1.0 -0.5510413934
O  O26  1  0.06020000  0.44677000  0.09282000  1.0 -0.5510413934
O  O27  1  0.55323000  0.61343000  0.09282000  1.0 -0.5510413934
O  O28  1  0.93980000  0.55323000  0.09282000  1.0 -0.5510413934
O  O29  1  0.44677000  0.38657000  0.09282000  1.0 -0.5510413934
O  O30  1  0.93980000  0.38657000  0.40718000  1.0 -0.5510413934
O  O31  1  0.55323000  0.93980000  0.40718000  1.0 -0.5510413934
O  O32  1  0.38657000  0.44677000  0.40718000  1.0 -0.5510413934
O  O33  1  0.61343000  0.06020000  0.09282000  1.0 -0.5510413934
O  O34  1  0.44677000  0.06020000  0.40718000  1.0 -0.5510413934
O  O35  1  0.61343000  0.55323000  0.40718000  1.0 -0.5510413934
O  O36  1  0.06020000  0.61343000  0.40718000  1.0 -0.5510413934
O  O37  1  0.61343000  0.06020000  0.90718000  1.0 -0.5510413934
O  O38  1  0.93980000  0.55323000  0.90718000  1.0 -0.5510413934
O  O39  1  0.44677000  0.38657000  0.90718000  1.0 -0.5510413934
O  O40  1  0.06020000  0.44677000  0.90718000  1.0 -0.5510413934
O  O41  1  0.55323000  0.61343000  0.90718000  1.0 -0.5510413934
O  O42  1  0.06020000  0.61343000  0.59282000  1.0 -0.5510413934
O  O43  1  0.44677000  0.06020000  0.59282000  1.0 -0.5510413934
O  O44  1  0.61343000  0.55323000  0.59282000  1.0 -0.5510413934
O  O45  1  0.38657000  0.93980000  0.90718000  1.0 -0.5510413934
O  O46  1  0.55323000  0.93980000  0.59282000  1.0 -0.5510413934
O  O47  1  0.38657000  0.44677000  0.59282000  1.0 -0.5510413934
O  O48  1  0.93980000  0.38657000  0.59282000  1.0 -0.5510413934
