# DDEC6 charges by PACMAN v1.1 (https://github.com/mtap-research/PACMAN-charge/)
data_XIQYUU_FSR_pacman
_symmetry_space_group_name_H-M   'P 1'
_cell_length_a   23.06670000
_cell_length_b   26.70470000
_cell_length_c   44.62660000
_cell_angle_alpha   90.00000000
_cell_angle_beta   90.00000000
_cell_angle_gamma   90.00000000
_symmetry_Int_Tables_number   1
_chemical_formula_structural   Mn6P3H69C130NO41F12
_chemical_formula_sum   'Mn24 P12 H276 C520 N4 O164 F48'
_cell_volume   27489.50825113
_cell_formula_units_Z   4
loop_
 _symmetry_equiv_pos_site_id
 _symmetry_equiv_pos_as_xyz
  1  'x, y, z'
loop_
 _atom_site_type_symbol
 _atom_site_label
 _atom_site_symmetry_multiplicity
 _atom_site_fract_x
 _atom_site_fract_y
 _atom_site_fract_z
 _atom_site_occupancy
 _atom_site_charge
Mn  Mn1  1  0.14820000  0.18103000  0.42090000  1.0 1.159099124
Mn  Mn2  1  0.33767000  0.52524000  0.18858000  1.0 1.0490442735
Mn  Mn3  1  0.32949000  0.18825000  0.42025000  1.0 1.1200476509
Mn  Mn4  1  0.49397000  0.75253000  0.76450000  1.0 1.1395813149
Mn  Mn5  1  0.51190000  0.51983000  0.18671000  1.0 1.0909145993
Mn  Mn6  1  0.32576000  0.25106000  0.73440000  1.0 1.0909145993
Mn  Mn7  1  0.35180000  0.81897000  0.92090000  1.0 1.159099124
Mn  Mn8  1  0.16233000  0.47476000  0.68858000  1.0 1.0490442735
Mn  Mn9  1  0.17051000  0.81175000  0.92025000  1.0 1.1200476509
Mn  Mn10  1  0.00603000  0.24747000  0.26450000  1.0 1.1395813149
Mn  Mn11  1  0.98810000  0.48017000  0.68671000  1.0 1.0909145993
Mn  Mn12  1  0.17424000  0.74894000  0.23440000  1.0 1.0909145993
Mn  Mn13  1  0.85180000  0.68103000  0.07910000  1.0 1.159099124
Mn  Mn14  1  0.66233000  0.02524000  0.31142000  1.0 1.0490442735
Mn  Mn15  1  0.67051000  0.68825000  0.07975000  1.0 1.1200476509
Mn  Mn16  1  0.50603000  0.25253000  0.73550000  1.0 1.1395813149
Mn  Mn17  1  0.48810000  0.01983000  0.31329000  1.0 1.0909145993
Mn  Mn18  1  0.67424000  0.75106000  0.76560000  1.0 1.0909145993
Mn  Mn19  1  0.64820000  0.31897000  0.57910000  1.0 1.159099124
Mn  Mn20  1  0.83767000  0.97476000  0.81142000  1.0 1.0490442735
Mn  Mn21  1  0.82949000  0.31175000  0.57975000  1.0 1.1200476509
Mn  Mn22  1  0.99397000  0.74747000  0.23550000  1.0 1.1395813149
Mn  Mn23  1  0.01190000  0.98017000  0.81329000  1.0 1.0909145993
Mn  Mn24  1  0.82576000  0.24894000  0.26560000  1.0 1.0909145993
P  P1  1  0.23902000  0.21721000  0.47682000  1.0 1.4602605821
P  P2  1  0.58694000  0.67846000  0.72622000  1.0 1.4730462652
P  P3  1  0.41707000  0.42992000  0.20956000  1.0 1.4546207708
P  P4  1  0.26098000  0.78279000  0.97682000  1.0 1.4602605821
P  P5  1  0.91306000  0.32154000  0.22622000  1.0 1.4730462652
P  P6  1  0.08293000  0.57008000  0.70956000  1.0 1.4546207708
P  P7  1  0.76098000  0.71721000  0.02318000  1.0 1.4602605821
P  P8  1  0.41306000  0.17846000  0.77378000  1.0 1.4730462652
P  P9  1  0.58293000  0.92992000  0.29044000  1.0 1.4602605821
P  P10  1  0.73902000  0.28279000  0.52318000  1.0 1.4602605821
P  P11  1  0.08694000  0.82154000  0.27378000  1.0 1.4730462652
P  P12  1  0.91707000  0.07008000  0.79044000  1.0 1.4602605821
H  H1  1  0.44880000  0.52910000  0.76510000  1.0 0.1294010243
H  H2  1  0.50780000  0.26680000  0.65640000  1.0 0.139386606
H  H3  1  0.46110000  0.25320000  0.57000000  1.0 0.1294010243
H  H4  1  0.98330000  0.41080000  0.62400000  1.0 0.139386606
H  H5  1  0.68360000  0.72570000  0.68900000  1.0 0.1600662993
H  H6  1  0.65440000  0.67870000  0.60390000  1.0 0.1294010243
H  H7  1  0.70540000  0.82160000  0.61950000  1.0 0.1600662993
H  H8  1  0.31760000  0.37580000  0.71840000  1.0 0.1481397608
H  H9  1  0.07080000  0.34070000  0.46930000  1.0 0.139386606
H  H10  1  0.24320000  0.34270000  0.45180000  1.0 0.1481397608
H  H11  1  0.12780000  0.36570000  0.38470000  1.0 0.1703793925
H  H12  1  0.84000000  0.42140000  0.61900000  1.0 0.1481397608
H  H13  1  0.51690000  0.27890000  0.29470000  1.0 0.139386606
H  H14  1  0.45930000  0.24580000  0.29190000  1.0 0.139386606
H  H15  1  0.45450000  0.30470000  0.29770000  1.0 0.1294010243
H  H16  1  0.34310000  0.23160000  0.63460000  1.0 0.1294010243
H  H17  1  0.66840000  0.13480000  0.27770000  1.0 0.139386606
H  H18  1  0.02470000  0.32870000  0.55110000  1.0 0.1213695989
H  H19  1  0.48360000  0.42010000  0.73160000  1.0 0.1294010243
H  H20  1  0.50100000  0.17080000  0.26150000  1.0 0.1294010243
H  H21  1  0.80200000  0.54770000  0.66480000  1.0 0.1294010243
H  H22  1  0.15160000  0.39540000  0.59790000  1.0 0.1294010243
H  H23  1  0.14290000  0.23790000  0.34690000  1.0 0.139386606
H  H24  1  0.14250000  0.26990000  0.59600000  1.0 0.139386606
H  H25  1  0.19140000  0.31010000  0.60420000  1.0 0.139386606
H  H26  1  0.20960000  0.25580000  0.59240000  1.0 0.1294010243
H  H27  1  0.36340000  0.51950000  0.70370000  1.0 0.1294010243
H  H28  1  0.67970000  0.47520000  0.69380000  1.0 0.139386606
H  H29  1  0.62470000  0.46580000  0.67270000  1.0 0.139386606
H  H30  1  0.61580000  0.48670000  0.70600000  1.0 0.139386606
H  H31  1  0.72280000  0.61110000  0.63300000  1.0 0.139386606
H  H32  1  0.37690000  0.15520000  0.57040000  1.0 0.1294010243
H  H33  1  0.30880000  0.31380000  0.60070000  1.0 0.139386606
H  H34  1  0.28410000  0.33640000  0.57010000  1.0 0.1294010243
H  H35  1  0.35250000  0.32890000  0.57440000  1.0 0.139386606
H  H36  1  0.30920000  0.28600000  0.33960000  1.0 0.1294010243
H  H37  1  0.19210000  0.31510000  0.27480000  1.0 0.1294010243
H  H38  1  0.31300000  0.08530000  0.57250000  1.0 0.1213695989
H  H39  1  0.30150000  0.97860000  0.50820000  1.0 0.1703793925
H  H40  1  0.30680000  0.12520000  0.48490000  1.0 0.1600662993
H  H41  1  0.67570000  0.47330000  0.62110000  1.0 0.1294010243
H  H42  1  0.26890000  0.40520000  0.30080000  1.0 0.1294010243
H  H43  1  0.10550000  0.37410000  0.51400000  1.0 0.1294010243
H  H44  1  0.43760000  0.61570000  0.79190000  1.0 0.1481397608
H  H45  1  0.52700000  0.64480000  0.86820000  1.0 0.1703793925
H  H46  1  0.60880000  0.58250000  0.79700000  1.0 0.139386606
H  H47  1  0.36500000  0.24940000  0.25070000  1.0 0.139386606
H  H48  1  0.30650000  0.24660000  0.27000000  1.0 0.139386606
H  H49  1  0.36810000  0.24490000  0.28650000  1.0 0.139386606
H  H50  1  0.49450000  0.39680000  0.16070000  1.0 0.1600662993
H  H51  1  0.48410000  0.24660000  0.14900000  1.0 0.1213695989
H  H52  1  0.49980000  0.33800000  0.07700000  1.0 0.1703793925
H  H53  1  0.54340000  0.25600000  0.19310000  1.0 0.1294010243
H  H54  1  0.63070000  0.26500000  0.23710000  1.0 0.1294010243
H  H55  1  0.53550000  0.52390000  0.65630000  1.0 0.1294010243
H  H56  1  0.46880000  0.51100000  0.66260000  1.0 0.139386606
H  H57  1  0.51830000  0.47160000  0.67140000  1.0 0.139386606
H  H58  1  0.30820000  0.61270000  0.28850000  1.0 0.1806990993
H  H59  1  0.24430000  0.47410000  0.27190000  1.0 0.1481397608
H  H60  1  0.41640000  0.49320000  0.28620000  1.0 0.1481397608
H  H61  1  0.55860000  0.51850000  0.29370000  1.0 0.1213695989
H  H62  1  0.50870000  0.53690000  0.27130000  1.0 0.1600662993
H  H63  1  0.52390000  0.47850000  0.27390000  1.0 0.1600662993
H  H64  1  0.72840000  0.49490000  0.24960000  1.0 0.1096802225
H  H65  1  0.68950000  0.48290000  0.22080000  1.0 0.1213695989
H  H66  1  0.70170000  0.53980000  0.23020000  1.0 0.1294010243
H  H67  1  0.70370000  0.48790000  0.28930000  1.0 0.1213695989
H  H68  1  0.65560000  0.52620000  0.30110000  1.0 0.1213695989
H  H69  1  0.64020000  0.46810000  0.29760000  1.0 0.1096802225
H  H70  1  0.05120000  0.47090000  0.26510000  1.0 0.1294010243
H  H71  1  0.99220000  0.73320000  0.15640000  1.0 0.139386606
H  H72  1  0.03890000  0.74680000  0.07000000  1.0 0.1294010243
H  H73  1  0.51670000  0.58920000  0.12400000  1.0 0.139386606
H  H74  1  0.81640000  0.27430000  0.18900000  1.0 0.1600662993
H  H75  1  0.84560000  0.32130000  0.10390000  1.0 0.1213695989
H  H76  1  0.79460000  0.17840000  0.11950000  1.0 0.1600662993
H  H77  1  0.18240000  0.62420000  0.21840000  1.0 0.1481397608
H  H78  1  0.42920000  0.65930000  0.96930000  1.0 0.139386606
H  H79  1  0.25680000  0.65730000  0.95180000  1.0 0.1481397608
H  H80  1  0.37220000  0.63430000  0.88470000  1.0 0.1703793925
H  H81  1  0.66000000  0.57860000  0.11900000  1.0 0.1481397608
H  H82  1  0.98310000  0.72110000  0.79470000  1.0 0.139386606
H  H83  1  0.04070000  0.75420000  0.79190000  1.0 0.139386606
H  H84  1  0.04550000  0.69530000  0.79770000  1.0 0.1294010243
H  H85  1  0.15690000  0.76840000  0.13460000  1.0 0.1294010243
H  H86  1  0.83160000  0.86520000  0.77770000  1.0 0.139386606
H  H87  1  0.47530000  0.67130000  0.05110000  1.0 0.1213695989
H  H88  1  0.01640000  0.57990000  0.23160000  1.0 0.1294010243
H  H89  1  0.99900000  0.82920000  0.76150000  1.0 0.1294010243
H  H90  1  0.69800000  0.45230000  0.16480000  1.0 0.1294010243
H  H91  1  0.34840000  0.60460000  0.09790000  1.0 0.1294010243
H  H92  1  0.35710000  0.76210000  0.84690000  1.0 0.139386606
H  H93  1  0.35750000  0.73010000  0.09600000  1.0 0.139386606
H  H94  1  0.30860000  0.68990000  0.10420000  1.0 0.139386606
H  H95  1  0.29040000  0.74420000  0.09240000  1.0 0.1294010243
H  H96  1  0.13660000  0.48050000  0.20370000  1.0 0.1294010243
H  H97  1  0.82030000  0.52480000  0.19380000  1.0 0.139386606
H  H98  1  0.87530000  0.53420000  0.17270000  1.0 0.139386606
H  H99  1  0.88420000  0.51330000  0.20600000  1.0 0.139386606
H  H100  1  0.77720000  0.38890000  0.13300000  1.0 0.139386606
H  H101  1  0.12310000  0.84480000  0.07040000  1.0 0.1294010243
H  H102  1  0.19120000  0.68620000  0.10070000  1.0 0.139386606
H  H103  1  0.21590000  0.66360000  0.07010000  1.0 0.1294010243
H  H104  1  0.14750000  0.67110000  0.07440000  1.0 0.139386606
H  H105  1  0.19080000  0.71400000  0.83960000  1.0 0.1294010243
H  H106  1  0.30790000  0.68490000  0.77480000  1.0 0.1294010243
H  H107  1  0.18700000  0.91470000  0.07250000  1.0 0.1213695989
H  H108  1  0.19850000  0.02140000  0.00820000  1.0 0.1703793925
H  H109  1  0.19320000  0.87480000  0.98490000  1.0 0.1600662993
H  H110  1  0.82430000  0.52670000  0.12110000  1.0 0.1294010243
H  H111  1  0.23110000  0.59480000  0.80080000  1.0 0.1294010243
H  H112  1  0.39450000  0.62590000  0.01400000  1.0 0.1294010243
H  H113  1  0.06240000  0.38430000  0.29190000  1.0 0.1481397608
H  H114  1  0.97300000  0.35520000  0.36820000  1.0 0.1703793925
H  H115  1  0.89120000  0.41750000  0.29700000  1.0 0.139386606
H  H116  1  0.13500000  0.75060000  0.75070000  1.0 0.139386606
H  H117  1  0.19350000  0.75340000  0.77000000  1.0 0.139386606
H  H118  1  0.13190000  0.75510000  0.78650000  1.0 0.139386606
H  H119  1  0.00550000  0.60320000  0.66070000  1.0 0.1600662993
H  H120  1  0.01590000  0.75340000  0.64900000  1.0 0.1213695989
H  H121  1  0.00020000  0.66200000  0.57700000  1.0 0.1703793925
H  H122  1  0.95660000  0.74400000  0.69310000  1.0 0.1294010243
H  H123  1  0.86930000  0.73500000  0.73710000  1.0 0.1294010243
H  H124  1  0.96450000  0.47610000  0.15630000  1.0 0.1294010243
H  H125  1  0.03120000  0.48900000  0.16260000  1.0 0.139386606
H  H126  1  0.98170000  0.52840000  0.17140000  1.0 0.139386606
H  H127  1  0.19180000  0.38730000  0.78850000  1.0 0.1806990993
H  H128  1  0.25570000  0.52590000  0.77190000  1.0 0.1481397608
H  H129  1  0.08360000  0.50680000  0.78620000  1.0 0.1481397608
H  H130  1  0.94140000  0.48150000  0.79370000  1.0 0.1213695989
H  H131  1  0.99130000  0.46310000  0.77130000  1.0 0.1600662993
H  H132  1  0.97610000  0.52150000  0.77390000  1.0 0.1600662993
H  H133  1  0.77160000  0.50510000  0.74960000  1.0 0.1096802225
H  H134  1  0.81050000  0.51710000  0.72080000  1.0 0.1213695989
H  H135  1  0.79830000  0.46020000  0.73020000  1.0 0.1294010243
H  H136  1  0.79630000  0.51210000  0.78930000  1.0 0.1213695989
H  H137  1  0.84440000  0.47380000  0.80110000  1.0 0.1096802225
H  H138  1  0.85980000  0.53190000  0.79760000  1.0 0.1096802225
H  H139  1  0.55120000  0.02910000  0.73490000  1.0 0.1294010243
H  H140  1  0.49220000  0.76680000  0.84360000  1.0 0.139386606
H  H141  1  0.53890000  0.75320000  0.93000000  1.0 0.1294010243
H  H142  1  0.01670000  0.91080000  0.87600000  1.0 0.139386606
H  H143  1  0.31640000  0.22570000  0.81100000  1.0 0.1600662993
H  H144  1  0.34560000  0.17870000  0.89610000  1.0 0.1294010243
H  H145  1  0.29460000  0.32160000  0.88050000  1.0 0.1600662993
H  H146  1  0.68240000  0.87580000  0.78160000  1.0 0.1481397608
H  H147  1  0.92920000  0.84070000  0.03070000  1.0 0.139386606
H  H148  1  0.75680000  0.84270000  0.04820000  1.0 0.1481397608
H  H149  1  0.87220000  0.86570000  0.11530000  1.0 0.1703793925
H  H150  1  0.16000000  0.92140000  0.88100000  1.0 0.1481397608
H  H151  1  0.48310000  0.77890000  0.20530000  1.0 0.139386606
H  H152  1  0.54070000  0.74580000  0.20810000  1.0 0.139386606
H  H153  1  0.54550000  0.80470000  0.20230000  1.0 0.1294010243
H  H154  1  0.65690000  0.73160000  0.86540000  1.0 0.1294010243
H  H155  1  0.33160000  0.63480000  0.22230000  1.0 0.139386606
H  H156  1  0.97530000  0.82870000  0.94890000  1.0 0.1213695989
H  H157  1  0.51640000  0.92010000  0.76840000  1.0 0.1294010243
H  H158  1  0.49900000  0.67080000  0.23850000  1.0 0.1294010243
H  H159  1  0.19800000  0.04770000  0.83520000  1.0 0.1294010243
H  H160  1  0.84840000  0.89540000  0.90210000  1.0 0.1294010243
H  H161  1  0.85710000  0.73790000  0.15310000  1.0 0.139386606
H  H162  1  0.85750000  0.76990000  0.90400000  1.0 0.139386606
H  H163  1  0.80860000  0.81010000  0.89580000  1.0 0.139386606
H  H164  1  0.79040000  0.75580000  0.90760000  1.0 0.1294010243
H  H165  1  0.63660000  0.01950000  0.79630000  1.0 0.1294010243
H  H166  1  0.32030000  0.97520000  0.80620000  1.0 0.139386606
H  H167  1  0.37530000  0.96580000  0.82730000  1.0 0.139386606
H  H168  1  0.38420000  0.98670000  0.79400000  1.0 0.139386606
H  H169  1  0.27720000  0.11110000  0.86700000  1.0 0.139386606
H  H170  1  0.62310000  0.65520000  0.92960000  1.0 0.1294010243
H  H171  1  0.69120000  0.81380000  0.89930000  1.0 0.139386606
H  H172  1  0.71590000  0.83640000  0.92990000  1.0 0.1294010243
H  H173  1  0.64750000  0.82890000  0.92560000  1.0 0.139386606
H  H174  1  0.69080000  0.78600000  0.16040000  1.0 0.1294010243
H  H175  1  0.80790000  0.81510000  0.22520000  1.0 0.1294010243
H  H176  1  0.68700000  0.58530000  0.92750000  1.0 0.1294010243
H  H177  1  0.69850000  0.47860000  0.99180000  1.0 0.1703793925
H  H178  1  0.69320000  0.62520000  0.01510000  1.0 0.1600662993
H  H179  1  0.32430000  0.97330000  0.87890000  1.0 0.1294010243
H  H180  1  0.73110000  0.90520000  0.19920000  1.0 0.1294010243
H  H181  1  0.89450000  0.87410000  0.98600000  1.0 0.1294010243
H  H182  1  0.56240000  0.11570000  0.70810000  1.0 0.1481397608
H  H183  1  0.47300000  0.14480000  0.63180000  1.0 0.1703793925
H  H184  1  0.39120000  0.08250000  0.70300000  1.0 0.139386606
H  H185  1  0.63500000  0.74940000  0.24930000  1.0 0.139386606
H  H186  1  0.69350000  0.74660000  0.23000000  1.0 0.139386606
H  H187  1  0.63190000  0.74490000  0.21350000  1.0 0.139386606
H  H188  1  0.50550000  0.89680000  0.33930000  1.0 0.1600662993
H  H189  1  0.51590000  0.74660000  0.35100000  1.0 0.1213695989
H  H190  1  0.50020000  0.83800000  0.42300000  1.0 0.1703793925
H  H191  1  0.45660000  0.75600000  0.30690000  1.0 0.1294010243
H  H192  1  0.36930000  0.76500000  0.26290000  1.0 0.1294010243
H  H193  1  0.46450000  0.02390000  0.84370000  1.0 0.1294010243
H  H194  1  0.53120000  0.01100000  0.83740000  1.0 0.139386606
H  H195  1  0.48170000  0.97160000  0.82860000  1.0 0.139386606
H  H196  1  0.69180000  0.11270000  0.21150000  1.0 0.1806990993
H  H197  1  0.75570000  0.97410000  0.22810000  1.0 0.1481397608
H  H198  1  0.58360000  0.99320000  0.21380000  1.0 0.1481397608
H  H199  1  0.44140000  0.01850000  0.20630000  1.0 0.1213695989
H  H200  1  0.49130000  0.03690000  0.22870000  1.0 0.1600662993
H  H201  1  0.47610000  0.97850000  0.22610000  1.0 0.1600662993
H  H202  1  0.27160000  0.99490000  0.25040000  1.0 0.1096802225
H  H203  1  0.31050000  0.98290000  0.27920000  1.0 0.1213695989
H  H204  1  0.29830000  0.03980000  0.26980000  1.0 0.1294010243
H  H205  1  0.29630000  0.98790000  0.21070000  1.0 0.1213695989
H  H206  1  0.34440000  0.02620000  0.19890000  1.0 0.1213695989
H  H207  1  0.35980000  0.96810000  0.20240000  1.0 0.1096802225
H  H208  1  0.94880000  0.97090000  0.23490000  1.0 0.1294010243
H  H209  1  0.00780000  0.23320000  0.34360000  1.0 0.139386606
H  H210  1  0.96110000  0.24680000  0.43000000  1.0 0.1294010243
H  H211  1  0.48330000  0.08920000  0.37600000  1.0 0.139386606
H  H212  1  0.18360000  0.77430000  0.31100000  1.0 0.1600662993
H  H213  1  0.15440000  0.82130000  0.39610000  1.0 0.1213695989
H  H214  1  0.20540000  0.67840000  0.38050000  1.0 0.1600662993
H  H215  1  0.81760000  0.12420000  0.28160000  1.0 0.1481397608
H  H216  1  0.57080000  0.15930000  0.53070000  1.0 0.139386606
H  H217  1  0.74320000  0.15730000  0.54820000  1.0 0.1481397608
H  H218  1  0.62780000  0.13430000  0.61530000  1.0 0.1703793925
H  H219  1  0.34000000  0.07860000  0.38100000  1.0 0.1481397608
H  H220  1  0.01690000  0.22110000  0.70530000  1.0 0.139386606
H  H221  1  0.95930000  0.25420000  0.70810000  1.0 0.139386606
H  H222  1  0.95450000  0.19530000  0.70230000  1.0 0.1294010243
H  H223  1  0.84310000  0.26840000  0.36540000  1.0 0.1294010243
H  H224  1  0.16840000  0.36520000  0.72230000  1.0 0.139386606
H  H225  1  0.52470000  0.17130000  0.44890000  1.0 0.1213695989
H  H226  1  0.98360000  0.07990000  0.26840000  1.0 0.1294010243
H  H227  1  0.00100000  0.32920000  0.73850000  1.0 0.1294010243
H  H228  1  0.30200000  0.95230000  0.33520000  1.0 0.1294010243
H  H229  1  0.65160000  0.10460000  0.40210000  1.0 0.1294010243
H  H230  1  0.64290000  0.26210000  0.65310000  1.0 0.139386606
H  H231  1  0.64250000  0.23010000  0.40400000  1.0 0.139386606
H  H232  1  0.69140000  0.18990000  0.39580000  1.0 0.139386606
H  H233  1  0.70960000  0.24420000  0.40760000  1.0 0.1294010243
H  H234  1  0.86340000  0.98050000  0.29630000  1.0 0.1294010243
H  H235  1  0.17970000  0.02480000  0.30620000  1.0 0.139386606
H  H236  1  0.12470000  0.03420000  0.32730000  1.0 0.139386606
H  H237  1  0.11580000  0.01330000  0.29400000  1.0 0.139386606
H  H238  1  0.22280000  0.88890000  0.36700000  1.0 0.139386606
H  H239  1  0.87690000  0.34480000  0.42960000  1.0 0.1294010243
H  H240  1  0.80880000  0.18620000  0.39930000  1.0 0.139386606
H  H241  1  0.78410000  0.16360000  0.42990000  1.0 0.1294010243
H  H242  1  0.85250000  0.17110000  0.42560000  1.0 0.139386606
H  H243  1  0.80920000  0.21400000  0.66040000  1.0 0.1294010243
H  H244  1  0.69210000  0.18490000  0.72520000  1.0 0.1294010243
H  H245  1  0.81300000  0.41470000  0.42750000  1.0 0.1213695989
H  H246  1  0.80150000  0.52140000  0.49180000  1.0 0.1703793925
H  H247  1  0.80680000  0.37480000  0.51510000  1.0 0.1600662993
H  H248  1  0.17570000  0.02670000  0.37890000  1.0 0.1294010243
H  H249  1  0.76890000  0.09480000  0.69920000  1.0 0.1294010243
H  H250  1  0.60550000  0.12590000  0.48600000  1.0 0.1294010243
H  H251  1  0.93760000  0.88430000  0.20810000  1.0 0.1481397608
H  H252  1  0.02700000  0.85520000  0.13180000  1.0 0.1703793925
H  H253  1  0.10880000  0.91750000  0.20300000  1.0 0.139386606
H  H254  1  0.86500000  0.25060000  0.74930000  1.0 0.139386606
H  H255  1  0.80650000  0.25340000  0.73000000  1.0 0.139386606
H  H256  1  0.86810000  0.25510000  0.71350000  1.0 0.139386606
H  H257  1  0.99450000  0.10320000  0.83930000  1.0 0.1600662993
H  H258  1  0.98410000  0.25340000  0.85100000  1.0 0.1213695989
H  H259  1  0.99980000  0.16200000  0.92300000  1.0 0.1703793925
H  H260  1  0.04340000  0.24400000  0.80690000  1.0 0.1294010243
H  H261  1  0.13070000  0.23500000  0.76290000  1.0 0.1294010243
H  H262  1  0.03550000  0.97610000  0.34370000  1.0 0.1294010243
H  H263  1  0.96880000  0.98900000  0.33740000  1.0 0.139386606
H  H264  1  0.01830000  0.02840000  0.32860000  1.0 0.139386606
H  H265  1  0.80820000  0.88730000  0.71150000  1.0 0.1806990993
H  H266  1  0.74430000  0.02590000  0.72810000  1.0 0.1481397608
H  H267  1  0.91640000  0.00680000  0.71380000  1.0 0.1481397608
H  H268  1  0.05860000  0.98150000  0.70630000  1.0 0.1213695989
H  H269  1  0.00870000  0.96310000  0.72870000  1.0 0.1600662993
H  H270  1  0.02390000  0.02150000  0.72610000  1.0 0.1600662993
H  H271  1  0.22840000  0.00510000  0.75040000  1.0 0.1096802225
H  H272  1  0.18950000  0.01710000  0.77920000  1.0 0.1213695989
H  H273  1  0.20170000  0.96020000  0.76980000  1.0 0.1294010243
H  H274  1  0.20370000  0.01210000  0.71070000  1.0 0.1213695989
H  H275  1  0.15560000  0.97380000  0.69890000  1.0 0.1213695989
H  H276  1  0.14020000  0.03190000  0.70240000  1.0 0.1096802225
C  C1  1  0.47690000  0.53880000  0.75061000  1.0 -0.1894008558
C  C2  1  0.47910000  0.26060000  0.64154000  1.0 -0.1191024383
C  C3  1  0.49330000  0.26460000  0.61166000  1.0 -0.0112664848
C  C4  1  0.45100000  0.25250000  0.59064000  1.0 -0.1502174582
C  C5  1  0.33120000  0.44730000  0.70944000  1.0 0.0083466943
C  C6  1  0.01160000  0.39740000  0.61075000  1.0 -0.1079835764
C  C7  1  0.69700000  0.77960000  0.65740000  1.0 0.350736056
C  C8  1  0.68260000  0.73230000  0.66806000  1.0 -0.2785171845
C  C9  1  0.66666667  0.69470000  0.64810000  1.0 0.139386606
C  C10  1  0.66530000  0.70440000  0.61750000  1.0 -0.2585329853
C  C11  1  0.67970000  0.75170000  0.60690000  1.0 0.3795889687
C  C12  1  0.69560000  0.78930000  0.62680000  1.0 -0.3377190981
C  C13  1  0.83000000  0.48570000  0.64372000  1.0 0.0083466943
C  C14  1  0.55140000  0.28220000  0.60231000  1.0 0.5215500407
C  C15  1  0.34610000  0.40150000  0.71813000  1.0 -0.1079835764
C  C16  1  0.10180000  0.34440000  0.45552000  1.0 -0.2701799272
C  C17  1  0.15880000  0.34020000  0.46535000  1.0 0.1600662993
C  C18  1  0.20420000  0.34550000  0.44513000  1.0 -0.2585329853
C  C19  1  0.19270000  0.35500000  0.41510000  1.0 0.3395361685
C  C20  1  0.13570000  0.35920000  0.40527000  1.0 -0.3306846181
C  C21  1  0.09030000  0.35390000  0.42550000  1.0 0.334407871
C  C22  1  0.40330000  0.39030000  0.72691000  1.0 0.0083466943
C  C23  1  0.43030000  0.47710000  0.71969000  1.0 0.0776677906
C  C24  1  0.08780000  0.44330000  0.64005000  1.0 0.5818394196
C  C25  1  0.21840000  0.28340000  0.53693000  1.0 -0.0428232189
C  C26  1  0.10210000  0.26360000  0.29374000  1.0 0.529489271
C  C27  1  0.47410000  0.51700000  0.72254000  1.0 -0.0019907719
C  C28  1  0.60600000  0.57700000  0.68663000  1.0 -0.0556598396
C  C29  1  0.58130000  0.14510000  0.27139000  1.0 -0.0199269905
C  C30  1  0.30240000  0.33820000  0.28892000  1.0 0.0167368471
C  C31  1  0.17990000  0.30210000  0.55837000  1.0 0.1012671208
C  C32  1  0.26760000  0.24920000  0.54469000  1.0 -0.049885765
C  C33  1  0.81230000  0.44520000  0.62564000  1.0 -0.1079835764
C  C34  1  0.44480000  0.33570000  0.21134000  1.0 0.2095842992
C  C35  1  0.47670000  0.27850000  0.28756000  1.0 -0.4293399494
C  C36  1  0.42320000  0.24750000  0.65011000  1.0 -0.0199269905
C  C37  1  0.25810000  0.30800000  0.30544000  1.0 0.071230143
C  C38  1  0.64540000  0.53920000  0.67696000  1.0 0.1012671208
C  C39  1  0.38180000  0.23860000  0.62861000  1.0 -0.1577012921
C  C40  1  0.09470000  0.35890000  0.57145000  1.0 0.071230143
C  C41  1  0.22950000  0.25710000  0.34844000  1.0 -0.0428232189
C  C42  1  0.64030000  0.15760000  0.27022000  1.0 -0.1191024383
C  C43  1  0.03660000  0.34850000  0.56764000  1.0 -0.1502174582
C  C44  1  0.43820000  0.32200000  0.24133000  1.0 -0.049885765
C  C45  1  0.07050000  0.40910000  0.61470000  1.0 0.0083466943
C  C46  1  0.39540000  0.23970000  0.59823000  1.0 0.071230143
C  C47  1  0.99520000  0.36640000  0.58767000  1.0 0.0167368471
C  C48  1  0.26940000  0.45860000  0.69985000  1.0 0.529489271
C  C49  1  0.93260000  0.35010000  0.58439000  1.0 0.5215500407
C  C50  1  0.35120000  0.22730000  0.57532000  1.0 0.0167368471
C  C51  1  0.55770000  0.56460000  0.70753000  1.0 -0.049885765
C  C52  1  0.65760000  0.20190000  0.25853000  1.0 0.0022972501
C  C53  1  0.34600000  0.31410000  0.27213000  1.0 0.1012671208
C  C54  1  0.38240000  0.39670000  0.26075000  1.0 0.1806990993
C  C55  1  0.30940000  0.26310000  0.56630000  1.0 0.1012671208
C  C56  1  0.44460000  0.42800000  0.72677000  1.0 -0.1502174582
C  C57  1  0.54100000  0.17900000  0.26058000  1.0 -0.1397237318
C  C58  1  0.89080000  0.48570000  0.65579000  1.0 0.5384538692
C  C59  1  0.79010000  0.52010000  0.65288000  1.0 -0.1502174582
C  C60  1  0.21060000  0.29690000  0.50712000  1.0 0.1806990993
C  C61  1  0.55650000  0.58790000  0.73565000  1.0 0.2005970754
C  C62  1  0.16990000  0.33090000  0.49801000  1.0 -0.0199269905
C  C63  1  0.47590000  0.28760000  0.25451000  1.0 0.1096802225
C  C64  1  0.68800000  0.55350000  0.65601000  1.0 0.0083466943
C  C65  1  0.48450000  0.31160000  0.19222000  1.0 -0.0112664848
C  C66  1  0.11160000  0.38860000  0.59496000  1.0 -0.1577012921
C  C67  1  0.27160000  0.20210000  0.53108000  1.0 0.2005970754
C  C68  1  0.61630000  0.62650000  0.67948000  1.0 0.1887525153
C  C69  1  0.31110000  0.16600000  0.54023000  1.0 -0.0112664848
C  C70  1  0.13840000  0.33620000  0.54932000  1.0 0.0083466943
C  C71  1  0.17290000  0.25410000  0.33593000  1.0 -0.0872718527
C  C72  1  0.18090000  0.28280000  0.59063000  1.0 -0.4221331592
C  C73  1  0.72000000  0.21750000  0.25900000  1.0 0.5078568977
C  C74  1  0.33950000  0.41910000  0.27517000  1.0 -0.0292098637
C  C75  1  0.73110000  0.51520000  0.64477000  1.0 0.071230143
C  C76  1  0.51330000  0.53050000  0.70043000  1.0 0.1012671208
C  C77  1  0.37380000  0.48680000  0.71000000  1.0 -0.1502174582
C  C78  1  0.64110000  0.48740000  0.68830000  1.0 -0.4394340933
C  C79  1  0.16080000  0.27410000  0.30823000  1.0 -0.0019907719
C  C80  1  0.24370000  0.23470000  0.37706000  1.0 0.5670587939
C  C81  1  0.69380000  0.60270000  0.64725000  1.0 -0.1809047482
C  C82  1  0.38850000  0.34410000  0.25809000  1.0 -0.0292098637
C  C83  1  0.35030000  0.17950000  0.56313000  1.0 -0.1809047482
C  C84  1  0.75550000  0.44020000  0.61767000  1.0 0.0022972501
C  C85  1  0.31410000  0.31510000  0.57897000  1.0 -0.4221331592
C  C86  1  0.51630000  0.26210000  0.23563000  1.0 0.0022972501
C  C87  1  0.27080000  0.28410000  0.33207000  1.0 -0.1397237318
C  C88  1  0.20150000  0.30070000  0.29369000  1.0 -0.1397237318
C  C89  1  0.73680000  0.39720000  0.59781000  1.0 0.5818394196
C  C90  1  0.31060000  0.07630000  0.55194000  1.0 -0.2701799272
C  C91  1  0.30730000  0.02610000  0.54380000  1.0 0.3693971457
C  C92  1  0.30380000  0.01290000  0.51370000  1.0 -0.3306846181
C  C93  1  0.30360000  0.04980000  0.49180000  1.0 0.350736056
C  C94  1  0.30690000  0.10000000  0.49992000  1.0 -0.2497202489
C  C95  1  0.31040000  0.11319000  0.52999000  1.0 0.139386606
C  C96  1  0.71500000  0.47630000  0.62717000  1.0 -0.1502174582
C  C97  1  0.29930000  0.38970000  0.28984000  1.0 -0.1809047482
C  C98  1  0.56330000  0.09570000  0.28371000  1.0 0.5818394196
C  C99  1  0.13410000  0.35030000  0.51963000  1.0 -0.1706443842
C  C100  1  0.52300000  0.59620000  0.78983000  1.0 0.1600662993
C  C101  1  0.47287000  0.61510000  0.80293000  1.0 -0.2701799272
C  C102  1  0.47440000  0.63320000  0.83212000  1.0 0.3596678651
C  C103  1  0.52590000  0.63240000  0.84822000  1.0 -0.3741366047
C  C104  1  0.57600000  0.61350000  0.83512000  1.0 0.3395361685
C  C105  1  0.57455000  0.59540000  0.80592000  1.0 -0.2785171845
C  C106  1  0.34640000  0.25920000  0.26960000  1.0 -0.4293399494
C  C107  1  0.40730000  0.24220000  0.68290000  1.0 0.5670587939
C  C108  1  0.49380000  0.36850000  0.14777000  1.0 -0.2497202489
C  C109  1  0.48860000  0.32070000  0.15973000  1.0 0.139386606
C  C110  1  0.48760000  0.27927000  0.14086000  1.0 -0.2585329853
C  C111  1  0.49180000  0.28570000  0.11003000  1.0 0.350736056
C  C112  1  0.49690000  0.33360000  0.09807000  1.0 -0.3200312513
C  C113  1  0.49790000  0.37500000  0.11694000  1.0 0.3596678651
C  C114  1  0.51770000  0.27440000  0.20560000  1.0 -0.1809047482
C  C115  1  0.42080000  0.33810000  0.73556000  1.0 0.5818394196
C  C116  1  0.51900000  0.57450000  0.75918000  1.0 -0.0199269905
C  C117  1  0.65860000  0.64080000  0.65862000  1.0 -0.0019907719
C  C118  1  0.61720000  0.23530000  0.24654000  1.0 -0.1502174582
C  C119  1  0.55830000  0.22640000  0.24797000  1.0 0.071230143
C  C120  1  0.50860000  0.50730000  0.67010000  1.0 -0.4221331592
C  C121  1  0.36970000  0.55790000  0.28832000  1.0 0.334407871
C  C122  1  0.31420000  0.57778000  0.28596000  1.0 -0.3377190981
C  C123  1  0.26740000  0.54660000  0.27983000  1.0 0.3395361685
C  C124  1  0.27620000  0.49540000  0.27605000  1.0 -0.2915134507
C  C125  1  0.33170000  0.47556000  0.27841000  1.0 0.1806990993
C  C126  1  0.37840000  0.50680000  0.28454000  1.0 -0.2701799272
C  C127  1  0.54000000  0.51250000  0.27430000  1.0 -0.5705631983
C  C128  1  0.58410000  0.51810000  0.24970000  1.0 0.5518837642
C  C129  1  0.69490000  0.50580000  0.23780000  1.0 -0.3306846181
C  C130  1  0.66230000  0.49610000  0.28910000  1.0 -0.3377190981
C  C131  1  0.02310000  0.46120000  0.25061000  1.0 -0.1894008558
C  C132  1  0.02090000  0.73940000  0.14154000  1.0 -0.1191024383
C  C133  1  0.00670000  0.73540000  0.11166000  1.0 -0.0112664848
C  C134  1  0.04900000  0.74750000  0.09064000  1.0 -0.1502174582
C  C135  1  0.16880000  0.55270000  0.20944000  1.0 0.0083466943
C  C136  1  0.48840000  0.60260000  0.11075000  1.0 -0.1079835764
C  C137  1  0.80300000  0.22040000  0.15740000  1.0 0.350736056
C  C138  1  0.81740000  0.26770000  0.16806000  1.0 -0.2701799272
C  C139  1  0.83333000  0.30530000  0.14810000  1.0 0.139386606
C  C140  1  0.83470000  0.29560000  0.11750000  1.0 -0.2585329853
C  C141  1  0.82030000  0.24830000  0.10690000  1.0 0.389108367
C  C142  1  0.80440000  0.21070000  0.12680000  1.0 -0.3377190981
C  C143  1  0.67000000  0.51430000  0.14372000  1.0 0.0083466943
C  C144  1  0.94860000  0.71780000  0.10231000  1.0 0.5215500407
C  C145  1  0.15390000  0.59850000  0.21813000  1.0 -0.1079835764
C  C146  1  0.39820000  0.65560000  0.95552000  1.0 -0.2701799272
C  C147  1  0.34120000  0.65980000  0.96535000  1.0 0.1600662993
C  C148  1  0.29580000  0.65450000  0.94513000  1.0 -0.2585329853
C  C149  1  0.30730000  0.64500000  0.91510000  1.0 0.3395361685
C  C150  1  0.36430000  0.64080000  0.90527000  1.0 -0.3306846181
C  C151  1  0.40970000  0.64610000  0.92550000  1.0 0.334407871
C  C152  1  0.09670000  0.60970000  0.22691000  1.0 0.0083466943
C  C153  1  0.06970000  0.52290000  0.21969000  1.0 0.0776677906
C  C154  1  0.41220000  0.55670000  0.14005000  1.0 0.5818394196
C  C155  1  0.28160000  0.71660000  0.03693000  1.0 -0.0428232189
C  C156  1  0.39790000  0.73640000  0.79374000  1.0 0.5215500407
C  C157  1  0.02590000  0.48300000  0.22254000  1.0 -0.0019907719
C  C158  1  0.89400000  0.42300000  0.18663000  1.0 -0.0556598396
C  C159  1  0.91870000  0.85490000  0.77139000  1.0 -0.0199269905
C  C160  1  0.19760000  0.66180000  0.78892000  1.0 0.0167368471
C  C161  1  0.32010000  0.69790000  0.05837000  1.0 0.1012671208
C  C162  1  0.23240000  0.75080000  0.04469000  1.0 -0.049885765
C  C163  1  0.68770000  0.55480000  0.12564000  1.0 -0.1079835764
C  C164  1  0.05520000  0.66430000  0.71134000  1.0 0.2095842992
C  C165  1  0.02330000  0.72150000  0.78756000  1.0 -0.4293399494
C  C166  1  0.07680000  0.75250000  0.15011000  1.0 -0.0199269905
C  C167  1  0.24190000  0.69200000  0.80544000  1.0 0.071230143
C  C168  1  0.85460000  0.46080000  0.17696000  1.0 0.1012671208
C  C169  1  0.11820000  0.76140000  0.12861000  1.0 -0.1577012921
C  C170  1  0.40530000  0.64110000  0.07145000  1.0 0.071230143
C  C171  1  0.27050000  0.74290000  0.84844000  1.0 -0.0428232189
C  C172  1  0.85970000  0.84240000  0.77022000  1.0 -0.1191024383
C  C173  1  0.46340000  0.65150000  0.06764000  1.0 -0.1502174582
C  C174  1  0.06180000  0.67800000  0.74133000  1.0 -0.0556598396
C  C175  1  0.42950000  0.59090000  0.11470000  1.0 0.0083466943
C  C176  1  0.10460000  0.76030000  0.09823000  1.0 0.071230143
C  C177  1  0.50480000  0.63360000  0.08767000  1.0 0.0167368471
C  C178  1  0.23060000  0.54140000  0.19985000  1.0 0.529489271
C  C179  1  0.56740000  0.64990000  0.08439000  1.0 0.5215500407
C  C180  1  0.14880000  0.77270000  0.07532000  1.0 0.0167368471
C  C181  1  0.94230000  0.43540000  0.20753000  1.0 -0.049885765
C  C182  1  0.84240000  0.79810000  0.75853000  1.0 0.0022972501
C  C183  1  0.15400000  0.68590000  0.77213000  1.0 0.1012671208
C  C184  1  0.11760000  0.60330000  0.76075000  1.0 0.1806990993
C  C185  1  0.19060000  0.73690000  0.06630000  1.0 0.1012671208
C  C186  1  0.05540000  0.57200000  0.22677000  1.0 -0.1502174582
C  C187  1  0.95900000  0.82100000  0.76058000  1.0 -0.1397237318
C  C188  1  0.60920000  0.51430000  0.15579000  1.0 0.5384538692
C  C189  1  0.70990000  0.47990000  0.15288000  1.0 -0.1502174582
C  C190  1  0.28940000  0.70310000  0.00712000  1.0 0.1887525153
C  C191  1  0.94350000  0.41210000  0.23565000  1.0 0.2005970754
C  C192  1  0.33010000  0.66910000  0.99801000  1.0 -0.0199269905
C  C193  1  0.02410000  0.71240000  0.75451000  1.0 0.1096802225
C  C194  1  0.81200000  0.44650000  0.15601000  1.0 0.0083466943
C  C195  1  0.01550000  0.68840000  0.69222000  1.0 -0.0112664848
C  C196  1  0.38840000  0.61140000  0.09496000  1.0 -0.1577012921
C  C197  1  0.22840000  0.79790000  0.03108000  1.0 0.2005970754
C  C198  1  0.88370000  0.37350000  0.17948000  1.0 0.1887525153
C  C199  1  0.18890000  0.83400000  0.04023000  1.0 -0.0112664848
C  C200  1  0.36160000  0.66380000  0.04932000  1.0 0.0083466943
C  C201  1  0.32710000  0.74590000  0.83593000  1.0 -0.0872718527
C  C202  1  0.31910000  0.71720000  0.09063000  1.0 -0.4221331592
C  C203  1  0.78000000  0.78250000  0.75900000  1.0 0.5078568977
C  C204  1  0.16050000  0.58090000  0.77517000  1.0 -0.0292098637
C  C205  1  0.76890000  0.48480000  0.14477000  1.0 0.0776677906
C  C206  1  0.98670000  0.46950000  0.20043000  1.0 0.1012671208
C  C207  1  0.12620000  0.51320000  0.21000000  1.0 -0.1577012921
C  C208  1  0.85890000  0.51260000  0.18830000  1.0 -0.4483045583
C  C209  1  0.33920000  0.72590000  0.80823000  1.0 -0.0019907719
C  C210  1  0.25630000  0.76530000  0.87706000  1.0 0.5670587939
C  C211  1  0.80620000  0.39730000  0.14725000  1.0 -0.1809047482
C  C212  1  0.11150000  0.65590000  0.75809000  1.0 -0.0292098637
C  C213  1  0.14970000  0.82050000  0.06313000  1.0 -0.1809047482
C  C214  1  0.74450000  0.55980000  0.11767000  1.0 0.0022972501
C  C215  1  0.18590000  0.68490000  0.07897000  1.0 -0.4221331592
C  C216  1  0.98370000  0.73790000  0.73563000  1.0 0.0022972501
C  C217  1  0.22920000  0.71590000  0.83207000  1.0 -0.1397237318
C  C218  1  0.29850000  0.69930000  0.79369000  1.0 -0.1397237318
C  C219  1  0.76320000  0.60280000  0.09781000  1.0 0.5818394196
C  C220  1  0.18940000  0.92370000  0.05194000  1.0 -0.2701799272
C  C221  1  0.19270000  0.97390000  0.04380000  1.0 0.3693971457
C  C222  1  0.19620000  0.98710000  0.01370000  1.0 -0.3306846181
C  C223  1  0.19640000  0.95020000  0.99180000  1.0 0.350736056
C  C224  1  0.19310000  0.90000000  0.99992000  1.0 -0.2585329853
C  C225  1  0.18960000  0.88681000  0.02999000  1.0 0.139386606
C  C226  1  0.78500000  0.52370000  0.12717000  1.0 -0.1502174582
C  C227  1  0.20070000  0.61030000  0.78984000  1.0 -0.1809047482
C  C228  1  0.93670000  0.90430000  0.78371000  1.0 0.5818394196
C  C229  1  0.36590000  0.64970000  0.01963000  1.0 -0.1706443842
C  C230  1  0.97700000  0.40380000  0.28983000  1.0 0.1600662993
C  C231  1  0.02713000  0.38490000  0.30293000  1.0 -0.2701799272
C  C232  1  0.02560000  0.36680000  0.33212000  1.0 0.3596678651
C  C233  1  0.97410000  0.36760000  0.34822000  1.0 -0.3741366047
C  C234  1  0.92400000  0.38650000  0.33512000  1.0 0.3395361685
C  C235  1  0.92545000  0.40460000  0.30592000  1.0 -0.2785171845
C  C236  1  0.15360000  0.74080000  0.76960000  1.0 -0.4293399494
C  C237  1  0.09270000  0.75780000  0.18290000  1.0 0.5670587939
C  C238  1  0.00620000  0.63150000  0.64777000  1.0 -0.2497202489
C  C239  1  0.01140000  0.67930000  0.65973000  1.0 0.139386606
C  C240  1  0.01240000  0.72073000  0.64086000  1.0 -0.2585329853
C  C241  1  0.00820000  0.71430000  0.61003000  1.0 0.350736056
C  C242  1  0.00310000  0.66640000  0.59807000  1.0 -0.3200312513
C  C243  1  0.00210000  0.62500000  0.61694000  1.0 0.3596678651
C  C244  1  0.98230000  0.72560000  0.70560000  1.0 -0.1809047482
C  C245  1  0.07920000  0.66190000  0.23556000  1.0 0.5818394196
C  C246  1  0.98100000  0.42550000  0.25918000  1.0 -0.0199269905
C  C247  1  0.84140000  0.35920000  0.15862000  1.0 0.0022972501
C  C248  1  0.88280000  0.76470000  0.74654000  1.0 -0.1502174582
C  C249  1  0.94170000  0.77360000  0.74797000  1.0 0.071230143
C  C250  1  0.99140000  0.49270000  0.17010000  1.0 -0.4221331592
C  C251  1  0.13030000  0.44210000  0.78832000  1.0 0.334407871
C  C252  1  0.18580000  0.42222000  0.78596000  1.0 -0.3377190981
C  C253  1  0.23260000  0.45340000  0.77983000  1.0 0.3395361685
C  C254  1  0.22380000  0.50460000  0.77605000  1.0 -0.2915134507
C  C255  1  0.16830000  0.52444000  0.77841000  1.0 0.1806990993
C  C256  1  0.12160000  0.49320000  0.78454000  1.0 -0.2701799272
C  C257  1  0.96000000  0.48750000  0.77430000  1.0 -0.5705631983
C  C258  1  0.91590000  0.48190000  0.74970000  1.0 0.5518837642
C  C259  1  0.80510000  0.49420000  0.73780000  1.0 -0.3306846181
C  C260  1  0.83770000  0.50390000  0.78910000  1.0 -0.3377190981
C  C261  1  0.52310000  0.03880000  0.74939000  1.0 -0.1894008558
C  C262  1  0.52090000  0.76060000  0.85846000  1.0 -0.1191024383
C  C263  1  0.50670000  0.76460000  0.88834000  1.0 -0.0112664848
C  C264  1  0.54900000  0.75250000  0.90936000  1.0 -0.1502174582
C  C265  1  0.66880000  0.94730000  0.79056000  1.0 0.0083466943
C  C266  1  0.98840000  0.89740000  0.88925000  1.0 -0.1079835764
C  C267  1  0.30300000  0.27960000  0.84260000  1.0 0.350736056
C  C268  1  0.31740000  0.23230000  0.83194000  1.0 -0.2701799272
C  C269  1  0.33333333  0.19470000  0.85190000  1.0 0.139386606
C  C270  1  0.33470000  0.20440000  0.88250000  1.0 -0.2585329853
C  C271  1  0.32030000  0.25170000  0.89310000  1.0 0.3795889687
C  C272  1  0.30440000  0.28930000  0.87320000  1.0 -0.3377190981
C  C273  1  0.17000000  0.98570000  0.85628000  1.0 0.0083466943
C  C274  1  0.44860000  0.78220000  0.89769000  1.0 0.5215500407
C  C275  1  0.65390000  0.90150000  0.78187000  1.0 -0.1079835764
C  C276  1  0.89820000  0.84440000  0.04448000  1.0 -0.2701799272
C  C277  1  0.84120000  0.84020000  0.03465000  1.0 0.1600662993
C  C278  1  0.79580000  0.84550000  0.05487000  1.0 -0.2585329853
C  C279  1  0.80730000  0.85500000  0.08490000  1.0 0.3395361685
C  C280  1  0.86430000  0.85920000  0.09473000  1.0 -0.3306846181
C  C281  1  0.90970000  0.85390000  0.07450000  1.0 0.3395361685
C  C282  1  0.59670000  0.89030000  0.77309000  1.0 0.0083466943
C  C283  1  0.56970000  0.97710000  0.78031000  1.0 0.0776677906
C  C284  1  0.91220000  0.94330000  0.85995000  1.0 0.5818394196
C  C285  1  0.78160000  0.78340000  0.96307000  1.0 -0.0428232189
C  C286  1  0.89790000  0.76360000  0.20626000  1.0 0.5215500407
C  C287  1  0.52590000  0.01700000  0.77746000  1.0 -0.0019907719
C  C288  1  0.39400000  0.07700000  0.81337000  1.0 -0.049885765
C  C289  1  0.41870000  0.64510000  0.22861000  1.0 -0.0199269905
C  C290  1  0.69760000  0.83820000  0.21108000  1.0 0.0167368471
C  C291  1  0.82010000  0.80210000  0.94163000  1.0 0.1012671208
C  C292  1  0.73240000  0.74920000  0.95531000  1.0 -0.049885765
C  C293  1  0.18770000  0.94520000  0.87436000  1.0 -0.1079835764
C  C294  1  0.55520000  0.83570000  0.28866000  1.0 0.2095842992
C  C295  1  0.52330000  0.77850000  0.21244000  1.0 -0.4293399494
C  C296  1  0.57680000  0.74750000  0.84989000  1.0 -0.0199269905
C  C297  1  0.74190000  0.80800000  0.19456000  1.0 0.071230143
C  C298  1  0.35460000  0.03920000  0.82304000  1.0 0.1012671208
C  C299  1  0.61820000  0.73860000  0.87139000  1.0 -0.1577012921
C  C300  1  0.90530000  0.85890000  0.92855000  1.0 0.071230143
C  C301  1  0.77050000  0.75710000  0.15156000  1.0 -0.0428232189
C  C302  1  0.35970000  0.65760000  0.22978000  1.0 -0.1191024383
C  C303  1  0.96340000  0.84850000  0.93236000  1.0 -0.1502174582
C  C304  1  0.56180000  0.82200000  0.25867000  1.0 -0.0556598396
C  C305  1  0.92950000  0.90910000  0.88530000  1.0 0.0083466943
C  C306  1  0.60460000  0.73970000  0.90177000  1.0 0.071230143
C  C307  1  0.00480000  0.86640000  0.91233000  1.0 0.0167368471
C  C308  1  0.73060000  0.95860000  0.80015000  1.0 0.529489271
C  C309  1  0.06740000  0.85010000  0.91561000  1.0 0.5215500407
C  C310  1  0.64880000  0.72730000  0.92468000  1.0 0.0167368471
C  C311  1  0.44230000  0.06460000  0.79247000  1.0 -0.049885765
C  C312  1  0.34240000  0.70190000  0.24147000  1.0 0.0022972501
C  C313  1  0.65400000  0.81410000  0.22787000  1.0 0.1012671208
C  C314  1  0.61760000  0.89670000  0.23925000  1.0 0.1806990993
C  C315  1  0.69060000  0.76310000  0.93370000  1.0 0.1012671208
C  C316  1  0.55540000  0.92800000  0.77323000  1.0 -0.1502174582
C  C317  1  0.45900000  0.67900000  0.23942000  1.0 -0.1397237318
C  C318  1  0.10920000  0.98570000  0.84421000  1.0 0.5384538692
C  C319  1  0.20990000  0.02010000  0.84712000  1.0 -0.1502174582
C  C320  1  0.78940000  0.79690000  0.99288000  1.0 0.1806990993
C  C321  1  0.44350000  0.08790000  0.76435000  1.0 0.2005970754
C  C322  1  0.83010000  0.83090000  0.00199000  1.0 -0.0199269905
C  C323  1  0.52410000  0.78760000  0.24549000  1.0 0.1096802225
C  C324  1  0.31200000  0.05350000  0.84399000  1.0 0.0083466943
C  C325  1  0.51550000  0.81160000  0.30778000  1.0 -0.0112664848
C  C326  1  0.88840000  0.88860000  0.90504000  1.0 -0.1577012921
C  C327  1  0.72840000  0.70210000  0.96892000  1.0 0.2005970754
C  C328  1  0.38370000  0.12650000  0.82052000  1.0 0.1887525153
C  C329  1  0.68890000  0.66600000  0.95977000  1.0 -0.0112664848
C  C330  1  0.86160000  0.83620000  0.95068000  1.0 0.0083466943
C  C331  1  0.82710000  0.75410000  0.16407000  1.0 -0.0872718527
C  C332  1  0.81910000  0.78280000  0.90937000  1.0 -0.4221331592
C  C333  1  0.28000000  0.71750000  0.24100000  1.0 0.5078568977
C  C334  1  0.66050000  0.91910000  0.22483000  1.0 -0.0292098637
C  C335  1  0.26890000  0.01520000  0.85523000  1.0 0.0776677906
C  C336  1  0.48670000  0.03050000  0.79957000  1.0 0.1012671208
C  C337  1  0.62620000  0.98680000  0.79000000  1.0 -0.1502174582
C  C338  1  0.35890000  0.98740000  0.81170000  1.0 -0.4483045583
C  C339  1  0.83920000  0.77410000  0.19177000  1.0 -0.0019907719
C  C340  1  0.75630000  0.73470000  0.12294000  1.0 0.5670587939
C  C341  1  0.30620000  0.10270000  0.85275000  1.0 -0.1809047482
C  C342  1  0.61150000  0.84410000  0.24191000  1.0 -0.0292098637
C  C343  1  0.64970000  0.67950000  0.93687000  1.0 -0.1809047482
C  C344  1  0.24450000  0.94020000  0.88233000  1.0 0.0022972501
C  C345  1  0.68590000  0.81510000  0.92103000  1.0 -0.4221331592
C  C346  1  0.48370000  0.76210000  0.26437000  1.0 0.0022972501
C  C347  1  0.72920000  0.78410000  0.16793000  1.0 -0.1397237318
C  C348  1  0.79850000  0.80070000  0.20631000  1.0 -0.1397237318
C  C349  1  0.26320000  0.89720000  0.90219000  1.0 0.5818394196
C  C350  1  0.68940000  0.57630000  0.94806000  1.0 -0.2701799272
C  C351  1  0.69270000  0.52610000  0.95620000  1.0 0.3693971457
C  C352  1  0.69620000  0.51290000  0.98630000  1.0 -0.3306846181
C  C353  1  0.69640000  0.54980000  0.00820000  1.0 0.350736056
C  C354  1  0.69310000  0.60000000  0.00008000  1.0 -0.2497202489
C  C355  1  0.68960000  0.61319000  0.97001000  1.0 0.139386606
C  C356  1  0.28500000  0.97630000  0.87283000  1.0 -0.1502174582
C  C357  1  0.70070000  0.88970000  0.21016000  1.0 -0.1809047482
C  C358  1  0.43670000  0.59570000  0.21629000  1.0 0.5818394196
C  C359  1  0.86590000  0.85030000  0.98037000  1.0 -0.1706443842
C  C360  1  0.47700000  0.09620000  0.71017000  1.0 0.1600662993
C  C361  1  0.52713000  0.11510000  0.69707000  1.0 -0.2701799272
C  C362  1  0.52560000  0.13320000  0.66788000  1.0 0.3596678651
C  C363  1  0.47410000  0.13240000  0.65178000  1.0 -0.3741366047
C  C364  1  0.42400000  0.11350000  0.66488000  1.0 0.3395361685
C  C365  1  0.42545000  0.09540000  0.69408000  1.0 -0.2785171845
C  C366  1  0.65360000  0.75920000  0.23040000  1.0 -0.4293399494
C  C367  1  0.59270000  0.74220000  0.81710000  1.0 0.5670587939
C  C368  1  0.50620000  0.86850000  0.35223000  1.0 -0.2497202489
C  C369  1  0.51140000  0.82070000  0.34027000  1.0 0.1294010243
C  C370  1  0.51240000  0.77927000  0.35914000  1.0 -0.2585329853
C  C371  1  0.50820000  0.78570000  0.38997000  1.0 0.3596678651
C  C372  1  0.50310000  0.83360000  0.40193000  1.0 -0.3200312513
C  C373  1  0.50210000  0.87500000  0.38306000  1.0 0.3596678651
C  C374  1  0.48230000  0.77440000  0.29440000  1.0 -0.1809047482
C  C375  1  0.57920000  0.83810000  0.76444000  1.0 0.5818394196
C  C376  1  0.48100000  0.07450000  0.74082000  1.0 -0.0199269905
C  C377  1  0.34140000  0.14080000  0.84138000  1.0 -0.0019907719
C  C378  1  0.38280000  0.73530000  0.25346000  1.0 -0.1502174582
C  C379  1  0.44170000  0.72640000  0.25203000  1.0 0.071230143
C  C380  1  0.49140000  0.00730000  0.82990000  1.0 -0.4221331592
C  C381  1  0.63030000  0.05790000  0.21168000  1.0 0.334407871
C  C382  1  0.68580000  0.07778000  0.21404000  1.0 -0.3377190981
C  C383  1  0.73260000  0.04660000  0.22017000  1.0 0.3395361685
C  C384  1  0.72380000  0.99540000  0.22395000  1.0 -0.2915134507
C  C385  1  0.66830000  0.97556000  0.22159000  1.0 0.1806990993
C  C386  1  0.62160000  0.00680000  0.21546000  1.0 -0.2701799272
C  C387  1  0.46000000  0.01250000  0.22570000  1.0 -0.5705631983
C  C388  1  0.41590000  0.01810000  0.25030000  1.0 0.5518837642
C  C389  1  0.30510000  0.00580000  0.26220000  1.0 -0.3306846181
C  C390  1  0.33770000  0.99610000  0.21090000  1.0 -0.3377190981
C  C391  1  0.97690000  0.96120000  0.24939000  1.0 -0.1894008558
C  C392  1  0.97910000  0.23940000  0.35846000  1.0 -0.1191024383
C  C393  1  0.99330000  0.23540000  0.38834000  1.0 -0.0112664848
C  C394  1  0.95100000  0.24750000  0.40936000  1.0 -0.1502174582
C  C395  1  0.83120000  0.05270000  0.29056000  1.0 0.0083466943
C  C396  1  0.51160000  0.10260000  0.38925000  1.0 -0.1079835764
C  C397  1  0.19700000  0.72040000  0.34260000  1.0 0.350736056
C  C398  1  0.18260000  0.76770000  0.33194000  1.0 -0.2701799272
C  C399  1  0.16667000  0.80530000  0.35190000  1.0 0.139386606
C  C400  1  0.16530000  0.79560000  0.38250000  1.0 -0.2585329853
C  C401  1  0.17970000  0.74830000  0.39310000  1.0 0.389108367
C  C402  1  0.19560000  0.71070000  0.37320000  1.0 -0.3377190981
C  C403  1  0.33000000  0.01430000  0.35628000  1.0 0.0083466943
C  C404  1  0.05140000  0.21780000  0.39769000  1.0 0.5215500407
C  C405  1  0.84610000  0.09850000  0.28187000  1.0 -0.1079835764
C  C406  1  0.60180000  0.15560000  0.54448000  1.0 -0.2701799272
C  C407  1  0.65880000  0.15980000  0.53465000  1.0 0.1600662993
C  C408  1  0.70420000  0.15450000  0.55487000  1.0 -0.2585329853
C  C409  1  0.69270000  0.14500000  0.58490000  1.0 0.3395361685
C  C410  1  0.63570000  0.14080000  0.59473000  1.0 -0.3306846181
C  C411  1  0.59030000  0.14610000  0.57450000  1.0 0.334407871
C  C412  1  0.90330000  0.10970000  0.27309000  1.0 0.0083466943
C  C413  1  0.93030000  0.02290000  0.28031000  1.0 0.0776677906
C  C414  1  0.58780000  0.05670000  0.35995000  1.0 0.5818394196
C  C415  1  0.71840000  0.21660000  0.46307000  1.0 -0.0428232189
C  C416  1  0.60210000  0.23640000  0.70626000  1.0 0.5215500407
C  C417  1  0.97410000  0.98300000  0.27746000  1.0 -0.0019907719
C  C418  1  0.10600000  0.92300000  0.31337000  1.0 -0.0556598396
C  C419  1  0.08130000  0.35490000  0.72861000  1.0 -0.0199269905
C  C420  1  0.80240000  0.16180000  0.71108000  1.0 0.0167368471
C  C421  1  0.67990000  0.19790000  0.44163000  1.0 0.1012671208
C  C422  1  0.76760000  0.25080000  0.45531000  1.0 -0.0428232189
C  C423  1  0.31230000  0.05480000  0.37436000  1.0 -0.1079835764
C  C424  1  0.94480000  0.16430000  0.78866000  1.0 0.2095842992
C  C425  1  0.97670000  0.22150000  0.71244000  1.0 -0.4293399494
C  C426  1  0.92320000  0.25250000  0.34989000  1.0 -0.0112664848
C  C427  1  0.75810000  0.19200000  0.69456000  1.0 0.071230143
C  C428  1  0.14540000  0.96080000  0.32304000  1.0 0.1012671208
C  C429  1  0.88180000  0.26140000  0.37139000  1.0 -0.1577012921
C  C430  1  0.59470000  0.14110000  0.42855000  1.0 0.071230143
C  C431  1  0.72950000  0.24290000  0.65156000  1.0 -0.0428232189
C  C432  1  0.14030000  0.34240000  0.72978000  1.0 -0.1191024383
C  C433  1  0.53660000  0.15150000  0.43236000  1.0 -0.1502174582
C  C434  1  0.93820000  0.17800000  0.75867000  1.0 -0.0556598396
C  C435  1  0.57050000  0.09090000  0.38530000  1.0 0.0083466943
C  C436  1  0.89540000  0.26030000  0.40177000  1.0 0.071230143
C  C437  1  0.49520000  0.13360000  0.41233000  1.0 0.0167368471
C  C438  1  0.76940000  0.04140000  0.30015000  1.0 0.529489271
C  C439  1  0.43260000  0.14990000  0.41561000  1.0 0.5215500407
C  C440  1  0.85120000  0.27270000  0.42468000  1.0 0.0167368471
C  C441  1  0.05770000  0.93540000  0.29247000  1.0 -0.049885765
C  C442  1  0.15760000  0.29810000  0.74147000  1.0 0.0022972501
C  C443  1  0.84600000  0.18590000  0.72787000  1.0 0.1012671208
C  C444  1  0.88240000  0.10330000  0.73925000  1.0 0.1806990993
C  C445  1  0.80940000  0.23690000  0.43370000  1.0 0.1012671208
C  C446  1  0.94460000  0.07200000  0.27323000  1.0 -0.1502174582
C  C447  1  0.04100000  0.32100000  0.73942000  1.0 -0.1397237318
C  C448  1  0.39080000  0.01430000  0.34421000  1.0 0.5384538692
C  C449  1  0.29010000  0.97990000  0.34712000  1.0 -0.1502174582
C  C450  1  0.71060000  0.20310000  0.49288000  1.0 0.1806990993
C  C451  1  0.05650000  0.91210000  0.26435000  1.0 0.2005970754
C  C452  1  0.66990000  0.16910000  0.50199000  1.0 -0.0199269905
C  C453  1  0.97590000  0.21240000  0.74549000  1.0 0.1096802225
C  C454  1  0.18800000  0.94650000  0.34399000  1.0 0.0083466943
C  C455  1  0.98450000  0.18840000  0.80778000  1.0 -0.0019907719
C  C456  1  0.61160000  0.11140000  0.40504000  1.0 -0.1577012921
C  C457  1  0.77160000  0.29790000  0.46892000  1.0 0.2005970754
C  C458  1  0.11630000  0.87350000  0.32052000  1.0 0.1887525153
C  C459  1  0.81110000  0.33400000  0.45977000  1.0 -0.0112664848
C  C460  1  0.63840000  0.16380000  0.45068000  1.0 0.0083466943
C  C461  1  0.67290000  0.24590000  0.66407000  1.0 -0.0872718527
C  C462  1  0.68090000  0.21720000  0.40937000  1.0 -0.4221331592
C  C463  1  0.22000000  0.28250000  0.74100000  1.0 0.5078568977
C  C464  1  0.83950000  0.08090000  0.72483000  1.0 -0.0292098637
C  C465  1  0.23110000  0.98480000  0.35523000  1.0 0.0776677906
C  C466  1  0.01330000  0.96950000  0.29957000  1.0 0.1012671208
C  C467  1  0.87380000  0.01320000  0.29000000  1.0 -0.1502174582
C  C468  1  0.14110000  0.01260000  0.31170000  1.0 -0.4483045583
C  C469  1  0.66080000  0.22590000  0.69177000  1.0 -0.0019907719
C  C470  1  0.74370000  0.26530000  0.62294000  1.0 0.5670587939
C  C471  1  0.19380000  0.89730000  0.35275000  1.0 -0.1809047482
C  C472  1  0.88850000  0.15590000  0.74191000  1.0 -0.0292098637
C  C473  1  0.85030000  0.32050000  0.43687000  1.0 -0.1809047482
C  C474  1  0.25550000  0.05980000  0.38233000  1.0 0.0022972501
C  C475  1  0.81410000  0.18490000  0.42103000  1.0 -0.4221331592
C  C476  1  0.01630000  0.23790000  0.76437000  1.0 0.0022972501
C  C477  1  0.77080000  0.21590000  0.66793000  1.0 -0.1397237318
C  C478  1  0.70150000  0.19930000  0.70631000  1.0 -0.1397237318
C  C479  1  0.23680000  0.10280000  0.40219000  1.0 0.5818394196
C  C480  1  0.81060000  0.42370000  0.44806000  1.0 -0.2701799272
C  C481  1  0.80730000  0.47390000  0.45620000  1.0 0.3596678651
C  C482  1  0.80380000  0.48710000  0.48630000  1.0 -0.3200312513
C  C483  1  0.80360000  0.45020000  0.50820000  1.0 0.350736056
C  C484  1  0.80690000  0.40000000  0.50008000  1.0 -0.2585329853
C  C485  1  0.81040000  0.38681000  0.47001000  1.0 0.139386606
C  C486  1  0.21500000  0.02370000  0.37283000  1.0 -0.1502174582
C  C487  1  0.79930000  0.11030000  0.71016000  1.0 -0.1809047482
C  C488  1  0.06330000  0.40430000  0.71629000  1.0 0.5818394196
C  C489  1  0.63410000  0.14970000  0.48037000  1.0 -0.1706443842
C  C490  1  0.02300000  0.90380000  0.21017000  1.0 0.1600662993
C  C491  1  0.97287000  0.88490000  0.19707000  1.0 -0.2701799272
C  C492  1  0.97440000  0.86680000  0.16788000  1.0 0.3596678651
C  C493  1  0.02590000  0.86760000  0.15178000  1.0 -0.3741366047
C  C494  1  0.07600000  0.88650000  0.16488000  1.0 0.3395361685
C  C495  1  0.07455000  0.90460000  0.19408000  1.0 -0.2785171845
C  C496  1  0.84640000  0.24080000  0.73040000  1.0 -0.4293399494
C  C497  1  0.90730000  0.25780000  0.31710000  1.0 0.5670587939
C  C498  1  0.99380000  0.13150000  0.85223000  1.0 -0.2497202489
C  C499  1  0.98860000  0.17930000  0.84027000  1.0 0.139386606
C  C500  1  0.98760000  0.22073000  0.85914000  1.0 -0.2585329853
C  C501  1  0.99180000  0.21430000  0.88997000  1.0 0.3596678651
C  C502  1  0.99690000  0.16640000  0.90193000  1.0 -0.3200312513
C  C503  1  0.99790000  0.12500000  0.88306000  1.0 0.3596678651
C  C504  1  0.01770000  0.22560000  0.79440000  1.0 -0.1809047482
C  C505  1  0.92080000  0.16190000  0.26444000  1.0 0.5818394196
C  C506  1  0.01900000  0.92550000  0.24082000  1.0 -0.0199269905
C  C507  1  0.15860000  0.85920000  0.34138000  1.0 -0.0019907719
C  C508  1  0.11720000  0.26470000  0.75346000  1.0 -0.1502174582
C  C509  1  0.05830000  0.27360000  0.75203000  1.0 0.071230143
C  C510  1  0.00860000  0.99270000  0.32990000  1.0 -0.4221331592
C  C511  1  0.86970000  0.94210000  0.71168000  1.0 0.334407871
C  C512  1  0.81420000  0.92222000  0.71404000  1.0 -0.3377190981
C  C513  1  0.76740000  0.95340000  0.72017000  1.0 0.3395361685
C  C514  1  0.77620000  0.00460000  0.72395000  1.0 -0.2915134507
C  C515  1  0.83170000  0.02444000  0.72159000  1.0 0.1806990993
C  C516  1  0.87840000  0.99320000  0.71546000  1.0 -0.2701799272
C  C517  1  0.04000000  0.98750000  0.72570000  1.0 -0.5705631983
C  C518  1  0.08410000  0.98190000  0.75030000  1.0 0.5518837642
C  C519  1  0.19490000  0.99420000  0.76220000  1.0 -0.3306846181
C  C520  1  0.16230000  0.00390000  0.71090000  1.0 -0.3377190981
N  N1  1  0.64250000  0.50540000  0.25680000  1.0 -0.0292098637
N  N2  1  0.85750000  0.49460000  0.75680000  1.0 -0.0199269905
N  N3  1  0.35750000  0.00540000  0.24320000  1.0 -0.0292098637
N  N4  1  0.14250000  0.99460000  0.74320000  1.0 -0.0292098637
O  O1  1  0.38130000  0.31015000  0.74593000  1.0 -0.5603205118
O  O2  1  0.35616000  0.24810000  0.68993000  1.0 -0.4870222222
O  O3  1  0.20450000  0.22630000  0.39535000  1.0 -0.5603205118
O  O4  1  0.91325000  0.34020000  0.55850000  1.0 -0.5291573582
O  O5  1  0.05132000  0.46954000  0.65166000  1.0 -0.4977703977
O  O6  1  0.59816000  0.62422000  0.74179000  1.0 -0.4483045583
O  O7  1  0.90185000  0.34884000  0.60668000  1.0 -0.4870222222
O  O8  1  0.14114000  0.44182000  0.64779000  1.0 -0.5401540774
O  O9  1  0.57080000  0.26889000  0.57701000  1.0 -0.5291573582
O  O10  1  0.18345000  0.20896000  0.46125000  1.0 -0.7199488615
O  O11  1  0.42423000  0.42478000  0.24485000  1.0 -0.4589094746
O  O12  1  0.58045000  0.66484000  0.69184000  1.0 -0.4394340933
O  O13  1  0.36267000  0.45413000  0.20105000  1.0 -0.7427583514
O  O14  1  0.64231000  0.70579000  0.73170000  1.0 -0.7483395614
O  O15  1  0.23186000  0.19061000  0.50867000  1.0 -0.4394340933
O  O16  1  0.40902000  0.37299000  0.19951000  1.0 -0.4221331592
O  O17  1  0.29458000  0.20380000  0.46256000  1.0 -0.7427583514
O  O18  1  0.51138000  0.09111000  0.29353000  1.0 -0.5291573582
O  O19  1  0.24739000  0.27528000  0.48575000  1.0 -0.4483045583
O  O20  1  0.47323000  0.45078000  0.19882000  1.0 -0.7648958045
O  O21  1  0.91669000  0.44522000  0.66059000  1.0 -0.4870222222
O  O22  1  0.77515000  0.37522000  0.58358000  1.0 -0.5401540774
O  O23  1  0.68432000  0.38596000  0.59780000  1.0 -0.4977703977
O  O24  1  0.53093000  0.69946000  0.73482000  1.0 -0.7199488615
O  O25  1  0.25720000  0.49981000  0.68755000  1.0 -0.4977703977
O  O26  1  0.59922000  0.06115000  0.28497000  1.0 -0.5705631983
O  O27  1  0.57897000  0.31220000  0.61820000  1.0 -0.4977703977
O  O28  1  0.47185000  0.32677000  0.73354000  1.0 -0.4799302662
O  O29  1  0.07451000  0.22660000  0.30073000  1.0 -0.4743607867
O  O30  1  0.23295000  0.42802000  0.70315000  1.0 -0.4483045583
O  O31  1  0.08542000  0.29380000  0.27401000  1.0 -0.5209826234
O  O32  1  0.09250000  0.12850000  0.44645000  1.0 -0.2012900862
O  O33  1  0.91360000  0.52770000  0.66247000  1.0 -0.5209826234
O  O34  1  0.29574000  0.22300000  0.38133000  1.0 -0.5089596588
O  O35  1  0.44643000  0.23130000  0.70129000  1.0 -0.5758890786
O  O36  1  0.75174000  0.19894000  0.27886000  1.0 -0.4977703977
O  O37  1  0.73840000  0.24710000  0.24160000  1.0 -0.4483045583
O  O38  1  0.43860000  0.78126000  0.72755000  1.0 -0.2915134507
O  O39  1  0.57090000  0.51240000  0.22450000  1.0 -0.4394340933
O  O40  1  0.37930000  0.26260000  0.42020000  1.0 0.0619542782
O  O41  1  0.28020000  0.18260000  0.71300000  1.0 0.1012671208
O  O42  1  0.11870000  0.68985000  0.24593000  1.0 -0.5603205118
O  O43  1  0.14384000  0.75190000  0.18993000  1.0 -0.4870222222
O  O44  1  0.29550000  0.77370000  0.89535000  1.0 -0.5603205118
O  O45  1  0.58675000  0.65980000  0.05850000  1.0 -0.5291573582
O  O46  1  0.44868000  0.53046000  0.15166000  1.0 -0.4977703977
O  O47  1  0.90184000  0.37578000  0.24179000  1.0 -0.4394340933
O  O48  1  0.59815000  0.65116000  0.10668000  1.0 -0.4799302662
O  O49  1  0.35886000  0.55818000  0.14779000  1.0 -0.5401540774
O  O50  1  0.92920000  0.73111000  0.07701000  1.0 -0.5291573582
O  O51  1  0.31655000  0.79104000  0.96125000  1.0 -0.7199488615
O  O52  1  0.07577000  0.57522000  0.74485000  1.0 -0.4589094746
O  O53  1  0.91955000  0.33516000  0.19184000  1.0 -0.4394340933
O  O54  1  0.13733000  0.54587000  0.70105000  1.0 -0.7427583514
O  O55  1  0.85769000  0.29421000  0.23170000  1.0 -0.7483395614
O  O56  1  0.26814000  0.80939000  0.00867000  1.0 -0.4394340933
O  O57  1  0.09098000  0.62701000  0.69951000  1.0 -0.4221331592
O  O58  1  0.20542000  0.79620000  0.96256000  1.0 -0.7427583514
O  O59  1  0.98862000  0.90889000  0.79353000  1.0 -0.5291573582
O  O60  1  0.25261000  0.72472000  0.98575000  1.0 -0.4483045583
O  O61  1  0.02677000  0.54922000  0.69882000  1.0 -0.7660089809
O  O62  1  0.58331000  0.55478000  0.16059000  1.0 -0.4870222222
O  O63  1  0.72485000  0.62478000  0.08358000  1.0 -0.5401540774
O  O64  1  0.81568000  0.61404000  0.09780000  1.0 -0.4977703977
O  O65  1  0.96907000  0.30054000  0.23482000  1.0 -0.7199488615
O  O66  1  0.24280000  0.50019000  0.18755000  1.0 -0.4977703977
O  O67  1  0.90078000  0.93885000  0.78497000  1.0 -0.5705631983
O  O68  1  0.92103000  0.68780000  0.11820000  1.0 -0.4977703977
O  O69  1  0.02815000  0.67323000  0.23354000  1.0 -0.4799302662
O  O70  1  0.42549000  0.77340000  0.80073000  1.0 -0.4743607867
O  O71  1  0.26705000  0.57198000  0.20315000  1.0 -0.4483045583
O  O72  1  0.41458000  0.70620000  0.77401000  1.0 -0.5209826234
O  O73  1  0.40750000  0.87150000  0.94645000  1.0 -0.2012900862
O  O74  1  0.58640000  0.47230000  0.16247000  1.0 -0.5209826234
O  O75  1  0.20426000  0.77700000  0.88133000  1.0 -0.5089596588
O  O76  1  0.05357000  0.76870000  0.20129000  1.0 -0.5758890786
O  O77  1  0.74826000  0.80106000  0.77886000  1.0 -0.4977703977
O  O78  1  0.76160000  0.75290000  0.74160000  1.0 -0.4483045583
O  O79  1  0.06140000  0.21874000  0.22755000  1.0 -0.2915134507
O  O80  1  0.92910000  0.48760000  0.72450000  1.0 -0.4394340933
O  O81  1  0.12070000  0.73740000  0.92020000  1.0 0.0619542782
O  O82  1  0.21980000  0.81740000  0.21300000  1.0 0.1012671208
O  O83  1  0.61870000  0.81015000  0.75407000  1.0 -0.5603205118
O  O84  1  0.64384000  0.74810000  0.81007000  1.0 -0.4870222222
O  O85  1  0.79550000  0.72630000  0.10465000  1.0 -0.5603205118
O  O86  1  0.08675000  0.84020000  0.94150000  1.0 -0.5291573582
O  O87  1  0.94868000  0.96954000  0.84834000  1.0 -0.4977703977
O  O88  1  0.40184000  0.12422000  0.75821000  1.0 -0.4483045583
O  O89  1  0.09815000  0.84884000  0.89332000  1.0 -0.4799302662
O  O90  1  0.85886000  0.94182000  0.85221000  1.0 -0.5401540774
O  O91  1  0.42920000  0.76889000  0.92299000  1.0 -0.5291573582
O  O92  1  0.81655000  0.70896000  0.03875000  1.0 -0.7199488615
O  O93  1  0.57577000  0.92478000  0.25515000  1.0 -0.4589094746
O  O94  1  0.41955000  0.16484000  0.80816000  1.0 -0.4394340933
O  O95  1  0.63733000  0.95413000  0.29895000  1.0 -0.7427583514
O  O96  1  0.35769000  0.20579000  0.76830000  1.0 -0.7483395614
O  O97  1  0.76814000  0.69061000  0.99133000  1.0 -0.4394340933
O  O98  1  0.59098000  0.87299000  0.30049000  1.0 -0.4221331592
O  O99  1  0.70542000  0.70380000  0.03744000  1.0 -0.7483395614
O  O100  1  0.48862000  0.59111000  0.20647000  1.0 -0.5291573582
O  O101  1  0.75261000  0.77528000  0.01425000  1.0 -0.4483045583
O  O102  1  0.52677000  0.95078000  0.30118000  1.0 -0.7660089809
O  O103  1  0.08331000  0.94522000  0.83941000  1.0 -0.4870222222
O  O104  1  0.22485000  0.87522000  0.91642000  1.0 -0.5401540774
O  O105  1  0.31568000  0.88596000  0.90220000  1.0 -0.4977703977
O  O106  1  0.46907000  0.19946000  0.76518000  1.0 -0.7199488615
O  O107  1  0.74280000  0.99981000  0.81245000  1.0 -0.4977703977
O  O108  1  0.40078000  0.56115000  0.21503000  1.0 -0.5705631983
O  O109  1  0.42103000  0.81220000  0.88180000  1.0 -0.4977703977
O  O110  1  0.52815000  0.82677000  0.76646000  1.0 -0.4799302662
O  O111  1  0.92549000  0.72660000  0.19927000  1.0 -0.4799302662
O  O112  1  0.76705000  0.92802000  0.79685000  1.0 -0.4483045583
O  O113  1  0.91458000  0.79380000  0.22599000  1.0 -0.5209826234
O  O114  1  0.90750000  0.62850000  0.05355000  1.0 -0.2012900862
O  O115  1  0.08640000  0.02770000  0.83753000  1.0 -0.5209826234
O  O116  1  0.70426000  0.72300000  0.11867000  1.0 -0.5089596588
O  O117  1  0.55357000  0.73130000  0.79871000  1.0 -0.5705631983
O  O118  1  0.24826000  0.69894000  0.22114000  1.0 -0.4977703977
O  O119  1  0.26160000  0.74710000  0.25840000  1.0 -0.4483045583
O  O120  1  0.56140000  0.28126000  0.77245000  1.0 -0.2785171845
O  O121  1  0.42910000  0.01240000  0.27550000  1.0 -0.4394340933
O  O122  1  0.62070000  0.76260000  0.07980000  1.0 0.0619542782
O  O123  1  0.71980000  0.68260000  0.78700000  1.0 0.1012671208
O  O124  1  0.88130000  0.18985000  0.25407000  1.0 -0.5603205118
O  O125  1  0.85616000  0.25190000  0.31007000  1.0 -0.4870222222
O  O126  1  0.70450000  0.27370000  0.60465000  1.0 -0.5603205118
O  O127  1  0.41325000  0.15980000  0.44150000  1.0 -0.5291573582
O  O128  1  0.55132000  0.03046000  0.34834000  1.0 -0.4977703977
O  O129  1  0.09816000  0.87578000  0.25821000  1.0 -0.4483045583
O  O130  1  0.40185000  0.15116000  0.39332000  1.0 -0.4799302662
O  O131  1  0.64114000  0.05818000  0.35221000  1.0 -0.5401540774
O  O132  1  0.07080000  0.23111000  0.42299000  1.0 -0.5291573582
O  O133  1  0.68345000  0.29104000  0.53875000  1.0 -0.7199488615
O  O134  1  0.92423000  0.07522000  0.75515000  1.0 -0.4589094746
O  O135  1  0.08045000  0.83516000  0.30816000  1.0 -0.4394340933
O  O136  1  0.86267000  0.04587000  0.79895000  1.0 -0.7427583514
O  O137  1  0.14231000  0.79421000  0.26830000  1.0 -0.7483395614
O  O138  1  0.73186000  0.30939000  0.49133000  1.0 -0.4394340933
O  O139  1  0.90902000  0.12701000  0.80049000  1.0 -0.4221331592
O  O140  1  0.79458000  0.29620000  0.53744000  1.0 -0.7483395614
O  O141  1  0.01138000  0.40889000  0.70647000  1.0 -0.5291573582
O  O142  1  0.74739000  0.22472000  0.51425000  1.0 -0.4483045583
O  O143  1  0.97323000  0.04922000  0.80118000  1.0 -0.7660089809
O  O144  1  0.41669000  0.05478000  0.33941000  1.0 -0.4870222222
O  O145  1  0.27515000  0.12478000  0.41642000  1.0 -0.5401540774
O  O146  1  0.18432000  0.11404000  0.40220000  1.0 -0.4977703977
O  O147  1  0.03093000  0.80054000  0.26518000  1.0 -0.7147914249
O  O148  1  0.75720000  0.00019000  0.31245000  1.0 -0.4977703977
O  O149  1  0.09922000  0.43885000  0.71503000  1.0 -0.5705631983
O  O150  1  0.07897000  0.18780000  0.38180000  1.0 -0.4977703977
O  O151  1  0.97185000  0.17323000  0.26646000  1.0 -0.4799302662
O  O152  1  0.57451000  0.27340000  0.69927000  1.0 -0.4799302662
O  O153  1  0.73295000  0.07198000  0.29685000  1.0 -0.4483045583
O  O154  1  0.58542000  0.20620000  0.72599000  1.0 -0.5209826234
O  O155  1  0.59250000  0.37150000  0.55355000  1.0 -0.2012900862
O  O156  1  0.41360000  0.97230000  0.33753000  1.0 -0.5209826234
O  O157  1  0.79574000  0.27700000  0.61867000  1.0 -0.5089596588
O  O158  1  0.94643000  0.26870000  0.29871000  1.0 -0.5758890786
O  O159  1  0.25174000  0.30106000  0.72114000  1.0 -0.4977703977
O  O160  1  0.23840000  0.25290000  0.75840000  1.0 -0.4483045583
O  O161  1  0.93860000  0.71874000  0.27245000  1.0 -0.2915134507
O  O162  1  0.07090000  0.98760000  0.77550000  1.0 -0.4394340933
O  O163  1  0.87930000  0.23740000  0.57980000  1.0 0.0619542782
O  O164  1  0.78020000  0.31740000  0.28700000  1.0 0.0947143954
F  F1  1  0.50370000  0.41870000  0.10573000  1.0 -0.1397237318
F  F2  1  0.49480000  0.24440000  0.09260000  1.0 -0.2131376866
F  F3  1  0.31450000  0.98930000  0.56300000  1.0 -0.227470808
F  F4  1  0.30430000  0.03690000  0.46330000  1.0 -0.1397237318
F  F5  1  0.43010000  0.65380000  0.84480000  1.0 -0.1328796897
F  F6  1  0.67760000  0.76250000  0.57900000  1.0 -0.2497202489
F  F7  1  0.71110000  0.81640000  0.67480000  1.0 -0.1397237318
F  F8  1  0.62420000  0.61290000  0.85109000  1.0 -0.1577012921
F  F9  1  0.21340000  0.56480000  0.27837000  1.0 -0.1397237318
F  F10  1  0.41650000  0.58710000  0.29480000  1.0 -0.1577012921
F  F11  1  0.24040000  0.35980000  0.39700000  1.0 -0.1577012921
F  F12  1  0.03420000  0.35960000  0.41690000  1.0 -0.1502174582
F  F13  1  0.99630000  0.58130000  0.60573000  1.0 -0.1397237318
F  F14  1  0.00520000  0.75560000  0.59260000  1.0 -0.2131376866
F  F15  1  0.18550000  0.01070000  0.06300000  1.0 -0.227470808
F  F16  1  0.19570000  0.96310000  0.96330000  1.0 -0.1397237318
F  F17  1  0.06990000  0.34620000  0.34480000  1.0 -0.1328796897
F  F18  1  0.82240000  0.23750000  0.07900000  1.0 -0.2497202489
F  F19  1  0.78890000  0.18360000  0.17480000  1.0 -0.1397237318
F  F20  1  0.87580000  0.38710000  0.35109000  1.0 -0.1577012921
F  F21  1  0.28660000  0.43520000  0.77837000  1.0 -0.1397237318
F  F22  1  0.08350000  0.41290000  0.79480000  1.0 -0.1577012921
F  F23  1  0.25960000  0.64020000  0.89700000  1.0 -0.1577012921
F  F24  1  0.46580000  0.64040000  0.91690000  1.0 -0.1502174582
F  F25  1  0.49630000  0.91870000  0.39427000  1.0 -0.1397237318
F  F26  1  0.50520000  0.74440000  0.40740000  1.0 -0.2131376866
F  F27  1  0.68550000  0.48930000  0.93700000  1.0 -0.227470808
F  F28  1  0.69570000  0.53690000  0.03670000  1.0 -0.1397237318
F  F29  1  0.56990000  0.15380000  0.65520000  1.0 -0.1328796897
F  F30  1  0.32240000  0.26250000  0.92100000  1.0 -0.2497202489
F  F31  1  0.28890000  0.31640000  0.82520000  1.0 -0.1397237318
F  F32  1  0.37580000  0.11290000  0.64891000  1.0 -0.1577012921
F  F33  1  0.78660000  0.06480000  0.22163000  1.0 -0.1397237318
F  F34  1  0.58350000  0.08710000  0.20520000  1.0 -0.1577012921
F  F35  1  0.75960000  0.85980000  0.10300000  1.0 -0.1577012921
F  F36  1  0.96580000  0.85960000  0.08310000  1.0 -0.1502174582
F  F37  1  0.00370000  0.08130000  0.89427000  1.0 -0.1397237318
F  F38  1  0.99480000  0.25560000  0.90740000  1.0 -0.2131376866
F  F39  1  0.81450000  0.51070000  0.43700000  1.0 -0.2223328429
F  F40  1  0.80430000  0.46310000  0.53670000  1.0 -0.1397237318
F  F41  1  0.93010000  0.84620000  0.15520000  1.0 -0.1328796897
F  F42  1  0.17760000  0.73750000  0.42100000  1.0 -0.2497202489
F  F43  1  0.21110000  0.68360000  0.32520000  1.0 -0.1397237318
F  F44  1  0.12420000  0.88710000  0.14891000  1.0 -0.1577012921
F  F45  1  0.71340000  0.93520000  0.72163000  1.0 -0.1397237318
F  F46  1  0.91650000  0.91290000  0.70520000  1.0 -0.1577012921
F  F47  1  0.74040000  0.14020000  0.60300000  1.0 -0.1577012921
F  F48  1  0.53420000  0.14040000  0.58310000  1.0 -0.1502174582
