# DDEC6 charges by PACMAN v1.1 (https://github.com/mtap-research/PACMAN-charge/)
data_XISPEW01_FSR_pacman
_symmetry_space_group_name_H-M   'P 1'
_cell_length_a   7.36350000
_cell_length_b   14.11120000
_cell_length_c   16.39060000
_cell_angle_alpha   105.33700000
_cell_angle_beta   97.65100000
_cell_angle_gamma   89.87800000
_symmetry_Int_Tables_number   1
_chemical_formula_structural   FeH8Pt(C3N)6
_chemical_formula_sum   'Fe2 H16 Pt2 C36 N12'
_cell_volume   1626.86065595
_cell_formula_units_Z   2
loop_
 _symmetry_equiv_pos_site_id
 _symmetry_equiv_pos_as_xyz
  1  'x, y, z'
loop_
 _atom_site_type_symbol
 _atom_site_label
 _atom_site_symmetry_multiplicity
 _atom_site_fract_x
 _atom_site_fract_y
 _atom_site_fract_z
 _atom_site_occupancy
 _atom_site_charge
Fe  Fe1  1  0.00000000  0.50000000  0.00000000  1.0 0.7897378823
Fe  Fe2  1  0.00000000  0.00000000  0.00000000  1.0 0.5820975921
H  H1  1  0.94720000  0.00590000  0.82020000  1.0 0.1310804557
H  H2  1  0.05280000  0.99410000  0.17980000  1.0 0.1310804557
H  H3  1  0.93620000  0.90390000  0.68540000  1.0 0.1310804557
H  H4  1  0.06380000  0.09610000  0.31460000  1.0 0.1310804557
H  H5  1  0.99490000  0.67620000  0.78780000  1.0 0.1207828915
H  H6  1  0.00510000  0.32380000  0.21220000  1.0 0.1207828915
H  H7  1  0.00180000  0.78360000  0.92020000  1.0 0.1207828915
H  H8  1  0.99820000  0.21640000  0.07980000  1.0 0.1207828915
H  H9  1  0.74770000  0.48400000  0.13600000  1.0 0.1093763134
H  H10  1  0.25230000  0.51600000  0.86400000  1.0 0.1093763134
H  H11  1  0.74060000  0.51650000  0.27970000  1.0 0.1310804557
H  H12  1  0.25940000  0.48350000  0.72030000  1.0 0.1310804557
H  H13  1  0.27260000  0.59830000  0.31780000  1.0 0.1405991635
H  H14  1  0.72740000  0.40170000  0.68220000  1.0 0.1405991635
H  H15  1  0.26430000  0.56070000  0.17230000  1.0 0.1093763134
H  H16  1  0.73570000  0.43930000  0.82770000  1.0 0.1093763134
Pt  Pt1  1  0.50828000  0.77163000  0.03450000  1.0 0.1000724009
Pt  Pt2  1  0.49172000  0.22837000  0.96550000  1.0 0.1000724009
C  C1  1  0.95790000  0.93873000  0.81365000  1.0 0.0786415285
C  C2  1  0.04210000  0.06127000  0.18635000  1.0 0.0786415285
C  C3  1  0.95150000  0.87790000  0.73235000  1.0 -0.1571619341
C  C4  1  0.04850000  0.12210000  0.26765000  1.0 -0.1571619341
C  C5  1  0.96820000  0.77750000  0.72096000  1.0 0.1601939185
C  C6  1  0.03180000  0.22250000  0.27904000  1.0 0.1601939185
C  C7  1  0.98590000  0.74320000  0.79300000  1.0 -0.1745472083
C  C8  1  0.01410000  0.25680000  0.20700000  1.0 -0.1790846864
C  C9  1  0.99030000  0.80816000  0.87254000  1.0 0.0786415285
C  C10  1  0.00970000  0.19184000  0.12746000  1.0 0.0786415285
C  C11  1  0.97120000  0.71370000  0.63701000  1.0 -0.0685796978
C  C12  1  0.02880000  0.28630000  0.36299000  1.0 -0.0685796978
C  C13  1  0.97900000  0.66810000  0.56528000  1.0 -0.0505317801
C  C14  1  0.02100000  0.33190000  0.43472000  1.0 -0.0505317801
C  C15  1  0.70580000  0.86739000  0.03515000  1.0 0.0470638967
C  C16  1  0.29420000  0.13261000  0.96485000  1.0 0.0470638967
C  C17  1  0.31390000  0.67405000  0.02987000  1.0 0.034967514
C  C18  1  0.68610000  0.32595000  0.97013000  1.0 0.034967514
C  C19  1  0.68680000  0.66559000  0.01620000  1.0 0.0414486921
C  C20  1  0.31320000  0.33441000  0.98380000  1.0 0.0414486921
C  C21  1  0.31980000  0.87326000  0.04247000  1.0 0.0414486921
C  C22  1  0.68020000  0.12674000  0.95753000  1.0 0.0414486921
C  C23  1  0.85460000  0.50730000  0.17307000  1.0 0.0941087103
C  C24  1  0.14540000  0.49270000  0.82693000  1.0 0.0941087103
C  C25  1  0.84880000  0.52710000  0.25948000  1.0 -0.1790846864
C  C26  1  0.15120000  0.47290000  0.74052000  1.0 -0.1790846864
C  C27  1  0.00600000  0.56290000  0.31613000  1.0 0.1601939185
C  C28  1  0.99400000  0.43710000  0.68387000  1.0 0.1601939185
C  C29  1  0.16380000  0.57520000  0.28215000  1.0 -0.1790846864
C  C30  1  0.83620000  0.42480000  0.71785000  1.0 -0.1790846864
C  C31  1  0.15720000  0.55260000  0.19444000  1.0 0.0941087103
C  C32  1  0.84280000  0.44740000  0.80556000  1.0 0.0941087103
C  C33  1  0.00160000  0.59140000  0.40690000  1.0 -0.0505317801
C  C34  1  0.99840000  0.40860000  0.59310000  1.0 -0.0505317801
C  C35  1  0.99160000  0.62310000  0.48072000  1.0 -0.0505317801
C  C36  1  0.00840000  0.37690000  0.51928000  1.0 -0.0505317801
N  N1  1  0.97870000  0.90576000  0.88385000  1.0 -0.1347015777
N  N2  1  0.02130000  0.09424000  0.11615000  1.0 -0.1347015777
N  N3  1  0.82110000  0.91874000  0.02915000  1.0 -0.3031429032
N  N4  1  0.17890000  0.08126000  0.97085000  1.0 -0.3031429032
N  N5  1  0.20080000  0.61553000  0.02452000  1.0 -0.3686789328
N  N6  1  0.79920000  0.38447000  0.97548000  1.0 -0.3686789328
N  N7  1  0.78920000  0.60379000  0.00416000  1.0 -0.3686789328
N  N8  1  0.21080000  0.39621000  0.99584000  1.0 -0.3686789328
N  N9  1  0.00540000  0.51983000  0.13980000  1.0 -0.2153791169
N  N10  1  0.99460000  0.48017000  0.86020000  1.0 -0.2153791169
N  N11  1  0.20140000  0.92500000  0.03587000  1.0 -0.3080624321
N  N12  1  0.79860000  0.07500000  0.96413000  1.0 -0.3080624321
