# DDEC6 charges by PACMAN v1.1 (https://github.com/mtap-research/PACMAN-charge/)
data_XITYEF_ASR_pacman
_symmetry_space_group_name_H-M   'P 1'
_cell_length_a   28.24040000
_cell_length_b   28.24040000
_cell_length_c   28.24040000
_cell_angle_alpha   60.00000000
_cell_angle_beta   60.00000000
_cell_angle_gamma   60.00000000
_symmetry_Int_Tables_number   1
_chemical_formula_structural   Zn2H40C28NO8
_chemical_formula_sum   'Zn24 H480 C336 N12 O96'
_cell_volume   15925.66344568
_cell_formula_units_Z   12
loop_
 _symmetry_equiv_pos_site_id
 _symmetry_equiv_pos_as_xyz
  1  'x, y, z'
loop_
 _atom_site_type_symbol
 _atom_site_label
 _atom_site_symmetry_multiplicity
 _atom_site_fract_x
 _atom_site_fract_y
 _atom_site_fract_z
 _atom_site_occupancy
 _atom_site_charge
Zn  Zn1  1  0.77910000  0.50000000  0.22090000  1.0 0.9569735232
Zn  Zn2  1  0.22089000  0.77911000  0.50000000  1.0 0.9569735232
Zn  Zn3  1  0.50000000  0.22089000  0.77911000  1.0 0.9569735232
Zn  Zn4  1  0.22089000  0.50000000  0.50000000  1.0 0.9569735232
Zn  Zn5  1  0.77911000  0.50000000  0.50000000  1.0 0.9569735232
Zn  Zn6  1  0.50000000  0.77911000  0.22090000  1.0 0.9569735232
Zn  Zn7  1  0.77911000  0.22090000  0.50000000  1.0 0.9569735232
Zn  Zn8  1  0.50000000  0.50000000  0.77911000  1.0 0.9569735232
Zn  Zn9  1  0.50000000  0.50000000  0.22090000  1.0 0.9569735232
Zn  Zn10  1  0.50000000  0.77911000  0.50000000  1.0 0.9569735232
Zn  Zn11  1  0.22089000  0.50000000  0.77911000  1.0 0.9569735232
Zn  Zn12  1  0.50000000  0.22090000  0.50000000  1.0 0.9569735232
Zn  Zn13  1  0.88258000  0.50000000  0.11742000  1.0 0.6737157109
Zn  Zn14  1  0.11742000  0.88258000  0.50000000  1.0 0.6737157109
Zn  Zn15  1  0.50000000  0.11742000  0.88258000  1.0 0.6737157109
Zn  Zn16  1  0.11742000  0.50000000  0.50000000  1.0 0.6737157109
Zn  Zn17  1  0.88258000  0.50000000  0.50000000  1.0 0.6737157109
Zn  Zn18  1  0.50000000  0.88258000  0.11742000  1.0 0.6737157109
Zn  Zn19  1  0.88258000  0.11742000  0.50000000  1.0 0.6737157109
Zn  Zn20  1  0.50000000  0.50000000  0.88258000  1.0 0.6737157109
Zn  Zn21  1  0.50000000  0.50000000  0.11742000  1.0 0.6737157109
Zn  Zn22  1  0.50000000  0.88258000  0.50000000  1.0 0.6737157109
Zn  Zn23  1  0.11742000  0.50000000  0.88258000  1.0 0.6737157109
Zn  Zn24  1  0.50000000  0.11742000  0.50000000  1.0 0.6737157109
H  H1  1  0.84130000  0.51690000  0.32090000  1.0 0.2012623179
H  H2  1  0.32090000  0.84130000  0.51690000  1.0 0.2012623179
H  H3  1  0.51690000  0.32090000  0.84130000  1.0 0.2012623179
H  H4  1  0.15870000  0.48310000  0.67910000  1.0 0.2012623179
H  H5  1  0.67910000  0.67910000  0.48310000  1.0 0.2012623179
H  H6  1  0.67910000  0.67910000  0.15870000  1.0 0.2012623179
H  H7  1  0.67910000  0.15870000  0.67910000  1.0 0.2012623179
H  H8  1  0.67910000  0.48310000  0.67910000  1.0 0.2012623179
H  H9  1  0.48310000  0.67910000  0.15870000  1.0 0.2012623179
H  H10  1  0.48310000  0.67910000  0.67910000  1.0 0.2012623179
H  H11  1  0.15870000  0.67910000  0.67910000  1.0 0.2012623179
H  H12  1  0.67910000  0.15870000  0.48310000  1.0 0.2012623179
H  H13  1  0.51690000  0.84130000  0.32090000  1.0 0.2012623179
H  H14  1  0.32090000  0.32090000  0.84130000  1.0 0.2012623179
H  H15  1  0.32090000  0.32090000  0.51690000  1.0 0.2012623179
H  H16  1  0.32090000  0.51690000  0.84130000  1.0 0.2012623179
H  H17  1  0.84130000  0.32090000  0.32090000  1.0 0.2012623179
H  H18  1  0.51690000  0.32090000  0.32090000  1.0 0.2012623179
H  H19  1  0.84130000  0.32090000  0.51690000  1.0 0.2012623179
H  H20  1  0.32090000  0.84130000  0.32090000  1.0 0.2012623179
H  H21  1  0.32090000  0.51690000  0.32090000  1.0 0.2012623179
H  H22  1  0.48310000  0.15870000  0.67910000  1.0 0.2012623179
H  H23  1  0.15870000  0.67910000  0.48310000  1.0 0.2012623179
H  H24  1  0.67910000  0.48310000  0.15870000  1.0 0.2012623179
H  H25  1  0.97920000  0.53120000  0.17280000  1.0 0.1284924105
H  H26  1  0.17280000  0.97920000  0.53120000  1.0 0.1284924105
H  H27  1  0.53120000  0.17280000  0.97920000  1.0 0.1284924105
H  H28  1  0.02080000  0.46880000  0.68320000  1.0 0.1284924105
H  H29  1  0.82720000  0.68320000  0.46880000  1.0 0.1284924105
H  H30  1  0.68320000  0.82720000  0.02080000  1.0 0.1284924105
H  H31  1  0.82720000  0.02080000  0.68320000  1.0 0.1284924105
H  H32  1  0.68320000  0.46880000  0.82720000  1.0 0.1284924105
H  H33  1  0.46880000  0.68320000  0.02080000  1.0 0.1284924105
H  H34  1  0.46880000  0.82720000  0.68320000  1.0 0.1284924105
H  H35  1  0.02080000  0.68320000  0.82720000  1.0 0.1284924105
H  H36  1  0.68320000  0.02080000  0.46880000  1.0 0.1284924105
H  H37  1  0.53120000  0.97920000  0.31680000  1.0 0.1284924105
H  H38  1  0.17280000  0.31680000  0.97920000  1.0 0.1284924105
H  H39  1  0.31680000  0.17280000  0.53120000  1.0 0.1284924105
H  H40  1  0.31680000  0.53120000  0.97920000  1.0 0.1284924105
H  H41  1  0.97920000  0.17280000  0.31680000  1.0 0.1284924105
H  H42  1  0.53120000  0.31680000  0.17280000  1.0 0.1284924105
H  H43  1  0.97920000  0.31680000  0.53120000  1.0 0.1284924105
H  H44  1  0.31680000  0.97920000  0.17280000  1.0 0.1284924105
H  H45  1  0.17280000  0.53120000  0.31680000  1.0 0.1284924105
H  H46  1  0.46880000  0.02080000  0.82720000  1.0 0.1284924105
H  H47  1  0.02080000  0.82720000  0.46880000  1.0 0.1284924105
H  H48  1  0.82720000  0.46880000  0.02080000  1.0 0.1284924105
H  H49  1  0.02080000  0.46880000  0.82720000  1.0 0.1284924105
H  H50  1  0.82720000  0.02080000  0.46880000  1.0 0.1284924105
H  H51  1  0.46880000  0.82720000  0.02080000  1.0 0.1284924105
H  H52  1  0.97920000  0.53120000  0.31680000  1.0 0.1284924105
H  H53  1  0.17280000  0.31680000  0.53120000  1.0 0.1284924105
H  H54  1  0.31680000  0.17280000  0.97920000  1.0 0.1284924105
H  H55  1  0.17280000  0.97920000  0.31680000  1.0 0.1284924105
H  H56  1  0.31680000  0.53120000  0.17280000  1.0 0.1284924105
H  H57  1  0.53120000  0.31680000  0.97920000  1.0 0.1284924105
H  H58  1  0.53120000  0.17280000  0.31680000  1.0 0.1284924105
H  H59  1  0.97920000  0.31680000  0.17280000  1.0 0.1284924105
H  H60  1  0.31680000  0.97920000  0.53120000  1.0 0.1284924105
H  H61  1  0.46880000  0.02080000  0.68320000  1.0 0.1284924105
H  H62  1  0.82720000  0.68320000  0.02080000  1.0 0.1284924105
H  H63  1  0.68320000  0.82720000  0.46880000  1.0 0.1284924105
H  H64  1  0.68320000  0.46880000  0.02080000  1.0 0.1284924105
H  H65  1  0.02080000  0.82720000  0.68320000  1.0 0.1284924105
H  H66  1  0.46880000  0.68320000  0.82720000  1.0 0.1284924105
H  H67  1  0.02080000  0.68320000  0.46880000  1.0 0.1284924105
H  H68  1  0.68320000  0.02080000  0.82720000  1.0 0.1284924105
H  H69  1  0.82720000  0.46880000  0.68320000  1.0 0.1284924105
H  H70  1  0.53120000  0.97920000  0.17280000  1.0 0.1284924105
H  H71  1  0.97920000  0.17280000  0.53120000  1.0 0.1284924105
H  H72  1  0.17280000  0.53120000  0.97920000  1.0 0.1284924105
H  H73  1  0.07710000  0.48170000  0.22030000  1.0 0.1151583421
H  H74  1  0.22030000  0.07710000  0.48170000  1.0 0.1142804477
H  H75  1  0.48170000  0.22030000  0.07710000  1.0 0.1151583421
H  H76  1  0.92290000  0.51830000  0.77910000  1.0 0.1151583421
H  H77  1  0.77970000  0.77910000  0.51830000  1.0 0.1142804477
H  H78  1  0.77910000  0.77970000  0.92290000  1.0 0.1142804477
H  H79  1  0.77970000  0.92290000  0.77910000  1.0 0.1142804477
H  H80  1  0.77910000  0.51830000  0.77970000  1.0 0.1151583421
H  H81  1  0.51830000  0.77910000  0.92290000  1.0 0.1142804477
H  H82  1  0.51830000  0.77970000  0.77910000  1.0 0.1142804477
H  H83  1  0.92290000  0.77910000  0.77970000  1.0 0.1142804477
H  H84  1  0.77910000  0.92290000  0.51830000  1.0 0.1142804477
H  H85  1  0.48170000  0.07710000  0.22090000  1.0 0.1151583421
H  H86  1  0.22030000  0.22090000  0.07710000  1.0 0.1151583421
H  H87  1  0.22090000  0.22030000  0.48170000  1.0 0.1151583421
H  H88  1  0.22090000  0.48170000  0.07710000  1.0 0.1151583421
H  H89  1  0.07710000  0.22030000  0.22090000  1.0 0.1151583421
H  H90  1  0.48170000  0.22090000  0.22030000  1.0 0.1151583421
H  H91  1  0.07710000  0.22090000  0.48170000  1.0 0.1142804477
H  H92  1  0.22090000  0.07710000  0.22030000  1.0 0.1151583421
H  H93  1  0.22030000  0.48170000  0.22090000  1.0 0.1151583421
H  H94  1  0.51830000  0.92290000  0.77970000  1.0 0.1142804477
H  H95  1  0.92290000  0.77970000  0.51830000  1.0 0.1142804477
H  H96  1  0.77970000  0.51830000  0.92290000  1.0 0.1142804477
H  H97  1  0.06430000  0.54110000  0.22570000  1.0 0.1005968254
H  H98  1  0.22570000  0.06430000  0.54110000  1.0 0.1005968254
H  H99  1  0.54110000  0.22570000  0.06430000  1.0 0.1005968254
H  H100  1  0.93570000  0.45890000  0.83110000  1.0 0.1005968254
H  H101  1  0.77430000  0.83110000  0.45890000  1.0 0.1005968254
H  H102  1  0.83110000  0.77430000  0.93570000  1.0 0.1005968254
H  H103  1  0.77430000  0.93570000  0.83110000  1.0 0.1005968254
H  H104  1  0.83110000  0.45890000  0.77430000  1.0 0.1005968254
H  H105  1  0.45890000  0.83110000  0.93570000  1.0 0.1005968254
H  H106  1  0.45890000  0.77430000  0.83110000  1.0 0.1005968254
H  H107  1  0.93570000  0.83110000  0.77430000  1.0 0.1005968254
H  H108  1  0.83110000  0.93570000  0.45890000  1.0 0.1005968254
H  H109  1  0.54110000  0.06430000  0.16890000  1.0 0.1005968254
H  H110  1  0.22570000  0.16890000  0.06430000  1.0 0.1005968254
H  H111  1  0.16890000  0.22570000  0.54110000  1.0 0.1005968254
H  H112  1  0.16890000  0.54110000  0.06430000  1.0 0.1005968254
H  H113  1  0.06430000  0.22570000  0.16890000  1.0 0.1005968254
H  H114  1  0.54110000  0.16890000  0.22570000  1.0 0.1005968254
H  H115  1  0.06430000  0.16890000  0.54110000  1.0 0.1005968254
H  H116  1  0.16890000  0.06430000  0.22570000  1.0 0.1005968254
H  H117  1  0.22570000  0.54110000  0.16890000  1.0 0.1005968254
H  H118  1  0.45890000  0.93570000  0.77430000  1.0 0.1005968254
H  H119  1  0.93570000  0.77430000  0.45890000  1.0 0.1005968254
H  H120  1  0.77430000  0.45890000  0.93570000  1.0 0.1005968254
H  H121  1  0.93570000  0.45890000  0.77430000  1.0 0.1005968254
H  H122  1  0.77430000  0.93570000  0.45890000  1.0 0.1005968254
H  H123  1  0.45890000  0.77430000  0.93570000  1.0 0.1005968254
H  H124  1  0.06430000  0.54110000  0.16890000  1.0 0.1005968254
H  H125  1  0.22570000  0.16890000  0.54110000  1.0 0.1005968254
H  H126  1  0.16890000  0.22570000  0.06430000  1.0 0.1005968254
H  H127  1  0.22570000  0.06430000  0.16890000  1.0 0.1005968254
H  H128  1  0.16890000  0.54110000  0.22570000  1.0 0.1005968254
H  H129  1  0.54110000  0.16890000  0.06430000  1.0 0.1005968254
H  H130  1  0.54110000  0.22570000  0.16890000  1.0 0.1005968254
H  H131  1  0.06430000  0.16890000  0.22570000  1.0 0.1005968254
H  H132  1  0.16890000  0.06430000  0.54110000  1.0 0.1005968254
H  H133  1  0.45890000  0.93570000  0.83110000  1.0 0.1005968254
H  H134  1  0.77430000  0.83110000  0.93570000  1.0 0.1005968254
H  H135  1  0.83110000  0.77430000  0.45890000  1.0 0.1005968254
H  H136  1  0.83110000  0.45890000  0.93570000  1.0 0.1005968254
H  H137  1  0.93570000  0.77430000  0.83110000  1.0 0.1005968254
H  H138  1  0.45890000  0.83110000  0.77430000  1.0 0.1005968254
H  H139  1  0.93570000  0.83110000  0.45890000  1.0 0.1005968254
H  H140  1  0.83110000  0.93570000  0.77430000  1.0 0.1005968254
H  H141  1  0.77430000  0.45890000  0.83110000  1.0 0.1005968254
H  H142  1  0.54110000  0.06430000  0.22570000  1.0 0.1005968254
H  H143  1  0.06430000  0.22570000  0.54110000  1.0 0.1005968254
H  H144  1  0.22570000  0.54110000  0.06430000  1.0 0.1005968254
H  H145  1  0.91020000  0.55740000  0.98860000  1.0 0.068848867
H  H146  1  0.98860000  0.91020000  0.55740000  1.0 0.068848867
H  H147  1  0.55740000  0.98860000  0.91020000  1.0 0.068848867
H  H148  1  0.08980000  0.44260000  0.45620000  1.0 0.068848867
H  H149  1  0.01140000  0.45620000  0.44260000  1.0 0.068848867
H  H150  1  0.45620000  0.01140000  0.08980000  1.0 0.068848867
H  H151  1  0.01140000  0.08980000  0.45620000  1.0 0.068848867
H  H152  1  0.45620000  0.44260000  0.01140000  1.0 0.068848867
H  H153  1  0.44260000  0.45620000  0.08980000  1.0 0.068848867
H  H154  1  0.44260000  0.01140000  0.45620000  1.0 0.068848867
H  H155  1  0.08980000  0.45620000  0.01140000  1.0 0.068848867
H  H156  1  0.45620000  0.08980000  0.44260000  1.0 0.068848867
H  H157  1  0.55740000  0.91020000  0.54380000  1.0 0.068848867
H  H158  1  0.98860000  0.54380000  0.91020000  1.0 0.068848867
H  H159  1  0.54380000  0.98860000  0.55740000  1.0 0.068848867
H  H160  1  0.54380000  0.55740000  0.91020000  1.0 0.068848867
H  H161  1  0.91020000  0.98860000  0.54380000  1.0 0.068848867
H  H162  1  0.55740000  0.54380000  0.98860000  1.0 0.068848867
H  H163  1  0.91020000  0.54380000  0.55740000  1.0 0.068848867
H  H164  1  0.54380000  0.91020000  0.98860000  1.0 0.068848867
H  H165  1  0.98860000  0.55740000  0.54380000  1.0 0.068848867
H  H166  1  0.44260000  0.08980000  0.01140000  1.0 0.068848867
H  H167  1  0.08980000  0.01140000  0.44260000  1.0 0.068848867
H  H168  1  0.01140000  0.44260000  0.08980000  1.0 0.068848867
H  H169  1  0.08980000  0.44260000  0.01140000  1.0 0.068848867
H  H170  1  0.01140000  0.08980000  0.44260000  1.0 0.068848867
H  H171  1  0.44260000  0.01140000  0.08980000  1.0 0.068848867
H  H172  1  0.91020000  0.55740000  0.54380000  1.0 0.068848867
H  H173  1  0.98860000  0.54380000  0.55740000  1.0 0.068848867
H  H174  1  0.54380000  0.98860000  0.91020000  1.0 0.068848867
H  H175  1  0.98860000  0.91020000  0.54380000  1.0 0.068848867
H  H176  1  0.54380000  0.55740000  0.98860000  1.0 0.068848867
H  H177  1  0.55740000  0.54380000  0.91020000  1.0 0.068848867
H  H178  1  0.55740000  0.98860000  0.54380000  1.0 0.068848867
H  H179  1  0.91020000  0.54380000  0.98860000  1.0 0.068848867
H  H180  1  0.54380000  0.91020000  0.55740000  1.0 0.068848867
H  H181  1  0.44260000  0.08980000  0.45620000  1.0 0.068848867
H  H182  1  0.01140000  0.45620000  0.08980000  1.0 0.068848867
H  H183  1  0.45620000  0.01140000  0.44260000  1.0 0.068848867
H  H184  1  0.45620000  0.44260000  0.08980000  1.0 0.068848867
H  H185  1  0.08980000  0.01140000  0.45620000  1.0 0.068848867
H  H186  1  0.44260000  0.45620000  0.01140000  1.0 0.068848867
H  H187  1  0.08980000  0.45620000  0.44260000  1.0 0.068848867
H  H188  1  0.45620000  0.08980000  0.01140000  1.0 0.068848867
H  H189  1  0.01140000  0.44260000  0.45620000  1.0 0.068848867
H  H190  1  0.55740000  0.91020000  0.98860000  1.0 0.068848867
H  H191  1  0.91020000  0.98860000  0.55740000  1.0 0.068848867
H  H192  1  0.98860000  0.55740000  0.91020000  1.0 0.068848867
H  H193  1  0.96170000  0.42910000  0.03950000  1.0 0.1005968254
H  H194  1  0.03950000  0.96170000  0.42910000  1.0 0.1005968254
H  H195  1  0.42910000  0.03950000  0.96170000  1.0 0.1005968254
H  H196  1  0.03830000  0.57090000  0.43030000  1.0 0.1005968254
H  H197  1  0.96050000  0.43030000  0.57090000  1.0 0.1005968254
H  H198  1  0.43030000  0.96050000  0.03830000  1.0 0.1005968254
H  H199  1  0.96050000  0.03830000  0.43030000  1.0 0.1005968254
H  H200  1  0.43030000  0.57090000  0.96050000  1.0 0.1005968254
H  H201  1  0.57090000  0.43030000  0.03830000  1.0 0.1005968254
H  H202  1  0.57090000  0.96050000  0.43030000  1.0 0.1005968254
H  H203  1  0.03830000  0.43030000  0.96050000  1.0 0.1005968254
H  H204  1  0.43030000  0.03830000  0.57090000  1.0 0.1005968254
H  H205  1  0.42910000  0.96170000  0.56970000  1.0 0.1005968254
H  H206  1  0.03950000  0.56970000  0.96170000  1.0 0.1005968254
H  H207  1  0.56970000  0.03950000  0.42910000  1.0 0.1005968254
H  H208  1  0.56970000  0.42910000  0.96170000  1.0 0.1005968254
H  H209  1  0.96170000  0.03950000  0.56970000  1.0 0.1005968254
H  H210  1  0.42910000  0.56970000  0.03950000  1.0 0.1005968254
H  H211  1  0.96170000  0.56970000  0.42910000  1.0 0.1005968254
H  H212  1  0.56970000  0.96170000  0.03950000  1.0 0.1005968254
H  H213  1  0.03950000  0.42910000  0.56970000  1.0 0.1005968254
H  H214  1  0.57090000  0.03830000  0.96050000  1.0 0.1005968254
H  H215  1  0.03830000  0.96050000  0.57090000  1.0 0.1005968254
H  H216  1  0.96050000  0.57090000  0.03830000  1.0 0.1005968254
H  H217  1  0.03830000  0.57090000  0.96050000  1.0 0.1005968254
H  H218  1  0.96050000  0.03830000  0.57090000  1.0 0.1005968254
H  H219  1  0.57090000  0.96050000  0.03830000  1.0 0.1005968254
H  H220  1  0.96170000  0.42910000  0.56970000  1.0 0.1005968254
H  H221  1  0.03950000  0.56970000  0.42910000  1.0 0.1005968254
H  H222  1  0.56970000  0.03950000  0.96170000  1.0 0.1005968254
H  H223  1  0.03950000  0.96170000  0.56970000  1.0 0.1005968254
H  H224  1  0.56970000  0.42910000  0.03950000  1.0 0.1005968254
H  H225  1  0.42910000  0.56970000  0.96170000  1.0 0.1005968254
H  H226  1  0.42910000  0.03950000  0.56970000  1.0 0.1005968254
H  H227  1  0.96170000  0.56970000  0.03950000  1.0 0.1005968254
H  H228  1  0.56970000  0.96170000  0.42910000  1.0 0.1005968254
H  H229  1  0.57090000  0.03830000  0.43030000  1.0 0.1005968254
H  H230  1  0.96050000  0.43030000  0.03830000  1.0 0.1005968254
H  H231  1  0.43030000  0.96050000  0.57090000  1.0 0.1005968254
H  H232  1  0.43030000  0.57090000  0.03830000  1.0 0.1005968254
H  H233  1  0.03830000  0.96050000  0.43030000  1.0 0.1005968254
H  H234  1  0.57090000  0.43030000  0.96050000  1.0 0.1005968254
H  H235  1  0.03830000  0.43030000  0.57090000  1.0 0.1005968254
H  H236  1  0.43030000  0.03830000  0.96050000  1.0 0.1005968254
H  H237  1  0.96050000  0.57090000  0.43030000  1.0 0.1005968254
H  H238  1  0.42910000  0.96170000  0.03950000  1.0 0.1005968254
H  H239  1  0.96170000  0.03950000  0.42910000  1.0 0.1005968254
H  H240  1  0.03950000  0.42910000  0.96170000  1.0 0.1005968254
H  H241  1  0.06970000  0.53750000  0.17330000  1.0 0.0378379829
H  H242  1  0.17330000  0.06970000  0.53750000  1.0 0.0378379829
H  H243  1  0.53750000  0.17330000  0.06970000  1.0 0.0378379829
H  H244  1  0.93030000  0.46250000  0.78050000  1.0 0.0378379829
H  H245  1  0.82670000  0.78050000  0.46250000  1.0 0.0378379829
H  H246  1  0.78050000  0.82670000  0.93030000  1.0 0.0378379829
H  H247  1  0.82670000  0.93030000  0.78050000  1.0 0.0378379829
H  H248  1  0.78050000  0.46250000  0.82670000  1.0 0.0378379829
H  H249  1  0.46250000  0.78050000  0.93030000  1.0 0.0378379829
H  H250  1  0.46250000  0.82670000  0.78050000  1.0 0.0378379829
H  H251  1  0.93030000  0.78050000  0.82670000  1.0 0.0378379829
H  H252  1  0.78050000  0.93030000  0.46250000  1.0 0.0378379829
H  H253  1  0.53750000  0.06970000  0.21950000  1.0 0.0378379829
H  H254  1  0.17330000  0.21950000  0.06970000  1.0 0.0378379829
H  H255  1  0.21950000  0.17330000  0.53750000  1.0 0.0378379829
H  H256  1  0.21950000  0.53750000  0.06970000  1.0 0.0378379829
H  H257  1  0.06970000  0.17330000  0.21950000  1.0 0.0378379829
H  H258  1  0.53750000  0.21950000  0.17330000  1.0 0.0378379829
H  H259  1  0.06970000  0.21950000  0.53750000  1.0 0.0378379829
H  H260  1  0.21950000  0.06970000  0.17330000  1.0 0.0378379829
H  H261  1  0.17330000  0.53750000  0.21950000  1.0 0.0378379829
H  H262  1  0.46250000  0.93030000  0.82670000  1.0 0.0378379829
H  H263  1  0.93030000  0.82670000  0.46250000  1.0 0.0378379829
H  H264  1  0.82670000  0.46250000  0.93030000  1.0 0.0378379829
H  H265  1  0.93030000  0.46250000  0.82670000  1.0 0.0378379829
H  H266  1  0.82670000  0.93030000  0.46250000  1.0 0.0378379829
H  H267  1  0.46250000  0.82670000  0.93030000  1.0 0.0378379829
H  H268  1  0.06970000  0.53750000  0.21950000  1.0 0.0378379829
H  H269  1  0.17330000  0.21950000  0.53750000  1.0 0.0378379829
H  H270  1  0.21950000  0.17330000  0.06970000  1.0 0.0378379829
H  H271  1  0.17330000  0.06970000  0.21950000  1.0 0.0378379829
H  H272  1  0.21950000  0.53750000  0.17330000  1.0 0.0378379829
H  H273  1  0.53750000  0.21950000  0.06970000  1.0 0.0378379829
H  H274  1  0.53750000  0.17330000  0.21950000  1.0 0.0378379829
H  H275  1  0.06970000  0.21950000  0.17330000  1.0 0.0378379829
H  H276  1  0.21950000  0.06970000  0.53750000  1.0 0.0378379829
H  H277  1  0.46250000  0.93030000  0.78050000  1.0 0.0378379829
H  H278  1  0.82670000  0.78050000  0.93030000  1.0 0.0378379829
H  H279  1  0.78050000  0.82670000  0.46250000  1.0 0.0378379829
H  H280  1  0.78050000  0.46250000  0.93030000  1.0 0.0378379829
H  H281  1  0.93030000  0.82670000  0.78050000  1.0 0.0378379829
H  H282  1  0.46250000  0.78050000  0.82670000  1.0 0.0378379829
H  H283  1  0.93030000  0.78050000  0.46250000  1.0 0.0378379829
H  H284  1  0.78050000  0.93030000  0.82670000  1.0 0.0378379829
H  H285  1  0.82670000  0.46250000  0.78050000  1.0 0.0378379829
H  H286  1  0.53750000  0.06970000  0.17330000  1.0 0.0378379829
H  H287  1  0.06970000  0.17330000  0.53750000  1.0 0.0378379829
H  H288  1  0.17330000  0.53750000  0.06970000  1.0 0.0378379829
H  H289  1  0.05770000  0.55410000  0.22570000  1.0 0.0274405618
H  H290  1  0.22570000  0.05770000  0.55410000  1.0 0.0274405618
H  H291  1  0.55410000  0.22570000  0.05770000  1.0 0.0274405618
H  H292  1  0.94230000  0.44590000  0.83750000  1.0 0.0274405618
H  H293  1  0.77430000  0.83750000  0.44590000  1.0 0.0274405618
H  H294  1  0.83750000  0.77430000  0.94230000  1.0 0.0274405618
H  H295  1  0.77430000  0.94230000  0.83750000  1.0 0.0274405618
H  H296  1  0.83750000  0.44590000  0.77430000  1.0 0.0274405618
H  H297  1  0.44590000  0.83750000  0.94230000  1.0 0.0274405618
H  H298  1  0.44590000  0.77430000  0.83750000  1.0 0.0274405618
H  H299  1  0.94230000  0.83750000  0.77430000  1.0 0.0274405618
H  H300  1  0.83750000  0.94230000  0.44590000  1.0 0.0274405618
H  H301  1  0.55410000  0.05770000  0.16250000  1.0 0.0274405618
H  H302  1  0.22570000  0.16250000  0.05770000  1.0 0.0274405618
H  H303  1  0.16250000  0.22570000  0.55410000  1.0 0.0274405618
H  H304  1  0.16250000  0.55410000  0.05770000  1.0 0.0274405618
H  H305  1  0.05770000  0.22570000  0.16250000  1.0 0.0274405618
H  H306  1  0.55410000  0.16250000  0.22570000  1.0 0.0274405618
H  H307  1  0.05770000  0.16250000  0.55410000  1.0 0.0274405618
H  H308  1  0.16250000  0.05770000  0.22570000  1.0 0.0274405618
H  H309  1  0.22570000  0.55410000  0.16250000  1.0 0.0274405618
H  H310  1  0.44590000  0.94230000  0.77430000  1.0 0.0274405618
H  H311  1  0.94230000  0.77430000  0.44590000  1.0 0.0274405618
H  H312  1  0.77430000  0.44590000  0.94230000  1.0 0.0274405618
H  H313  1  0.94230000  0.44590000  0.77430000  1.0 0.0274405618
H  H314  1  0.77430000  0.94230000  0.44590000  1.0 0.0274405618
H  H315  1  0.44590000  0.77430000  0.94230000  1.0 0.0274405618
H  H316  1  0.05770000  0.55410000  0.16250000  1.0 0.0274405618
H  H317  1  0.22570000  0.16250000  0.55410000  1.0 0.0240454863
H  H318  1  0.16250000  0.22570000  0.05770000  1.0 0.0274405618
H  H319  1  0.22570000  0.05770000  0.16250000  1.0 0.0274405618
H  H320  1  0.16250000  0.55410000  0.22570000  1.0 0.0274405618
H  H321  1  0.55410000  0.16250000  0.05770000  1.0 0.0274405618
H  H322  1  0.55410000  0.22570000  0.16250000  1.0 0.0274405618
H  H323  1  0.05770000  0.16250000  0.22570000  1.0 0.0274405618
H  H324  1  0.16250000  0.05770000  0.55410000  1.0 0.0274405618
H  H325  1  0.44590000  0.94230000  0.83750000  1.0 0.0274405618
H  H326  1  0.77430000  0.83750000  0.94230000  1.0 0.0274405618
H  H327  1  0.83750000  0.77430000  0.44590000  1.0 0.0274405618
H  H328  1  0.83750000  0.44590000  0.94230000  1.0 0.0274405618
H  H329  1  0.94230000  0.77430000  0.83750000  1.0 0.0274405618
H  H330  1  0.44590000  0.83750000  0.77430000  1.0 0.0274405618
H  H331  1  0.94230000  0.83750000  0.44590000  1.0 0.0274405618
H  H332  1  0.83750000  0.94230000  0.77430000  1.0 0.0274405618
H  H333  1  0.77430000  0.44590000  0.83750000  1.0 0.0274405618
H  H334  1  0.55410000  0.05770000  0.22570000  1.0 0.0274405618
H  H335  1  0.05770000  0.22570000  0.55410000  1.0 0.0274405618
H  H336  1  0.22570000  0.55410000  0.05770000  1.0 0.0274405618
H  H337  1  0.02480000  0.59940000  0.17940000  1.0 0.0603972608
H  H338  1  0.17940000  0.02480000  0.59940000  1.0 0.0603972608
H  H339  1  0.59940000  0.17940000  0.02480000  1.0 0.0603972608
H  H340  1  0.97520000  0.40060000  0.80360000  1.0 0.0603972608
H  H341  1  0.82060000  0.80360000  0.40060000  1.0 0.0603972608
H  H342  1  0.80360000  0.82060000  0.97520000  1.0 0.0603972608
H  H343  1  0.82060000  0.97520000  0.80360000  1.0 0.0603972608
H  H344  1  0.80360000  0.40060000  0.82060000  1.0 0.0603972608
H  H345  1  0.40060000  0.80360000  0.97520000  1.0 0.0603972608
H  H346  1  0.40060000  0.82060000  0.80360000  1.0 0.0603972608
H  H347  1  0.97520000  0.80360000  0.82060000  1.0 0.0603972608
H  H348  1  0.80360000  0.97520000  0.40060000  1.0 0.0603972608
H  H349  1  0.59940000  0.02480000  0.19640000  1.0 0.0603972608
H  H350  1  0.17940000  0.19640000  0.02480000  1.0 0.0603972608
H  H351  1  0.19640000  0.17940000  0.59940000  1.0 0.0603972608
H  H352  1  0.19640000  0.59940000  0.02480000  1.0 0.0603972608
H  H353  1  0.02480000  0.17940000  0.19640000  1.0 0.0603972608
H  H354  1  0.59940000  0.19640000  0.17940000  1.0 0.0603972608
H  H355  1  0.02480000  0.19640000  0.59940000  1.0 0.0603972608
H  H356  1  0.19640000  0.02480000  0.17940000  1.0 0.0603972608
H  H357  1  0.17940000  0.59940000  0.19640000  1.0 0.0603972608
H  H358  1  0.40060000  0.97520000  0.82060000  1.0 0.0603972608
H  H359  1  0.97520000  0.82060000  0.40060000  1.0 0.0603972608
H  H360  1  0.82060000  0.40060000  0.97520000  1.0 0.0603972608
H  H361  1  0.97520000  0.40060000  0.82060000  1.0 0.0603972608
H  H362  1  0.82060000  0.97520000  0.40060000  1.0 0.0603972608
H  H363  1  0.40060000  0.82060000  0.97520000  1.0 0.0603972608
H  H364  1  0.02480000  0.59940000  0.19640000  1.0 0.0603972608
H  H365  1  0.17940000  0.19640000  0.59940000  1.0 0.0603972608
H  H366  1  0.19640000  0.17940000  0.02480000  1.0 0.0603972608
H  H367  1  0.17940000  0.02480000  0.19640000  1.0 0.0603972608
H  H368  1  0.19640000  0.59940000  0.17940000  1.0 0.0603972608
H  H369  1  0.59940000  0.19640000  0.02480000  1.0 0.0603972608
H  H370  1  0.59940000  0.17940000  0.19640000  1.0 0.0603972608
H  H371  1  0.02480000  0.19640000  0.17940000  1.0 0.0603972608
H  H372  1  0.19640000  0.02480000  0.59940000  1.0 0.0603972608
H  H373  1  0.40060000  0.97520000  0.80360000  1.0 0.0603972608
H  H374  1  0.82060000  0.80360000  0.97520000  1.0 0.0603972608
H  H375  1  0.80360000  0.82060000  0.40060000  1.0 0.0603972608
H  H376  1  0.80360000  0.40060000  0.97520000  1.0 0.0603972608
H  H377  1  0.97520000  0.82060000  0.80360000  1.0 0.0603972608
H  H378  1  0.40060000  0.80360000  0.82060000  1.0 0.0603972608
H  H379  1  0.97520000  0.80360000  0.40060000  1.0 0.0603972608
H  H380  1  0.80360000  0.97520000  0.82060000  1.0 0.0603972608
H  H381  1  0.82060000  0.40060000  0.80360000  1.0 0.0603972608
H  H382  1  0.59940000  0.02480000  0.17940000  1.0 0.0603972608
H  H383  1  0.02480000  0.17940000  0.59940000  1.0 0.0603972608
H  H384  1  0.17940000  0.59940000  0.02480000  1.0 0.0603972608
H  H385  1  0.92260000  0.49100000  0.00080000  1.0 0.0806275665
H  H386  1  0.00080000  0.92260000  0.49100000  1.0 0.0806275665
H  H387  1  0.49100000  0.00080000  0.92260000  1.0 0.0806275665
H  H388  1  0.07740000  0.50900000  0.41440000  1.0 0.0806275665
H  H389  1  0.99920000  0.41440000  0.50900000  1.0 0.0806275665
H  H390  1  0.41440000  0.99920000  0.07740000  1.0 0.0806275665
H  H391  1  0.99920000  0.07740000  0.41440000  1.0 0.0806275665
H  H392  1  0.41440000  0.50900000  0.99920000  1.0 0.0806275665
H  H393  1  0.50900000  0.41440000  0.07740000  1.0 0.0806275665
H  H394  1  0.50900000  0.99920000  0.41440000  1.0 0.0806275665
H  H395  1  0.07740000  0.41440000  0.99920000  1.0 0.0806275665
H  H396  1  0.41440000  0.07740000  0.50900000  1.0 0.0806275665
H  H397  1  0.49100000  0.92260000  0.58560000  1.0 0.0806275665
H  H398  1  0.00080000  0.58560000  0.92260000  1.0 0.0806275665
H  H399  1  0.58560000  0.00080000  0.49100000  1.0 0.0806275665
H  H400  1  0.58560000  0.49100000  0.92260000  1.0 0.0806275665
H  H401  1  0.92260000  0.00080000  0.58560000  1.0 0.0806275665
H  H402  1  0.49100000  0.58560000  0.00080000  1.0 0.0806275665
H  H403  1  0.92260000  0.58560000  0.49100000  1.0 0.0806275665
H  H404  1  0.58560000  0.92260000  0.00080000  1.0 0.0806275665
H  H405  1  0.00080000  0.49100000  0.58560000  1.0 0.0806275665
H  H406  1  0.50900000  0.07740000  0.99920000  1.0 0.0806275665
H  H407  1  0.07740000  0.99920000  0.50900000  1.0 0.0806275665
H  H408  1  0.99920000  0.50900000  0.07740000  1.0 0.0806275665
H  H409  1  0.07740000  0.50900000  0.99920000  1.0 0.0806275665
H  H410  1  0.99920000  0.07740000  0.50900000  1.0 0.0806275665
H  H411  1  0.50900000  0.99920000  0.07740000  1.0 0.0806275665
H  H412  1  0.92260000  0.49100000  0.58560000  1.0 0.0806275665
H  H413  1  0.00080000  0.58560000  0.49100000  1.0 0.0806275665
H  H414  1  0.58560000  0.00080000  0.92260000  1.0 0.0806275665
H  H415  1  0.00080000  0.92260000  0.58560000  1.0 0.0806275665
H  H416  1  0.58560000  0.49100000  0.00080000  1.0 0.0806275665
H  H417  1  0.49100000  0.58560000  0.92260000  1.0 0.0806275665
H  H418  1  0.49100000  0.00080000  0.58560000  1.0 0.0806275665
H  H419  1  0.92260000  0.58560000  0.00080000  1.0 0.0806275665
H  H420  1  0.58560000  0.92260000  0.49100000  1.0 0.0806275665
H  H421  1  0.50900000  0.07740000  0.41440000  1.0 0.0806275665
H  H422  1  0.99920000  0.41440000  0.07740000  1.0 0.0806275665
H  H423  1  0.41440000  0.99920000  0.50900000  1.0 0.0806275665
H  H424  1  0.41440000  0.50900000  0.07740000  1.0 0.0806275665
H  H425  1  0.07740000  0.99920000  0.41440000  1.0 0.0806275665
H  H426  1  0.50900000  0.41440000  0.99920000  1.0 0.0806275665
H  H427  1  0.07740000  0.41440000  0.50900000  1.0 0.0806275665
H  H428  1  0.41440000  0.07740000  0.99920000  1.0 0.0806275665
H  H429  1  0.99920000  0.50900000  0.41440000  1.0 0.0806275665
H  H430  1  0.49100000  0.92260000  0.00080000  1.0 0.0806275665
H  H431  1  0.92260000  0.00080000  0.49100000  1.0 0.0806275665
H  H432  1  0.00080000  0.49100000  0.92260000  1.0 0.0806275665
H  H433  1  0.92490000  0.48830000  0.00250000  1.0 0.0868994025
H  H434  1  0.00250000  0.92490000  0.48830000  1.0 0.0868994025
H  H435  1  0.48830000  0.00250000  0.92490000  1.0 0.0868994025
H  H436  1  0.07510000  0.51170000  0.41570000  1.0 0.0868994025
H  H437  1  0.99750000  0.41570000  0.51170000  1.0 0.0868994025
H  H438  1  0.41570000  0.99750000  0.07510000  1.0 0.0868994025
H  H439  1  0.99750000  0.07510000  0.41570000  1.0 0.0868994025
H  H440  1  0.41570000  0.51170000  0.99750000  1.0 0.0868994025
H  H441  1  0.51170000  0.41570000  0.07510000  1.0 0.0868994025
H  H442  1  0.51170000  0.99750000  0.41570000  1.0 0.0868994025
H  H443  1  0.07510000  0.41570000  0.99750000  1.0 0.0868994025
H  H444  1  0.41570000  0.07510000  0.51170000  1.0 0.0868994025
H  H445  1  0.48830000  0.92490000  0.58430000  1.0 0.0868994025
H  H446  1  0.00250000  0.58430000  0.92490000  1.0 0.0868994025
H  H447  1  0.58430000  0.00250000  0.48830000  1.0 0.0868994025
H  H448  1  0.58430000  0.48830000  0.92490000  1.0 0.0868994025
H  H449  1  0.92490000  0.00250000  0.58430000  1.0 0.0868994025
H  H450  1  0.48830000  0.58430000  0.00250000  1.0 0.0868994025
H  H451  1  0.92490000  0.58430000  0.48830000  1.0 0.0868994025
H  H452  1  0.58430000  0.92490000  0.00250000  1.0 0.0868994025
H  H453  1  0.00250000  0.48830000  0.58430000  1.0 0.0868994025
H  H454  1  0.51170000  0.07510000  0.99750000  1.0 0.0868994025
H  H455  1  0.07510000  0.99750000  0.51170000  1.0 0.0868994025
H  H456  1  0.99750000  0.51170000  0.07510000  1.0 0.0868994025
H  H457  1  0.07510000  0.51170000  0.99750000  1.0 0.0868994025
H  H458  1  0.99750000  0.07510000  0.51170000  1.0 0.0868994025
H  H459  1  0.51170000  0.99750000  0.07510000  1.0 0.0868994025
H  H460  1  0.92490000  0.48830000  0.58430000  1.0 0.0868994025
H  H461  1  0.00250000  0.58430000  0.48830000  1.0 0.0868994025
H  H462  1  0.58430000  0.00250000  0.92490000  1.0 0.0868994025
H  H463  1  0.00250000  0.92490000  0.58430000  1.0 0.0868994025
H  H464  1  0.58430000  0.48830000  0.00250000  1.0 0.0868994025
H  H465  1  0.48830000  0.58430000  0.92490000  1.0 0.0868994025
H  H466  1  0.48830000  0.00250000  0.58430000  1.0 0.0868994025
H  H467  1  0.92490000  0.58430000  0.00250000  1.0 0.0868994025
H  H468  1  0.58430000  0.92490000  0.48830000  1.0 0.0868994025
H  H469  1  0.51170000  0.07510000  0.41570000  1.0 0.0868994025
H  H470  1  0.99750000  0.41570000  0.07510000  1.0 0.0868994025
H  H471  1  0.41570000  0.99750000  0.51170000  1.0 0.0868994025
H  H472  1  0.41570000  0.51170000  0.07510000  1.0 0.0868994025
H  H473  1  0.07510000  0.99750000  0.41570000  1.0 0.0868994025
H  H474  1  0.51170000  0.41570000  0.99750000  1.0 0.0868994025
H  H475  1  0.07510000  0.41570000  0.51170000  1.0 0.0868994025
H  H476  1  0.41570000  0.07510000  0.99750000  1.0 0.0868994025
H  H477  1  0.99750000  0.51170000  0.41570000  1.0 0.0868994025
H  H478  1  0.48830000  0.92490000  0.00250000  1.0 0.0868994025
H  H479  1  0.92490000  0.00250000  0.48830000  1.0 0.0868994025
H  H480  1  0.00250000  0.48830000  0.92490000  1.0 0.0868994025
C  C1  1  0.87837000  0.51757000  0.21397000  1.0 0.5688180107
C  C2  1  0.21397000  0.87837000  0.51757000  1.0 0.5688180107
C  C3  1  0.51757000  0.21397000  0.87837000  1.0 0.5688180107
C  C4  1  0.12163000  0.48243000  0.60991000  1.0 0.5688180107
C  C5  1  0.78603000  0.60991000  0.48243000  1.0 0.5688180107
C  C6  1  0.60991000  0.78603000  0.12163000  1.0 0.5688180107
C  C7  1  0.78603000  0.12163000  0.60991000  1.0 0.5688180107
C  C8  1  0.60991000  0.48243000  0.78603000  1.0 0.5688180107
C  C9  1  0.48243000  0.60991000  0.12163000  1.0 0.5688180107
C  C10  1  0.48243000  0.78603000  0.60991000  1.0 0.5688180107
C  C11  1  0.12163000  0.60991000  0.78603000  1.0 0.5688180107
C  C12  1  0.60991000  0.12163000  0.48243000  1.0 0.5688180107
C  C13  1  0.51757000  0.87837000  0.39009000  1.0 0.5688180107
C  C14  1  0.21397000  0.39009000  0.87837000  1.0 0.5688180107
C  C15  1  0.39009000  0.21397000  0.51757000  1.0 0.5688180107
C  C16  1  0.39009000  0.51757000  0.87837000  1.0 0.5688180107
C  C17  1  0.87837000  0.21397000  0.39009000  1.0 0.5688180107
C  C18  1  0.51757000  0.39009000  0.21397000  1.0 0.5688180107
C  C19  1  0.87837000  0.39009000  0.51757000  1.0 0.5688180107
C  C20  1  0.39009000  0.87837000  0.21397000  1.0 0.5688180107
C  C21  1  0.21397000  0.51757000  0.39009000  1.0 0.5688180107
C  C22  1  0.48243000  0.12163000  0.78603000  1.0 0.5688180107
C  C23  1  0.12163000  0.78603000  0.48243000  1.0 0.5688180107
C  C24  1  0.78603000  0.48243000  0.12163000  1.0 0.5688180107
C  C25  1  0.12163000  0.48243000  0.78603000  1.0 0.5688180107
C  C26  1  0.78603000  0.12163000  0.48243000  1.0 0.5688180107
C  C27  1  0.48243000  0.78603000  0.12163000  1.0 0.5688180107
C  C28  1  0.87837000  0.51757000  0.39009000  1.0 0.5688180107
C  C29  1  0.21397000  0.39009000  0.51757000  1.0 0.5688180107
C  C30  1  0.39009000  0.21397000  0.87837000  1.0 0.5688180107
C  C31  1  0.21397000  0.87837000  0.39009000  1.0 0.5688180107
C  C32  1  0.39009000  0.51757000  0.21397000  1.0 0.5688180107
C  C33  1  0.51757000  0.39009000  0.87837000  1.0 0.5688180107
C  C34  1  0.51757000  0.21397000  0.39009000  1.0 0.5688180107
C  C35  1  0.87837000  0.39009000  0.21397000  1.0 0.5688180107
C  C36  1  0.39009000  0.87837000  0.51757000  1.0 0.5688180107
C  C37  1  0.48243000  0.12163000  0.60991000  1.0 0.5688180107
C  C38  1  0.78603000  0.60991000  0.12163000  1.0 0.5688180107
C  C39  1  0.60991000  0.78603000  0.48243000  1.0 0.5688180107
C  C40  1  0.60991000  0.48243000  0.12163000  1.0 0.5688180107
C  C41  1  0.12163000  0.78603000  0.60991000  1.0 0.5688180107
C  C42  1  0.48243000  0.60991000  0.78603000  1.0 0.5688180107
C  C43  1  0.12163000  0.60991000  0.48243000  1.0 0.5688180107
C  C44  1  0.60991000  0.12163000  0.78603000  1.0 0.5688180107
C  C45  1  0.78603000  0.48243000  0.60991000  1.0 0.5688180107
C  C46  1  0.51757000  0.87837000  0.21397000  1.0 0.5688180107
C  C47  1  0.87837000  0.21397000  0.51757000  1.0 0.5688180107
C  C48  1  0.21397000  0.51757000  0.87837000  1.0 0.5688180107
C  C49  1  0.90707000  0.52235000  0.24241000  1.0 -0.0323468698
C  C50  1  0.24241000  0.90707000  0.52235000  1.0 -0.0323468698
C  C51  1  0.52235000  0.24241000  0.90707000  1.0 -0.0323468698
C  C52  1  0.09293000  0.47765000  0.67183000  1.0 -0.0323468698
C  C53  1  0.75759000  0.67183000  0.47765000  1.0 -0.0323468698
C  C54  1  0.67183000  0.75759000  0.09293000  1.0 -0.0323468698
C  C55  1  0.75759000  0.09293000  0.67183000  1.0 -0.0323468698
C  C56  1  0.67183000  0.47765000  0.75759000  1.0 -0.0323468698
C  C57  1  0.47765000  0.67183000  0.09293000  1.0 -0.0323468698
C  C58  1  0.47765000  0.75759000  0.67183000  1.0 -0.0323468698
C  C59  1  0.09293000  0.67183000  0.75759000  1.0 -0.0323468698
C  C60  1  0.67183000  0.09293000  0.47765000  1.0 -0.0323468698
C  C61  1  0.52235000  0.90707000  0.32817000  1.0 -0.0323468698
C  C62  1  0.24241000  0.32817000  0.90707000  1.0 -0.0323468698
C  C63  1  0.32817000  0.24241000  0.52235000  1.0 -0.0323468698
C  C64  1  0.32817000  0.52235000  0.90707000  1.0 -0.0323468698
C  C65  1  0.90707000  0.24241000  0.32817000  1.0 -0.0323468698
C  C66  1  0.52235000  0.32817000  0.24241000  1.0 -0.0323468698
C  C67  1  0.90707000  0.32817000  0.52235000  1.0 -0.0323468698
C  C68  1  0.32817000  0.90707000  0.24241000  1.0 -0.0323468698
C  C69  1  0.24241000  0.52235000  0.32817000  1.0 -0.0323468698
C  C70  1  0.47765000  0.09293000  0.75759000  1.0 -0.0323468698
C  C71  1  0.09293000  0.75759000  0.47765000  1.0 -0.0323468698
C  C72  1  0.75759000  0.47765000  0.09293000  1.0 -0.0323468698
C  C73  1  0.09293000  0.47765000  0.75759000  1.0 -0.0323468698
C  C74  1  0.75759000  0.09293000  0.47765000  1.0 -0.0323468698
C  C75  1  0.47765000  0.75759000  0.09293000  1.0 -0.0323468698
C  C76  1  0.90707000  0.52235000  0.32817000  1.0 -0.0323468698
C  C77  1  0.24241000  0.32817000  0.52235000  1.0 -0.0323468698
C  C78  1  0.32817000  0.24241000  0.90707000  1.0 -0.0323468698
C  C79  1  0.24241000  0.90707000  0.32817000  1.0 -0.0323468698
C  C80  1  0.32817000  0.52235000  0.24241000  1.0 -0.0323468698
C  C81  1  0.52235000  0.32817000  0.90707000  1.0 -0.0323468698
C  C82  1  0.52235000  0.24241000  0.32817000  1.0 -0.0323468698
C  C83  1  0.90707000  0.32817000  0.24241000  1.0 -0.0323468698
C  C84  1  0.32817000  0.90707000  0.52235000  1.0 -0.0323468698
C  C85  1  0.47765000  0.09293000  0.67183000  1.0 -0.0323468698
C  C86  1  0.75759000  0.67183000  0.09293000  1.0 -0.0323468698
C  C87  1  0.67183000  0.75759000  0.47765000  1.0 -0.0323468698
C  C88  1  0.67183000  0.47765000  0.09293000  1.0 -0.0323468698
C  C89  1  0.09293000  0.75759000  0.67183000  1.0 -0.0323468698
C  C90  1  0.47765000  0.67183000  0.75759000  1.0 -0.0323468698
C  C91  1  0.09293000  0.67183000  0.47765000  1.0 -0.0323468698
C  C92  1  0.67183000  0.09293000  0.75759000  1.0 -0.0323468698
C  C93  1  0.75759000  0.47765000  0.67183000  1.0 -0.0323468698
C  C94  1  0.52235000  0.90707000  0.24241000  1.0 -0.0323468698
C  C95  1  0.90707000  0.24241000  0.52235000  1.0 -0.0323468698
C  C96  1  0.24241000  0.52235000  0.90707000  1.0 -0.0323468698
C  C97  1  0.87898000  0.52006000  0.30048000  1.0 -0.0674656832
C  C98  1  0.30048000  0.87898000  0.52006000  1.0 -0.0674656832
C  C99  1  0.52006000  0.30048000  0.87898000  1.0 -0.0674656832
C  C100  1  0.12102000  0.47994000  0.69952000  1.0 -0.0674656832
C  C101  1  0.69952000  0.69952000  0.47994000  1.0 -0.0674656832
C  C102  1  0.69952000  0.69952000  0.12102000  1.0 -0.0674656832
C  C103  1  0.69952000  0.12102000  0.69952000  1.0 -0.0674656832
C  C104  1  0.69952000  0.47994000  0.69952000  1.0 -0.0674656832
C  C105  1  0.47994000  0.69952000  0.12102000  1.0 -0.0674656832
C  C106  1  0.47994000  0.69952000  0.69952000  1.0 -0.0674656832
C  C107  1  0.12102000  0.69952000  0.69952000  1.0 -0.0674656832
C  C108  1  0.69952000  0.12102000  0.47994000  1.0 -0.0674656832
C  C109  1  0.52006000  0.87898000  0.30048000  1.0 -0.0674656832
C  C110  1  0.30048000  0.30048000  0.87898000  1.0 -0.0674656832
C  C111  1  0.30048000  0.30048000  0.52006000  1.0 -0.0674656832
C  C112  1  0.30048000  0.52006000  0.87898000  1.0 -0.0674656832
C  C113  1  0.87898000  0.30048000  0.30048000  1.0 -0.0674656832
C  C114  1  0.52006000  0.30048000  0.30048000  1.0 -0.0674656832
C  C115  1  0.87898000  0.30048000  0.52006000  1.0 -0.0674656832
C  C116  1  0.30048000  0.87898000  0.30048000  1.0 -0.0674656832
C  C117  1  0.30048000  0.52006000  0.30048000  1.0 -0.0674656832
C  C118  1  0.47994000  0.12102000  0.69952000  1.0 -0.0674656832
C  C119  1  0.12102000  0.69952000  0.47994000  1.0 -0.0674656832
C  C120  1  0.69952000  0.47994000  0.12102000  1.0 -0.0674656832
C  C121  1  0.96095000  0.52877000  0.21233000  1.0 -0.1600593878
C  C122  1  0.21233000  0.96095000  0.52877000  1.0 -0.1600593878
C  C123  1  0.52877000  0.21233000  0.96095000  1.0 -0.1600593878
C  C124  1  0.03905000  0.47123000  0.70205000  1.0 -0.1600593878
C  C125  1  0.78767000  0.70205000  0.47123000  1.0 -0.1600593878
C  C126  1  0.70205000  0.78767000  0.03905000  1.0 -0.1600593878
C  C127  1  0.78767000  0.03905000  0.70205000  1.0 -0.1600593878
C  C128  1  0.70205000  0.47123000  0.78767000  1.0 -0.1600593878
C  C129  1  0.47123000  0.70205000  0.03905000  1.0 -0.1600593878
C  C130  1  0.47123000  0.78767000  0.70205000  1.0 -0.1600593878
C  C131  1  0.03905000  0.70205000  0.78767000  1.0 -0.1600593878
C  C132  1  0.70205000  0.03905000  0.47123000  1.0 -0.1600593878
C  C133  1  0.52877000  0.96095000  0.29795000  1.0 -0.1600593878
C  C134  1  0.21233000  0.29795000  0.96095000  1.0 -0.1600593878
C  C135  1  0.29795000  0.21233000  0.52877000  1.0 -0.1600593878
C  C136  1  0.29795000  0.52877000  0.96095000  1.0 -0.1600593878
C  C137  1  0.96095000  0.21233000  0.29795000  1.0 -0.1600593878
C  C138  1  0.52877000  0.29795000  0.21233000  1.0 -0.1600593878
C  C139  1  0.96095000  0.29795000  0.52877000  1.0 -0.1600593878
C  C140  1  0.29795000  0.96095000  0.21233000  1.0 -0.1600593878
C  C141  1  0.21233000  0.52877000  0.29795000  1.0 -0.1600593878
C  C142  1  0.47123000  0.03905000  0.78767000  1.0 -0.1600593878
C  C143  1  0.03905000  0.78767000  0.47123000  1.0 -0.1600593878
C  C144  1  0.78767000  0.47123000  0.03905000  1.0 -0.1600593878
C  C145  1  0.03905000  0.47123000  0.78767000  1.0 -0.1600593878
C  C146  1  0.78767000  0.03905000  0.47123000  1.0 -0.1600593878
C  C147  1  0.47123000  0.78767000  0.03905000  1.0 -0.1600593878
C  C148  1  0.96095000  0.52877000  0.29795000  1.0 -0.1600593878
C  C149  1  0.21233000  0.29795000  0.52877000  1.0 -0.1600593878
C  C150  1  0.29795000  0.21233000  0.96095000  1.0 -0.1600593878
C  C151  1  0.21233000  0.96095000  0.29795000  1.0 -0.1600593878
C  C152  1  0.29795000  0.52877000  0.21233000  1.0 -0.1600593878
C  C153  1  0.52877000  0.29795000  0.96095000  1.0 -0.1600593878
C  C154  1  0.52877000  0.21233000  0.29795000  1.0 -0.1600593878
C  C155  1  0.96095000  0.29795000  0.21233000  1.0 -0.1600593878
C  C156  1  0.29795000  0.96095000  0.52877000  1.0 -0.1600593878
C  C157  1  0.47123000  0.03905000  0.70205000  1.0 -0.1600593878
C  C158  1  0.78767000  0.70205000  0.03905000  1.0 -0.1600593878
C  C159  1  0.70205000  0.78767000  0.47123000  1.0 -0.1600593878
C  C160  1  0.70205000  0.47123000  0.03905000  1.0 -0.1600593878
C  C161  1  0.03905000  0.78767000  0.70205000  1.0 -0.1600593878
C  C162  1  0.47123000  0.70205000  0.78767000  1.0 -0.1600593878
C  C163  1  0.03905000  0.70205000  0.47123000  1.0 -0.1600593878
C  C164  1  0.70205000  0.03905000  0.78767000  1.0 -0.1600593878
C  C165  1  0.78767000  0.47123000  0.70205000  1.0 -0.1600593878
C  C166  1  0.52877000  0.96095000  0.21233000  1.0 -0.1600593878
C  C167  1  0.96095000  0.21233000  0.52877000  1.0 -0.1600593878
C  C168  1  0.21233000  0.52877000  0.96095000  1.0 -0.1600593878
C  C169  1  0.98920000  0.53160000  0.23960000  1.0 0.1284924105
C  C170  1  0.23960000  0.98920000  0.53160000  1.0 0.1284924105
C  C171  1  0.53160000  0.23960000  0.98920000  1.0 0.1284924105
C  C172  1  0.01080000  0.46840000  0.76040000  1.0 0.1284924105
C  C173  1  0.76040000  0.76040000  0.46840000  1.0 0.1284924105
C  C174  1  0.76040000  0.76040000  0.01080000  1.0 0.1284924105
C  C175  1  0.76040000  0.01080000  0.76040000  1.0 0.1284924105
C  C176  1  0.76040000  0.46840000  0.76040000  1.0 0.1284924105
C  C177  1  0.46840000  0.76040000  0.01080000  1.0 0.1284924105
C  C178  1  0.46840000  0.76040000  0.76040000  1.0 0.1284924105
C  C179  1  0.01080000  0.76040000  0.76040000  1.0 0.1284924105
C  C180  1  0.76040000  0.01080000  0.46840000  1.0 0.1284924105
C  C181  1  0.53160000  0.98920000  0.23960000  1.0 0.1284924105
C  C182  1  0.23960000  0.23960000  0.98920000  1.0 0.1284924105
C  C183  1  0.23960000  0.23960000  0.53160000  1.0 0.1284924105
C  C184  1  0.23960000  0.53160000  0.98920000  1.0 0.1284924105
C  C185  1  0.98920000  0.23960000  0.23960000  1.0 0.1284924105
C  C186  1  0.53160000  0.23960000  0.23960000  1.0 0.1284924105
C  C187  1  0.98920000  0.23960000  0.53160000  1.0 0.1284924105
C  C188  1  0.23960000  0.98920000  0.23960000  1.0 0.1284924105
C  C189  1  0.23960000  0.53160000  0.23960000  1.0 0.1284924105
C  C190  1  0.46840000  0.01080000  0.76040000  1.0 0.1284924105
C  C191  1  0.01080000  0.76040000  0.46840000  1.0 0.1284924105
C  C192  1  0.76040000  0.46840000  0.01080000  1.0 0.1284924105
C  C193  1  0.05480000  0.52320000  0.21100000  1.0 -0.3809956363
C  C194  1  0.21100000  0.05480000  0.52320000  1.0 -0.3745183048
C  C195  1  0.52320000  0.21100000  0.05480000  1.0 -0.3809956363
C  C196  1  0.94520000  0.47680000  0.78900000  1.0 -0.3745183048
C  C197  1  0.78900000  0.78900000  0.47680000  1.0 -0.3745183048
C  C198  1  0.78900000  0.78900000  0.94520000  1.0 -0.3745183048
C  C199  1  0.78900000  0.94520000  0.78900000  1.0 -0.3745183048
C  C200  1  0.78900000  0.47680000  0.78900000  1.0 -0.3745183048
C  C201  1  0.47680000  0.78900000  0.94520000  1.0 -0.3745183048
C  C202  1  0.47680000  0.78900000  0.78900000  1.0 -0.3745183048
C  C203  1  0.94520000  0.78900000  0.78900000  1.0 -0.3745183048
C  C204  1  0.78900000  0.94520000  0.47680000  1.0 -0.3745183048
C  C205  1  0.52320000  0.05480000  0.21100000  1.0 -0.3809956363
C  C206  1  0.21100000  0.21100000  0.05480000  1.0 -0.3809956363
C  C207  1  0.21100000  0.21100000  0.52320000  1.0 -0.3745183048
C  C208  1  0.21100000  0.52320000  0.05480000  1.0 -0.3809956363
C  C209  1  0.05480000  0.21100000  0.21100000  1.0 -0.3809956363
C  C210  1  0.52320000  0.21100000  0.21100000  1.0 -0.3809956363
C  C211  1  0.05480000  0.21100000  0.52320000  1.0 -0.3745183048
C  C212  1  0.21100000  0.05480000  0.21100000  1.0 -0.3809956363
C  C213  1  0.21100000  0.52320000  0.21100000  1.0 -0.3809956363
C  C214  1  0.47680000  0.94520000  0.78900000  1.0 -0.3745183048
C  C215  1  0.94520000  0.78900000  0.47680000  1.0 -0.3745183048
C  C216  1  0.78900000  0.47680000  0.94520000  1.0 -0.3745183048
C  C217  1  0.93950000  0.51810000  0.99410000  1.0 -0.0674656832
C  C218  1  0.99410000  0.93950000  0.51810000  1.0 -0.0674656832
C  C219  1  0.51810000  0.99410000  0.93950000  1.0 -0.0674656832
C  C220  1  0.06050000  0.48190000  0.45170000  1.0 -0.0674656832
C  C221  1  0.00590000  0.45170000  0.48190000  1.0 -0.0674656832
C  C222  1  0.45170000  0.00590000  0.06050000  1.0 -0.0674656832
C  C223  1  0.00590000  0.06050000  0.45170000  1.0 -0.0674656832
C  C224  1  0.45170000  0.48190000  0.00590000  1.0 -0.0674656832
C  C225  1  0.48190000  0.45170000  0.06050000  1.0 -0.0674656832
C  C226  1  0.48190000  0.00590000  0.45170000  1.0 -0.0674656832
C  C227  1  0.06050000  0.45170000  0.00590000  1.0 -0.0674656832
C  C228  1  0.45170000  0.06050000  0.48190000  1.0 -0.0674656832
C  C229  1  0.51810000  0.93950000  0.54830000  1.0 -0.0674656832
C  C230  1  0.99410000  0.54830000  0.93950000  1.0 -0.0674656832
C  C231  1  0.54830000  0.99410000  0.51810000  1.0 -0.0674656832
C  C232  1  0.54830000  0.51810000  0.93950000  1.0 -0.0674656832
C  C233  1  0.93950000  0.99410000  0.54830000  1.0 -0.0674656832
C  C234  1  0.51810000  0.54830000  0.99410000  1.0 -0.0674656832
C  C235  1  0.93950000  0.54830000  0.51810000  1.0 -0.0674656832
C  C236  1  0.54830000  0.93950000  0.99410000  1.0 -0.0674656832
C  C237  1  0.99410000  0.51810000  0.54830000  1.0 -0.0674656832
C  C238  1  0.48190000  0.06050000  0.00590000  1.0 -0.0674656832
C  C239  1  0.06050000  0.00590000  0.48190000  1.0 -0.0674656832
C  C240  1  0.00590000  0.48190000  0.06050000  1.0 -0.0674656832
C  C241  1  0.06050000  0.48190000  0.00590000  1.0 -0.0674656832
C  C242  1  0.00590000  0.06050000  0.48190000  1.0 -0.0674656832
C  C243  1  0.48190000  0.00590000  0.06050000  1.0 -0.0674656832
C  C244  1  0.93950000  0.51810000  0.54830000  1.0 -0.0674656832
C  C245  1  0.99410000  0.54830000  0.51810000  1.0 -0.0674656832
C  C246  1  0.54830000  0.99410000  0.93950000  1.0 -0.0674656832
C  C247  1  0.99410000  0.93950000  0.54830000  1.0 -0.0674656832
C  C248  1  0.54830000  0.51810000  0.99410000  1.0 -0.0674656832
C  C249  1  0.51810000  0.54830000  0.93950000  1.0 -0.0674656832
C  C250  1  0.51810000  0.99410000  0.54830000  1.0 -0.0674656832
C  C251  1  0.93950000  0.54830000  0.99410000  1.0 -0.0674656832
C  C252  1  0.54830000  0.93950000  0.51810000  1.0 -0.0674656832
C  C253  1  0.48190000  0.06050000  0.45170000  1.0 -0.0674656832
C  C254  1  0.00590000  0.45170000  0.06050000  1.0 -0.0674656832
C  C255  1  0.45170000  0.00590000  0.48190000  1.0 -0.0674656832
C  C256  1  0.45170000  0.48190000  0.06050000  1.0 -0.0674656832
C  C257  1  0.06050000  0.00590000  0.45170000  1.0 -0.0674656832
C  C258  1  0.48190000  0.45170000  0.00590000  1.0 -0.0674656832
C  C259  1  0.06050000  0.45170000  0.48190000  1.0 -0.0674656832
C  C260  1  0.45170000  0.06050000  0.00590000  1.0 -0.0674656832
C  C261  1  0.00590000  0.48190000  0.45170000  1.0 -0.0674656832
C  C262  1  0.51810000  0.93950000  0.99410000  1.0 -0.0674656832
C  C263  1  0.93950000  0.99410000  0.51810000  1.0 -0.0674656832
C  C264  1  0.99410000  0.51810000  0.93950000  1.0 -0.0674656832
C  C265  1  0.95970000  0.46950000  0.01390000  1.0 -0.0848857981
C  C266  1  0.01390000  0.95970000  0.46950000  1.0 -0.0853127834
C  C267  1  0.46950000  0.01390000  0.95970000  1.0 -0.0853127834
C  C268  1  0.04030000  0.53050000  0.44310000  1.0 -0.0853127834
C  C269  1  0.98610000  0.44310000  0.53050000  1.0 -0.0853127834
C  C270  1  0.44310000  0.98610000  0.04030000  1.0 -0.0853127834
C  C271  1  0.98610000  0.04030000  0.44310000  1.0 -0.0848857981
C  C272  1  0.44310000  0.53050000  0.98610000  1.0 -0.0853127834
C  C273  1  0.53050000  0.44310000  0.04030000  1.0 -0.0848857981
C  C274  1  0.53050000  0.98610000  0.44310000  1.0 -0.0853127834
C  C275  1  0.04030000  0.44310000  0.98610000  1.0 -0.0853127834
C  C276  1  0.44310000  0.04030000  0.53050000  1.0 -0.0848857981
C  C277  1  0.46950000  0.95970000  0.55690000  1.0 -0.0853127834
C  C278  1  0.01390000  0.55690000  0.95970000  1.0 -0.0853127834
C  C279  1  0.55690000  0.01390000  0.46950000  1.0 -0.0848857981
C  C280  1  0.55690000  0.46950000  0.95970000  1.0 -0.0853127834
C  C281  1  0.95970000  0.01390000  0.55690000  1.0 -0.0848857981
C  C282  1  0.46950000  0.55690000  0.01390000  1.0 -0.0848857981
C  C283  1  0.95970000  0.55690000  0.46950000  1.0 -0.0853127834
C  C284  1  0.55690000  0.95970000  0.01390000  1.0 -0.0853127834
C  C285  1  0.01390000  0.46950000  0.55690000  1.0 -0.0853127834
C  C286  1  0.53050000  0.04030000  0.98610000  1.0 -0.0853127834
C  C287  1  0.04030000  0.98610000  0.53050000  1.0 -0.0853127834
C  C288  1  0.98610000  0.53050000  0.04030000  1.0 -0.0848857981
C  C289  1  0.04030000  0.53050000  0.98610000  1.0 -0.0853127834
C  C290  1  0.98610000  0.04030000  0.53050000  1.0 -0.0848857981
C  C291  1  0.53050000  0.98610000  0.04030000  1.0 -0.0853127834
C  C292  1  0.95970000  0.46950000  0.55690000  1.0 -0.0848857981
C  C293  1  0.01390000  0.55690000  0.46950000  1.0 -0.0853127834
C  C294  1  0.55690000  0.01390000  0.95970000  1.0 -0.0853127834
C  C295  1  0.01390000  0.95970000  0.55690000  1.0 -0.0853127834
C  C296  1  0.55690000  0.46950000  0.01390000  1.0 -0.0848857981
C  C297  1  0.46950000  0.55690000  0.95970000  1.0 -0.0853127834
C  C298  1  0.46950000  0.01390000  0.55690000  1.0 -0.0853127834
C  C299  1  0.95970000  0.55690000  0.01390000  1.0 -0.0848857981
C  C300  1  0.55690000  0.95970000  0.46950000  1.0 -0.0853127834
C  C301  1  0.53050000  0.04030000  0.44310000  1.0 -0.0848857981
C  C302  1  0.98610000  0.44310000  0.04030000  1.0 -0.0848857981
C  C303  1  0.44310000  0.98610000  0.53050000  1.0 -0.0853127834
C  C304  1  0.44310000  0.53050000  0.04030000  1.0 -0.0853127834
C  C305  1  0.04030000  0.98610000  0.44310000  1.0 -0.0853127834
C  C306  1  0.53050000  0.44310000  0.98610000  1.0 -0.0853127834
C  C307  1  0.04030000  0.44310000  0.53050000  1.0 -0.0853127834
C  C308  1  0.44310000  0.04030000  0.98610000  1.0 -0.0853127834
C  C309  1  0.98610000  0.53050000  0.44310000  1.0 -0.0853127834
C  C310  1  0.46950000  0.95970000  0.01390000  1.0 -0.0853127834
C  C311  1  0.95970000  0.01390000  0.46950000  1.0 -0.0848857981
C  C312  1  0.01390000  0.46950000  0.95970000  1.0 -0.0853127834
C  C313  1  0.04020000  0.55820000  0.20080000  1.0 -0.3809956363
C  C314  1  0.20080000  0.04020000  0.55820000  1.0 -0.3809956363
C  C315  1  0.55820000  0.20080000  0.04020000  1.0 -0.3809956363
C  C316  1  0.95980000  0.44180000  0.79920000  1.0 -0.3809956363
C  C317  1  0.79920000  0.79920000  0.44180000  1.0 -0.3809956363
C  C318  1  0.79920000  0.79920000  0.95980000  1.0 -0.3809956363
C  C319  1  0.79920000  0.95980000  0.79920000  1.0 -0.3809956363
C  C320  1  0.79920000  0.44180000  0.79920000  1.0 -0.3809956363
C  C321  1  0.44180000  0.79920000  0.95980000  1.0 -0.3809956363
C  C322  1  0.44180000  0.79920000  0.79920000  1.0 -0.3809956363
C  C323  1  0.95980000  0.79920000  0.79920000  1.0 -0.3809956363
C  C324  1  0.79920000  0.95980000  0.44180000  1.0 -0.3809956363
C  C325  1  0.55820000  0.04020000  0.20080000  1.0 -0.3809956363
C  C326  1  0.20080000  0.20080000  0.04020000  1.0 -0.3809956363
C  C327  1  0.20080000  0.20080000  0.55820000  1.0 -0.3809956363
C  C328  1  0.20080000  0.55820000  0.04020000  1.0 -0.3809956363
C  C329  1  0.04020000  0.20080000  0.20080000  1.0 -0.3809956363
C  C330  1  0.55820000  0.20080000  0.20080000  1.0 -0.3809956363
C  C331  1  0.04020000  0.20080000  0.55820000  1.0 -0.3809956363
C  C332  1  0.20080000  0.04020000  0.20080000  1.0 -0.3809956363
C  C333  1  0.20080000  0.55820000  0.20080000  1.0 -0.3809956363
C  C334  1  0.44180000  0.95980000  0.79920000  1.0 -0.3809956363
C  C335  1  0.95980000  0.79920000  0.44180000  1.0 -0.3809956363
C  C336  1  0.79920000  0.44180000  0.95980000  1.0 -0.3809956363
N  N1  1  0.95544000  0.50000000  0.04456000  1.0 -0.0987828892
N  N2  1  0.04456000  0.95544000  0.50000000  1.0 -0.0987828892
N  N3  1  0.50000000  0.04456000  0.95544000  1.0 -0.0987828892
N  N4  1  0.04456000  0.50000000  0.50000000  1.0 -0.0987828892
N  N5  1  0.95544000  0.50000000  0.50000000  1.0 -0.0987828892
N  N6  1  0.50000000  0.95544000  0.04456000  1.0 -0.0987828892
N  N7  1  0.95544000  0.04456000  0.50000000  1.0 -0.0987828892
N  N8  1  0.50000000  0.50000000  0.95544000  1.0 -0.0987828892
N  N9  1  0.50000000  0.50000000  0.04456000  1.0 -0.0987828892
N  N10  1  0.50000000  0.95544000  0.50000000  1.0 -0.0987828892
N  N11  1  0.04456000  0.50000000  0.95544000  1.0 -0.0987828892
N  N12  1  0.50000000  0.04456000  0.50000000  1.0 -0.0987828892
O  O1  1  0.82782000  0.51430000  0.24318000  1.0 -0.556241959
O  O2  1  0.24318000  0.82782000  0.51430000  1.0 -0.556241959
O  O3  1  0.51430000  0.24318000  0.82782000  1.0 -0.556241959
O  O4  1  0.17218000  0.48570000  0.58530000  1.0 -0.556241959
O  O5  1  0.75682000  0.58530000  0.48570000  1.0 -0.556241959
O  O6  1  0.58530000  0.75682000  0.17218000  1.0 -0.556241959
O  O7  1  0.75682000  0.17218000  0.58530000  1.0 -0.556241959
O  O8  1  0.58530000  0.48570000  0.75682000  1.0 -0.556241959
O  O9  1  0.48570000  0.58530000  0.17218000  1.0 -0.556241959
O  O10  1  0.48570000  0.75682000  0.58530000  1.0 -0.556241959
O  O11  1  0.17218000  0.58530000  0.75682000  1.0 -0.556241959
O  O12  1  0.58530000  0.17218000  0.48570000  1.0 -0.556241959
O  O13  1  0.51430000  0.82782000  0.41470000  1.0 -0.556241959
O  O14  1  0.24318000  0.41470000  0.82782000  1.0 -0.556241959
O  O15  1  0.41470000  0.24318000  0.51430000  1.0 -0.556241959
O  O16  1  0.41470000  0.51430000  0.82782000  1.0 -0.556241959
O  O17  1  0.82782000  0.24318000  0.41470000  1.0 -0.556241959
O  O18  1  0.51430000  0.41470000  0.24318000  1.0 -0.556241959
O  O19  1  0.82782000  0.41470000  0.51430000  1.0 -0.556241959
O  O20  1  0.41470000  0.82782000  0.24318000  1.0 -0.556241959
O  O21  1  0.24318000  0.51430000  0.41470000  1.0 -0.556241959
O  O22  1  0.48570000  0.17218000  0.75682000  1.0 -0.556241959
O  O23  1  0.17218000  0.75682000  0.48570000  1.0 -0.556241959
O  O24  1  0.75682000  0.48570000  0.17218000  1.0 -0.556241959
O  O25  1  0.17218000  0.48570000  0.75682000  1.0 -0.556241959
O  O26  1  0.75682000  0.17218000  0.48570000  1.0 -0.556241959
O  O27  1  0.48570000  0.75682000  0.17218000  1.0 -0.556241959
O  O28  1  0.82782000  0.51430000  0.41470000  1.0 -0.556241959
O  O29  1  0.24318000  0.41470000  0.51430000  1.0 -0.556241959
O  O30  1  0.41470000  0.24318000  0.82782000  1.0 -0.556241959
O  O31  1  0.24318000  0.82782000  0.41470000  1.0 -0.556241959
O  O32  1  0.41470000  0.51430000  0.24318000  1.0 -0.556241959
O  O33  1  0.51430000  0.41470000  0.82782000  1.0 -0.556241959
O  O34  1  0.51430000  0.24318000  0.41470000  1.0 -0.556241959
O  O35  1  0.82782000  0.41470000  0.24318000  1.0 -0.556241959
O  O36  1  0.41470000  0.82782000  0.51430000  1.0 -0.556241959
O  O37  1  0.48570000  0.17218000  0.58530000  1.0 -0.556241959
O  O38  1  0.75682000  0.58530000  0.17218000  1.0 -0.556241959
O  O39  1  0.58530000  0.75682000  0.48570000  1.0 -0.556241959
O  O40  1  0.58530000  0.48570000  0.17218000  1.0 -0.556241959
O  O41  1  0.17218000  0.75682000  0.58530000  1.0 -0.556241959
O  O42  1  0.48570000  0.58530000  0.75682000  1.0 -0.556241959
O  O43  1  0.17218000  0.58530000  0.48570000  1.0 -0.556241959
O  O44  1  0.58530000  0.17218000  0.75682000  1.0 -0.556241959
O  O45  1  0.75682000  0.48570000  0.58530000  1.0 -0.556241959
O  O46  1  0.51430000  0.82782000  0.24318000  1.0 -0.556241959
O  O47  1  0.82782000  0.24318000  0.51430000  1.0 -0.556241959
O  O48  1  0.24318000  0.51430000  0.82782000  1.0 -0.556241959
O  O49  1  0.90625000  0.51387000  0.16473000  1.0 -0.5517010686
O  O50  1  0.16473000  0.90625000  0.51387000  1.0 -0.5517010686
O  O51  1  0.51387000  0.16473000  0.90625000  1.0 -0.5517010686
O  O52  1  0.09375000  0.48613000  0.58485000  1.0 -0.5517010686
O  O53  1  0.83527000  0.58485000  0.48613000  1.0 -0.5517010686
O  O54  1  0.58485000  0.83527000  0.09375000  1.0 -0.5517010686
O  O55  1  0.83527000  0.09375000  0.58485000  1.0 -0.5517010686
O  O56  1  0.58485000  0.48613000  0.83527000  1.0 -0.5517010686
O  O57  1  0.48613000  0.58485000  0.09375000  1.0 -0.5517010686
O  O58  1  0.48613000  0.83527000  0.58485000  1.0 -0.5517010686
O  O59  1  0.09375000  0.58485000  0.83527000  1.0 -0.5517010686
O  O60  1  0.58485000  0.09375000  0.48613000  1.0 -0.5517010686
O  O61  1  0.51387000  0.90625000  0.41515000  1.0 -0.5517010686
O  O62  1  0.16473000  0.41515000  0.90625000  1.0 -0.5517010686
O  O63  1  0.41515000  0.16473000  0.51387000  1.0 -0.5517010686
O  O64  1  0.41515000  0.51387000  0.90625000  1.0 -0.5517010686
O  O65  1  0.90625000  0.16473000  0.41515000  1.0 -0.5517010686
O  O66  1  0.51387000  0.41515000  0.16473000  1.0 -0.5517010686
O  O67  1  0.90625000  0.41515000  0.51387000  1.0 -0.5517010686
O  O68  1  0.41515000  0.90625000  0.16473000  1.0 -0.5517010686
O  O69  1  0.16473000  0.51387000  0.41515000  1.0 -0.5517010686
O  O70  1  0.48613000  0.09375000  0.83527000  1.0 -0.5517010686
O  O71  1  0.09375000  0.83527000  0.48613000  1.0 -0.5517010686
O  O72  1  0.83527000  0.48613000  0.09375000  1.0 -0.5517010686
O  O73  1  0.09375000  0.48613000  0.83527000  1.0 -0.5517010686
O  O74  1  0.83527000  0.09375000  0.48613000  1.0 -0.5517010686
O  O75  1  0.48613000  0.83527000  0.09375000  1.0 -0.5517010686
O  O76  1  0.90625000  0.51387000  0.41515000  1.0 -0.5517010686
O  O77  1  0.16473000  0.41515000  0.51387000  1.0 -0.5517010686
O  O78  1  0.41515000  0.16473000  0.90625000  1.0 -0.5517010686
O  O79  1  0.16473000  0.90625000  0.41515000  1.0 -0.5517010686
O  O80  1  0.41515000  0.51387000  0.16473000  1.0 -0.5517010686
O  O81  1  0.51387000  0.41515000  0.90625000  1.0 -0.5517010686
O  O82  1  0.51387000  0.16473000  0.41515000  1.0 -0.5517010686
O  O83  1  0.90625000  0.41515000  0.16473000  1.0 -0.5517010686
O  O84  1  0.41515000  0.90625000  0.51387000  1.0 -0.5517010686
O  O85  1  0.48613000  0.09375000  0.58485000  1.0 -0.5517010686
O  O86  1  0.83527000  0.58485000  0.09375000  1.0 -0.5517010686
O  O87  1  0.58485000  0.83527000  0.48613000  1.0 -0.5517010686
O  O88  1  0.58485000  0.48613000  0.09375000  1.0 -0.5517010686
O  O89  1  0.09375000  0.83527000  0.58485000  1.0 -0.5517010686
O  O90  1  0.48613000  0.58485000  0.83527000  1.0 -0.5517010686
O  O91  1  0.09375000  0.58485000  0.48613000  1.0 -0.5517010686
O  O92  1  0.58485000  0.09375000  0.83527000  1.0 -0.5517010686
O  O93  1  0.83527000  0.48613000  0.58485000  1.0 -0.5517010686
O  O94  1  0.51387000  0.90625000  0.16473000  1.0 -0.5517010686
O  O95  1  0.90625000  0.16473000  0.51387000  1.0 -0.5517010686
O  O96  1  0.16473000  0.51387000  0.90625000  1.0 -0.5517010686
