# DDEC6 charges by PACMAN v1.1 (https://github.com/mtap-research/PACMAN-charge/)
data_XIVBAI_ASR_pacman
_symmetry_space_group_name_H-M   'P 1'
_cell_length_a   20.46910000
_cell_length_b   20.46910000
_cell_length_c   9.87900000
_cell_angle_alpha   85.96020000
_cell_angle_beta   94.03980000
_cell_angle_gamma   61.92900000
_symmetry_Int_Tables_number   1
_chemical_formula_structural   Cd3H48C78N2O13
_chemical_formula_sum   'Cd3 H48 C78 N2 O13'
_cell_volume   3617.83654308
_cell_formula_units_Z   1
loop_
 _symmetry_equiv_pos_site_id
 _symmetry_equiv_pos_as_xyz
  1  'x, y, z'
loop_
 _atom_site_type_symbol
 _atom_site_label
 _atom_site_symmetry_multiplicity
 _atom_site_fract_x
 _atom_site_fract_y
 _atom_site_fract_z
 _atom_site_occupancy
 _atom_site_charge
Cd  Cd1  1  0.02638000  0.98140000  0.32321000  1.0 1.0339020328
Cd  Cd2  1  0.98140000  0.02638000  0.67679000  1.0 1.0405126648
Cd  Cd3  1  0.95645000  0.95645000  0.00000000  1.0 1.0842507915
H  H1  1  0.03260000  0.21358000  0.54742000  1.0 0.1286862429
H  H2  1  0.09441000  0.28281000  0.53627000  1.0 0.1204830425
H  H3  1  0.15591000  0.33869000  0.41666000  1.0 0.1204830425
H  H4  1  0.22082000  0.40778000  0.41272000  1.0 0.1366450922
H  H5  1  0.37618000  0.47826000  0.43033000  1.0 0.1204830425
H  H6  1  0.31023000  0.59897000  0.49663000  1.0 0.1072395505
H  H7  1  0.21815000  0.52445000  0.76989000  1.0 0.1072395505
H  H8  1  0.28162000  0.40216000  0.70554000  1.0 0.1204830425
H  H9  1  0.22631000  0.70377000  0.51758000  1.0 0.0960259089
H  H10  1  0.16277000  0.82783000  0.59710000  1.0 0.1286862429
H  H11  1  0.13792000  0.73338000  0.95075000  1.0 0.1204830425
H  H12  1  0.20199000  0.61167000  0.88849000  1.0 0.0960259089
H  H13  1  0.21371000  0.73981000  0.28172000  1.0 0.1286862429
H  H14  1  0.27541000  0.62291000  0.21431000  1.0 0.1204830425
H  H15  1  0.07112000  0.63572000  0.15984000  1.0 0.1204830425
H  H16  1  0.02261000  0.75905000  0.18969000  1.0 0.1286862429
H  H17  1  0.32191000  0.51419000  0.18109000  1.0 0.1204830425
H  H18  1  0.38105000  0.39541000  0.11735000  1.0 0.1286862429
H  H19  1  0.17901000  0.41515000  0.99271000  1.0 0.1286862429
H  H20  1  0.12254000  0.53044000  0.06314000  1.0 0.1204830425
H  H21  1  0.26758000  0.28210000  0.20294000  1.0 0.1204830425
H  H22  1  0.20660000  0.21046000  0.20463000  1.0 0.1072395505
H  H23  1  0.10150000  0.20404000  0.80762000  1.0 0.1072395505
H  H24  1  0.03743000  0.13303000  0.80652000  1.0 0.1204830425
H  H25  1  0.21358000  0.03260000  0.45258000  1.0 0.1286862429
H  H26  1  0.28281000  0.09441000  0.46373000  1.0 0.1204830425
H  H27  1  0.33869000  0.15591000  0.58334000  1.0 0.1204830425
H  H28  1  0.40778000  0.22082000  0.58728000  1.0 0.1366450922
H  H29  1  0.47826000  0.37618000  0.56967000  1.0 0.1204830425
H  H30  1  0.59897000  0.31023000  0.50337000  1.0 0.1072395505
H  H31  1  0.52445000  0.21815000  0.23011000  1.0 0.1072395505
H  H32  1  0.40216000  0.28162000  0.29446000  1.0 0.1204830425
H  H33  1  0.70377000  0.22631000  0.48242000  1.0 0.0960259089
H  H34  1  0.82783000  0.16277000  0.40290000  1.0 0.1286862429
H  H35  1  0.73338000  0.13792000  0.04925000  1.0 0.1204830425
H  H36  1  0.61167000  0.20199000  0.11151000  1.0 0.0960259089
H  H37  1  0.73981000  0.21371000  0.71828000  1.0 0.1286862429
H  H38  1  0.62291000  0.27541000  0.78569000  1.0 0.1204830425
H  H39  1  0.63572000  0.07112000  0.84016000  1.0 0.1204830425
H  H40  1  0.75905000  0.02261000  0.81031000  1.0 0.1286862429
H  H41  1  0.51419000  0.32191000  0.81891000  1.0 0.1204830425
H  H42  1  0.39541000  0.38105000  0.88265000  1.0 0.1286862429
H  H43  1  0.41515000  0.17901000  0.00729000  1.0 0.1286862429
H  H44  1  0.53044000  0.12254000  0.93686000  1.0 0.1204830425
H  H45  1  0.28210000  0.26758000  0.79706000  1.0 0.1204830425
H  H46  1  0.21046000  0.20660000  0.79537000  1.0 0.1072395505
H  H47  1  0.20404000  0.10150000  0.19238000  1.0 0.1072395505
H  H48  1  0.13303000  0.03743000  0.19348000  1.0 0.1204830425
C  C1  1  0.08270000  0.19130000  0.52670000  1.0 -0.0795291378
C  C2  1  0.12040000  0.23160000  0.52320000  1.0 -0.1705811522
C  C3  1  0.20730000  0.31490000  0.45070000  1.0 -0.1425882442
C  C4  1  0.24470000  0.35650000  0.44800000  1.0 -0.1705811522
C  C5  1  0.32970000  0.42970000  0.55130000  1.0 0.1972576813
C  C6  1  0.34270000  0.48730000  0.49710000  1.0 -0.2106033577
C  C7  1  0.30570000  0.55910000  0.54180000  1.0 -0.1235694042
C  C8  1  0.26290000  0.57230000  0.65030000  1.0 0.0488745333
C  C9  1  0.25140000  0.51500000  0.70250000  1.0 -0.1331427297
C  C10  1  0.28700000  0.44160000  0.66040000  1.0 -0.2031279667
C  C11  1  0.22440000  0.64140000  0.69810000  1.0 0.0791905298
C  C12  1  0.20940000  0.70900000  0.60540000  1.0 -0.1487432221
C  C13  1  0.16820000  0.78460000  0.65020000  1.0 -0.1001650444
C  C14  1  0.13680000  0.78940000  0.77850000  1.0 -0.0324033177
C  C15  1  0.15390000  0.72750000  0.86230000  1.0 -0.0904805388
C  C16  1  0.19460000  0.65300000  0.82700000  1.0 -0.1705811522
C  C17  1  0.08520000  0.86700000  0.80630000  1.0 0.6015847361
C  C18  1  0.08070000  0.84050000  0.26980000  1.0 0.5604206161
C  C19  1  0.11200000  0.76300000  0.23230000  1.0 -0.0071341404
C  C20  1  0.18410000  0.71970000  0.24400000  1.0 -0.1061411663
C  C21  1  0.22250000  0.64810000  0.20850000  1.0 -0.1487432221
C  C22  1  0.18160000  0.61520000  0.16480000  1.0 0.0791905298
C  C23  1  0.10290000  0.65730000  0.17230000  1.0 -0.1425882442
C  C24  1  0.07540000  0.73000000  0.19800000  1.0 -0.0904805388
C  C25  1  0.21650000  0.53690000  0.13180000  1.0 0.0601573672
C  C26  1  0.29230000  0.49410000  0.14340000  1.0 -0.1487432221
C  C27  1  0.32820000  0.42340000  0.10370000  1.0 -0.1613558954
C  C28  1  0.28770000  0.39510000  0.04590000  1.0 0.1615687521
C  C29  1  0.20800000  0.43580000  0.03130000  1.0 -0.1705811522
C  C30  1  0.17550000  0.50330000  0.07300000  1.0 -0.1331427297
C  C31  1  0.25790000  0.26510000  0.12070000  1.0 -0.1897978051
C  C32  1  0.21990000  0.22370000  0.12080000  1.0 -0.1235694042
C  C33  1  0.10910000  0.16970000  0.88450000  1.0 -0.1613558954
C  C34  1  0.07000000  0.12800000  0.88460000  1.0 -0.0904805388
C  C35  1  0.19130000  0.08270000  0.47330000  1.0 -0.0795291378
C  C36  1  0.23160000  0.12040000  0.47680000  1.0 -0.1705811522
C  C37  1  0.31490000  0.20730000  0.54930000  1.0 -0.1425882442
C  C38  1  0.35650000  0.24470000  0.55200000  1.0 -0.1705811522
C  C39  1  0.42970000  0.32970000  0.44870000  1.0 0.1972576813
C  C40  1  0.48730000  0.34270000  0.50290000  1.0 -0.2106033577
C  C41  1  0.55910000  0.30570000  0.45820000  1.0 -0.1235694042
C  C42  1  0.57230000  0.26290000  0.34970000  1.0 0.0488745333
C  C43  1  0.51500000  0.25140000  0.29750000  1.0 -0.1331427297
C  C44  1  0.44160000  0.28700000  0.33960000  1.0 -0.2031279667
C  C45  1  0.64140000  0.22440000  0.30190000  1.0 0.0791905298
C  C46  1  0.70900000  0.20940000  0.39460000  1.0 -0.1487432221
C  C47  1  0.78460000  0.16820000  0.34980000  1.0 -0.1001650444
C  C48  1  0.78940000  0.13680000  0.22150000  1.0 -0.0324033177
C  C49  1  0.72750000  0.15390000  0.13770000  1.0 -0.0904805388
C  C50  1  0.65300000  0.19460000  0.17300000  1.0 -0.1705811522
C  C51  1  0.86700000  0.08520000  0.19370000  1.0 0.6015847361
C  C52  1  0.84050000  0.08070000  0.73020000  1.0 0.5604206161
C  C53  1  0.76300000  0.11200000  0.76770000  1.0 -0.0071341404
C  C54  1  0.71970000  0.18410000  0.75600000  1.0 -0.1061411663
C  C55  1  0.64810000  0.22250000  0.79150000  1.0 -0.1487432221
C  C56  1  0.61520000  0.18160000  0.83520000  1.0 0.0791905298
C  C57  1  0.65730000  0.10290000  0.82770000  1.0 -0.1425882442
C  C58  1  0.73000000  0.07540000  0.80200000  1.0 -0.0904805388
C  C59  1  0.53690000  0.21650000  0.86820000  1.0 0.0601573672
C  C60  1  0.49410000  0.29230000  0.85660000  1.0 -0.1487432221
C  C61  1  0.42340000  0.32820000  0.89630000  1.0 -0.1613558954
C  C62  1  0.39510000  0.28770000  0.95410000  1.0 0.1615687521
C  C63  1  0.43580000  0.20800000  0.96870000  1.0 -0.1753265424
C  C64  1  0.50330000  0.17550000  0.92700000  1.0 -0.1331427297
C  C65  1  0.26510000  0.25790000  0.87930000  1.0 -0.1897978051
C  C66  1  0.22370000  0.21990000  0.87920000  1.0 -0.1235694042
C  C67  1  0.16970000  0.10910000  0.11550000  1.0 -0.1613558954
C  C68  1  0.12800000  0.07000000  0.11540000  1.0 -0.0904805388
C  C69  1  0.07770000  0.07770000  0.50000000  1.0 0.5513522462
C  C70  1  0.11810000  0.11810000  0.50000000  1.0 -0.0718928589
C  C71  1  0.19920000  0.19920000  0.50000000  1.0 0.0791905298
C  C72  1  0.24120000  0.24120000  0.50000000  1.0 0.0404970409
C  C73  1  0.31840000  0.31840000  0.50000000  1.0 0.1466838555
C  C74  1  0.28190000  0.28190000  0.00000000  1.0 0.194348617
C  C75  1  0.20090000  0.20090000  0.00000000  1.0 0.0601573672
C  C76  1  0.15970000  0.15970000  0.00000000  1.0 0.0791905298
C  C77  1  0.07960000  0.07960000  0.00000000  1.0 -0.0071341404
C  C78  1  0.03650000  0.03650000  0.00000000  1.0 0.6015847361
N  N1  1  0.36080000  0.36080000  0.50000000  1.0 -0.1487432221
N  N2  1  0.32110000  0.32110000  0.00000000  1.0 -0.1705811522
O  O1  1  0.09510000  0.01710000  0.43370000  1.0 -0.5788742466
O  O2  1  0.07820000  0.92160000  0.72900000  1.0 -0.5282097622
O  O3  1  0.04510000  0.86910000  0.90360000  1.0 -0.5745071634
O  O4  1  0.11360000  0.86380000  0.32710000  1.0 -0.3831597133
O  O5  1  0.00166000  0.88666000  0.21760000  1.0 -0.6517025395
O  O6  1  0.99076000  0.05196000  0.89790000  1.0 -0.5599647923
O  O7  1  0.01710000  0.09510000  0.56630000  1.0 -0.5788742466
O  O8  1  0.92160000  0.07820000  0.27100000  1.0 -0.5282097622
O  O9  1  0.86910000  0.04510000  0.09640000  1.0 -0.5745071634
O  O10  1  0.86380000  0.11360000  0.67290000  1.0 -0.3860652907
O  O11  1  0.88666000  0.00166000  0.78240000  1.0 -0.6517025395
O  O12  1  0.05196000  0.99076000  0.10210000  1.0 -0.5599647923
O  O13  1  0.95800000  0.95800000  0.50000000  1.0 -0.3390724524
