# DDEC6 charges by PACMAN v1.1 (https://github.com/mtap-research/PACMAN-charge/)
data_XIVGUI_ASR_pacman
_symmetry_space_group_name_H-M   'P 1'
_cell_length_a   13.31900000
_cell_length_b   15.02800000
_cell_length_c   16.57320000
_cell_angle_alpha   96.46000000
_cell_angle_beta   101.70300000
_cell_angle_gamma   89.93580000
_symmetry_Int_Tables_number   1
_chemical_formula_structural   CaH20(C15O2)2
_chemical_formula_sum   'Ca4 H80 C120 O16'
_cell_volume   3226.87145444
_cell_formula_units_Z   4
loop_
 _symmetry_equiv_pos_site_id
 _symmetry_equiv_pos_as_xyz
  1  'x, y, z'
loop_
 _atom_site_type_symbol
 _atom_site_label
 _atom_site_symmetry_multiplicity
 _atom_site_fract_x
 _atom_site_fract_y
 _atom_site_fract_z
 _atom_site_occupancy
 _atom_site_charge
Ca  Ca1  1  0.37995000  0.07085000  0.01819000  1.0 1.3308948127
Ca  Ca2  1  0.62005000  0.92915000  0.98181000  1.0 1.3308948127
Ca  Ca3  1  0.88213000  0.06289000  0.02944000  1.0 1.3308948127
Ca  Ca4  1  0.11787000  0.93711000  0.97056000  1.0 1.3249926416
H  H1  1  0.75013000  0.19859000  0.49505000  1.0 0.1088434945
H  H2  1  0.24987000  0.80141000  0.50495000  1.0 0.1088434945
H  H3  1  0.75608000  0.79261000  0.51244000  1.0 0.1088434945
H  H4  1  0.24392000  0.20739000  0.48756000  1.0 0.1088434945
H  H5  1  0.80282000  0.43685000  0.70508000  1.0 0.0999060464
H  H6  1  0.19718000  0.56315000  0.29492000  1.0 0.0999060464
H  H7  1  0.69846000  0.55251000  0.30179000  1.0 0.1088434945
H  H8  1  0.30154000  0.44749000  0.69821000  1.0 0.1088434945
H  H9  1  0.80212000  0.58950000  0.71038000  1.0 0.0999060464
H  H10  1  0.19788000  0.41050000  0.28962000  1.0 0.0999060464
H  H11  1  0.70015000  0.39950000  0.29914000  1.0 0.0999060464
H  H12  1  0.29985000  0.60050000  0.70086000  1.0 0.0999060464
H  H13  1  0.91464000  0.81956000  0.64682000  1.0 0.0906282229
H  H14  1  0.08536000  0.18044000  0.35318000  1.0 0.0906282229
H  H15  1  0.84707000  0.17906000  0.35572000  1.0 0.0906282229
H  H16  1  0.15293000  0.82094000  0.64428000  1.0 0.0906282229
H  H17  1  0.81539000  0.09562000  0.22534000  1.0 0.0906282229
H  H18  1  0.18461000  0.90438000  0.77466000  1.0 0.0906282229
H  H19  1  0.94608000  0.90767000  0.77339000  1.0 0.0906282229
H  H20  1  0.05392000  0.09233000  0.22661000  1.0 0.0906282229
H  H21  1  0.81636000  0.74766000  0.19262000  1.0 0.0906282229
H  H22  1  0.18364000  0.25234000  0.80738000  1.0 0.0906282229
H  H23  1  0.97387000  0.24953000  0.81666000  1.0 0.1088434945
H  H24  1  0.02613000  0.75047000  0.18334000  1.0 0.0999060464
H  H25  1  0.69466000  0.79986000  0.83130000  1.0 0.0906282229
H  H26  1  0.30534000  0.20014000  0.16870000  1.0 0.0906282229
H  H27  1  0.52617000  0.18906000  0.17720000  1.0 0.08191714
H  H28  1  0.47383000  0.81094000  0.82280000  1.0 0.08191714
H  H29  1  0.94166000  0.32053000  0.69502000  1.0 0.0906282229
H  H30  1  0.05834000  0.67947000  0.30498000  1.0 0.0906282229
H  H31  1  0.84570000  0.67613000  0.31438000  1.0 0.08191714
H  H32  1  0.15430000  0.32387000  0.68562000  1.0 0.08191714
H  H33  1  0.55812000  0.85448000  0.25440000  1.0 0.0906282229
H  H34  1  0.44188000  0.14552000  0.74560000  1.0 0.0906282229
H  H35  1  0.66648000  0.70604000  0.70724000  1.0 0.0906282229
H  H36  1  0.33352000  0.29396000  0.29276000  1.0 0.0906282229
H  H37  1  0.56073000  0.28081000  0.30331000  1.0 0.0906282229
H  H38  1  0.43927000  0.71919000  0.69669000  1.0 0.0906282229
H  H39  1  0.68810000  0.13815000  0.75562000  1.0 0.0999060464
H  H40  1  0.31190000  0.86185000  0.24438000  1.0 0.0999060464
H  H41  1  0.58877000  0.78553000  0.37454000  1.0 0.08191714
H  H42  1  0.41123000  0.21447000  0.62546000  1.0 0.08191714
H  H43  1  0.65895000  0.20234000  0.63254000  1.0 0.0906282229
H  H44  1  0.34105000  0.79766000  0.36746000  1.0 0.0906282229
H  H45  1  0.83230000  0.28868000  0.29994000  1.0 0.0906282229
H  H46  1  0.16770000  0.71132000  0.70006000  1.0 0.0906282229
H  H47  1  0.81550000  0.17994000  0.18336000  1.0 0.08191714
H  H48  1  0.18450000  0.82006000  0.81664000  1.0 0.08191714
H  H49  1  0.57714000  0.17590000  0.35717000  1.0 0.0906282229
H  H50  1  0.42286000  0.82410000  0.64283000  1.0 0.0906282229
H  H51  1  0.54715000  0.08875000  0.22700000  1.0 0.0906282229
H  H52  1  0.45285000  0.91125000  0.77300000  1.0 0.0906282229
H  H53  1  0.65026000  0.81179000  0.65209000  1.0 0.0906282229
H  H54  1  0.34974000  0.18821000  0.34791000  1.0 0.0906282229
H  H55  1  0.69040000  0.91219000  0.77843000  1.0 0.0999060464
H  H56  1  0.30960000  0.08781000  0.22157000  1.0 0.0999060464
H  H57  1  0.93201000  0.69574000  0.71401000  1.0 0.0906282229
H  H58  1  0.06799000  0.30426000  0.28599000  1.0 0.0906282229
H  H59  1  0.96608000  0.79926000  0.83435000  1.0 0.0906282229
H  H60  1  0.03392000  0.20074000  0.16565000  1.0 0.0906282229
H  H61  1  0.88776000  0.18155000  0.62953000  1.0 0.0906282229
H  H62  1  0.11224000  0.81845000  0.37047000  1.0 0.0906282229
H  H63  1  0.92597000  0.12125000  0.75082000  1.0 0.0999060464
H  H64  1  0.07403000  0.87875000  0.24918000  1.0 0.0999060464
H  H65  1  0.65312000  0.31913000  0.70077000  1.0 0.0906282229
H  H66  1  0.34688000  0.68087000  0.29923000  1.0 0.0906282229
H  H67  1  0.68212000  0.24403000  0.81778000  1.0 0.0999060464
H  H68  1  0.31788000  0.75597000  0.18222000  1.0 0.0999060464
H  H69  1  0.53940000  0.80191000  0.24058000  1.0 0.0906282229
H  H70  1  0.46060000  0.19809000  0.75942000  1.0 0.0906282229
H  H71  1  0.56673000  0.71402000  0.18668000  1.0 0.0999060464
H  H72  1  0.43327000  0.28598000  0.81332000  1.0 0.0999060464
H  H73  1  0.60204000  0.64907000  0.28918000  1.0 0.08191714
H  H74  1  0.39796000  0.35093000  0.71082000  1.0 0.0906282229
H  H75  1  0.56606000  0.73419000  0.34163000  1.0 0.0737154705
H  H76  1  0.43394000  0.26581000  0.65837000  1.0 0.0737154705
H  H77  1  0.81875000  0.86261000  0.26614000  1.0 0.0906282229
H  H78  1  0.18125000  0.13739000  0.73386000  1.0 0.0906282229
H  H79  1  0.84758000  0.78381000  0.38122000  1.0 0.0906282229
H  H80  1  0.15242000  0.21619000  0.61878000  1.0 0.0906282229
C  C1  1  0.84850000  0.91290000  0.90170000  1.0 0.5829474477
C  C2  1  0.15150000  0.08710000  0.09830000  1.0 0.5829474477
C  C3  1  0.64930000  0.08540000  0.10240000  1.0 0.5702879278
C  C4  1  0.35070000  0.91460000  0.89760000  1.0 0.5702879278
C  C5  1  0.82680000  0.85890000  0.81760000  1.0 -0.0192547937
C  C6  1  0.17320000  0.14110000  0.18240000  1.0 -0.0192547937
C  C7  1  0.67000000  0.13710000  0.18790000  1.0 -0.0351352545
C  C8  1  0.33000000  0.86290000  0.81210000  1.0 -0.0317668885
C  C9  1  0.77040000  0.59770000  0.58300000  1.0 0.0130760155
C  C10  1  0.22960000  0.40230000  0.41700000  1.0 0.0130760155
C  C11  1  0.73170000  0.39460000  0.42540000  1.0 0.0203074814
C  C12  1  0.26830000  0.60540000  0.57460000  1.0 0.0203074814
C  C13  1  0.75120000  0.54370000  0.50540000  1.0 -0.0074701032
C  C14  1  0.24880000  0.45630000  0.49460000  1.0 -0.0074701032
C  C15  1  0.75060000  0.26200000  0.49700000  1.0 -0.2189297455
C  C16  1  0.24940000  0.73800000  0.50300000  1.0 -0.2189297455
C  C17  1  0.75460000  0.72920000  0.51060000  1.0 -0.2431219893
C  C18  1  0.24540000  0.27080000  0.48940000  1.0 -0.2431219893
C  C19  1  0.75140000  0.44690000  0.50270000  1.0 -0.0074701032
C  C20  1  0.24860000  0.55310000  0.49730000  1.0 -0.0074701032
C  C21  1  0.68200000  0.80900000  0.21350000  1.0 -0.0192547937
C  C22  1  0.31800000  0.19100000  0.78650000  1.0 -0.0192547937
C  C23  1  0.73020000  0.29910000  0.42340000  1.0 -0.0074701032
C  C24  1  0.26980000  0.70090000  0.57660000  1.0 -0.0192547937
C  C25  1  0.83100000  0.18980000  0.80050000  1.0 -0.002173732
C  C26  1  0.16900000  0.81020000  0.19950000  1.0 -0.002173732
C  C27  1  0.78990000  0.46370000  0.65480000  1.0 -0.1618737059
C  C28  1  0.21010000  0.53630000  0.34520000  1.0 -0.1618737059
C  C29  1  0.77080000  0.69150000  0.58590000  1.0 -0.0074701032
C  C30  1  0.22920000  0.30850000  0.41410000  1.0 -0.0074701032
C  C31  1  0.85000000  0.15190000  0.88230000  1.0 0.5298464743
C  C32  1  0.15000000  0.84810000  0.11770000  1.0 0.5298464743
C  C33  1  0.73370000  0.58250000  0.43070000  1.0 0.0203074814
C  C34  1  0.26630000  0.41750000  0.56930000  1.0 0.0203074814
C  C35  1  0.66230000  0.85050000  0.13430000  1.0 0.5196513979
C  C36  1  0.33770000  0.14950000  0.86570000  1.0 0.5196513979
C  C37  1  0.70800000  0.24060000  0.34330000  1.0 0.0405267037
C  C38  1  0.29200000  0.75940000  0.65670000  1.0 0.0405267037
C  C39  1  0.77120000  0.40810000  0.57770000  1.0 0.0203074814
C  C40  1  0.22880000  0.59190000  0.42230000  1.0 0.0203074814
C  C41  1  0.78910000  0.75180000  0.66430000  1.0 0.0583634524
C  C42  1  0.21090000  0.24820000  0.33570000  1.0 0.0583634524
C  C43  1  0.77190000  0.31320000  0.57460000  1.0 -0.0192547937
C  C44  1  0.22810000  0.68680000  0.42540000  1.0 -0.0192547937
C  C45  1  0.71260000  0.52630000  0.35230000  1.0 -0.1747030171
C  C46  1  0.28740000  0.47370000  0.64770000  1.0 -0.1747030171
C  C47  1  0.79310000  0.26800000  0.65100000  1.0 0.0405267037
C  C48  1  0.20690000  0.73200000  0.34900000  1.0 0.0405267037
C  C49  1  0.73650000  0.67870000  0.43410000  1.0 -0.0317668885
C  C50  1  0.26350000  0.32130000  0.56590000  1.0 -0.0317668885
C  C51  1  0.71890000  0.72460000  0.35860000  1.0 0.031367976
C  C52  1  0.28110000  0.27540000  0.64140000  1.0 0.031367976
C  C53  1  0.78960000  0.55410000  0.65800000  1.0 -0.1618737059
C  C54  1  0.21040000  0.44590000  0.34200000  1.0 -0.1618737059
C  C55  1  0.71280000  0.43600000  0.35100000  1.0 -0.1618737059
C  C56  1  0.28720000  0.56400000  0.64900000  1.0 -0.1618737059
C  C57  1  0.87130000  0.81370000  0.68500000  1.0 -0.1114732644
C  C58  1  0.12870000  0.18630000  0.31500000  1.0 -0.1114732644
C  C59  1  0.78290000  0.18330000  0.31900000  1.0 -0.0793277383
C  C60  1  0.21710000  0.81670000  0.68100000  1.0 -0.0793277383
C  C61  1  0.76370000  0.13310000  0.24160000  1.0 -0.0793277383
C  C62  1  0.23630000  0.86690000  0.75840000  1.0 -0.0793277383
C  C63  1  0.88990000  0.86610000  0.76010000  1.0 -0.0877672942
C  C64  1  0.11010000  0.13390000  0.23990000  1.0 -0.0877672942
C  C65  1  0.77060000  0.75490000  0.22990000  1.0 -0.0682884047
C  C66  1  0.22940000  0.24510000  0.77010000  1.0 -0.0793277383
C  C67  1  0.90870000  0.24220000  0.78020000  1.0 -0.0793277383
C  C68  1  0.09130000  0.75780000  0.21980000  1.0 -0.0793277383
C  C69  1  0.74130000  0.80150000  0.79500000  1.0 -0.0682884047
C  C70  1  0.25870000  0.19850000  0.20500000  1.0 -0.0603534565
C  C71  1  0.59220000  0.18960000  0.21230000  1.0 -0.0682884047
C  C72  1  0.40780000  0.81040000  0.78770000  1.0 -0.0682884047
C  C73  1  0.89050000  0.28320000  0.70730000  1.0 -0.1447437408
C  C74  1  0.10950000  0.71680000  0.29270000  1.0 -0.145094231
C  C75  1  0.78770000  0.71290000  0.30230000  1.0 -0.0603534565
C  C76  1  0.21230000  0.28710000  0.69770000  1.0 -0.0603534565
C  C77  1  0.61700000  0.81880000  0.26650000  1.0 -0.0986243526
C  C78  1  0.38300000  0.18120000  0.73350000  1.0 -0.0986243526
C  C79  1  0.72330000  0.74700000  0.72060000  1.0 -0.0986243526
C  C80  1  0.27670000  0.25300000  0.27940000  1.0 -0.0986243526
C  C81  1  0.61230000  0.24250000  0.28810000  1.0 -0.0793277383
C  C82  1  0.38770000  0.75750000  0.71190000  1.0 -0.0793277383
C  C83  1  0.73990000  0.17530000  0.74410000  1.0 -0.0603534565
C  C84  1  0.26010000  0.82470000  0.25590000  1.0 -0.0603534565
C  C85  1  0.63550000  0.77730000  0.33810000  1.0 -0.0793277383
C  C86  1  0.36450000  0.22270000  0.66190000  1.0 -0.0793277383
C  C87  1  0.72250000  0.21410000  0.67050000  1.0 -0.0682884047
C  C88  1  0.27750000  0.78590000  0.32950000  1.0 -0.0682884047
C  C89  1  0.77800000  0.24570000  0.28730000  1.0 -0.0793277383
C  C90  1  0.22200000  0.75430000  0.71270000  1.0 -0.0793277383
C  C91  1  0.76310000  0.18680000  0.21470000  1.0 -0.0682884047
C  C92  1  0.23690000  0.81320000  0.78530000  1.0 -0.0682884047
C  C93  1  0.62230000  0.18090000  0.32020000  1.0 -0.0877672942
C  C94  1  0.37770000  0.81910000  0.67980000  1.0 -0.0877672942
C  C95  1  0.60430000  0.12930000  0.24250000  1.0 -0.0793277383
C  C96  1  0.39570000  0.87070000  0.75750000  1.0 -0.0682884047
C  C97  1  0.71570000  0.81020000  0.68760000  1.0 -0.0682884047
C  C98  1  0.28430000  0.18980000  0.31240000  1.0 -0.0682884047
C  C99  1  0.73780000  0.86840000  0.76520000  1.0 -0.0877672942
C  C100  1  0.26220000  0.13160000  0.23480000  1.0 -0.0877672942
C  C101  1  0.88450000  0.74070000  0.72430000  1.0 -0.1204230154
C  C102  1  0.11550000  0.25930000  0.27570000  1.0 -0.1204230154
C  C103  1  0.90160000  0.79940000  0.79720000  1.0 -0.0793277383
C  C104  1  0.09840000  0.20060000  0.20280000  1.0 -0.0793277383
C  C105  1  0.85300000  0.20600000  0.67130000  1.0 -0.0529785363
C  C106  1  0.14700000  0.79400000  0.32870000  1.0 -0.0529785363
C  C107  1  0.87600000  0.16630000  0.74440000  1.0 -0.0793277383
C  C108  1  0.12400000  0.83370000  0.25560000  1.0 -0.0793277383
C  C109  1  0.71130000  0.28270000  0.71330000  1.0 -0.0877672942
C  C110  1  0.28870000  0.71730000  0.28670000  1.0 -0.0877672942
C  C111  1  0.72940000  0.24170000  0.78180000  1.0 -0.0682884047
C  C112  1  0.27060000  0.75830000  0.21820000  1.0 -0.0603534565
C  C113  1  0.59440000  0.75880000  0.23450000  1.0 -0.0877672942
C  C114  1  0.40560000  0.24120000  0.76550000  1.0 -0.0877672942
C  C115  1  0.61560000  0.71390000  0.30660000  1.0 -0.1114732644
C  C116  1  0.38440000  0.28610000  0.69340000  1.0 -0.1114732644
C  C117  1  0.76750000  0.82100000  0.27230000  1.0 -0.0682884047
C  C118  1  0.23250000  0.17900000  0.72770000  1.0 -0.0682884047
C  C119  1  0.78400000  0.77540000  0.34330000  1.0 -0.0603534565
C  C120  1  0.21600000  0.22460000  0.65670000  1.0 -0.0682884047
O  O1  1  0.55920000  0.07050000  0.06350000  1.0 -0.6379381569
O  O2  1  0.44080000  0.92950000  0.93650000  1.0 -0.6379381569
O  O3  1  0.77820000  0.92750000  0.94015000  1.0 -0.6265498551
O  O4  1  0.22180000  0.07250000  0.05985000  1.0 -0.6265498551
O  O5  1  0.93760000  0.94660000  0.92863000  1.0 -0.6629961582
O  O6  1  0.06240000  0.05340000  0.07137000  1.0 -0.6629961582
O  O7  1  0.72430000  0.05400000  0.07370000  1.0 -0.6547706278
O  O8  1  0.27570000  0.94600000  0.92630000  1.0 -0.6547706278
O  O9  1  0.94010000  0.14840000  0.92210000  1.0 -0.5788673711
O  O10  1  0.05990000  0.85160000  0.07790000  1.0 -0.5788673711
O  O11  1  0.73290000  0.85350000  0.09270000  1.0 -0.6011226924
O  O12  1  0.26710000  0.14650000  0.90730000  1.0 -0.6011226924
O  O13  1  0.57570000  0.88070000  0.10760000  1.0 -0.5788673711
O  O14  1  0.42430000  0.11930000  0.89240000  1.0 -0.5788673711
O  O15  1  0.77580000  0.12200000  0.90730000  1.0 -0.5788673711
O  O16  1  0.22420000  0.87800000  0.09270000  1.0 -0.5788673711
