# DDEC6 charges by PACMAN v1.1 (https://github.com/mtap-research/PACMAN-charge/)
data_XIVVEF_FSR_pacman
_symmetry_space_group_name_H-M   'P 1'
_cell_length_a   14.37200000
_cell_length_b   14.37200000
_cell_length_c   14.37200000
_cell_angle_alpha   116.65400000
_cell_angle_beta   116.65400000
_cell_angle_gamma   95.90100000
_symmetry_Int_Tables_number   1
_chemical_formula_structural   FeH4C20NO4
_chemical_formula_sum   'Fe4 H16 C80 N4 O16'
_cell_volume   2192.67545200
_cell_formula_units_Z   4
loop_
 _symmetry_equiv_pos_site_id
 _symmetry_equiv_pos_as_xyz
  1  'x, y, z'
loop_
 _atom_site_type_symbol
 _atom_site_label
 _atom_site_symmetry_multiplicity
 _atom_site_fract_x
 _atom_site_fract_y
 _atom_site_fract_z
 _atom_site_occupancy
 _atom_site_charge
Fe  Fe1  1  0.07292000  0.07292000  0.00000000  1.0 0.7972954791
Fe  Fe2  1  0.42708000  0.42708000  0.00000000  1.0 0.7972954791
Fe  Fe3  1  0.92708000  0.92708000  0.00000000  1.0 0.7972954791
Fe  Fe4  1  0.57292000  0.57292000  0.00000000  1.0 0.7972954791
H  H1  1  0.65020000  0.04230000  0.90190000  1.0 0.1235360056
H  H2  1  0.14040000  0.74830000  0.09810000  1.0 0.1235360056
H  H3  1  0.84980000  0.75170000  0.39210000  1.0 0.1235360056
H  H4  1  0.35960000  0.45770000  0.60790000  1.0 0.1235360056
H  H5  1  0.45770000  0.84980000  0.09810000  1.0 0.1235360056
H  H6  1  0.75170000  0.35960000  0.90190000  1.0 0.1235360056
H  H7  1  0.74830000  0.65020000  0.60790000  1.0 0.1235360056
H  H8  1  0.04230000  0.14040000  0.39210000  1.0 0.1235360056
H  H9  1  0.34980000  0.95770000  0.09810000  1.0 0.1235360056
H  H10  1  0.85960000  0.25170000  0.90190000  1.0 0.1235360056
H  H11  1  0.15020000  0.24830000  0.60790000  1.0 0.1235360056
H  H12  1  0.64040000  0.54230000  0.39210000  1.0 0.1235360056
H  H13  1  0.54230000  0.15020000  0.90190000  1.0 0.1235360056
H  H14  1  0.24830000  0.64040000  0.09810000  1.0 0.1235360056
H  H15  1  0.25170000  0.34980000  0.39210000  1.0 0.1235360056
H  H16  1  0.95770000  0.85960000  0.60790000  1.0 0.1235360056
C  C1  1  0.84620000  0.07640000  0.92260000  1.0 0.5316792261
C  C2  1  0.15380000  0.92360000  0.07740000  1.0 0.5316792261
C  C3  1  0.65380000  0.57640000  0.23020000  1.0 0.5316792261
C  C4  1  0.34620000  0.42360000  0.76980000  1.0 0.5316792261
C  C5  1  0.42360000  0.65380000  0.07740000  1.0 0.5316792261
C  C6  1  0.57640000  0.34620000  0.92260000  1.0 0.5316792261
C  C7  1  0.92360000  0.84620000  0.76980000  1.0 0.5316792261
C  C8  1  0.07640000  0.15380000  0.23020000  1.0 0.5316792261
C  C9  1  0.21790000  0.29920000  0.09810000  1.0 -0.0025333022
C  C10  1  0.20110000  0.11980000  0.90190000  1.0 -0.0025333022
C  C11  1  0.28210000  0.38020000  0.08130000  1.0 -0.0025333022
C  C12  1  0.29890000  0.20080000  0.91870000  1.0 -0.0025333022
C  C13  1  0.20080000  0.28210000  0.90190000  1.0 -0.0025333022
C  C14  1  0.38020000  0.29890000  0.09810000  1.0 -0.0025333022
C  C15  1  0.11980000  0.21790000  0.91870000  1.0 -0.0025333022
C  C16  1  0.29920000  0.20110000  0.08130000  1.0 -0.0025333022
C  C17  1  0.78210000  0.70080000  0.90190000  1.0 -0.0025333022
C  C18  1  0.79890000  0.88020000  0.09810000  1.0 -0.0025333022
C  C19  1  0.71790000  0.61980000  0.91870000  1.0 -0.0025333022
C  C20  1  0.70110000  0.79920000  0.08130000  1.0 -0.0025333022
C  C21  1  0.79920000  0.71790000  0.09810000  1.0 -0.0025333022
C  C22  1  0.61980000  0.70110000  0.90190000  1.0 -0.0025333022
C  C23  1  0.88020000  0.78210000  0.08130000  1.0 -0.0025333022
C  C24  1  0.70080000  0.79890000  0.91870000  1.0 -0.0025333022
C  C25  1  0.76820000  0.13840000  0.90660000  1.0 0.0644582939
C  C26  1  0.23180000  0.86160000  0.09340000  1.0 0.0644582939
C  C27  1  0.73180000  0.63840000  0.37020000  1.0 0.0644582939
C  C28  1  0.26820000  0.36160000  0.62980000  1.0 0.0644582939
C  C29  1  0.36160000  0.73180000  0.09340000  1.0 0.0644582939
C  C30  1  0.63840000  0.26820000  0.90660000  1.0 0.0644582939
C  C31  1  0.86160000  0.76820000  0.62980000  1.0 0.0644582939
C  C32  1  0.13840000  0.23180000  0.37020000  1.0 0.0644582939
C  C33  1  0.67151000  0.10751000  0.90380000  1.0 -0.1284573469
C  C34  1  0.20371000  0.76771000  0.09620000  1.0 -0.1284573469
C  C35  1  0.82849000  0.73229000  0.43600000  1.0 -0.1284573469
C  C36  1  0.29629000  0.39249000  0.56400000  1.0 -0.1284573469
C  C37  1  0.39249000  0.82849000  0.09620000  1.0 -0.1284573469
C  C38  1  0.73229000  0.29629000  0.90380000  1.0 -0.1284573469
C  C39  1  0.76771000  0.67151000  0.56400000  1.0 -0.1284573469
C  C40  1  0.10751000  0.20371000  0.43600000  1.0 -0.1284573469
C  C41  1  0.32849000  0.89249000  0.09620000  1.0 -0.1284573469
C  C42  1  0.79629000  0.23229000  0.90380000  1.0 -0.1284573469
C  C43  1  0.17151000  0.26771000  0.56400000  1.0 -0.1284573469
C  C44  1  0.70371000  0.60751000  0.43600000  1.0 -0.1284573469
C  C45  1  0.60751000  0.17151000  0.90380000  1.0 -0.1284573469
C  C46  1  0.26771000  0.70371000  0.09620000  1.0 -0.1284573469
C  C47  1  0.23229000  0.32849000  0.43600000  1.0 -0.1284573469
C  C48  1  0.89249000  0.79629000  0.56400000  1.0 -0.1284573469
C  C49  1  0.28990000  0.24770000  0.12200000  1.0 -0.0061701891
C  C50  1  0.12570000  0.16790000  0.87800000  1.0 -0.0061701891
C  C51  1  0.21010000  0.33210000  0.95780000  1.0 -0.0061701891
C  C52  1  0.37430000  0.25230000  0.04220000  1.0 -0.0061701891
C  C53  1  0.25230000  0.21010000  0.87800000  1.0 -0.0061701891
C  C54  1  0.33210000  0.37430000  0.12200000  1.0 -0.0061701891
C  C55  1  0.16790000  0.28990000  0.04220000  1.0 -0.0061701891
C  C56  1  0.24770000  0.12570000  0.95780000  1.0 -0.0061701891
C  C57  1  0.71010000  0.75230000  0.87800000  1.0 -0.0061701891
C  C58  1  0.87430000  0.83210000  0.12200000  1.0 -0.0025333022
C  C59  1  0.78990000  0.66790000  0.04220000  1.0 -0.0061701891
C  C60  1  0.62570000  0.74770000  0.95780000  1.0 -0.0061701891
C  C61  1  0.74770000  0.78990000  0.12200000  1.0 -0.0025333022
C  C62  1  0.66790000  0.62570000  0.87800000  1.0 -0.0061701891
C  C63  1  0.83210000  0.71010000  0.95780000  1.0 -0.0061701891
C  C64  1  0.75230000  0.87430000  0.04220000  1.0 -0.0061701891
C  C65  1  0.28730000  0.15730000  0.02320000  1.0 0.0133445056
C  C66  1  0.13410000  0.26410000  0.97680000  1.0 0.0133445056
C  C67  1  0.21270000  0.23590000  0.87000000  1.0 0.0133445056
C  C68  1  0.36590000  0.34270000  0.13000000  1.0 0.0133445056
C  C69  1  0.34270000  0.21270000  0.97680000  1.0 0.0133445056
C  C70  1  0.23590000  0.36590000  0.02320000  1.0 0.0133445056
C  C71  1  0.26410000  0.28730000  0.13000000  1.0 0.0133445056
C  C72  1  0.15730000  0.13410000  0.87000000  1.0 0.0133445056
C  C73  1  0.71270000  0.84270000  0.97680000  1.0 0.0133445056
C  C74  1  0.86590000  0.73590000  0.02320000  1.0 0.0133445056
C  C75  1  0.78730000  0.76410000  0.13000000  1.0 0.0133445056
C  C76  1  0.63410000  0.65730000  0.87000000  1.0 0.0133445056
C  C77  1  0.65730000  0.78730000  0.02320000  1.0 0.0133445056
C  C78  1  0.76410000  0.63410000  0.97680000  1.0 0.0133445056
C  C79  1  0.73590000  0.71270000  0.87000000  1.0 0.0133445056
C  C80  1  0.84270000  0.86590000  0.13000000  1.0 0.0133445056
N  N1  1  0.18300000  0.18300000  0.00000000  1.0 0.0526536275
N  N2  1  0.31700000  0.31700000  0.00000000  1.0 0.0526536275
N  N3  1  0.81700000  0.81700000  0.00000000  1.0 0.0526536275
N  N4  1  0.68300000  0.68300000  0.00000000  1.0 0.0526536275
O  O1  1  0.93418000  0.11135000  0.93015000  1.0 -0.5107303205
O  O2  1  0.18120000  0.00403000  0.06985000  1.0 -0.5107303205
O  O3  1  0.56582000  0.49597000  0.17717000  1.0 -0.5107303205
O  O4  1  0.31880000  0.38865000  0.82283000  1.0 -0.5107303205
O  O5  1  0.38865000  0.56582000  0.06985000  1.0 -0.5107303205
O  O6  1  0.49597000  0.31880000  0.93015000  1.0 -0.5107303205
O  O7  1  0.00403000  0.93418000  0.82283000  1.0 -0.5107303205
O  O8  1  0.11135000  0.18120000  0.17717000  1.0 -0.5107303205
O  O9  1  0.06582000  0.88865000  0.06985000  1.0 -0.5107303205
O  O10  1  0.81880000  0.99597000  0.93015000  1.0 -0.5107303205
O  O11  1  0.43418000  0.50403000  0.82283000  1.0 -0.5107303205
O  O12  1  0.68120000  0.61135000  0.17717000  1.0 -0.5107303205
O  O13  1  0.61135000  0.43418000  0.93015000  1.0 -0.5107303205
O  O14  1  0.50403000  0.68120000  0.06985000  1.0 -0.5107303205
O  O15  1  0.99597000  0.06582000  0.17717000  1.0 -0.5107303205
O  O16  1  0.88865000  0.81880000  0.82283000  1.0 -0.5107303205
