# DDEC6 charges by PACMAN v1.1 (https://github.com/mtap-research/PACMAN-charge/)
data_XIWPEC_FSR_pacman
_symmetry_space_group_name_H-M   'P 1'
_cell_length_a   26.44840000
_cell_length_b   26.44840000
_cell_length_c   26.44840000
_cell_angle_alpha   90.00000000
_cell_angle_beta   90.00000000
_cell_angle_gamma   90.00000000
_symmetry_Int_Tables_number   1
_chemical_formula_structural   CaTiH26C34O9
_chemical_formula_sum   'Ca12 Ti12 H312 C408 O108'
_cell_volume   18501.12823613
_cell_formula_units_Z   12
loop_
 _symmetry_equiv_pos_site_id
 _symmetry_equiv_pos_as_xyz
  1  'x, y, z'
loop_
 _atom_site_type_symbol
 _atom_site_label
 _atom_site_symmetry_multiplicity
 _atom_site_fract_x
 _atom_site_fract_y
 _atom_site_fract_z
 _atom_site_occupancy
 _atom_site_charge
Ca  Ca1  1  0.00000000  0.50000000  0.07000000  1.0 0.4078272855
Ca  Ca2  1  0.00000000  0.50000000  0.93000000  1.0 0.4078272855
Ca  Ca3  1  0.50000000  0.93000000  0.00000000  1.0 0.4078272855
Ca  Ca4  1  0.50000000  0.07000000  0.00000000  1.0 0.4078272855
Ca  Ca5  1  0.93000000  0.00000000  0.50000000  1.0 0.4078272855
Ca  Ca6  1  0.07000000  0.00000000  0.50000000  1.0 0.4078272855
Ca  Ca7  1  0.07000000  0.50000000  0.00000000  1.0 0.4568093296
Ca  Ca8  1  0.93000000  0.50000000  0.00000000  1.0 0.4568093296
Ca  Ca9  1  0.50000000  0.00000000  0.07000000  1.0 0.4542214449
Ca  Ca10  1  0.50000000  0.00000000  0.93000000  1.0 0.4542214449
Ca  Ca11  1  0.00000000  0.93000000  0.50000000  1.0 0.4542214449
Ca  Ca12  1  0.00000000  0.07000000  0.50000000  1.0 0.4542214449
Ti  Ti1  1  0.12900000  0.50000000  0.00000000  1.0 1.166886064
Ti  Ti2  1  0.87100000  0.50000000  0.00000000  1.0 1.1633581843
Ti  Ti3  1  0.50000000  0.00000000  0.12900000  1.0 1.1633581843
Ti  Ti4  1  0.50000000  0.00000000  0.87100000  1.0 1.166886064
Ti  Ti5  1  0.00000000  0.87100000  0.50000000  1.0 1.166886064
Ti  Ti6  1  0.00000000  0.12900000  0.50000000  1.0 1.166886064
Ti  Ti7  1  0.00000000  0.50000000  0.12900000  1.0 1.2288565562
Ti  Ti8  1  0.00000000  0.50000000  0.87100000  1.0 1.2288565562
Ti  Ti9  1  0.50000000  0.87100000  0.00000000  1.0 1.2288565562
Ti  Ti10  1  0.50000000  0.12900000  0.00000000  1.0 1.2288565562
Ti  Ti11  1  0.87100000  0.00000000  0.50000000  1.0 1.2288565562
Ti  Ti12  1  0.12900000  0.00000000  0.50000000  1.0 1.2288565562
H  H1  1  0.24260000  0.23560000  0.12720000  1.0 0.1476894214
H  H2  1  0.75740000  0.76440000  0.12720000  1.0 0.1476894214
H  H3  1  0.75740000  0.23560000  0.87280000  1.0 0.1476894214
H  H4  1  0.76440000  0.87280000  0.24260000  1.0 0.1476894214
H  H5  1  0.76440000  0.12720000  0.75740000  1.0 0.1476894214
H  H6  1  0.87280000  0.75740000  0.23560000  1.0 0.1476894214
H  H7  1  0.87280000  0.24260000  0.76440000  1.0 0.1476894214
H  H8  1  0.12720000  0.75740000  0.76440000  1.0 0.1476894214
H  H9  1  0.12720000  0.24260000  0.23560000  1.0 0.1476894214
H  H10  1  0.23560000  0.87280000  0.75740000  1.0 0.1476894214
H  H11  1  0.23560000  0.12720000  0.24260000  1.0 0.1476894214
H  H12  1  0.24260000  0.76440000  0.87280000  1.0 0.1476894214
H  H13  1  0.75740000  0.76440000  0.87280000  1.0 0.1476894214
H  H14  1  0.24260000  0.23560000  0.87280000  1.0 0.1476894214
H  H15  1  0.24260000  0.76440000  0.12720000  1.0 0.1476894214
H  H16  1  0.23560000  0.12720000  0.75740000  1.0 0.1476894214
H  H17  1  0.23560000  0.87280000  0.24260000  1.0 0.1476894214
H  H18  1  0.12720000  0.24260000  0.76440000  1.0 0.1476894214
H  H19  1  0.12720000  0.75740000  0.23560000  1.0 0.1476894214
H  H20  1  0.87280000  0.24260000  0.23560000  1.0 0.1476894214
H  H21  1  0.87280000  0.75740000  0.76440000  1.0 0.1476894214
H  H22  1  0.76440000  0.12720000  0.24260000  1.0 0.1476894214
H  H23  1  0.76440000  0.87280000  0.75740000  1.0 0.1476894214
H  H24  1  0.75740000  0.23560000  0.12720000  1.0 0.1476894214
H  H25  1  0.13360000  0.25770000  0.09060000  1.0 0.0904313218
H  H26  1  0.86640000  0.74230000  0.09060000  1.0 0.0904313218
H  H27  1  0.86640000  0.25770000  0.90940000  1.0 0.0904313218
H  H28  1  0.74230000  0.90940000  0.13360000  1.0 0.0904313218
H  H29  1  0.74230000  0.09060000  0.86640000  1.0 0.0904313218
H  H30  1  0.90940000  0.86640000  0.25770000  1.0 0.0904313218
H  H31  1  0.90940000  0.13360000  0.74230000  1.0 0.0904313218
H  H32  1  0.09060000  0.86640000  0.74230000  1.0 0.0904313218
H  H33  1  0.09060000  0.13360000  0.25770000  1.0 0.0904313218
H  H34  1  0.25770000  0.90940000  0.86640000  1.0 0.0904313218
H  H35  1  0.25770000  0.09060000  0.13360000  1.0 0.0904313218
H  H36  1  0.13360000  0.74230000  0.90940000  1.0 0.0904313218
H  H37  1  0.86640000  0.74230000  0.90940000  1.0 0.0904313218
H  H38  1  0.13360000  0.25770000  0.90940000  1.0 0.0904313218
H  H39  1  0.13360000  0.74230000  0.09060000  1.0 0.0904313218
H  H40  1  0.25770000  0.09060000  0.86640000  1.0 0.0904313218
H  H41  1  0.25770000  0.90940000  0.13360000  1.0 0.0904313218
H  H42  1  0.09060000  0.13360000  0.74230000  1.0 0.0904313218
H  H43  1  0.09060000  0.86640000  0.25770000  1.0 0.0904313218
H  H44  1  0.90940000  0.13360000  0.25770000  1.0 0.0904313218
H  H45  1  0.90940000  0.86640000  0.74230000  1.0 0.0904313218
H  H46  1  0.74230000  0.09060000  0.13360000  1.0 0.0904313218
H  H47  1  0.74230000  0.90940000  0.86640000  1.0 0.0904313218
H  H48  1  0.86640000  0.25770000  0.09060000  1.0 0.0904313218
H  H49  1  0.09590000  0.32860000  0.05260000  1.0 0.0798905775
H  H50  1  0.90410000  0.67140000  0.05260000  1.0 0.0798905775
H  H51  1  0.90410000  0.32860000  0.94740000  1.0 0.0798905775
H  H52  1  0.67140000  0.94740000  0.09590000  1.0 0.0798905775
H  H53  1  0.67140000  0.05260000  0.90410000  1.0 0.0798905775
H  H54  1  0.94740000  0.90410000  0.32860000  1.0 0.0798905775
H  H55  1  0.94740000  0.09590000  0.67140000  1.0 0.0798905775
H  H56  1  0.05260000  0.90410000  0.67140000  1.0 0.0798905775
H  H57  1  0.05260000  0.09590000  0.32860000  1.0 0.0798905775
H  H58  1  0.32860000  0.94740000  0.90410000  1.0 0.0798905775
H  H59  1  0.32860000  0.05260000  0.09590000  1.0 0.0798905775
H  H60  1  0.09590000  0.67140000  0.94740000  1.0 0.0798905775
H  H61  1  0.90410000  0.67140000  0.94740000  1.0 0.0798905775
H  H62  1  0.09590000  0.32860000  0.94740000  1.0 0.0798905775
H  H63  1  0.09590000  0.67140000  0.05260000  1.0 0.0798905775
H  H64  1  0.32860000  0.05260000  0.90410000  1.0 0.0798905775
H  H65  1  0.32860000  0.94740000  0.09590000  1.0 0.0798905775
H  H66  1  0.05260000  0.09590000  0.67140000  1.0 0.0798905775
H  H67  1  0.05260000  0.90410000  0.32860000  1.0 0.0798905775
H  H68  1  0.94740000  0.09590000  0.32860000  1.0 0.0798905775
H  H69  1  0.94740000  0.90410000  0.67140000  1.0 0.0798905775
H  H70  1  0.67140000  0.05260000  0.09590000  1.0 0.0798905775
H  H71  1  0.67140000  0.94740000  0.90410000  1.0 0.0798905775
H  H72  1  0.90410000  0.32860000  0.05260000  1.0 0.0798905775
H  H73  1  0.12210000  0.45950000  0.16680000  1.0 0.112243245
H  H74  1  0.87790000  0.54050000  0.16680000  1.0 0.112243245
H  H75  1  0.87790000  0.45950000  0.83320000  1.0 0.112243245
H  H76  1  0.54050000  0.83320000  0.12210000  1.0 0.112243245
H  H77  1  0.54050000  0.16680000  0.87790000  1.0 0.112243245
H  H78  1  0.83320000  0.87790000  0.45950000  1.0 0.112243245
H  H79  1  0.83320000  0.12210000  0.54050000  1.0 0.112243245
H  H80  1  0.16680000  0.87790000  0.54050000  1.0 0.112243245
H  H81  1  0.16680000  0.12210000  0.45950000  1.0 0.112243245
H  H82  1  0.45950000  0.83320000  0.87790000  1.0 0.112243245
H  H83  1  0.45950000  0.16680000  0.12210000  1.0 0.112243245
H  H84  1  0.12210000  0.54050000  0.83320000  1.0 0.112243245
H  H85  1  0.87790000  0.54050000  0.83320000  1.0 0.112243245
H  H86  1  0.12210000  0.45950000  0.83320000  1.0 0.112243245
H  H87  1  0.12210000  0.54050000  0.16680000  1.0 0.112243245
H  H88  1  0.45950000  0.16680000  0.87790000  1.0 0.112243245
H  H89  1  0.45950000  0.83320000  0.12210000  1.0 0.112243245
H  H90  1  0.16680000  0.12210000  0.54050000  1.0 0.112243245
H  H91  1  0.16680000  0.87790000  0.45950000  1.0 0.112243245
H  H92  1  0.83320000  0.12210000  0.45950000  1.0 0.112243245
H  H93  1  0.83320000  0.87790000  0.54050000  1.0 0.112243245
H  H94  1  0.54050000  0.16680000  0.12210000  1.0 0.112243245
H  H95  1  0.54050000  0.83320000  0.87790000  1.0 0.112243245
H  H96  1  0.87790000  0.45950000  0.16680000  1.0 0.112243245
H  H97  1  0.16100000  0.46720000  0.24610000  1.0 0.122237223
H  H98  1  0.83900000  0.53280000  0.24610000  1.0 0.122237223
H  H99  1  0.83900000  0.46720000  0.75390000  1.0 0.122237223
H  H100  1  0.53280000  0.75390000  0.16100000  1.0 0.122237223
H  H101  1  0.53280000  0.24610000  0.83900000  1.0 0.122237223
H  H102  1  0.75390000  0.83900000  0.46720000  1.0 0.122237223
H  H103  1  0.75390000  0.16100000  0.53280000  1.0 0.122237223
H  H104  1  0.24610000  0.83900000  0.53280000  1.0 0.122237223
H  H105  1  0.24610000  0.16100000  0.46720000  1.0 0.122237223
H  H106  1  0.46720000  0.75390000  0.83900000  1.0 0.122237223
H  H107  1  0.46720000  0.24610000  0.16100000  1.0 0.122237223
H  H108  1  0.16100000  0.53280000  0.75390000  1.0 0.122237223
H  H109  1  0.83900000  0.53280000  0.75390000  1.0 0.122237223
H  H110  1  0.16100000  0.46720000  0.75390000  1.0 0.122237223
H  H111  1  0.16100000  0.53280000  0.24610000  1.0 0.122237223
H  H112  1  0.46720000  0.24610000  0.83900000  1.0 0.122237223
H  H113  1  0.46720000  0.75390000  0.16100000  1.0 0.122237223
H  H114  1  0.24610000  0.16100000  0.53280000  1.0 0.122237223
H  H115  1  0.24610000  0.83900000  0.46720000  1.0 0.122237223
H  H116  1  0.75390000  0.16100000  0.46720000  1.0 0.122237223
H  H117  1  0.75390000  0.83900000  0.53280000  1.0 0.122237223
H  H118  1  0.53280000  0.24610000  0.16100000  1.0 0.122237223
H  H119  1  0.53280000  0.75390000  0.83900000  1.0 0.122237223
H  H120  1  0.83900000  0.46720000  0.24610000  1.0 0.122237223
H  H121  1  0.19900000  0.39640000  0.28410000  1.0 0.1311410443
H  H122  1  0.80100000  0.60360000  0.28410000  1.0 0.1311410443
H  H123  1  0.80100000  0.39640000  0.71590000  1.0 0.1311410443
H  H124  1  0.60360000  0.71590000  0.19900000  1.0 0.1311410443
H  H125  1  0.60360000  0.28410000  0.80100000  1.0 0.1311410443
H  H126  1  0.71590000  0.80100000  0.39640000  1.0 0.1311410443
H  H127  1  0.71590000  0.19900000  0.60360000  1.0 0.1311410443
H  H128  1  0.28410000  0.80100000  0.60360000  1.0 0.1311410443
H  H129  1  0.28410000  0.19900000  0.39640000  1.0 0.1311410443
H  H130  1  0.39640000  0.71590000  0.80100000  1.0 0.1311410443
H  H131  1  0.39640000  0.28410000  0.19900000  1.0 0.1311410443
H  H132  1  0.19900000  0.60360000  0.71590000  1.0 0.1311410443
H  H133  1  0.80100000  0.60360000  0.71590000  1.0 0.1311410443
H  H134  1  0.19900000  0.39640000  0.71590000  1.0 0.1311410443
H  H135  1  0.19900000  0.60360000  0.28410000  1.0 0.1311410443
H  H136  1  0.39640000  0.28410000  0.80100000  1.0 0.1311410443
H  H137  1  0.39640000  0.71590000  0.19900000  1.0 0.1311410443
H  H138  1  0.28410000  0.19900000  0.60360000  1.0 0.1311410443
H  H139  1  0.28410000  0.80100000  0.39640000  1.0 0.1311410443
H  H140  1  0.71590000  0.19900000  0.39640000  1.0 0.1311410443
H  H141  1  0.71590000  0.80100000  0.60360000  1.0 0.1311410443
H  H142  1  0.60360000  0.28410000  0.19900000  1.0 0.1311410443
H  H143  1  0.60360000  0.71590000  0.80100000  1.0 0.1311410443
H  H144  1  0.80100000  0.39640000  0.28410000  1.0 0.1311410443
H  H145  1  0.19760000  0.31770000  0.24280000  1.0 0.122237223
H  H146  1  0.80240000  0.68230000  0.24280000  1.0 0.122237223
H  H147  1  0.80240000  0.31770000  0.75720000  1.0 0.122237223
H  H148  1  0.68230000  0.75720000  0.19760000  1.0 0.122237223
H  H149  1  0.68230000  0.24280000  0.80240000  1.0 0.122237223
H  H150  1  0.75720000  0.80240000  0.31770000  1.0 0.122237223
H  H151  1  0.75720000  0.19760000  0.68230000  1.0 0.122237223
H  H152  1  0.24280000  0.80240000  0.68230000  1.0 0.122237223
H  H153  1  0.24280000  0.19760000  0.31770000  1.0 0.122237223
H  H154  1  0.31770000  0.75720000  0.80240000  1.0 0.122237223
H  H155  1  0.31770000  0.24280000  0.19760000  1.0 0.122237223
H  H156  1  0.19760000  0.68230000  0.75720000  1.0 0.122237223
H  H157  1  0.80240000  0.68230000  0.75720000  1.0 0.122237223
H  H158  1  0.19760000  0.31770000  0.75720000  1.0 0.122237223
H  H159  1  0.19760000  0.68230000  0.24280000  1.0 0.122237223
H  H160  1  0.31770000  0.24280000  0.80240000  1.0 0.122237223
H  H161  1  0.31770000  0.75720000  0.19760000  1.0 0.122237223
H  H162  1  0.24280000  0.19760000  0.68230000  1.0 0.122237223
H  H163  1  0.24280000  0.80240000  0.31770000  1.0 0.122237223
H  H164  1  0.75720000  0.19760000  0.31770000  1.0 0.122237223
H  H165  1  0.75720000  0.80240000  0.68230000  1.0 0.122237223
H  H166  1  0.68230000  0.24280000  0.19760000  1.0 0.122237223
H  H167  1  0.68230000  0.75720000  0.80240000  1.0 0.122237223
H  H168  1  0.80240000  0.31770000  0.24280000  1.0 0.122237223
H  H169  1  0.14830000  0.21330000  0.09700000  1.0 0.112243245
H  H170  1  0.85170000  0.78670000  0.09700000  1.0 0.112243245
H  H171  1  0.85170000  0.21330000  0.90300000  1.0 0.112243245
H  H172  1  0.78670000  0.90300000  0.14830000  1.0 0.112243245
H  H173  1  0.78670000  0.09700000  0.85170000  1.0 0.112243245
H  H174  1  0.90300000  0.85170000  0.21330000  1.0 0.112243245
H  H175  1  0.90300000  0.14830000  0.78670000  1.0 0.112243245
H  H176  1  0.09700000  0.85170000  0.78670000  1.0 0.112243245
H  H177  1  0.09700000  0.14830000  0.21330000  1.0 0.112243245
H  H178  1  0.21330000  0.90300000  0.85170000  1.0 0.112243245
H  H179  1  0.21330000  0.09700000  0.14830000  1.0 0.112243245
H  H180  1  0.14830000  0.78670000  0.90300000  1.0 0.112243245
H  H181  1  0.85170000  0.78670000  0.90300000  1.0 0.112243245
H  H182  1  0.14830000  0.21330000  0.90300000  1.0 0.112243245
H  H183  1  0.14830000  0.78670000  0.09700000  1.0 0.112243245
H  H184  1  0.21330000  0.09700000  0.85170000  1.0 0.112243245
H  H185  1  0.21330000  0.90300000  0.14830000  1.0 0.112243245
H  H186  1  0.09700000  0.14830000  0.78670000  1.0 0.112243245
H  H187  1  0.09700000  0.85170000  0.21330000  1.0 0.112243245
H  H188  1  0.90300000  0.14830000  0.21330000  1.0 0.112243245
H  H189  1  0.90300000  0.85170000  0.78670000  1.0 0.112243245
H  H190  1  0.78670000  0.09700000  0.14830000  1.0 0.112243245
H  H191  1  0.78670000  0.90300000  0.85170000  1.0 0.112243245
H  H192  1  0.85170000  0.21330000  0.09700000  1.0 0.112243245
H  H193  1  0.10900000  0.20550000  0.01770000  1.0 0.1831739496
H  H194  1  0.89100000  0.79450000  0.01770000  1.0 0.1831739496
H  H195  1  0.89100000  0.20550000  0.98230000  1.0 0.1859270857
H  H196  1  0.79450000  0.98230000  0.10900000  1.0 0.1831739496
H  H197  1  0.79450000  0.01770000  0.89100000  1.0 0.1859270857
H  H198  1  0.98230000  0.89100000  0.20550000  1.0 0.1831739496
H  H199  1  0.98230000  0.10900000  0.79450000  1.0 0.1859270857
H  H200  1  0.01770000  0.89100000  0.79450000  1.0 0.1859270857
H  H201  1  0.01770000  0.10900000  0.20550000  1.0 0.1831739496
H  H202  1  0.20550000  0.98230000  0.89100000  1.0 0.1859270857
H  H203  1  0.20550000  0.01770000  0.10900000  1.0 0.1831739496
H  H204  1  0.10900000  0.79450000  0.98230000  1.0 0.1859270857
H  H205  1  0.89100000  0.79450000  0.98230000  1.0 0.1859270857
H  H206  1  0.10900000  0.20550000  0.98230000  1.0 0.1859270857
H  H207  1  0.10900000  0.79450000  0.01770000  1.0 0.1831739496
H  H208  1  0.20550000  0.01770000  0.89100000  1.0 0.1859270857
H  H209  1  0.20550000  0.98230000  0.10900000  1.0 0.1831739496
H  H210  1  0.01770000  0.10900000  0.79450000  1.0 0.1859270857
H  H211  1  0.01770000  0.89100000  0.20550000  1.0 0.1831739496
H  H212  1  0.98230000  0.10900000  0.20550000  1.0 0.1831739496
H  H213  1  0.98230000  0.89100000  0.79450000  1.0 0.1859270857
H  H214  1  0.79450000  0.01770000  0.10900000  1.0 0.1831739496
H  H215  1  0.79450000  0.98230000  0.89100000  1.0 0.1859270857
H  H216  1  0.89100000  0.20550000  0.01770000  1.0 0.1831739496
H  H217  1  0.07100000  0.27640000  0.97970000  1.0 0.0798905775
H  H218  1  0.92900000  0.72360000  0.97970000  1.0 0.0798905775
H  H219  1  0.92900000  0.27640000  0.02030000  1.0 0.0798905775
H  H220  1  0.72360000  0.02030000  0.07100000  1.0 0.0798905775
H  H221  1  0.72360000  0.97970000  0.92900000  1.0 0.0798905775
H  H222  1  0.02030000  0.92900000  0.27640000  1.0 0.0798905775
H  H223  1  0.02030000  0.07100000  0.72360000  1.0 0.0798905775
H  H224  1  0.97970000  0.92900000  0.72360000  1.0 0.0798905775
H  H225  1  0.97970000  0.07100000  0.27640000  1.0 0.0798905775
H  H226  1  0.27640000  0.02030000  0.92900000  1.0 0.0798905775
H  H227  1  0.27640000  0.97970000  0.07100000  1.0 0.0798905775
H  H228  1  0.07100000  0.72360000  0.02030000  1.0 0.0798905775
H  H229  1  0.92900000  0.72360000  0.02030000  1.0 0.0798905775
H  H230  1  0.07100000  0.27640000  0.02030000  1.0 0.0798905775
H  H231  1  0.07100000  0.72360000  0.97970000  1.0 0.0798905775
H  H232  1  0.27640000  0.97970000  0.92900000  1.0 0.0798905775
H  H233  1  0.27640000  0.02030000  0.07100000  1.0 0.0798905775
H  H234  1  0.97970000  0.07100000  0.72360000  1.0 0.0798905775
H  H235  1  0.97970000  0.92900000  0.27640000  1.0 0.0798905775
H  H236  1  0.02030000  0.07100000  0.27640000  1.0 0.0798905775
H  H237  1  0.02030000  0.92900000  0.72360000  1.0 0.0798905775
H  H238  1  0.72360000  0.97970000  0.07100000  1.0 0.0798905775
H  H239  1  0.72360000  0.02030000  0.92900000  1.0 0.0798905775
H  H240  1  0.92900000  0.27640000  0.97970000  1.0 0.0798905775
H  H241  1  0.07270000  0.35500000  0.02100000  1.0 0.0727307881
H  H242  1  0.92730000  0.64500000  0.02100000  1.0 0.0727307881
H  H243  1  0.92730000  0.35500000  0.97900000  1.0 0.0727307881
H  H244  1  0.64500000  0.97900000  0.07270000  1.0 0.0727307881
H  H245  1  0.64500000  0.02100000  0.92730000  1.0 0.0727307881
H  H246  1  0.97900000  0.92730000  0.35500000  1.0 0.0727307881
H  H247  1  0.97900000  0.07270000  0.64500000  1.0 0.0727307881
H  H248  1  0.02100000  0.92730000  0.64500000  1.0 0.0727307881
H  H249  1  0.02100000  0.07270000  0.35500000  1.0 0.0727307881
H  H250  1  0.35500000  0.97900000  0.92730000  1.0 0.0727307881
H  H251  1  0.35500000  0.02100000  0.07270000  1.0 0.0727307881
H  H252  1  0.07270000  0.64500000  0.97900000  1.0 0.0727307881
H  H253  1  0.92730000  0.64500000  0.97900000  1.0 0.0727307881
H  H254  1  0.07270000  0.35500000  0.97900000  1.0 0.0727307881
H  H255  1  0.07270000  0.64500000  0.02100000  1.0 0.0727307881
H  H256  1  0.35500000  0.02100000  0.92730000  1.0 0.0727307881
H  H257  1  0.35500000  0.97900000  0.07270000  1.0 0.0727307881
H  H258  1  0.02100000  0.07270000  0.64500000  1.0 0.0727307881
H  H259  1  0.02100000  0.92730000  0.35500000  1.0 0.0727307881
H  H260  1  0.97900000  0.07270000  0.35500000  1.0 0.0727307881
H  H261  1  0.97900000  0.92730000  0.64500000  1.0 0.0727307881
H  H262  1  0.64500000  0.02100000  0.07270000  1.0 0.0727307881
H  H263  1  0.64500000  0.97900000  0.92730000  1.0 0.0727307881
H  H264  1  0.92730000  0.35500000  0.02100000  1.0 0.0727307881
H  H265  1  0.17440000  0.34410000  0.21120000  1.0 0.0904313218
H  H266  1  0.82560000  0.65590000  0.21120000  1.0 0.0904313218
H  H267  1  0.82560000  0.34410000  0.78880000  1.0 0.0904313218
H  H268  1  0.65590000  0.78880000  0.17440000  1.0 0.0904313218
H  H269  1  0.65590000  0.21120000  0.82560000  1.0 0.0904313218
H  H270  1  0.78880000  0.82560000  0.34410000  1.0 0.0904313218
H  H271  1  0.78880000  0.17440000  0.65590000  1.0 0.0904313218
H  H272  1  0.21120000  0.82560000  0.65590000  1.0 0.0904313218
H  H273  1  0.21120000  0.17440000  0.34410000  1.0 0.0904313218
H  H274  1  0.34410000  0.78880000  0.82560000  1.0 0.0904313218
H  H275  1  0.34410000  0.21120000  0.17440000  1.0 0.0904313218
H  H276  1  0.17440000  0.65590000  0.78880000  1.0 0.0904313218
H  H277  1  0.82560000  0.65590000  0.78880000  1.0 0.0904313218
H  H278  1  0.17440000  0.34410000  0.78880000  1.0 0.0904313218
H  H279  1  0.17440000  0.65590000  0.21120000  1.0 0.0904313218
H  H280  1  0.34410000  0.21120000  0.82560000  1.0 0.0904313218
H  H281  1  0.34410000  0.78880000  0.17440000  1.0 0.0904313218
H  H282  1  0.21120000  0.17440000  0.65590000  1.0 0.0904313218
H  H283  1  0.21120000  0.82560000  0.34410000  1.0 0.0904313218
H  H284  1  0.78880000  0.17440000  0.34410000  1.0 0.0904313218
H  H285  1  0.78880000  0.82560000  0.65590000  1.0 0.0904313218
H  H286  1  0.65590000  0.21120000  0.17440000  1.0 0.0904313218
H  H287  1  0.65590000  0.78880000  0.82560000  1.0 0.0904313218
H  H288  1  0.82560000  0.34410000  0.21120000  1.0 0.0904313218
H  H289  1  0.13670000  0.41500000  0.17320000  1.0 0.0727307881
H  H290  1  0.86330000  0.58500000  0.17320000  1.0 0.0727307881
H  H291  1  0.86330000  0.41500000  0.82680000  1.0 0.0727307881
H  H292  1  0.58500000  0.82680000  0.13670000  1.0 0.0727307881
H  H293  1  0.58500000  0.17320000  0.86330000  1.0 0.0727307881
H  H294  1  0.82680000  0.86330000  0.41500000  1.0 0.0727307881
H  H295  1  0.82680000  0.13670000  0.58500000  1.0 0.0727307881
H  H296  1  0.17320000  0.86330000  0.58500000  1.0 0.0727307881
H  H297  1  0.17320000  0.13670000  0.41500000  1.0 0.0727307881
H  H298  1  0.41500000  0.82680000  0.86330000  1.0 0.0727307881
H  H299  1  0.41500000  0.17320000  0.13670000  1.0 0.0727307881
H  H300  1  0.13670000  0.58500000  0.82680000  1.0 0.0727307881
H  H301  1  0.86330000  0.58500000  0.82680000  1.0 0.0727307881
H  H302  1  0.13670000  0.41500000  0.82680000  1.0 0.0727307881
H  H303  1  0.13670000  0.58500000  0.17320000  1.0 0.0727307881
H  H304  1  0.41500000  0.17320000  0.86330000  1.0 0.0727307881
H  H305  1  0.41500000  0.82680000  0.13670000  1.0 0.0727307881
H  H306  1  0.17320000  0.13670000  0.58500000  1.0 0.0727307881
H  H307  1  0.17320000  0.86330000  0.41500000  1.0 0.0727307881
H  H308  1  0.82680000  0.13670000  0.41500000  1.0 0.0727307881
H  H309  1  0.82680000  0.86330000  0.58500000  1.0 0.0727307881
H  H310  1  0.58500000  0.17320000  0.13670000  1.0 0.0727307881
H  H311  1  0.58500000  0.82680000  0.86330000  1.0 0.0727307881
H  H312  1  0.86330000  0.41500000  0.17320000  1.0 0.0727307881
C  C1  1  0.08830000  0.42430000  0.08470000  1.0 0.4247777852
C  C2  1  0.91170000  0.57570000  0.08470000  1.0 0.4258306648
C  C3  1  0.91170000  0.42430000  0.91530000  1.0 0.4247777852
C  C4  1  0.57570000  0.91530000  0.08830000  1.0 0.4258306648
C  C5  1  0.57570000  0.08470000  0.91170000  1.0 0.4247777852
C  C6  1  0.91530000  0.91170000  0.42430000  1.0 0.4247777852
C  C7  1  0.91530000  0.08830000  0.57570000  1.0 0.4247777852
C  C8  1  0.08470000  0.91170000  0.57570000  1.0 0.4247777852
C  C9  1  0.08470000  0.08830000  0.42430000  1.0 0.4247777852
C  C10  1  0.42430000  0.91530000  0.91170000  1.0 0.4247777852
C  C11  1  0.42430000  0.08470000  0.08830000  1.0 0.4258306648
C  C12  1  0.08830000  0.57570000  0.91530000  1.0 0.4247777852
C  C13  1  0.91170000  0.57570000  0.91530000  1.0 0.4247777852
C  C14  1  0.08830000  0.42430000  0.91530000  1.0 0.4247777852
C  C15  1  0.08830000  0.57570000  0.08470000  1.0 0.4247777852
C  C16  1  0.42430000  0.08470000  0.91170000  1.0 0.4247777852
C  C17  1  0.42430000  0.91530000  0.08830000  1.0 0.4258306648
C  C18  1  0.08470000  0.08830000  0.57570000  1.0 0.4247777852
C  C19  1  0.08470000  0.91170000  0.42430000  1.0 0.4247777852
C  C20  1  0.91530000  0.08830000  0.42430000  1.0 0.4247777852
C  C21  1  0.91530000  0.91170000  0.57570000  1.0 0.4247777852
C  C22  1  0.57570000  0.08470000  0.08830000  1.0 0.4258306648
C  C23  1  0.57570000  0.91530000  0.91170000  1.0 0.4247777852
C  C24  1  0.91170000  0.42430000  0.08470000  1.0 0.4258306648
C  C25  1  0.11230000  0.37920000  0.10890000  1.0 -0.0764641579
C  C26  1  0.88770000  0.62080000  0.10890000  1.0 -0.0764641579
C  C27  1  0.88770000  0.37920000  0.89110000  1.0 -0.0764641579
C  C28  1  0.62080000  0.89110000  0.11230000  1.0 -0.0764641579
C  C29  1  0.62080000  0.10890000  0.88770000  1.0 -0.0764641579
C  C30  1  0.89110000  0.88770000  0.37920000  1.0 -0.0764641579
C  C31  1  0.89110000  0.11230000  0.62080000  1.0 -0.0764641579
C  C32  1  0.10890000  0.88770000  0.62080000  1.0 -0.0764641579
C  C33  1  0.10890000  0.11230000  0.37920000  1.0 -0.0764641579
C  C34  1  0.37920000  0.89110000  0.88770000  1.0 -0.0764641579
C  C35  1  0.37920000  0.10890000  0.11230000  1.0 -0.0764641579
C  C36  1  0.11230000  0.62080000  0.89110000  1.0 -0.0764641579
C  C37  1  0.88770000  0.62080000  0.89110000  1.0 -0.0764641579
C  C38  1  0.11230000  0.37920000  0.89110000  1.0 -0.0764641579
C  C39  1  0.11230000  0.62080000  0.10890000  1.0 -0.0764641579
C  C40  1  0.37920000  0.10890000  0.88770000  1.0 -0.0764641579
C  C41  1  0.37920000  0.89110000  0.11230000  1.0 -0.0764641579
C  C42  1  0.10890000  0.11230000  0.62080000  1.0 -0.0764641579
C  C43  1  0.10890000  0.88770000  0.37920000  1.0 -0.0764641579
C  C44  1  0.89110000  0.11230000  0.37920000  1.0 -0.0764641579
C  C45  1  0.89110000  0.88770000  0.62080000  1.0 -0.0764641579
C  C46  1  0.62080000  0.10890000  0.11230000  1.0 -0.0764641579
C  C47  1  0.62080000  0.89110000  0.88770000  1.0 -0.0764641579
C  C48  1  0.88770000  0.37920000  0.10890000  1.0 -0.0764641579
C  C49  1  0.18420000  0.24840000  0.17660000  1.0 0.112243245
C  C50  1  0.81580000  0.75160000  0.17660000  1.0 0.112243245
C  C51  1  0.81580000  0.24840000  0.82340000  1.0 0.112243245
C  C52  1  0.75160000  0.82340000  0.18420000  1.0 0.112243245
C  C53  1  0.75160000  0.17660000  0.81580000  1.0 0.112243245
C  C54  1  0.82340000  0.81580000  0.24840000  1.0 0.112243245
C  C55  1  0.82340000  0.18420000  0.75160000  1.0 0.112243245
C  C56  1  0.17660000  0.81580000  0.75160000  1.0 0.112243245
C  C57  1  0.17660000  0.18420000  0.24840000  1.0 0.112243245
C  C58  1  0.24840000  0.82340000  0.81580000  1.0 0.112243245
C  C59  1  0.24840000  0.17660000  0.18420000  1.0 0.112243245
C  C60  1  0.18420000  0.75160000  0.82340000  1.0 0.112243245
C  C61  1  0.81580000  0.75160000  0.82340000  1.0 0.112243245
C  C62  1  0.18420000  0.24840000  0.82340000  1.0 0.112243245
C  C63  1  0.18420000  0.75160000  0.17660000  1.0 0.112243245
C  C64  1  0.24840000  0.17660000  0.81580000  1.0 0.112243245
C  C65  1  0.24840000  0.82340000  0.18420000  1.0 0.112243245
C  C66  1  0.17660000  0.18420000  0.75160000  1.0 0.112243245
C  C67  1  0.17660000  0.81580000  0.24840000  1.0 0.112243245
C  C68  1  0.82340000  0.18420000  0.24840000  1.0 0.112243245
C  C69  1  0.82340000  0.81580000  0.75160000  1.0 0.112243245
C  C70  1  0.75160000  0.17660000  0.18420000  1.0 0.112243245
C  C71  1  0.75160000  0.82340000  0.81580000  1.0 0.112243245
C  C72  1  0.81580000  0.24840000  0.17660000  1.0 0.112243245
C  C73  1  0.22760000  0.22380000  0.15680000  1.0 -0.3038303826
C  C74  1  0.77240000  0.77620000  0.15680000  1.0 -0.3038303826
C  C75  1  0.77240000  0.22380000  0.84320000  1.0 -0.3050291811
C  C76  1  0.77620000  0.84320000  0.22760000  1.0 -0.3038303826
C  C77  1  0.77620000  0.15680000  0.77240000  1.0 -0.3050291811
C  C78  1  0.84320000  0.77240000  0.22380000  1.0 -0.3038303826
C  C79  1  0.84320000  0.22760000  0.77620000  1.0 -0.3050291811
C  C80  1  0.15680000  0.77240000  0.77620000  1.0 -0.3050291811
C  C81  1  0.15680000  0.22760000  0.22380000  1.0 -0.3038303826
C  C82  1  0.22380000  0.84320000  0.77240000  1.0 -0.3050291811
C  C83  1  0.22380000  0.15680000  0.22760000  1.0 -0.3038303826
C  C84  1  0.22760000  0.77620000  0.84320000  1.0 -0.3050291811
C  C85  1  0.77240000  0.77620000  0.84320000  1.0 -0.3050291811
C  C86  1  0.22760000  0.22380000  0.84320000  1.0 -0.3050291811
C  C87  1  0.22760000  0.77620000  0.15680000  1.0 -0.3038303826
C  C88  1  0.22380000  0.15680000  0.77240000  1.0 -0.3050291811
C  C89  1  0.22380000  0.84320000  0.22760000  1.0 -0.3038303826
C  C90  1  0.15680000  0.22760000  0.77620000  1.0 -0.3050291811
C  C91  1  0.15680000  0.77240000  0.22380000  1.0 -0.3038303826
C  C92  1  0.84320000  0.22760000  0.22380000  1.0 -0.3038303826
C  C93  1  0.84320000  0.77240000  0.77620000  1.0 -0.3050291811
C  C94  1  0.77620000  0.15680000  0.22760000  1.0 -0.3038303826
C  C95  1  0.77620000  0.84320000  0.77240000  1.0 -0.3050291811
C  C96  1  0.77240000  0.22380000  0.15680000  1.0 -0.3038303826
C  C97  1  0.15890000  0.34110000  0.17980000  1.0 -0.0156281158
C  C98  1  0.84110000  0.65890000  0.17980000  1.0 -0.0156281158
C  C99  1  0.84110000  0.34110000  0.82020000  1.0 -0.0156281158
C  C100  1  0.65890000  0.82020000  0.15890000  1.0 -0.0156281158
C  C101  1  0.65890000  0.17980000  0.84110000  1.0 -0.0156281158
C  C102  1  0.82020000  0.84110000  0.34110000  1.0 -0.0156281158
C  C103  1  0.82020000  0.15890000  0.65890000  1.0 -0.0144584768
C  C104  1  0.17980000  0.84110000  0.65890000  1.0 -0.0156281158
C  C105  1  0.17980000  0.15890000  0.34110000  1.0 -0.0156281158
C  C106  1  0.34110000  0.82020000  0.84110000  1.0 -0.0156281158
C  C107  1  0.34110000  0.17980000  0.15890000  1.0 -0.0156281158
C  C108  1  0.15890000  0.65890000  0.82020000  1.0 -0.0156281158
C  C109  1  0.84110000  0.65890000  0.82020000  1.0 -0.0156281158
C  C110  1  0.15890000  0.34110000  0.82020000  1.0 -0.0156281158
C  C111  1  0.15890000  0.65890000  0.17980000  1.0 -0.0156281158
C  C112  1  0.34110000  0.17980000  0.84110000  1.0 -0.0156281158
C  C113  1  0.34110000  0.82020000  0.15890000  1.0 -0.0156281158
C  C114  1  0.17980000  0.15890000  0.65890000  1.0 -0.0156281158
C  C115  1  0.17980000  0.84110000  0.34110000  1.0 -0.0156281158
C  C116  1  0.82020000  0.15890000  0.34110000  1.0 -0.0144584768
C  C117  1  0.82020000  0.84110000  0.65890000  1.0 -0.0156281158
C  C118  1  0.65890000  0.17980000  0.15890000  1.0 -0.0156281158
C  C119  1  0.65890000  0.82020000  0.84110000  1.0 -0.0156281158
C  C120  1  0.84110000  0.34110000  0.17980000  1.0 -0.0156281158
C  C121  1  0.15800000  0.29350000  0.15480000  1.0 0.0345113543
C  C122  1  0.84200000  0.70650000  0.15480000  1.0 0.0356179129
C  C123  1  0.84200000  0.29350000  0.84520000  1.0 0.0356179129
C  C124  1  0.70650000  0.84520000  0.15800000  1.0 0.0356179129
C  C125  1  0.70650000  0.15480000  0.84200000  1.0 0.0345113543
C  C126  1  0.84520000  0.84200000  0.29350000  1.0 0.0356179129
C  C127  1  0.84520000  0.15800000  0.70650000  1.0 0.0356179129
C  C128  1  0.15480000  0.84200000  0.70650000  1.0 0.0345113543
C  C129  1  0.15480000  0.15800000  0.29350000  1.0 0.0345113543
C  C130  1  0.29350000  0.84520000  0.84200000  1.0 0.0345113543
C  C131  1  0.29350000  0.15480000  0.15800000  1.0 0.0345113543
C  C132  1  0.15800000  0.70650000  0.84520000  1.0 0.0345113543
C  C133  1  0.84200000  0.70650000  0.84520000  1.0 0.0356179129
C  C134  1  0.15800000  0.29350000  0.84520000  1.0 0.0345113543
C  C135  1  0.15800000  0.70650000  0.15480000  1.0 0.0345113543
C  C136  1  0.29350000  0.15480000  0.84200000  1.0 0.0345113543
C  C137  1  0.29350000  0.84520000  0.15800000  1.0 0.0345113543
C  C138  1  0.15480000  0.15800000  0.70650000  1.0 0.0345113543
C  C139  1  0.15480000  0.84200000  0.29350000  1.0 0.0345113543
C  C140  1  0.84520000  0.15800000  0.29350000  1.0 0.0356179129
C  C141  1  0.84520000  0.84200000  0.70650000  1.0 0.0356179129
C  C142  1  0.70650000  0.15480000  0.15800000  1.0 0.0356179129
C  C143  1  0.70650000  0.84520000  0.84200000  1.0 0.0345113543
C  C144  1  0.84200000  0.29350000  0.15480000  1.0 0.0356179129
C  C145  1  0.13610000  0.38390000  0.15680000  1.0 0.020303211
C  C146  1  0.86390000  0.61610000  0.15680000  1.0 0.020303211
C  C147  1  0.86390000  0.38390000  0.84320000  1.0 0.020303211
C  C148  1  0.61610000  0.84320000  0.13610000  1.0 0.020303211
C  C149  1  0.61610000  0.15680000  0.86390000  1.0 0.020303211
C  C150  1  0.84320000  0.86390000  0.38390000  1.0 0.020303211
C  C151  1  0.84320000  0.13610000  0.61610000  1.0 0.020303211
C  C152  1  0.15680000  0.86390000  0.61610000  1.0 0.020303211
C  C153  1  0.15680000  0.13610000  0.38390000  1.0 0.020303211
C  C154  1  0.38390000  0.84320000  0.86390000  1.0 0.020303211
C  C155  1  0.38390000  0.15680000  0.13610000  1.0 0.020303211
C  C156  1  0.13610000  0.61610000  0.84320000  1.0 0.020303211
C  C157  1  0.86390000  0.61610000  0.84320000  1.0 0.020303211
C  C158  1  0.13610000  0.38390000  0.84320000  1.0 0.020303211
C  C159  1  0.13610000  0.61610000  0.15680000  1.0 0.020303211
C  C160  1  0.38390000  0.15680000  0.86390000  1.0 0.020303211
C  C161  1  0.38390000  0.84320000  0.13610000  1.0 0.020303211
C  C162  1  0.15680000  0.13610000  0.61610000  1.0 0.020303211
C  C163  1  0.15680000  0.86390000  0.38390000  1.0 0.020303211
C  C164  1  0.84320000  0.13610000  0.38390000  1.0 0.020303211
C  C165  1  0.84320000  0.86390000  0.61610000  1.0 0.020303211
C  C166  1  0.61610000  0.15680000  0.13610000  1.0 0.020303211
C  C167  1  0.61610000  0.84320000  0.86390000  1.0 0.020303211
C  C168  1  0.86390000  0.38390000  0.15680000  1.0 0.020303211
C  C169  1  0.13420000  0.28880000  0.10690000  1.0 -0.0599897703
C  C170  1  0.86580000  0.71120000  0.10690000  1.0 -0.0599897703
C  C171  1  0.86580000  0.28880000  0.89310000  1.0 -0.0599897703
C  C172  1  0.71120000  0.89310000  0.13420000  1.0 -0.0599897703
C  C173  1  0.71120000  0.10690000  0.86580000  1.0 -0.0599897703
C  C174  1  0.89310000  0.86580000  0.28880000  1.0 -0.0599897703
C  C175  1  0.89310000  0.13420000  0.71120000  1.0 -0.0599897703
C  C176  1  0.10690000  0.86580000  0.71120000  1.0 -0.0599897703
C  C177  1  0.10690000  0.13420000  0.28880000  1.0 -0.0599897703
C  C178  1  0.28880000  0.89310000  0.86580000  1.0 -0.0599897703
C  C179  1  0.28880000  0.10690000  0.13420000  1.0 -0.0599897703
C  C180  1  0.13420000  0.71120000  0.89310000  1.0 -0.0599897703
C  C181  1  0.86580000  0.71120000  0.89310000  1.0 -0.0599897703
C  C182  1  0.13420000  0.28880000  0.89310000  1.0 -0.0599897703
C  C183  1  0.13420000  0.71120000  0.10690000  1.0 -0.0599897703
C  C184  1  0.28880000  0.10690000  0.86580000  1.0 -0.0599897703
C  C185  1  0.28880000  0.89310000  0.13420000  1.0 -0.0599897703
C  C186  1  0.10690000  0.13420000  0.71120000  1.0 -0.0599897703
C  C187  1  0.10690000  0.86580000  0.28880000  1.0 -0.0599897703
C  C188  1  0.89310000  0.13420000  0.28880000  1.0 -0.0599897703
C  C189  1  0.89310000  0.86580000  0.71120000  1.0 -0.0599897703
C  C190  1  0.71120000  0.10690000  0.13420000  1.0 -0.0599897703
C  C191  1  0.71120000  0.89310000  0.86580000  1.0 -0.0599897703
C  C192  1  0.86580000  0.28880000  0.10690000  1.0 -0.0599897703
C  C193  1  0.11140000  0.33170000  0.08390000  1.0 -0.0599897703
C  C194  1  0.88860000  0.66830000  0.08390000  1.0 -0.0599897703
C  C195  1  0.88860000  0.33170000  0.91610000  1.0 -0.0599897703
C  C196  1  0.66830000  0.91610000  0.11140000  1.0 -0.0599897703
C  C197  1  0.66830000  0.08390000  0.88860000  1.0 -0.0599897703
C  C198  1  0.91610000  0.88860000  0.33170000  1.0 -0.0599897703
C  C199  1  0.91610000  0.11140000  0.66830000  1.0 -0.0599897703
C  C200  1  0.08390000  0.88860000  0.66830000  1.0 -0.0599897703
C  C201  1  0.08390000  0.11140000  0.33170000  1.0 -0.0599897703
C  C202  1  0.33170000  0.91610000  0.88860000  1.0 -0.0599897703
C  C203  1  0.33170000  0.08390000  0.11140000  1.0 -0.0599897703
C  C204  1  0.11140000  0.66830000  0.91610000  1.0 -0.0599897703
C  C205  1  0.88860000  0.66830000  0.91610000  1.0 -0.0599897703
C  C206  1  0.11140000  0.33170000  0.91610000  1.0 -0.0599897703
C  C207  1  0.11140000  0.66830000  0.08390000  1.0 -0.0599897703
C  C208  1  0.33170000  0.08390000  0.88860000  1.0 -0.0599897703
C  C209  1  0.33170000  0.91610000  0.11140000  1.0 -0.0599897703
C  C210  1  0.08390000  0.11140000  0.66830000  1.0 -0.0599897703
C  C211  1  0.08390000  0.88860000  0.33170000  1.0 -0.0599897703
C  C212  1  0.91610000  0.11140000  0.33170000  1.0 -0.0599897703
C  C213  1  0.91610000  0.88860000  0.66830000  1.0 -0.0599897703
C  C214  1  0.66830000  0.08390000  0.11140000  1.0 -0.0599897703
C  C215  1  0.66830000  0.91610000  0.88860000  1.0 -0.0599897703
C  C216  1  0.88860000  0.33170000  0.08390000  1.0 -0.0599897703
C  C217  1  0.13700000  0.43140000  0.18180000  1.0 -0.1104467897
C  C218  1  0.86300000  0.56860000  0.18180000  1.0 -0.1104467897
C  C219  1  0.86300000  0.43140000  0.81820000  1.0 -0.1104467897
C  C220  1  0.56860000  0.81820000  0.13700000  1.0 -0.1104467897
C  C221  1  0.56860000  0.18180000  0.86300000  1.0 -0.1104467897
C  C222  1  0.81820000  0.86300000  0.43140000  1.0 -0.1104467897
C  C223  1  0.81820000  0.13700000  0.56860000  1.0 -0.1104467897
C  C224  1  0.18180000  0.86300000  0.56860000  1.0 -0.1104467897
C  C225  1  0.18180000  0.13700000  0.43140000  1.0 -0.1104467897
C  C226  1  0.43140000  0.81820000  0.86300000  1.0 -0.1104467897
C  C227  1  0.43140000  0.18180000  0.13700000  1.0 -0.1104467897
C  C228  1  0.13700000  0.56860000  0.81820000  1.0 -0.1104467897
C  C229  1  0.86300000  0.56860000  0.81820000  1.0 -0.1104467897
C  C230  1  0.13700000  0.43140000  0.81820000  1.0 -0.1104467897
C  C231  1  0.13700000  0.56860000  0.18180000  1.0 -0.1104467897
C  C232  1  0.43140000  0.18180000  0.86300000  1.0 -0.1104467897
C  C233  1  0.43140000  0.81820000  0.13700000  1.0 -0.1104467897
C  C234  1  0.18180000  0.13700000  0.56860000  1.0 -0.1104467897
C  C235  1  0.18180000  0.86300000  0.43140000  1.0 -0.1104467897
C  C236  1  0.81820000  0.13700000  0.43140000  1.0 -0.1104467897
C  C237  1  0.81820000  0.86300000  0.56860000  1.0 -0.1104467897
C  C238  1  0.56860000  0.18180000  0.13700000  1.0 -0.1104467897
C  C239  1  0.56860000  0.81820000  0.86300000  1.0 -0.1104467897
C  C240  1  0.86300000  0.43140000  0.18180000  1.0 -0.1104467897
C  C241  1  0.16100000  0.43610000  0.22970000  1.0 -0.1104467897
C  C242  1  0.83900000  0.56390000  0.22970000  1.0 -0.1104467897
C  C243  1  0.83900000  0.43610000  0.77030000  1.0 -0.1104467897
C  C244  1  0.56390000  0.77030000  0.16100000  1.0 -0.1104467897
C  C245  1  0.56390000  0.22970000  0.83900000  1.0 -0.1104467897
C  C246  1  0.77030000  0.83900000  0.43610000  1.0 -0.1104467897
C  C247  1  0.77030000  0.16100000  0.56390000  1.0 -0.1104467897
C  C248  1  0.22970000  0.83900000  0.56390000  1.0 -0.1104467897
C  C249  1  0.22970000  0.16100000  0.43610000  1.0 -0.1104467897
C  C250  1  0.43610000  0.77030000  0.83900000  1.0 -0.1104467897
C  C251  1  0.43610000  0.22970000  0.16100000  1.0 -0.1104467897
C  C252  1  0.16100000  0.56390000  0.77030000  1.0 -0.1104467897
C  C253  1  0.83900000  0.56390000  0.77030000  1.0 -0.1104467897
C  C254  1  0.16100000  0.43610000  0.77030000  1.0 -0.1104467897
C  C255  1  0.16100000  0.56390000  0.22970000  1.0 -0.1104467897
C  C256  1  0.43610000  0.22970000  0.83900000  1.0 -0.1104467897
C  C257  1  0.43610000  0.77030000  0.16100000  1.0 -0.1104467897
C  C258  1  0.22970000  0.16100000  0.56390000  1.0 -0.1104467897
C  C259  1  0.22970000  0.83900000  0.43610000  1.0 -0.1104467897
C  C260  1  0.77030000  0.16100000  0.43610000  1.0 -0.1104467897
C  C261  1  0.77030000  0.83900000  0.56390000  1.0 -0.1104467897
C  C262  1  0.56390000  0.22970000  0.16100000  1.0 -0.1104467897
C  C263  1  0.56390000  0.77030000  0.83900000  1.0 -0.1104467897
C  C264  1  0.83900000  0.43610000  0.22970000  1.0 -0.1104467897
C  C265  1  0.18400000  0.39330000  0.25270000  1.0 -0.0950049136
C  C266  1  0.81600000  0.60670000  0.25270000  1.0 -0.0950049136
C  C267  1  0.81600000  0.39330000  0.74730000  1.0 -0.0950049136
C  C268  1  0.60670000  0.74730000  0.18400000  1.0 -0.0950049136
C  C269  1  0.60670000  0.25270000  0.81600000  1.0 -0.0950049136
C  C270  1  0.74730000  0.81600000  0.39330000  1.0 -0.0950049136
C  C271  1  0.74730000  0.18400000  0.60670000  1.0 -0.0950049136
C  C272  1  0.25270000  0.81600000  0.60670000  1.0 -0.0950049136
C  C273  1  0.25270000  0.18400000  0.39330000  1.0 -0.0950049136
C  C274  1  0.39330000  0.74730000  0.81600000  1.0 -0.0950049136
C  C275  1  0.39330000  0.25270000  0.18400000  1.0 -0.0950049136
C  C276  1  0.18400000  0.60670000  0.74730000  1.0 -0.0950049136
C  C277  1  0.81600000  0.60670000  0.74730000  1.0 -0.0950049136
C  C278  1  0.18400000  0.39330000  0.74730000  1.0 -0.0950049136
C  C279  1  0.18400000  0.60670000  0.25270000  1.0 -0.0950049136
C  C280  1  0.39330000  0.25270000  0.81600000  1.0 -0.0950049136
C  C281  1  0.39330000  0.74730000  0.18400000  1.0 -0.0950049136
C  C282  1  0.25270000  0.18400000  0.60670000  1.0 -0.0950049136
C  C283  1  0.25270000  0.81600000  0.39330000  1.0 -0.0950049136
C  C284  1  0.74730000  0.18400000  0.39330000  1.0 -0.0945298869
C  C285  1  0.74730000  0.81600000  0.60670000  1.0 -0.0950049136
C  C286  1  0.60670000  0.25270000  0.18400000  1.0 -0.0945298869
C  C287  1  0.60670000  0.74730000  0.81600000  1.0 -0.0950049136
C  C288  1  0.81600000  0.39330000  0.25270000  1.0 -0.0950049136
C  C289  1  0.18260000  0.34580000  0.22770000  1.0 -0.1339340227
C  C290  1  0.81740000  0.65420000  0.22770000  1.0 -0.1339340227
C  C291  1  0.81740000  0.34580000  0.77230000  1.0 -0.1339340227
C  C292  1  0.65420000  0.77230000  0.18260000  1.0 -0.1339340227
C  C293  1  0.65420000  0.22770000  0.81740000  1.0 -0.1339340227
C  C294  1  0.77230000  0.81740000  0.34580000  1.0 -0.1339340227
C  C295  1  0.77230000  0.18260000  0.65420000  1.0 -0.1339340227
C  C296  1  0.22770000  0.81740000  0.65420000  1.0 -0.1339340227
C  C297  1  0.22770000  0.18260000  0.34580000  1.0 -0.1339340227
C  C298  1  0.34580000  0.77230000  0.81740000  1.0 -0.1339340227
C  C299  1  0.34580000  0.22770000  0.18260000  1.0 -0.1339340227
C  C300  1  0.18260000  0.65420000  0.77230000  1.0 -0.1339340227
C  C301  1  0.81740000  0.65420000  0.77230000  1.0 -0.1339340227
C  C302  1  0.18260000  0.34580000  0.77230000  1.0 -0.1339340227
C  C303  1  0.18260000  0.65420000  0.22770000  1.0 -0.1339340227
C  C304  1  0.34580000  0.22770000  0.81740000  1.0 -0.1339340227
C  C305  1  0.34580000  0.77230000  0.18260000  1.0 -0.1339340227
C  C306  1  0.22770000  0.18260000  0.65420000  1.0 -0.1339340227
C  C307  1  0.22770000  0.81740000  0.34580000  1.0 -0.1339340227
C  C308  1  0.77230000  0.18260000  0.34580000  1.0 -0.1339340227
C  C309  1  0.77230000  0.81740000  0.65420000  1.0 -0.1339340227
C  C310  1  0.65420000  0.22770000  0.18260000  1.0 -0.1339340227
C  C311  1  0.65420000  0.77230000  0.81740000  1.0 -0.1339340227
C  C312  1  0.81740000  0.34580000  0.22770000  1.0 -0.1339340227
C  C313  1  0.13330000  0.24130000  0.08190000  1.0 -0.148497867
C  C314  1  0.86670000  0.75870000  0.08190000  1.0 -0.148497867
C  C315  1  0.86670000  0.24130000  0.91810000  1.0 -0.148497867
C  C316  1  0.75870000  0.91810000  0.13330000  1.0 -0.148497867
C  C317  1  0.75870000  0.08190000  0.86670000  1.0 -0.148497867
C  C318  1  0.91810000  0.86670000  0.24130000  1.0 -0.148497867
C  C319  1  0.91810000  0.13330000  0.75870000  1.0 -0.148497867
C  C320  1  0.08190000  0.86670000  0.75870000  1.0 -0.148497867
C  C321  1  0.08190000  0.13330000  0.24130000  1.0 -0.148497867
C  C322  1  0.24130000  0.91810000  0.86670000  1.0 -0.148497867
C  C323  1  0.24130000  0.08190000  0.13330000  1.0 -0.148497867
C  C324  1  0.13330000  0.75870000  0.91810000  1.0 -0.148497867
C  C325  1  0.86670000  0.75870000  0.91810000  1.0 -0.148497867
C  C326  1  0.13330000  0.24130000  0.91810000  1.0 -0.148497867
C  C327  1  0.13330000  0.75870000  0.08190000  1.0 -0.148497867
C  C328  1  0.24130000  0.08190000  0.86670000  1.0 -0.148497867
C  C329  1  0.24130000  0.91810000  0.13330000  1.0 -0.148497867
C  C330  1  0.08190000  0.13330000  0.75870000  1.0 -0.148497867
C  C331  1  0.08190000  0.86670000  0.24130000  1.0 -0.148497867
C  C332  1  0.91810000  0.13330000  0.24130000  1.0 -0.148497867
C  C333  1  0.91810000  0.86670000  0.75870000  1.0 -0.148497867
C  C334  1  0.75870000  0.08190000  0.13330000  1.0 -0.148497867
C  C335  1  0.75870000  0.91810000  0.86670000  1.0 -0.148497867
C  C336  1  0.86670000  0.24130000  0.08190000  1.0 -0.148497867
C  C337  1  0.11000000  0.23660000  0.03400000  1.0 -0.0156281158
C  C338  1  0.89000000  0.76340000  0.03400000  1.0 -0.0156281158
C  C339  1  0.89000000  0.23660000  0.96600000  1.0 -0.0156281158
C  C340  1  0.76340000  0.96600000  0.11000000  1.0 -0.0156281158
C  C341  1  0.76340000  0.03400000  0.89000000  1.0 -0.0156281158
C  C342  1  0.96600000  0.89000000  0.23660000  1.0 -0.0156281158
C  C343  1  0.96600000  0.11000000  0.76340000  1.0 -0.0156281158
C  C344  1  0.03400000  0.89000000  0.76340000  1.0 -0.0156281158
C  C345  1  0.03400000  0.11000000  0.23660000  1.0 -0.0156281158
C  C346  1  0.23660000  0.96600000  0.89000000  1.0 -0.0156281158
C  C347  1  0.23660000  0.03400000  0.11000000  1.0 -0.0156281158
C  C348  1  0.11000000  0.76340000  0.96600000  1.0 -0.0156281158
C  C349  1  0.89000000  0.76340000  0.96600000  1.0 -0.0156281158
C  C350  1  0.11000000  0.23660000  0.96600000  1.0 -0.0156281158
C  C351  1  0.11000000  0.76340000  0.03400000  1.0 -0.0156281158
C  C352  1  0.23660000  0.03400000  0.89000000  1.0 -0.0156281158
C  C353  1  0.23660000  0.96600000  0.11000000  1.0 -0.0156281158
C  C354  1  0.03400000  0.11000000  0.76340000  1.0 -0.0156281158
C  C355  1  0.03400000  0.89000000  0.23660000  1.0 -0.0156281158
C  C356  1  0.96600000  0.11000000  0.23660000  1.0 -0.0156281158
C  C357  1  0.96600000  0.89000000  0.76340000  1.0 -0.0156281158
C  C358  1  0.76340000  0.03400000  0.11000000  1.0 -0.0156281158
C  C359  1  0.76340000  0.96600000  0.89000000  1.0 -0.0156281158
C  C360  1  0.89000000  0.23660000  0.03400000  1.0 -0.0156281158
C  C361  1  0.08700000  0.27950000  0.01110000  1.0 -0.0682964072
C  C362  1  0.91300000  0.72050000  0.01110000  1.0 -0.0682964072
C  C363  1  0.91300000  0.27950000  0.98890000  1.0 -0.0682964072
C  C364  1  0.72050000  0.98890000  0.08700000  1.0 -0.0682964072
C  C365  1  0.72050000  0.01110000  0.91300000  1.0 -0.0682964072
C  C366  1  0.98890000  0.91300000  0.27950000  1.0 -0.0682964072
C  C367  1  0.98890000  0.08700000  0.72050000  1.0 -0.0682964072
C  C368  1  0.01110000  0.91300000  0.72050000  1.0 -0.0682964072
C  C369  1  0.01110000  0.08700000  0.27950000  1.0 -0.0682964072
C  C370  1  0.27950000  0.98890000  0.91300000  1.0 -0.0682964072
C  C371  1  0.27950000  0.01110000  0.08700000  1.0 -0.0682964072
C  C372  1  0.08700000  0.72050000  0.98890000  1.0 -0.0682964072
C  C373  1  0.91300000  0.72050000  0.98890000  1.0 -0.0682964072
C  C374  1  0.08700000  0.27950000  0.98890000  1.0 -0.0682964072
C  C375  1  0.08700000  0.72050000  0.01110000  1.0 -0.0682964072
C  C376  1  0.27950000  0.01110000  0.91300000  1.0 -0.0682964072
C  C377  1  0.27950000  0.98890000  0.08700000  1.0 -0.0682964072
C  C378  1  0.01110000  0.08700000  0.72050000  1.0 -0.0682964072
C  C379  1  0.01110000  0.91300000  0.27950000  1.0 -0.0682964072
C  C380  1  0.98890000  0.08700000  0.27950000  1.0 -0.0682964072
C  C381  1  0.98890000  0.91300000  0.72050000  1.0 -0.0682964072
C  C382  1  0.72050000  0.01110000  0.08700000  1.0 -0.0682964072
C  C383  1  0.72050000  0.98890000  0.91300000  1.0 -0.0682964072
C  C384  1  0.91300000  0.27950000  0.01110000  1.0 -0.0682964072
C  C385  1  0.08770000  0.32700000  0.03600000  1.0 -0.0764641579
C  C386  1  0.91230000  0.67300000  0.03600000  1.0 -0.0764641579
C  C387  1  0.91230000  0.32700000  0.96400000  1.0 -0.0764641579
C  C388  1  0.67300000  0.96400000  0.08770000  1.0 -0.0764641579
C  C389  1  0.67300000  0.03600000  0.91230000  1.0 -0.0764641579
C  C390  1  0.96400000  0.91230000  0.32700000  1.0 -0.0764641579
C  C391  1  0.96400000  0.08770000  0.67300000  1.0 -0.0764641579
C  C392  1  0.03600000  0.91230000  0.67300000  1.0 -0.0764641579
C  C393  1  0.03600000  0.08770000  0.32700000  1.0 -0.0764641579
C  C394  1  0.32700000  0.96400000  0.91230000  1.0 -0.0764641579
C  C395  1  0.32700000  0.03600000  0.08770000  1.0 -0.0764641579
C  C396  1  0.08770000  0.67300000  0.96400000  1.0 -0.0764641579
C  C397  1  0.91230000  0.67300000  0.96400000  1.0 -0.0764641579
C  C398  1  0.08770000  0.32700000  0.96400000  1.0 -0.0764641579
C  C399  1  0.08770000  0.67300000  0.03600000  1.0 -0.0764641579
C  C400  1  0.32700000  0.03600000  0.91230000  1.0 -0.0764641579
C  C401  1  0.32700000  0.96400000  0.08770000  1.0 -0.0764641579
C  C402  1  0.03600000  0.08770000  0.67300000  1.0 -0.0764641579
C  C403  1  0.03600000  0.91230000  0.32700000  1.0 -0.0764641579
C  C404  1  0.96400000  0.08770000  0.32700000  1.0 -0.0764641579
C  C405  1  0.96400000  0.91230000  0.67300000  1.0 -0.0764641579
C  C406  1  0.67300000  0.03600000  0.08770000  1.0 -0.0764641579
C  C407  1  0.67300000  0.96400000  0.91230000  1.0 -0.0764641579
C  C408  1  0.91230000  0.32700000  0.03600000  1.0 -0.0764641579
O  O1  1  0.00000000  0.50000000  0.20400000  1.0 -0.2464703583
O  O2  1  0.00000000  0.50000000  0.79600000  1.0 -0.2464703583
O  O3  1  0.50000000  0.79600000  0.00000000  1.0 -0.2464703583
O  O4  1  0.50000000  0.20400000  0.00000000  1.0 -0.2464703583
O  O5  1  0.79600000  0.00000000  0.50000000  1.0 -0.2464703583
O  O6  1  0.20400000  0.00000000  0.50000000  1.0 -0.2464703583
O  O7  1  0.20400000  0.50000000  0.00000000  1.0 -0.1954867665
O  O8  1  0.79600000  0.50000000  0.00000000  1.0 -0.1954867665
O  O9  1  0.50000000  0.00000000  0.20400000  1.0 -0.1954867665
O  O10  1  0.50000000  0.00000000  0.79600000  1.0 -0.1954867665
O  O11  1  0.00000000  0.79600000  0.50000000  1.0 -0.1954867665
O  O12  1  0.00000000  0.20400000  0.50000000  1.0 -0.1954867665
O  O13  1  0.07400000  0.17700000  0.03100000  1.0 -0.2464703583
O  O14  1  0.92600000  0.82300000  0.03100000  1.0 -0.2464703583
O  O15  1  0.92600000  0.17700000  0.96900000  1.0 -0.2464703583
O  O16  1  0.82300000  0.96900000  0.07400000  1.0 -0.2464703583
O  O17  1  0.82300000  0.03100000  0.92600000  1.0 -0.2464703583
O  O18  1  0.96900000  0.92600000  0.17700000  1.0 -0.2464703583
O  O19  1  0.96900000  0.07400000  0.82300000  1.0 -0.2464703583
O  O20  1  0.03100000  0.92600000  0.82300000  1.0 -0.2464703583
O  O21  1  0.03100000  0.07400000  0.17700000  1.0 -0.2464703583
O  O22  1  0.17700000  0.96900000  0.92600000  1.0 -0.2464703583
O  O23  1  0.17700000  0.03100000  0.07400000  1.0 -0.2464703583
O  O24  1  0.07400000  0.82300000  0.96900000  1.0 -0.2464703583
O  O25  1  0.92600000  0.82300000  0.96900000  1.0 -0.2464703583
O  O26  1  0.07400000  0.17700000  0.96900000  1.0 -0.2464703583
O  O27  1  0.07400000  0.82300000  0.03100000  1.0 -0.2464703583
O  O28  1  0.17700000  0.03100000  0.92600000  1.0 -0.2464703583
O  O29  1  0.17700000  0.96900000  0.07400000  1.0 -0.2464703583
O  O30  1  0.03100000  0.07400000  0.82300000  1.0 -0.2464703583
O  O31  1  0.03100000  0.92600000  0.17700000  1.0 -0.2464703583
O  O32  1  0.96900000  0.07400000  0.17700000  1.0 -0.2443929438
O  O33  1  0.96900000  0.92600000  0.82300000  1.0 -0.2464703583
O  O34  1  0.82300000  0.03100000  0.07400000  1.0 -0.2443929438
O  O35  1  0.82300000  0.96900000  0.92600000  1.0 -0.2464703583
O  O36  1  0.92600000  0.17700000  0.03100000  1.0 -0.2464703583
O  O37  1  0.00000000  0.50000000  0.16800000  1.0 -0.0764641579
O  O38  1  0.00000000  0.50000000  0.83200000  1.0 -0.0764641579
O  O39  1  0.50000000  0.83200000  0.00000000  1.0 -0.0764641579
O  O40  1  0.50000000  0.16800000  0.00000000  1.0 -0.0764641579
O  O41  1  0.83200000  0.00000000  0.50000000  1.0 -0.0764641579
O  O42  1  0.16800000  0.00000000  0.50000000  1.0 -0.0764641579
O  O43  1  0.16800000  0.50000000  0.00000000  1.0 -0.120752332
O  O44  1  0.83200000  0.50000000  0.00000000  1.0 -0.120752332
O  O45  1  0.50000000  0.00000000  0.16800000  1.0 -0.120752332
O  O46  1  0.50000000  0.00000000  0.83200000  1.0 -0.120752332
O  O47  1  0.00000000  0.83200000  0.50000000  1.0 -0.120752332
O  O48  1  0.00000000  0.16800000  0.50000000  1.0 -0.120752332
O  O49  1  0.04990000  0.44340000  0.10370000  1.0 -0.4763846223
O  O50  1  0.95010000  0.55660000  0.10370000  1.0 -0.4763846223
O  O51  1  0.95010000  0.44340000  0.89630000  1.0 -0.4763846223
O  O52  1  0.55660000  0.89630000  0.04990000  1.0 -0.4763846223
O  O53  1  0.55660000  0.10370000  0.95010000  1.0 -0.4763846223
O  O54  1  0.89630000  0.95010000  0.44340000  1.0 -0.4763846223
O  O55  1  0.89630000  0.04990000  0.55660000  1.0 -0.4763846223
O  O56  1  0.10370000  0.95010000  0.55660000  1.0 -0.4763846223
O  O57  1  0.10370000  0.04990000  0.44340000  1.0 -0.4763846223
O  O58  1  0.44340000  0.89630000  0.95010000  1.0 -0.4763846223
O  O59  1  0.44340000  0.10370000  0.04990000  1.0 -0.4763846223
O  O60  1  0.04990000  0.55660000  0.89630000  1.0 -0.4763846223
O  O61  1  0.95010000  0.55660000  0.89630000  1.0 -0.4763846223
O  O62  1  0.04990000  0.44340000  0.89630000  1.0 -0.4763846223
O  O63  1  0.04990000  0.55660000  0.10370000  1.0 -0.4763846223
O  O64  1  0.44340000  0.10370000  0.95010000  1.0 -0.4763846223
O  O65  1  0.44340000  0.89630000  0.04990000  1.0 -0.4763846223
O  O66  1  0.10370000  0.04990000  0.55660000  1.0 -0.4763846223
O  O67  1  0.10370000  0.95010000  0.44340000  1.0 -0.4763846223
O  O68  1  0.89630000  0.04990000  0.44340000  1.0 -0.4763846223
O  O69  1  0.89630000  0.95010000  0.55660000  1.0 -0.4763846223
O  O70  1  0.55660000  0.10370000  0.04990000  1.0 -0.4763846223
O  O71  1  0.55660000  0.89630000  0.95010000  1.0 -0.4763846223
O  O72  1  0.95010000  0.44340000  0.10370000  1.0 -0.4763846223
O  O73  1  0.10680000  0.44260000  0.04600000  1.0 -0.4688499396
O  O74  1  0.89320000  0.55740000  0.04600000  1.0 -0.4688499396
O  O75  1  0.89320000  0.44260000  0.95400000  1.0 -0.4688499396
O  O76  1  0.55740000  0.95400000  0.10680000  1.0 -0.4688499396
O  O77  1  0.55740000  0.04600000  0.89320000  1.0 -0.4688499396
O  O78  1  0.95400000  0.89320000  0.44260000  1.0 -0.4688499396
O  O79  1  0.95400000  0.10680000  0.55740000  1.0 -0.4688499396
O  O80  1  0.04600000  0.89320000  0.55740000  1.0 -0.4688499396
O  O81  1  0.04600000  0.10680000  0.44260000  1.0 -0.4688499396
O  O82  1  0.44260000  0.95400000  0.89320000  1.0 -0.4688499396
O  O83  1  0.44260000  0.04600000  0.10680000  1.0 -0.4688499396
O  O84  1  0.10680000  0.55740000  0.95400000  1.0 -0.4688499396
O  O85  1  0.89320000  0.55740000  0.95400000  1.0 -0.4688499396
O  O86  1  0.10680000  0.44260000  0.95400000  1.0 -0.4688499396
O  O87  1  0.10680000  0.55740000  0.04600000  1.0 -0.4688499396
O  O88  1  0.44260000  0.04600000  0.89320000  1.0 -0.4688499396
O  O89  1  0.44260000  0.95400000  0.10680000  1.0 -0.4688499396
O  O90  1  0.04600000  0.10680000  0.55740000  1.0 -0.4688499396
O  O91  1  0.04600000  0.89320000  0.44260000  1.0 -0.4688499396
O  O92  1  0.95400000  0.10680000  0.44260000  1.0 -0.4688499396
O  O93  1  0.95400000  0.89320000  0.55740000  1.0 -0.4688499396
O  O94  1  0.55740000  0.04600000  0.10680000  1.0 -0.4688499396
O  O95  1  0.55740000  0.95400000  0.89320000  1.0 -0.4688499396
O  O96  1  0.89320000  0.44260000  0.04600000  1.0 -0.4688499396
O  O97  1  0.06000000  0.50000000  0.00000000  1.0 -0.4014913286
O  O98  1  0.94000000  0.50000000  0.00000000  1.0 -0.4014913286
O  O99  1  0.50000000  0.00000000  0.06000000  1.0 -0.4014913286
O  O100  1  0.50000000  0.00000000  0.94000000  1.0 -0.4014913286
O  O101  1  0.00000000  0.94000000  0.50000000  1.0 -0.4014913286
O  O102  1  0.00000000  0.06000000  0.50000000  1.0 -0.4014913286
O  O103  1  0.00000000  0.50000000  0.06000000  1.0 -0.3929579173
O  O104  1  0.00000000  0.50000000  0.94000000  1.0 -0.4014913286
O  O105  1  0.50000000  0.94000000  0.00000000  1.0 -0.3929579173
O  O106  1  0.50000000  0.06000000  0.00000000  1.0 -0.3929579173
O  O107  1  0.94000000  0.00000000  0.50000000  1.0 -0.3929579173
O  O108  1  0.06000000  0.00000000  0.50000000  1.0 -0.3929579173
