# DDEC6 charges by PACMAN v1.1 (https://github.com/mtap-research/PACMAN-charge/)
data_XIWPOM_FSR_pacman
_symmetry_space_group_name_H-M   'P 1'
_cell_length_a   22.91300000
_cell_length_b   22.91300000
_cell_length_c   22.91300000
_cell_angle_alpha   109.47100000
_cell_angle_beta   109.47100000
_cell_angle_gamma   109.47100000
_symmetry_Int_Tables_number   1
_chemical_formula_structural   CaTiH28C40O11
_chemical_formula_sum   'Ca6 Ti6 H168 C240 O66'
_cell_volume   9260.35257537
_cell_formula_units_Z   6
loop_
 _symmetry_equiv_pos_site_id
 _symmetry_equiv_pos_as_xyz
  1  'x, y, z'
loop_
 _atom_site_type_symbol
 _atom_site_label
 _atom_site_symmetry_multiplicity
 _atom_site_fract_x
 _atom_site_fract_y
 _atom_site_fract_z
 _atom_site_occupancy
 _atom_site_charge
Ca  Ca1  1  0.58640000  0.08640000  0.50000000  1.0 1.4298044179
Ca  Ca2  1  0.41360000  0.91360000  0.50000000  1.0 1.4298044179
Ca  Ca3  1  0.91360000  0.50000000  0.41360000  1.0 1.4298044179
Ca  Ca4  1  0.08640000  0.50000000  0.58640000  1.0 1.4298044179
Ca  Ca5  1  0.50000000  0.41360000  0.91360000  1.0 1.4298044179
Ca  Ca6  1  0.50000000  0.58640000  0.08640000  1.0 1.4298044179
Ti  Ti1  1  0.50000000  0.10370000  0.60370000  1.0 1.7974299127
Ti  Ti2  1  0.50000000  0.89630000  0.39630000  1.0 1.7974299127
Ti  Ti3  1  0.10370000  0.60370000  0.50000000  1.0 1.7974299127
Ti  Ti4  1  0.89630000  0.39630000  0.50000000  1.0 1.7974299127
Ti  Ti5  1  0.39630000  0.50000000  0.89630000  1.0 1.7974299127
Ti  Ti6  1  0.60370000  0.50000000  0.10370000  1.0 1.7974299127
H  H1  1  0.38961000  0.39540000  0.49467000  1.0 0.1317022879
H  H2  1  0.90073000  0.89494000  0.50533000  1.0 0.1317022879
H  H3  1  0.09927000  0.60460000  0.99421000  1.0 0.1317022879
H  H4  1  0.10506000  0.00579000  0.61039000  1.0 0.1317022879
H  H5  1  0.89494000  0.50533000  0.90073000  1.0 0.1317022879
H  H6  1  0.99421000  0.09927000  0.60460000  1.0 0.1317022879
H  H7  1  0.00579000  0.61039000  0.10506000  1.0 0.1317022879
H  H8  1  0.50533000  0.90073000  0.89494000  1.0 0.1317022879
H  H9  1  0.49467000  0.38961000  0.39540000  1.0 0.1317022879
H  H10  1  0.60460000  0.99421000  0.09927000  1.0 0.1317022879
H  H11  1  0.39540000  0.49467000  0.38961000  1.0 0.1317022879
H  H12  1  0.61039000  0.10506000  0.00579000  1.0 0.1317022879
H  H13  1  0.61039000  0.60460000  0.50533000  1.0 0.1317022879
H  H14  1  0.09927000  0.10506000  0.49467000  1.0 0.1317022879
H  H15  1  0.90073000  0.39540000  0.00579000  1.0 0.1317022879
H  H16  1  0.89494000  0.99421000  0.38961000  1.0 0.1317022879
H  H17  1  0.10506000  0.49467000  0.09927000  1.0 0.1317022879
H  H18  1  0.00579000  0.90073000  0.39540000  1.0 0.1317022879
H  H19  1  0.99421000  0.38961000  0.89494000  1.0 0.1317022879
H  H20  1  0.49467000  0.09927000  0.10506000  1.0 0.1317022879
H  H21  1  0.50533000  0.61039000  0.60460000  1.0 0.1317022879
H  H22  1  0.39540000  0.00579000  0.90073000  1.0 0.1317022879
H  H23  1  0.60460000  0.50533000  0.61039000  1.0 0.1317022879
H  H24  1  0.38961000  0.89494000  0.99421000  1.0 0.1317022879
H  H25  1  0.49662000  0.39821000  0.57441000  1.0 0.1229220219
H  H26  1  0.82380000  0.92221000  0.42559000  1.0 0.1229220219
H  H27  1  0.17620000  0.60179000  0.09841000  1.0 0.1229220219
H  H28  1  0.07779000  0.90159000  0.50338000  1.0 0.1229220219
H  H29  1  0.92221000  0.42559000  0.82380000  1.0 0.1229220219
H  H30  1  0.09841000  0.17620000  0.60179000  1.0 0.1229220219
H  H31  1  0.90159000  0.50338000  0.07779000  1.0 0.1229220219
H  H32  1  0.42559000  0.82380000  0.92221000  1.0 0.1229220219
H  H33  1  0.57441000  0.49662000  0.39821000  1.0 0.1229220219
H  H34  1  0.60179000  0.09841000  0.17620000  1.0 0.1229220219
H  H35  1  0.39821000  0.57441000  0.49662000  1.0 0.1229220219
H  H36  1  0.50338000  0.07779000  0.90159000  1.0 0.1229220219
H  H37  1  0.50338000  0.60179000  0.42559000  1.0 0.1229220219
H  H38  1  0.17620000  0.07779000  0.57441000  1.0 0.1229220219
H  H39  1  0.82380000  0.39821000  0.90159000  1.0 0.1229220219
H  H40  1  0.92221000  0.09841000  0.49662000  1.0 0.1229220219
H  H41  1  0.07779000  0.57441000  0.17620000  1.0 0.1229220219
H  H42  1  0.90159000  0.82380000  0.39821000  1.0 0.1229220219
H  H43  1  0.09841000  0.49662000  0.92221000  1.0 0.1229220219
H  H44  1  0.57441000  0.17620000  0.07779000  1.0 0.1229220219
H  H45  1  0.42559000  0.50338000  0.60179000  1.0 0.1229220219
H  H46  1  0.39821000  0.90159000  0.82380000  1.0 0.1229220219
H  H47  1  0.60179000  0.42559000  0.50338000  1.0 0.1229220219
H  H48  1  0.49662000  0.92221000  0.09841000  1.0 0.1229220219
H  H49  1  0.52282000  0.32417000  0.60953000  1.0 0.1229220219
H  H50  1  0.71464000  0.91329000  0.39047000  1.0 0.1229220219
H  H51  1  0.28536000  0.67583000  0.19865000  1.0 0.1229220219
H  H52  1  0.08671000  0.80135000  0.47718000  1.0 0.1229220219
H  H53  1  0.91329000  0.39047000  0.71464000  1.0 0.1229220219
H  H54  1  0.19865000  0.28536000  0.67583000  1.0 0.1229220219
H  H55  1  0.80135000  0.47718000  0.08671000  1.0 0.1229220219
H  H56  1  0.39047000  0.71464000  0.91329000  1.0 0.1229220219
H  H57  1  0.60953000  0.52282000  0.32417000  1.0 0.1229220219
H  H58  1  0.67583000  0.19865000  0.28536000  1.0 0.1229220219
H  H59  1  0.32417000  0.60953000  0.52282000  1.0 0.1229220219
H  H60  1  0.47718000  0.08671000  0.80135000  1.0 0.1229220219
H  H61  1  0.47718000  0.67583000  0.39047000  1.0 0.1229220219
H  H62  1  0.28536000  0.08671000  0.60953000  1.0 0.1229220219
H  H63  1  0.71464000  0.32417000  0.80135000  1.0 0.1229220219
H  H64  1  0.91329000  0.19865000  0.52282000  1.0 0.1229220219
H  H65  1  0.08671000  0.60953000  0.28536000  1.0 0.1229220219
H  H66  1  0.80135000  0.71464000  0.32417000  1.0 0.1229220219
H  H67  1  0.19865000  0.52282000  0.91329000  1.0 0.1229220219
H  H68  1  0.60953000  0.28536000  0.08671000  1.0 0.1229220219
H  H69  1  0.39047000  0.47718000  0.67583000  1.0 0.1229220219
H  H70  1  0.32417000  0.80135000  0.71464000  1.0 0.1229220219
H  H71  1  0.67583000  0.39047000  0.47718000  1.0 0.1229220219
H  H72  1  0.52282000  0.91329000  0.19865000  1.0 0.1229220219
H  H73  1  0.41011000  0.28912000  0.34275000  1.0 0.1317022879
H  H74  1  0.94637000  0.06736000  0.65725000  1.0 0.1317022879
H  H75  1  0.05363000  0.71088000  0.12099000  1.0 0.1317022879
H  H76  1  0.93264000  0.87901000  0.58989000  1.0 0.1317022879
H  H77  1  0.06736000  0.65725000  0.94637000  1.0 0.1317022879
H  H78  1  0.12099000  0.05363000  0.71088000  1.0 0.1317022879
H  H79  1  0.87901000  0.58989000  0.93264000  1.0 0.1317022879
H  H80  1  0.65725000  0.94637000  0.06736000  1.0 0.1317022879
H  H81  1  0.34275000  0.41011000  0.28912000  1.0 0.1317022879
H  H82  1  0.71088000  0.12099000  0.05363000  1.0 0.1317022879
H  H83  1  0.28912000  0.34275000  0.41011000  1.0 0.1317022879
H  H84  1  0.58989000  0.93264000  0.87901000  1.0 0.1317022879
H  H85  1  0.58989000  0.71088000  0.65725000  1.0 0.1317022879
H  H86  1  0.05363000  0.93264000  0.34275000  1.0 0.1317022879
H  H87  1  0.94637000  0.28912000  0.87901000  1.0 0.1317022879
H  H88  1  0.06736000  0.12099000  0.41011000  1.0 0.1317022879
H  H89  1  0.93264000  0.34275000  0.05363000  1.0 0.1317022879
H  H90  1  0.87901000  0.94637000  0.28912000  1.0 0.1317022879
H  H91  1  0.12099000  0.41011000  0.06736000  1.0 0.1317022879
H  H92  1  0.34275000  0.05363000  0.93264000  1.0 0.1317022879
H  H93  1  0.65725000  0.58989000  0.71088000  1.0 0.1317022879
H  H94  1  0.28912000  0.87901000  0.94637000  1.0 0.1317022879
H  H95  1  0.71088000  0.65725000  0.58989000  1.0 0.1317022879
H  H96  1  0.41011000  0.06736000  0.12099000  1.0 0.1317022879
H  H97  1  0.46868000  0.27214000  0.34244000  1.0 0.1317022879
H  H98  1  0.92970000  0.12624000  0.65756000  1.0 0.1317022879
H  H99  1  0.07030000  0.72786000  0.19654000  1.0 0.1317022879
H  H100  1  0.87376000  0.80346000  0.53132000  1.0 0.1317022879
H  H101  1  0.12624000  0.65756000  0.92970000  1.0 0.1317022879
H  H102  1  0.19654000  0.07030000  0.72786000  1.0 0.1317022879
H  H103  1  0.80346000  0.53132000  0.87376000  1.0 0.1317022879
H  H104  1  0.65756000  0.92970000  0.12624000  1.0 0.1317022879
H  H105  1  0.34244000  0.46868000  0.27214000  1.0 0.1317022879
H  H106  1  0.72786000  0.19654000  0.07030000  1.0 0.1317022879
H  H107  1  0.27214000  0.34244000  0.46868000  1.0 0.1317022879
H  H108  1  0.53132000  0.87376000  0.80346000  1.0 0.1317022879
H  H109  1  0.53132000  0.72786000  0.65756000  1.0 0.1317022879
H  H110  1  0.07030000  0.87376000  0.34244000  1.0 0.1317022879
H  H111  1  0.92970000  0.27214000  0.80346000  1.0 0.1317022879
H  H112  1  0.12624000  0.19654000  0.46868000  1.0 0.1317022879
H  H113  1  0.87376000  0.34244000  0.07030000  1.0 0.1317022879
H  H114  1  0.80346000  0.92970000  0.27214000  1.0 0.1317022879
H  H115  1  0.19654000  0.46868000  0.12624000  1.0 0.1317022879
H  H116  1  0.34244000  0.07030000  0.87376000  1.0 0.1317022879
H  H117  1  0.65756000  0.53132000  0.72786000  1.0 0.1317022879
H  H118  1  0.27214000  0.80346000  0.92970000  1.0 0.1317022879
H  H119  1  0.72786000  0.65756000  0.53132000  1.0 0.1317022879
H  H120  1  0.46868000  0.12624000  0.19654000  1.0 0.1317022879
H  H121  1  0.39703000  0.21382000  0.32191000  1.0 0.1317022879
H  H122  1  0.89191000  0.07512000  0.67809000  1.0 0.1317022879
H  H123  1  0.10809000  0.78618000  0.18321000  1.0 0.1317022879
H  H124  1  0.92488000  0.81679000  0.60297000  1.0 0.1317022879
H  H125  1  0.07512000  0.67809000  0.89191000  1.0 0.1317022879
H  H126  1  0.18321000  0.10809000  0.78618000  1.0 0.1317022879
H  H127  1  0.81679000  0.60297000  0.92488000  1.0 0.1317022879
H  H128  1  0.67809000  0.89191000  0.07512000  1.0 0.1317022879
H  H129  1  0.32191000  0.39703000  0.21382000  1.0 0.1317022879
H  H130  1  0.78618000  0.18321000  0.10809000  1.0 0.1317022879
H  H131  1  0.21382000  0.32191000  0.39703000  1.0 0.1317022879
H  H132  1  0.60297000  0.92488000  0.81679000  1.0 0.1317022879
H  H133  1  0.60297000  0.78618000  0.67809000  1.0 0.1317022879
H  H134  1  0.10809000  0.92488000  0.32191000  1.0 0.1317022879
H  H135  1  0.89191000  0.21382000  0.81679000  1.0 0.1317022879
H  H136  1  0.07512000  0.18321000  0.39703000  1.0 0.1317022879
H  H137  1  0.92488000  0.32191000  0.10809000  1.0 0.1317022879
H  H138  1  0.81679000  0.89191000  0.21382000  1.0 0.1317022879
H  H139  1  0.18321000  0.39703000  0.07512000  1.0 0.1317022879
H  H140  1  0.32191000  0.10809000  0.92488000  1.0 0.1317022879
H  H141  1  0.67809000  0.60297000  0.78618000  1.0 0.1317022879
H  H142  1  0.21382000  0.81679000  0.89191000  1.0 0.1317022879
H  H143  1  0.78618000  0.67809000  0.60297000  1.0 0.1317022879
H  H144  1  0.39703000  0.07512000  0.18321000  1.0 0.1317022879
H  H145  1  0.46642000  0.19441000  0.41275000  1.0 0.1317022879
H  H146  1  0.78166000  0.05367000  0.58725000  1.0 0.1317022879
H  H147  1  0.21834000  0.80559000  0.27201000  1.0 0.1317022879
H  H148  1  0.94633000  0.72799000  0.53358000  1.0 0.1317022879
H  H149  1  0.05367000  0.58725000  0.78166000  1.0 0.1317022879
H  H150  1  0.27201000  0.21834000  0.80559000  1.0 0.1317022879
H  H151  1  0.72799000  0.53358000  0.94633000  1.0 0.1317022879
H  H152  1  0.58725000  0.78166000  0.05367000  1.0 0.1317022879
H  H153  1  0.41275000  0.46642000  0.19441000  1.0 0.1317022879
H  H154  1  0.80559000  0.27201000  0.21834000  1.0 0.1317022879
H  H155  1  0.19441000  0.41275000  0.46642000  1.0 0.1317022879
H  H156  1  0.53358000  0.94633000  0.72799000  1.0 0.1317022879
H  H157  1  0.53358000  0.80559000  0.58725000  1.0 0.1317022879
H  H158  1  0.21834000  0.94633000  0.41275000  1.0 0.1317022879
H  H159  1  0.78166000  0.19441000  0.72799000  1.0 0.1317022879
H  H160  1  0.05367000  0.27201000  0.46642000  1.0 0.1317022879
H  H161  1  0.94633000  0.41275000  0.21834000  1.0 0.1317022879
H  H162  1  0.72799000  0.78166000  0.19441000  1.0 0.1317022879
H  H163  1  0.27201000  0.46642000  0.05367000  1.0 0.1317022879
H  H164  1  0.41275000  0.21834000  0.94633000  1.0 0.1317022879
H  H165  1  0.58725000  0.53358000  0.80559000  1.0 0.1317022879
H  H166  1  0.19441000  0.72799000  0.78166000  1.0 0.1317022879
H  H167  1  0.80559000  0.58725000  0.53358000  1.0 0.1317022879
H  H168  1  0.46642000  0.05367000  0.27201000  1.0 0.1317022879
C  C1  1  0.51300000  0.20500000  0.53600000  1.0 0.5825314606
C  C2  1  0.66900000  0.97700000  0.46400000  1.0 0.5825314606
C  C3  1  0.33100000  0.79500000  0.30800000  1.0 0.5825314606
C  C4  1  0.02300000  0.69200000  0.48700000  1.0 0.5825314606
C  C5  1  0.97700000  0.46400000  0.66900000  1.0 0.5825314606
C  C6  1  0.30800000  0.33100000  0.79500000  1.0 0.5825314606
C  C7  1  0.69200000  0.48700000  0.02300000  1.0 0.5825314606
C  C8  1  0.46400000  0.66900000  0.97700000  1.0 0.5825314606
C  C9  1  0.53600000  0.51300000  0.20500000  1.0 0.5825314606
C  C10  1  0.79500000  0.30800000  0.33100000  1.0 0.5825314606
C  C11  1  0.20500000  0.53600000  0.51300000  1.0 0.5825314606
C  C12  1  0.48700000  0.02300000  0.69200000  1.0 0.5825314606
C  C13  1  0.48700000  0.79500000  0.46400000  1.0 0.5825314606
C  C14  1  0.33100000  0.02300000  0.53600000  1.0 0.5825314606
C  C15  1  0.66900000  0.20500000  0.69200000  1.0 0.5825314606
C  C16  1  0.97700000  0.30800000  0.51300000  1.0 0.5825314606
C  C17  1  0.02300000  0.53600000  0.33100000  1.0 0.5825314606
C  C18  1  0.69200000  0.66900000  0.20500000  1.0 0.5825314606
C  C19  1  0.30800000  0.51300000  0.97700000  1.0 0.5825314606
C  C20  1  0.53600000  0.33100000  0.02300000  1.0 0.5825314606
C  C21  1  0.46400000  0.48700000  0.79500000  1.0 0.5825314606
C  C22  1  0.20500000  0.69200000  0.66900000  1.0 0.5825314606
C  C23  1  0.79500000  0.46400000  0.48700000  1.0 0.5825314606
C  C24  1  0.51300000  0.97700000  0.30800000  1.0 0.5825314606
C  C25  1  0.49700000  0.25300000  0.51400000  1.0 -0.0511749936
C  C26  1  0.73900000  0.98300000  0.48600000  1.0 -0.0511749936
C  C27  1  0.26100000  0.74700000  0.24400000  1.0 -0.0511749936
C  C28  1  0.01700000  0.75600000  0.50300000  1.0 -0.0511749936
C  C29  1  0.98300000  0.48600000  0.73900000  1.0 -0.0511749936
C  C30  1  0.24400000  0.26100000  0.74700000  1.0 -0.0511749936
C  C31  1  0.75600000  0.50300000  0.01700000  1.0 -0.0511749936
C  C32  1  0.48600000  0.73900000  0.98300000  1.0 -0.0511749936
C  C33  1  0.51400000  0.49700000  0.25300000  1.0 -0.0511749936
C  C34  1  0.74700000  0.24400000  0.26100000  1.0 -0.0511749936
C  C35  1  0.25300000  0.51400000  0.49700000  1.0 -0.0511749936
C  C36  1  0.50300000  0.01700000  0.75600000  1.0 -0.0511749936
C  C37  1  0.50300000  0.74700000  0.48600000  1.0 -0.0511749936
C  C38  1  0.26100000  0.01700000  0.51400000  1.0 -0.0511749936
C  C39  1  0.73900000  0.25300000  0.75600000  1.0 -0.0511749936
C  C40  1  0.98300000  0.24400000  0.49700000  1.0 -0.0511749936
C  C41  1  0.01700000  0.51400000  0.26100000  1.0 -0.0511749936
C  C42  1  0.75600000  0.73900000  0.25300000  1.0 -0.0511749936
C  C43  1  0.24400000  0.49700000  0.98300000  1.0 -0.0511749936
C  C44  1  0.51400000  0.26100000  0.01700000  1.0 -0.0511749936
C  C45  1  0.48600000  0.50300000  0.74700000  1.0 -0.0511749936
C  C46  1  0.25300000  0.75600000  0.73900000  1.0 -0.0511749936
C  C47  1  0.74700000  0.48600000  0.50300000  1.0 -0.0511749936
C  C48  1  0.49700000  0.98300000  0.24400000  1.0 -0.0511749936
C  C49  1  0.45000000  0.38700000  0.45100000  1.0 0.0796886038
C  C50  1  0.93600000  0.99900000  0.54900000  1.0 0.0796886038
C  C51  1  0.06400000  0.61300000  0.06300000  1.0 0.0796886038
C  C52  1  0.00100000  0.93700000  0.55000000  1.0 0.0796886038
C  C53  1  0.99900000  0.54900000  0.93600000  1.0 0.0796886038
C  C54  1  0.06300000  0.06400000  0.61300000  1.0 0.0796886038
C  C55  1  0.93700000  0.55000000  0.00100000  1.0 0.0796886038
C  C56  1  0.54900000  0.93600000  0.99900000  1.0 0.0796886038
C  C57  1  0.45100000  0.45000000  0.38700000  1.0 0.0796886038
C  C58  1  0.61300000  0.06300000  0.06400000  1.0 0.0796886038
C  C59  1  0.38700000  0.45100000  0.45000000  1.0 0.0796886038
C  C60  1  0.55000000  0.00100000  0.93700000  1.0 0.0796886038
C  C61  1  0.55000000  0.61300000  0.54900000  1.0 0.0796886038
C  C62  1  0.06400000  0.00100000  0.45100000  1.0 0.0796886038
C  C63  1  0.93600000  0.38700000  0.93700000  1.0 0.0796886038
C  C64  1  0.99900000  0.06300000  0.45000000  1.0 0.0796886038
C  C65  1  0.00100000  0.45100000  0.06400000  1.0 0.0796886038
C  C66  1  0.93700000  0.93600000  0.38700000  1.0 0.0796886038
C  C67  1  0.06300000  0.45000000  0.99900000  1.0 0.0796886038
C  C68  1  0.45100000  0.06400000  0.00100000  1.0 0.0796886038
C  C69  1  0.54900000  0.55000000  0.61300000  1.0 0.0796886038
C  C70  1  0.38700000  0.93700000  0.93600000  1.0 0.0796886038
C  C71  1  0.61300000  0.54900000  0.55000000  1.0 0.0796886038
C  C72  1  0.45000000  0.99900000  0.06300000  1.0 0.0796886038
C  C73  1  0.40800000  0.41000000  0.46800000  1.0 -0.2245373357
C  C74  1  0.94200000  0.94000000  0.53200000  1.0 -0.2245373357
C  C75  1  0.05800000  0.59000000  0.99800000  1.0 -0.2245373357
C  C76  1  0.06000000  0.00200000  0.59200000  1.0 -0.2245373357
C  C77  1  0.94000000  0.53200000  0.94200000  1.0 -0.2245373357
C  C78  1  0.99800000  0.05800000  0.59000000  1.0 -0.2245373357
C  C79  1  0.00200000  0.59200000  0.06000000  1.0 -0.2245373357
C  C80  1  0.53200000  0.94200000  0.94000000  1.0 -0.2245373357
C  C81  1  0.46800000  0.40800000  0.41000000  1.0 -0.2245373357
C  C82  1  0.59000000  0.99800000  0.05800000  1.0 -0.2245373357
C  C83  1  0.41000000  0.46800000  0.40800000  1.0 -0.2245373357
C  C84  1  0.59200000  0.06000000  0.00200000  1.0 -0.2245373357
C  C85  1  0.59200000  0.59000000  0.53200000  1.0 -0.2245373357
C  C86  1  0.05800000  0.06000000  0.46800000  1.0 -0.2245373357
C  C87  1  0.94200000  0.41000000  0.00200000  1.0 -0.2245373357
C  C88  1  0.94000000  0.99800000  0.40800000  1.0 -0.2245373357
C  C89  1  0.06000000  0.46800000  0.05800000  1.0 -0.2245373357
C  C90  1  0.00200000  0.94200000  0.41000000  1.0 -0.2245373357
C  C91  1  0.99800000  0.40800000  0.94000000  1.0 -0.2245373357
C  C92  1  0.46800000  0.05800000  0.06000000  1.0 -0.2245373357
C  C93  1  0.53200000  0.59200000  0.59000000  1.0 -0.2245373357
C  C94  1  0.41000000  0.00200000  0.94200000  1.0 -0.2245373357
C  C95  1  0.59000000  0.53200000  0.59200000  1.0 -0.2245373357
C  C96  1  0.40800000  0.94000000  0.99800000  1.0 -0.2245373357
C  C97  1  0.49100000  0.35700000  0.54200000  1.0 -0.1711337632
C  C98  1  0.81500000  0.94900000  0.45800000  1.0 -0.1711337632
C  C99  1  0.18500000  0.64300000  0.13400000  1.0 -0.1711337632
C  C100  1  0.05100000  0.86600000  0.50900000  1.0 -0.1711337632
C  C101  1  0.94900000  0.45800000  0.81500000  1.0 -0.1711337632
C  C102  1  0.13400000  0.18500000  0.64300000  1.0 -0.1711337632
C  C103  1  0.86600000  0.50900000  0.05100000  1.0 -0.1711337632
C  C104  1  0.45800000  0.81500000  0.94900000  1.0 -0.1711337632
C  C105  1  0.54200000  0.49100000  0.35700000  1.0 -0.1711337632
C  C106  1  0.64300000  0.13400000  0.18500000  1.0 -0.1711337632
C  C107  1  0.35700000  0.54200000  0.49100000  1.0 -0.1711337632
C  C108  1  0.50900000  0.05100000  0.86600000  1.0 -0.1711337632
C  C109  1  0.50900000  0.64300000  0.45800000  1.0 -0.1711337632
C  C110  1  0.18500000  0.05100000  0.54200000  1.0 -0.1711337632
C  C111  1  0.81500000  0.35700000  0.86600000  1.0 -0.1711337632
C  C112  1  0.94900000  0.13400000  0.49100000  1.0 -0.1711337632
C  C113  1  0.05100000  0.54200000  0.18500000  1.0 -0.1711337632
C  C114  1  0.86600000  0.81500000  0.35700000  1.0 -0.1711337632
C  C115  1  0.13400000  0.49100000  0.94900000  1.0 -0.1711337632
C  C116  1  0.54200000  0.18500000  0.05100000  1.0 -0.1711337632
C  C117  1  0.45800000  0.50900000  0.64300000  1.0 -0.1711337632
C  C118  1  0.35700000  0.86600000  0.81500000  1.0 -0.1711337632
C  C119  1  0.64300000  0.45800000  0.50900000  1.0 -0.1711337632
C  C120  1  0.49100000  0.94900000  0.13400000  1.0 -0.1711337632
C  C121  1  0.46600000  0.34000000  0.47200000  1.0 0.0003607398
C  C122  1  0.86800000  0.99400000  0.52800000  1.0 0.0003607398
C  C123  1  0.13200000  0.66000000  0.12600000  1.0 0.0003607398
C  C124  1  0.00600000  0.87400000  0.53400000  1.0 0.0003607398
C  C125  1  0.99400000  0.52800000  0.86800000  1.0 0.0003607398
C  C126  1  0.12600000  0.13200000  0.66000000  1.0 0.0003607398
C  C127  1  0.87400000  0.53400000  0.00600000  1.0 0.0003607398
C  C128  1  0.52800000  0.86800000  0.99400000  1.0 0.0003607398
C  C129  1  0.47200000  0.46600000  0.34000000  1.0 0.0003607398
C  C130  1  0.66000000  0.12600000  0.13200000  1.0 0.0003607398
C  C131  1  0.34000000  0.47200000  0.46600000  1.0 0.0003607398
C  C132  1  0.53400000  0.00600000  0.87400000  1.0 0.0003607398
C  C133  1  0.53400000  0.66000000  0.52800000  1.0 0.0003607398
C  C134  1  0.13200000  0.00600000  0.47200000  1.0 0.0003607398
C  C135  1  0.86800000  0.34000000  0.87400000  1.0 0.0003607398
C  C136  1  0.99400000  0.12600000  0.46600000  1.0 0.0003607398
C  C137  1  0.00600000  0.47200000  0.13200000  1.0 0.0003607398
C  C138  1  0.87400000  0.86800000  0.34000000  1.0 0.0003607398
C  C139  1  0.12600000  0.46600000  0.99400000  1.0 0.0003607398
C  C140  1  0.47200000  0.13200000  0.00600000  1.0 0.0003607398
C  C141  1  0.52800000  0.53400000  0.66000000  1.0 0.0003607398
C  C142  1  0.34000000  0.87400000  0.86800000  1.0 0.0003607398
C  C143  1  0.66000000  0.52800000  0.53400000  1.0 0.0003607398
C  C144  1  0.46600000  0.99400000  0.12600000  1.0 0.0003607398
C  C145  1  0.50600000  0.31200000  0.56200000  1.0 -0.1024770057
C  C146  1  0.75000000  0.94400000  0.43800000  1.0 -0.1024770057
C  C147  1  0.25000000  0.68800000  0.19400000  1.0 -0.1024770057
C  C148  1  0.05600000  0.80600000  0.49400000  1.0 -0.1024770057
C  C149  1  0.94400000  0.43800000  0.75000000  1.0 -0.1024770057
C  C150  1  0.19400000  0.25000000  0.68800000  1.0 -0.1024770057
C  C151  1  0.80600000  0.49400000  0.05600000  1.0 -0.1024770057
C  C152  1  0.43800000  0.75000000  0.94400000  1.0 -0.1024770057
C  C153  1  0.56200000  0.50600000  0.31200000  1.0 -0.1024770057
C  C154  1  0.68800000  0.19400000  0.25000000  1.0 -0.1024770057
C  C155  1  0.31200000  0.56200000  0.50600000  1.0 -0.1024770057
C  C156  1  0.49400000  0.05600000  0.80600000  1.0 -0.1024770057
C  C157  1  0.49400000  0.68800000  0.43800000  1.0 -0.1024770057
C  C158  1  0.25000000  0.05600000  0.56200000  1.0 -0.1024770057
C  C159  1  0.75000000  0.31200000  0.80600000  1.0 -0.1024770057
C  C160  1  0.94400000  0.19400000  0.50600000  1.0 -0.1024770057
C  C161  1  0.05600000  0.56200000  0.25000000  1.0 -0.1024770057
C  C162  1  0.80600000  0.75000000  0.31200000  1.0 -0.1024770057
C  C163  1  0.19400000  0.50600000  0.94400000  1.0 -0.1024770057
C  C164  1  0.56200000  0.25000000  0.05600000  1.0 -0.1024770057
C  C165  1  0.43800000  0.49400000  0.68800000  1.0 -0.1024770057
C  C166  1  0.31200000  0.80600000  0.75000000  1.0 -0.1024770057
C  C167  1  0.68800000  0.43800000  0.49400000  1.0 -0.1024770057
C  C168  1  0.50600000  0.94400000  0.19400000  1.0 -0.1024770057
C  C169  1  0.45700000  0.28000000  0.42500000  1.0 0.0796886038
C  C170  1  0.85500000  0.03200000  0.57500000  1.0 0.0796886038
C  C171  1  0.14500000  0.72000000  0.17700000  1.0 0.0796886038
C  C172  1  0.96800000  0.82300000  0.54300000  1.0 0.0796886038
C  C173  1  0.03200000  0.57500000  0.85500000  1.0 0.0796886038
C  C174  1  0.17700000  0.14500000  0.72000000  1.0 0.0796886038
C  C175  1  0.82300000  0.54300000  0.96800000  1.0 0.0796886038
C  C176  1  0.57500000  0.85500000  0.03200000  1.0 0.0796886038
C  C177  1  0.42500000  0.45700000  0.28000000  1.0 0.0796886038
C  C178  1  0.72000000  0.17700000  0.14500000  1.0 0.0796886038
C  C179  1  0.28000000  0.42500000  0.45700000  1.0 0.0796886038
C  C180  1  0.54300000  0.96800000  0.82300000  1.0 0.0796886038
C  C181  1  0.54300000  0.72000000  0.57500000  1.0 0.0796886038
C  C182  1  0.14500000  0.96800000  0.42500000  1.0 0.0796886038
C  C183  1  0.85500000  0.28000000  0.82300000  1.0 0.0796886038
C  C184  1  0.03200000  0.17700000  0.45700000  1.0 0.0796886038
C  C185  1  0.96800000  0.42500000  0.14500000  1.0 0.0796886038
C  C186  1  0.82300000  0.85500000  0.28000000  1.0 0.0796886038
C  C187  1  0.17700000  0.45700000  0.03200000  1.0 0.0796886038
C  C188  1  0.42500000  0.14500000  0.96800000  1.0 0.0796886038
C  C189  1  0.57500000  0.54300000  0.72000000  1.0 0.0796886038
C  C190  1  0.28000000  0.82300000  0.85500000  1.0 0.0796886038
C  C191  1  0.72000000  0.57500000  0.54300000  1.0 0.0796886038
C  C192  1  0.45700000  0.03200000  0.17700000  1.0 0.0796886038
C  C193  1  0.47200000  0.23600000  0.44600000  1.0 -0.1383962995
C  C194  1  0.79000000  0.02600000  0.55400000  1.0 -0.1383962995
C  C195  1  0.21000000  0.76400000  0.23600000  1.0 -0.1383962995
C  C196  1  0.97400000  0.76400000  0.52800000  1.0 -0.1383962995
C  C197  1  0.02600000  0.55400000  0.79000000  1.0 -0.1383962995
C  C198  1  0.23600000  0.21000000  0.76400000  1.0 -0.1383962995
C  C199  1  0.76400000  0.52800000  0.97400000  1.0 -0.1383962995
C  C200  1  0.55400000  0.79000000  0.02600000  1.0 -0.1383962995
C  C201  1  0.44600000  0.47200000  0.23600000  1.0 -0.1383962995
C  C202  1  0.76400000  0.23600000  0.21000000  1.0 -0.1383962995
C  C203  1  0.23600000  0.44600000  0.47200000  1.0 -0.1383962995
C  C204  1  0.52800000  0.97400000  0.76400000  1.0 -0.1383962995
C  C205  1  0.52800000  0.76400000  0.55400000  1.0 -0.1383962995
C  C206  1  0.21000000  0.97400000  0.44600000  1.0 -0.1383962995
C  C207  1  0.79000000  0.23600000  0.76400000  1.0 -0.1383962995
C  C208  1  0.02600000  0.23600000  0.47200000  1.0 -0.1383962995
C  C209  1  0.97400000  0.44600000  0.21000000  1.0 -0.1383962995
C  C210  1  0.76400000  0.79000000  0.23600000  1.0 -0.1383962995
C  C211  1  0.23600000  0.47200000  0.02600000  1.0 -0.1383962995
C  C212  1  0.44600000  0.21000000  0.97400000  1.0 -0.1383962995
C  C213  1  0.55400000  0.52800000  0.76400000  1.0 -0.1383962995
C  C214  1  0.23600000  0.76400000  0.79000000  1.0 -0.1383962995
C  C215  1  0.76400000  0.55400000  0.52800000  1.0 -0.1383962995
C  C216  1  0.47200000  0.02600000  0.23600000  1.0 -0.1383962995
C  C217  1  0.43100000  0.26200000  0.35100000  1.0 -0.4136626811
C  C218  1  0.91100000  0.08000000  0.64900000  1.0 -0.4136626811
C  C219  1  0.08900000  0.73800000  0.16900000  1.0 -0.4136626811
C  C220  1  0.92000000  0.83100000  0.56900000  1.0 -0.4136626811
C  C221  1  0.08000000  0.64900000  0.91100000  1.0 -0.4136626811
C  C222  1  0.16900000  0.08900000  0.73800000  1.0 -0.4136626811
C  C223  1  0.83100000  0.56900000  0.92000000  1.0 -0.4136626811
C  C224  1  0.64900000  0.91100000  0.08000000  1.0 -0.4136626811
C  C225  1  0.35100000  0.43100000  0.26200000  1.0 -0.4136626811
C  C226  1  0.73800000  0.16900000  0.08900000  1.0 -0.4136626811
C  C227  1  0.26200000  0.35100000  0.43100000  1.0 -0.4136626811
C  C228  1  0.56900000  0.92000000  0.83100000  1.0 -0.4136626811
C  C229  1  0.56900000  0.73800000  0.64900000  1.0 -0.4136626811
C  C230  1  0.08900000  0.92000000  0.35100000  1.0 -0.4136626811
C  C231  1  0.91100000  0.26200000  0.83100000  1.0 -0.4136626811
C  C232  1  0.08000000  0.16900000  0.43100000  1.0 -0.4136626811
C  C233  1  0.92000000  0.35100000  0.08900000  1.0 -0.4136626811
C  C234  1  0.83100000  0.91100000  0.26200000  1.0 -0.4136626811
C  C235  1  0.16900000  0.43100000  0.08000000  1.0 -0.4136626811
C  C236  1  0.35100000  0.08900000  0.92000000  1.0 -0.4136626811
C  C237  1  0.64900000  0.56900000  0.73800000  1.0 -0.4136626811
C  C238  1  0.26200000  0.83100000  0.91100000  1.0 -0.4136626811
C  C239  1  0.73800000  0.64900000  0.56900000  1.0 -0.4136626811
C  C240  1  0.43100000  0.08000000  0.16900000  1.0 -0.4136626811
O  O1  1  0.66700000  0.16700000  0.50000000  1.0 -0.5604769454
O  O2  1  0.33300000  0.83300000  0.50000000  1.0 -0.5604769454
O  O3  1  0.83300000  0.50000000  0.33300000  1.0 -0.5604769454
O  O4  1  0.16700000  0.50000000  0.66700000  1.0 -0.5604769454
O  O5  1  0.50000000  0.33300000  0.83300000  1.0 -0.5604769454
O  O6  1  0.50000000  0.66700000  0.16700000  1.0 -0.5604769454
O  O7  1  0.50000000  0.03700000  0.53700000  1.0 -0.7494341995
O  O8  1  0.50000000  0.96300000  0.46300000  1.0 -0.7494341995
O  O9  1  0.03700000  0.53700000  0.50000000  1.0 -0.7494341995
O  O10  1  0.96300000  0.46300000  0.50000000  1.0 -0.7494341995
O  O11  1  0.46300000  0.50000000  0.96300000  1.0 -0.7494341995
O  O12  1  0.53700000  0.50000000  0.03700000  1.0 -0.7494341995
O  O13  1  0.50000000  0.19800000  0.69800000  1.0 0.3715193504
O  O14  1  0.50000000  0.80200000  0.30200000  1.0 0.3715193504
O  O15  1  0.19800000  0.69800000  0.50000000  1.0 0.3715193504
O  O16  1  0.80200000  0.30200000  0.50000000  1.0 0.3715193504
O  O17  1  0.30200000  0.50000000  0.80200000  1.0 0.3715193504
O  O18  1  0.69800000  0.50000000  0.19800000  1.0 0.3715193504
O  O19  1  0.49830000  0.19450000  0.58080000  1.0 -0.579175002
O  O20  1  0.61370000  0.91750000  0.41920000  1.0 -0.579175002
O  O21  1  0.38630000  0.80550000  0.30380000  1.0 -0.579175002
O  O22  1  0.08250000  0.69620000  0.50170000  1.0 -0.579175002
O  O23  1  0.91750000  0.41920000  0.61370000  1.0 -0.579175002
O  O24  1  0.30380000  0.38630000  0.80550000  1.0 -0.579175002
O  O25  1  0.69620000  0.50170000  0.08250000  1.0 -0.579175002
O  O26  1  0.41920000  0.61370000  0.91750000  1.0 -0.579175002
O  O27  1  0.58080000  0.49830000  0.19450000  1.0 -0.579175002
O  O28  1  0.80550000  0.30380000  0.38630000  1.0 -0.579175002
O  O29  1  0.19450000  0.58080000  0.49830000  1.0 -0.579175002
O  O30  1  0.50170000  0.08250000  0.69620000  1.0 -0.579175002
O  O31  1  0.50170000  0.80550000  0.41920000  1.0 -0.579175002
O  O32  1  0.38630000  0.08250000  0.58080000  1.0 -0.579175002
O  O33  1  0.61370000  0.19450000  0.69620000  1.0 -0.579175002
O  O34  1  0.91750000  0.30380000  0.49830000  1.0 -0.579175002
O  O35  1  0.08250000  0.58080000  0.38630000  1.0 -0.579175002
O  O36  1  0.69620000  0.61370000  0.19450000  1.0 -0.579175002
O  O37  1  0.30380000  0.49830000  0.91750000  1.0 -0.579175002
O  O38  1  0.58080000  0.38630000  0.08250000  1.0 -0.579175002
O  O39  1  0.41920000  0.50170000  0.80550000  1.0 -0.579175002
O  O40  1  0.19450000  0.69620000  0.61370000  1.0 -0.579175002
O  O41  1  0.80550000  0.41920000  0.50170000  1.0 -0.579175002
O  O42  1  0.49830000  0.91750000  0.30380000  1.0 -0.579175002
O  O43  1  0.54280000  0.17590000  0.51170000  1.0 -0.5382784447
O  O44  1  0.66420000  0.03110000  0.48830000  1.0 -0.5382784447
O  O45  1  0.33580000  0.82410000  0.36690000  1.0 -0.5382784447
O  O46  1  0.96890000  0.63310000  0.45720000  1.0 -0.5382784447
O  O47  1  0.03110000  0.48830000  0.66420000  1.0 -0.5382784447
O  O48  1  0.36690000  0.33580000  0.82410000  1.0 -0.5382784447
O  O49  1  0.63310000  0.45720000  0.96890000  1.0 -0.5382784447
O  O50  1  0.48830000  0.66420000  0.03110000  1.0 -0.5382784447
O  O51  1  0.51170000  0.54280000  0.17590000  1.0 -0.5382784447
O  O52  1  0.82410000  0.36690000  0.33580000  1.0 -0.5382784447
O  O53  1  0.17590000  0.51170000  0.54280000  1.0 -0.5382784447
O  O54  1  0.45720000  0.96890000  0.63310000  1.0 -0.5382784447
O  O55  1  0.45720000  0.82410000  0.48830000  1.0 -0.5382784447
O  O56  1  0.33580000  0.96890000  0.51170000  1.0 -0.5382784447
O  O57  1  0.66420000  0.17590000  0.63310000  1.0 -0.5382784447
O  O58  1  0.03110000  0.36690000  0.54280000  1.0 -0.5382784447
O  O59  1  0.96890000  0.51170000  0.33580000  1.0 -0.5382784447
O  O60  1  0.63310000  0.66420000  0.17590000  1.0 -0.5382784447
O  O61  1  0.36690000  0.54280000  0.03110000  1.0 -0.5382784447
O  O62  1  0.51170000  0.33580000  0.96890000  1.0 -0.5382784447
O  O63  1  0.48830000  0.45720000  0.82410000  1.0 -0.5382784447
O  O64  1  0.17590000  0.63310000  0.66420000  1.0 -0.5382784447
O  O65  1  0.82410000  0.48830000  0.45720000  1.0 -0.5382784447
O  O66  1  0.54280000  0.03110000  0.36690000  1.0 -0.5382784447
