# DDEC6 charges by PACMAN v1.1 (https://github.com/mtap-research/PACMAN-charge/)
data_XIWQAZ_ASR_pacman
_symmetry_space_group_name_H-M   'P 1'
_cell_length_a   22.86570000
_cell_length_b   22.86570000
_cell_length_c   22.86570000
_cell_angle_alpha   109.47100000
_cell_angle_beta   109.47100000
_cell_angle_gamma   109.47100000
_symmetry_Int_Tables_number   1
_chemical_formula_structural   CaTiH20C36O13
_chemical_formula_sum   'Ca6 Ti6 H120 C216 O78'
_cell_volume   9203.12160273
_cell_formula_units_Z   6
loop_
 _symmetry_equiv_pos_site_id
 _symmetry_equiv_pos_as_xyz
  1  'x, y, z'
loop_
 _atom_site_type_symbol
 _atom_site_label
 _atom_site_symmetry_multiplicity
 _atom_site_fract_x
 _atom_site_fract_y
 _atom_site_fract_z
 _atom_site_occupancy
 _atom_site_charge
Ca  Ca1  1  0.56940000  0.06940000  0.50000000  1.0 1.5158172695
Ca  Ca2  1  0.43060000  0.93060000  0.50000000  1.0 1.5148097126
Ca  Ca3  1  0.93060000  0.50000000  0.43060000  1.0 1.5158172695
Ca  Ca4  1  0.06940000  0.50000000  0.56940000  1.0 1.5148097126
Ca  Ca5  1  0.50000000  0.43060000  0.93060000  1.0 1.5158172695
Ca  Ca6  1  0.50000000  0.56940000  0.06940000  1.0 1.5148097126
Ti  Ti1  1  0.50000000  0.11760000  0.61760000  1.0 1.9680133311
Ti  Ti2  1  0.50000000  0.88240000  0.38240000  1.0 1.9680133311
Ti  Ti3  1  0.11760000  0.61760000  0.50000000  1.0 1.9680133311
Ti  Ti4  1  0.88240000  0.38240000  0.50000000  1.0 1.9680133311
Ti  Ti5  1  0.38240000  0.50000000  0.88240000  1.0 1.9680133311
Ti  Ti6  1  0.61760000  0.50000000  0.11760000  1.0 1.9680133311
H  H1  1  0.33351000  0.32780000  0.47569000  1.0 0.3483851712
H  H2  1  0.85211000  0.85782000  0.52431000  1.0 0.3483851712
H  H3  1  0.14789000  0.67220000  0.00571000  1.0 0.3483851712
H  H4  1  0.14218000  0.99429000  0.66649000  1.0 0.3483851712
H  H5  1  0.85782000  0.52431000  0.85211000  1.0 0.3483851712
H  H6  1  0.00571000  0.14789000  0.67220000  1.0 0.3483851712
H  H7  1  0.99429000  0.66649000  0.14218000  1.0 0.3483851712
H  H8  1  0.52431000  0.85211000  0.85782000  1.0 0.3483851712
H  H9  1  0.47569000  0.33351000  0.32780000  1.0 0.3483851712
H  H10  1  0.67220000  0.00571000  0.14789000  1.0 0.3483851712
H  H11  1  0.32780000  0.47569000  0.33351000  1.0 0.3483851712
H  H12  1  0.66649000  0.14218000  0.99429000  1.0 0.3483851712
H  H13  1  0.66649000  0.67220000  0.52431000  1.0 0.3483851712
H  H14  1  0.14789000  0.14218000  0.47569000  1.0 0.3483851712
H  H15  1  0.85211000  0.32780000  0.99429000  1.0 0.3483851712
H  H16  1  0.85782000  0.00571000  0.33351000  1.0 0.3483851712
H  H17  1  0.14218000  0.47569000  0.14789000  1.0 0.3483851712
H  H18  1  0.99429000  0.85211000  0.32780000  1.0 0.3483851712
H  H19  1  0.00571000  0.33351000  0.85782000  1.0 0.3483851712
H  H20  1  0.47569000  0.14789000  0.14218000  1.0 0.3483851712
H  H21  1  0.52431000  0.66649000  0.67220000  1.0 0.3483851712
H  H22  1  0.32780000  0.99429000  0.85211000  1.0 0.3483851712
H  H23  1  0.67220000  0.52431000  0.66649000  1.0 0.3483851712
H  H24  1  0.33351000  0.85782000  0.00571000  1.0 0.3483851712
H  H25  1  0.45179000  0.36449000  0.55538000  1.0 0.1207910584
H  H26  1  0.80911000  0.89641000  0.44462000  1.0 0.1207910584
H  H27  1  0.19089000  0.63551000  0.08730000  1.0 0.1207910584
H  H28  1  0.10359000  0.91270000  0.54821000  1.0 0.1207910584
H  H29  1  0.89641000  0.44462000  0.80911000  1.0 0.1207910584
H  H30  1  0.08730000  0.19089000  0.63551000  1.0 0.1207910584
H  H31  1  0.91270000  0.54821000  0.10359000  1.0 0.1207910584
H  H32  1  0.44462000  0.80911000  0.89641000  1.0 0.1207910584
H  H33  1  0.55538000  0.45179000  0.36449000  1.0 0.1207910584
H  H34  1  0.63551000  0.08730000  0.19089000  1.0 0.1207910584
H  H35  1  0.36449000  0.55538000  0.45179000  1.0 0.1207910584
H  H36  1  0.54821000  0.10359000  0.91270000  1.0 0.1207910584
H  H37  1  0.54821000  0.63551000  0.44462000  1.0 0.1207910584
H  H38  1  0.19089000  0.10359000  0.55538000  1.0 0.1207910584
H  H39  1  0.80911000  0.36449000  0.91270000  1.0 0.1207910584
H  H40  1  0.89641000  0.08730000  0.45179000  1.0 0.1207910584
H  H41  1  0.10359000  0.55538000  0.19089000  1.0 0.1207910584
H  H42  1  0.91270000  0.80911000  0.36449000  1.0 0.1207910584
H  H43  1  0.08730000  0.45179000  0.89641000  1.0 0.1207910584
H  H44  1  0.55538000  0.19089000  0.10359000  1.0 0.1207910584
H  H45  1  0.44462000  0.54821000  0.63551000  1.0 0.1207910584
H  H46  1  0.36449000  0.91270000  0.80911000  1.0 0.1207910584
H  H47  1  0.63551000  0.44462000  0.54821000  1.0 0.1207910584
H  H48  1  0.45179000  0.89641000  0.08730000  1.0 0.1207910584
H  H49  1  0.47852000  0.28900000  0.59120000  1.0 0.1207910584
H  H50  1  0.69780000  0.88732000  0.40880000  1.0 0.1207910584
H  H51  1  0.30220000  0.71100000  0.18952000  1.0 0.1207910584
H  H52  1  0.11268000  0.81048000  0.52148000  1.0 0.1207910584
H  H53  1  0.88732000  0.40880000  0.69780000  1.0 0.1207910584
H  H54  1  0.18952000  0.30220000  0.71100000  1.0 0.1207910584
H  H55  1  0.81048000  0.52148000  0.11268000  1.0 0.1207910584
H  H56  1  0.40880000  0.69780000  0.88732000  1.0 0.1207910584
H  H57  1  0.59120000  0.47852000  0.28900000  1.0 0.1207910584
H  H58  1  0.71100000  0.18952000  0.30220000  1.0 0.1207910584
H  H59  1  0.28900000  0.59120000  0.47852000  1.0 0.1207910584
H  H60  1  0.52148000  0.11268000  0.81048000  1.0 0.1207910584
H  H61  1  0.52148000  0.71100000  0.40880000  1.0 0.1207910584
H  H62  1  0.30220000  0.11268000  0.59120000  1.0 0.1207910584
H  H63  1  0.69780000  0.28900000  0.81048000  1.0 0.1207910584
H  H64  1  0.88732000  0.18952000  0.47852000  1.0 0.1207910584
H  H65  1  0.11268000  0.59120000  0.30220000  1.0 0.1207910584
H  H66  1  0.81048000  0.69780000  0.28900000  1.0 0.1207910584
H  H67  1  0.18952000  0.47852000  0.88732000  1.0 0.1207910584
H  H68  1  0.59120000  0.30220000  0.11268000  1.0 0.1207910584
H  H69  1  0.40880000  0.52148000  0.71100000  1.0 0.1207910584
H  H70  1  0.28900000  0.81048000  0.69780000  1.0 0.1207910584
H  H71  1  0.71100000  0.40880000  0.52148000  1.0 0.1207910584
H  H72  1  0.47852000  0.88732000  0.18952000  1.0 0.1207910584
H  H73  1  0.46459000  0.27517000  0.38032000  1.0 0.1207910584
H  H74  1  0.89485000  0.08427000  0.61968000  1.0 0.1207910584
H  H75  1  0.10515000  0.72483000  0.18942000  1.0 0.1207910584
H  H76  1  0.91573000  0.81058000  0.53541000  1.0 0.1207910584
H  H77  1  0.08427000  0.61968000  0.89485000  1.0 0.1207910584
H  H78  1  0.18942000  0.10515000  0.72483000  1.0 0.1207910584
H  H79  1  0.81058000  0.53541000  0.91573000  1.0 0.1207910584
H  H80  1  0.61968000  0.89485000  0.08427000  1.0 0.1207910584
H  H81  1  0.38032000  0.46459000  0.27517000  1.0 0.1207910584
H  H82  1  0.72483000  0.18942000  0.10515000  1.0 0.1207910584
H  H83  1  0.27517000  0.38032000  0.46459000  1.0 0.1207910584
H  H84  1  0.53541000  0.91573000  0.81058000  1.0 0.1207910584
H  H85  1  0.53541000  0.72483000  0.61968000  1.0 0.1207910584
H  H86  1  0.10515000  0.91573000  0.38032000  1.0 0.1207910584
H  H87  1  0.89485000  0.27517000  0.81058000  1.0 0.1207910584
H  H88  1  0.08427000  0.18942000  0.46459000  1.0 0.1207910584
H  H89  1  0.91573000  0.38032000  0.10515000  1.0 0.1207910584
H  H90  1  0.81058000  0.89485000  0.27517000  1.0 0.1207910584
H  H91  1  0.18942000  0.46459000  0.08427000  1.0 0.1207910584
H  H92  1  0.38032000  0.10515000  0.91573000  1.0 0.1207910584
H  H93  1  0.61968000  0.53541000  0.72483000  1.0 0.1207910584
H  H94  1  0.27517000  0.81058000  0.89485000  1.0 0.1207910584
H  H95  1  0.72483000  0.61968000  0.53541000  1.0 0.1207910584
H  H96  1  0.46459000  0.08427000  0.18942000  1.0 0.1207910584
H  H97  1  0.49131000  0.19967000  0.41614000  1.0 0.1207910584
H  H98  1  0.78353000  0.07517000  0.58386000  1.0 0.1207910584
H  H99  1  0.21647000  0.80033000  0.29164000  1.0 0.1207910584
H  H100  1  0.92483000  0.70836000  0.50869000  1.0 0.1207910584
H  H101  1  0.07517000  0.58386000  0.78353000  1.0 0.1207910584
H  H102  1  0.29164000  0.21647000  0.80033000  1.0 0.1207910584
H  H103  1  0.70836000  0.50869000  0.92483000  1.0 0.1207910584
H  H104  1  0.58386000  0.78353000  0.07517000  1.0 0.1207910584
H  H105  1  0.41614000  0.49131000  0.19967000  1.0 0.1207910584
H  H106  1  0.80033000  0.29164000  0.21647000  1.0 0.1207910584
H  H107  1  0.19967000  0.41614000  0.49131000  1.0 0.1207910584
H  H108  1  0.50869000  0.92483000  0.70836000  1.0 0.1207910584
H  H109  1  0.50869000  0.80033000  0.58386000  1.0 0.1207910584
H  H110  1  0.21647000  0.92483000  0.41614000  1.0 0.1207910584
H  H111  1  0.78353000  0.19967000  0.70836000  1.0 0.1207910584
H  H112  1  0.07517000  0.29164000  0.49131000  1.0 0.1207910584
H  H113  1  0.92483000  0.41614000  0.21647000  1.0 0.1207910584
H  H114  1  0.70836000  0.78353000  0.19967000  1.0 0.1207910584
H  H115  1  0.29164000  0.49131000  0.07517000  1.0 0.1207910584
H  H116  1  0.41614000  0.21647000  0.92483000  1.0 0.1207910584
H  H117  1  0.58386000  0.50869000  0.80033000  1.0 0.1207910584
H  H118  1  0.19967000  0.70836000  0.78353000  1.0 0.1207910584
H  H119  1  0.80033000  0.58386000  0.50869000  1.0 0.1207910584
H  H120  1  0.49131000  0.07517000  0.29164000  1.0 0.1207910584
C  C1  1  0.50400000  0.19000000  0.53000000  1.0 0.6053431972
C  C2  1  0.66000000  0.97400000  0.47000000  1.0 0.6053431972
C  C3  1  0.34000000  0.81000000  0.31400000  1.0 0.6053431972
C  C4  1  0.02600000  0.68600000  0.49600000  1.0 0.6053431972
C  C5  1  0.97400000  0.47000000  0.66000000  1.0 0.6053431972
C  C6  1  0.31400000  0.34000000  0.81000000  1.0 0.6053431972
C  C7  1  0.68600000  0.49600000  0.02600000  1.0 0.6053431972
C  C8  1  0.47000000  0.66000000  0.97400000  1.0 0.6053431972
C  C9  1  0.53000000  0.50400000  0.19000000  1.0 0.6053431972
C  C10  1  0.81000000  0.31400000  0.34000000  1.0 0.6053431972
C  C11  1  0.19000000  0.53000000  0.50400000  1.0 0.6053431972
C  C12  1  0.49600000  0.02600000  0.68600000  1.0 0.6053431972
C  C13  1  0.49600000  0.81000000  0.47000000  1.0 0.6053431972
C  C14  1  0.34000000  0.02600000  0.53000000  1.0 0.6053431972
C  C15  1  0.66000000  0.19000000  0.68600000  1.0 0.6053431972
C  C16  1  0.97400000  0.31400000  0.50400000  1.0 0.6053431972
C  C17  1  0.02600000  0.53000000  0.34000000  1.0 0.6053431972
C  C18  1  0.68600000  0.66000000  0.19000000  1.0 0.6043302862
C  C19  1  0.31400000  0.50400000  0.97400000  1.0 0.6053431972
C  C20  1  0.53000000  0.34000000  0.02600000  1.0 0.6053431972
C  C21  1  0.47000000  0.49600000  0.81000000  1.0 0.6053431972
C  C22  1  0.19000000  0.68600000  0.66000000  1.0 0.6053431972
C  C23  1  0.81000000  0.47000000  0.49600000  1.0 0.6053431972
C  C24  1  0.50400000  0.97400000  0.31400000  1.0 0.6053431972
C  C25  1  0.48800000  0.23700000  0.50700000  1.0 -0.0711912637
C  C26  1  0.73000000  0.98100000  0.49300000  1.0 -0.0711912637
C  C27  1  0.27000000  0.76300000  0.25100000  1.0 -0.0711912637
C  C28  1  0.01900000  0.74900000  0.51200000  1.0 -0.0711912637
C  C29  1  0.98100000  0.49300000  0.73000000  1.0 -0.0711912637
C  C30  1  0.25100000  0.27000000  0.76300000  1.0 -0.0711912637
C  C31  1  0.74900000  0.51200000  0.01900000  1.0 -0.0711912637
C  C32  1  0.49300000  0.73000000  0.98100000  1.0 -0.0711912637
C  C33  1  0.50700000  0.48800000  0.23700000  1.0 -0.0711912637
C  C34  1  0.76300000  0.25100000  0.27000000  1.0 -0.0711912637
C  C35  1  0.23700000  0.50700000  0.48800000  1.0 -0.0711912637
C  C36  1  0.51200000  0.01900000  0.74900000  1.0 -0.0711912637
C  C37  1  0.51200000  0.76300000  0.49300000  1.0 -0.0711912637
C  C38  1  0.27000000  0.01900000  0.50700000  1.0 -0.0711912637
C  C39  1  0.73000000  0.23700000  0.74900000  1.0 -0.0711912637
C  C40  1  0.98100000  0.25100000  0.48800000  1.0 -0.0711912637
C  C41  1  0.01900000  0.50700000  0.27000000  1.0 -0.0711912637
C  C42  1  0.74900000  0.73000000  0.23700000  1.0 -0.0711912637
C  C43  1  0.25100000  0.48800000  0.98100000  1.0 -0.0711912637
C  C44  1  0.50700000  0.27000000  0.01900000  1.0 -0.0711912637
C  C45  1  0.49300000  0.51200000  0.76300000  1.0 -0.0711912637
C  C46  1  0.23700000  0.74900000  0.73000000  1.0 -0.0711912637
C  C47  1  0.76300000  0.49300000  0.51200000  1.0 -0.0711912637
C  C48  1  0.48800000  0.98100000  0.25100000  1.0 -0.0711912637
C  C49  1  0.43900000  0.37500000  0.44200000  1.0 -0.2255633882
C  C50  1  0.93300000  0.99700000  0.55800000  1.0 -0.2255633882
C  C51  1  0.06700000  0.62500000  0.06400000  1.0 -0.2255633882
C  C52  1  0.00300000  0.93600000  0.56100000  1.0 -0.2255633882
C  C53  1  0.99700000  0.55800000  0.93300000  1.0 -0.2255633882
C  C54  1  0.06400000  0.06700000  0.62500000  1.0 -0.2255633882
C  C55  1  0.93600000  0.56100000  0.00300000  1.0 -0.2255633882
C  C56  1  0.55800000  0.93300000  0.99700000  1.0 -0.2255633882
C  C57  1  0.44200000  0.43900000  0.37500000  1.0 -0.2255633882
C  C58  1  0.62500000  0.06400000  0.06700000  1.0 -0.2244263442
C  C59  1  0.37500000  0.44200000  0.43900000  1.0 -0.2255633882
C  C60  1  0.56100000  0.00300000  0.93600000  1.0 -0.2255633882
C  C61  1  0.56100000  0.62500000  0.55800000  1.0 -0.2244263442
C  C62  1  0.06700000  0.00300000  0.44200000  1.0 -0.2255633882
C  C63  1  0.93300000  0.37500000  0.93600000  1.0 -0.2255633882
C  C64  1  0.99700000  0.06400000  0.43900000  1.0 -0.2255633882
C  C65  1  0.00300000  0.44200000  0.06700000  1.0 -0.2255633882
C  C66  1  0.93600000  0.93300000  0.37500000  1.0 -0.2255633882
C  C67  1  0.06400000  0.43900000  0.99700000  1.0 -0.2255633882
C  C68  1  0.44200000  0.06700000  0.00300000  1.0 -0.2255633882
C  C69  1  0.55800000  0.56100000  0.62500000  1.0 -0.2255633882
C  C70  1  0.37500000  0.93600000  0.93300000  1.0 -0.2255633882
C  C71  1  0.62500000  0.55800000  0.56100000  1.0 -0.2255633882
C  C72  1  0.43900000  0.99700000  0.06400000  1.0 -0.2255633882
C  C73  1  0.39580000  0.39780000  0.46000000  1.0 0.2777923245
C  C74  1  0.93780000  0.93580000  0.54000000  1.0 0.2777923245
C  C75  1  0.06220000  0.60220000  0.99800000  1.0 0.2777923245
C  C76  1  0.06420000  0.00200000  0.60420000  1.0 0.2777923245
C  C77  1  0.93580000  0.54000000  0.93780000  1.0 0.2777923245
C  C78  1  0.99800000  0.06220000  0.60220000  1.0 0.2777923245
C  C79  1  0.00200000  0.60420000  0.06420000  1.0 0.2777923245
C  C80  1  0.54000000  0.93780000  0.93580000  1.0 0.2777923245
C  C81  1  0.46000000  0.39580000  0.39780000  1.0 0.2777923245
C  C82  1  0.60220000  0.99800000  0.06220000  1.0 0.2777923245
C  C83  1  0.39780000  0.46000000  0.39580000  1.0 0.2777923245
C  C84  1  0.60420000  0.06420000  0.00200000  1.0 0.2777923245
C  C85  1  0.60420000  0.60220000  0.54000000  1.0 0.2777923245
C  C86  1  0.06220000  0.06420000  0.46000000  1.0 0.2777923245
C  C87  1  0.93780000  0.39780000  0.00200000  1.0 0.2777923245
C  C88  1  0.93580000  0.99800000  0.39580000  1.0 0.2777923245
C  C89  1  0.06420000  0.46000000  0.06220000  1.0 0.2777923245
C  C90  1  0.00200000  0.93780000  0.39780000  1.0 0.2777923245
C  C91  1  0.99800000  0.39580000  0.93580000  1.0 0.2777923245
C  C92  1  0.46000000  0.06220000  0.06420000  1.0 0.2777923245
C  C93  1  0.54000000  0.60420000  0.60220000  1.0 0.2777923245
C  C94  1  0.39780000  0.00200000  0.93780000  1.0 0.2777923245
C  C95  1  0.60220000  0.54000000  0.60420000  1.0 0.2777923245
C  C96  1  0.39580000  0.93580000  0.99800000  1.0 0.2777923245
C  C97  1  0.46000000  0.33100000  0.52700000  1.0 -0.1795315701
C  C98  1  0.80400000  0.93300000  0.47300000  1.0 -0.1795315701
C  C99  1  0.19600000  0.66900000  0.12900000  1.0 -0.1795315701
C  C100  1  0.06700000  0.87100000  0.54000000  1.0 -0.1795315701
C  C101  1  0.93300000  0.47300000  0.80400000  1.0 -0.1795315701
C  C102  1  0.12900000  0.19600000  0.66900000  1.0 -0.1795315701
C  C103  1  0.87100000  0.54000000  0.06700000  1.0 -0.1795315701
C  C104  1  0.47300000  0.80400000  0.93300000  1.0 -0.1795315701
C  C105  1  0.52700000  0.46000000  0.33100000  1.0 -0.1795315701
C  C106  1  0.66900000  0.12900000  0.19600000  1.0 -0.1795315701
C  C107  1  0.33100000  0.52700000  0.46000000  1.0 -0.1795315701
C  C108  1  0.54000000  0.06700000  0.87100000  1.0 -0.1795315701
C  C109  1  0.54000000  0.66900000  0.47300000  1.0 -0.1795315701
C  C110  1  0.19600000  0.06700000  0.52700000  1.0 -0.1795315701
C  C111  1  0.80400000  0.33100000  0.87100000  1.0 -0.1795315701
C  C112  1  0.93300000  0.12900000  0.46000000  1.0 -0.1795315701
C  C113  1  0.06700000  0.52700000  0.19600000  1.0 -0.1795315701
C  C114  1  0.87100000  0.80400000  0.33100000  1.0 -0.1795315701
C  C115  1  0.12900000  0.46000000  0.93300000  1.0 -0.1795315701
C  C116  1  0.52700000  0.19600000  0.06700000  1.0 -0.1795315701
C  C117  1  0.47300000  0.54000000  0.66900000  1.0 -0.1795315701
C  C118  1  0.33100000  0.87100000  0.80400000  1.0 -0.1795315701
C  C119  1  0.66900000  0.47300000  0.54000000  1.0 -0.1795315701
C  C120  1  0.46000000  0.93300000  0.12900000  1.0 -0.1795315701
C  C121  1  0.45500000  0.32700000  0.46400000  1.0 0.128683195
C  C122  1  0.86300000  0.99100000  0.53600000  1.0 0.128683195
C  C123  1  0.13700000  0.67300000  0.12800000  1.0 0.128683195
C  C124  1  0.00900000  0.87200000  0.54500000  1.0 0.128683195
C  C125  1  0.99100000  0.53600000  0.86300000  1.0 0.128683195
C  C126  1  0.12800000  0.13700000  0.67300000  1.0 0.128683195
C  C127  1  0.87200000  0.54500000  0.00900000  1.0 0.128683195
C  C128  1  0.53600000  0.86300000  0.99100000  1.0 0.128683195
C  C129  1  0.46400000  0.45500000  0.32700000  1.0 0.128683195
C  C130  1  0.67300000  0.12800000  0.13700000  1.0 0.128683195
C  C131  1  0.32700000  0.46400000  0.45500000  1.0 0.128683195
C  C132  1  0.54500000  0.00900000  0.87200000  1.0 0.128683195
C  C133  1  0.54500000  0.67300000  0.53600000  1.0 0.128683195
C  C134  1  0.13700000  0.00900000  0.46400000  1.0 0.128683195
C  C135  1  0.86300000  0.32700000  0.87200000  1.0 0.128683195
C  C136  1  0.99100000  0.12800000  0.45500000  1.0 0.128683195
C  C137  1  0.00900000  0.46400000  0.13700000  1.0 0.128683195
C  C138  1  0.87200000  0.86300000  0.32700000  1.0 0.128683195
C  C139  1  0.12800000  0.45500000  0.99100000  1.0 0.128683195
C  C140  1  0.46400000  0.13700000  0.00900000  1.0 0.128683195
C  C141  1  0.53600000  0.54500000  0.67300000  1.0 0.128683195
C  C142  1  0.32700000  0.87200000  0.86300000  1.0 0.128683195
C  C143  1  0.67300000  0.53600000  0.54500000  1.0 0.128683195
C  C144  1  0.45500000  0.99100000  0.12800000  1.0 0.128683195
C  C145  1  0.47600000  0.28700000  0.54900000  1.0 -0.0711912637
C  C146  1  0.73800000  0.92700000  0.45100000  1.0 -0.0711912637
C  C147  1  0.26200000  0.71300000  0.18900000  1.0 -0.0711912637
C  C148  1  0.07300000  0.81100000  0.52400000  1.0 -0.0711912637
C  C149  1  0.92700000  0.45100000  0.73800000  1.0 -0.0711912637
C  C150  1  0.18900000  0.26200000  0.71300000  1.0 -0.0711912637
C  C151  1  0.81100000  0.52400000  0.07300000  1.0 -0.0711912637
C  C152  1  0.45100000  0.73800000  0.92700000  1.0 -0.0711912637
C  C153  1  0.54900000  0.47600000  0.28700000  1.0 -0.0711912637
C  C154  1  0.71300000  0.18900000  0.26200000  1.0 -0.0711912637
C  C155  1  0.28700000  0.54900000  0.47600000  1.0 -0.0711912637
C  C156  1  0.52400000  0.07300000  0.81100000  1.0 -0.0711912637
C  C157  1  0.52400000  0.71300000  0.45100000  1.0 -0.0711912637
C  C158  1  0.26200000  0.07300000  0.54900000  1.0 -0.0711912637
C  C159  1  0.73800000  0.28700000  0.81100000  1.0 -0.0711912637
C  C160  1  0.92700000  0.18900000  0.47600000  1.0 -0.0711912637
C  C161  1  0.07300000  0.54900000  0.26200000  1.0 -0.0711912637
C  C162  1  0.81100000  0.73800000  0.28700000  1.0 -0.0711912637
C  C163  1  0.18900000  0.47600000  0.92700000  1.0 -0.0711912637
C  C164  1  0.54900000  0.26200000  0.07300000  1.0 -0.0711912637
C  C165  1  0.45100000  0.52400000  0.71300000  1.0 -0.0711912637
C  C166  1  0.28700000  0.81100000  0.73800000  1.0 -0.0711912637
C  C167  1  0.71300000  0.45100000  0.52400000  1.0 -0.0711912637
C  C168  1  0.47600000  0.92700000  0.18900000  1.0 -0.0711912637
C  C169  1  0.46700000  0.27800000  0.42300000  1.0 -0.1632467994
C  C170  1  0.85500000  0.04400000  0.57700000  1.0 -0.1632467994
C  C171  1  0.14500000  0.72200000  0.18900000  1.0 -0.1632467994
C  C172  1  0.95600000  0.81100000  0.53300000  1.0 -0.1632467994
C  C173  1  0.04400000  0.57700000  0.85500000  1.0 -0.1632467994
C  C174  1  0.18900000  0.14500000  0.72200000  1.0 -0.1632467994
C  C175  1  0.81100000  0.53300000  0.95600000  1.0 -0.1632467994
C  C176  1  0.57700000  0.85500000  0.04400000  1.0 -0.1632467994
C  C177  1  0.42300000  0.46700000  0.27800000  1.0 -0.1632467994
C  C178  1  0.72200000  0.18900000  0.14500000  1.0 -0.1632467994
C  C179  1  0.27800000  0.42300000  0.46700000  1.0 -0.1632467994
C  C180  1  0.53300000  0.95600000  0.81100000  1.0 -0.1632467994
C  C181  1  0.53300000  0.72200000  0.57700000  1.0 -0.1632467994
C  C182  1  0.14500000  0.95600000  0.42300000  1.0 -0.1632467994
C  C183  1  0.85500000  0.27800000  0.81100000  1.0 -0.1632467994
C  C184  1  0.04400000  0.18900000  0.46700000  1.0 -0.1632467994
C  C185  1  0.95600000  0.42300000  0.14500000  1.0 -0.1632467994
C  C186  1  0.81100000  0.85500000  0.27800000  1.0 -0.1632467994
C  C187  1  0.18900000  0.46700000  0.04400000  1.0 -0.1632467994
C  C188  1  0.42300000  0.14500000  0.95600000  1.0 -0.1632467994
C  C189  1  0.57700000  0.53300000  0.72200000  1.0 -0.1632467994
C  C190  1  0.27800000  0.81100000  0.85500000  1.0 -0.1632467994
C  C191  1  0.72200000  0.57700000  0.53300000  1.0 -0.1632467994
C  C192  1  0.46700000  0.04400000  0.18900000  1.0 -0.1632467994
C  C193  1  0.48300000  0.23300000  0.44400000  1.0 -0.0821422247
C  C194  1  0.78900000  0.03900000  0.55600000  1.0 -0.0821422247
C  C195  1  0.21100000  0.76700000  0.25000000  1.0 -0.0821422247
C  C196  1  0.96100000  0.75000000  0.51700000  1.0 -0.0821422247
C  C197  1  0.03900000  0.55600000  0.78900000  1.0 -0.0821422247
C  C198  1  0.25000000  0.21100000  0.76700000  1.0 -0.0821422247
C  C199  1  0.75000000  0.51700000  0.96100000  1.0 -0.0821422247
C  C200  1  0.55600000  0.78900000  0.03900000  1.0 -0.0821422247
C  C201  1  0.44400000  0.48300000  0.23300000  1.0 -0.0821422247
C  C202  1  0.76700000  0.25000000  0.21100000  1.0 -0.0821422247
C  C203  1  0.23300000  0.44400000  0.48300000  1.0 -0.0821422247
C  C204  1  0.51700000  0.96100000  0.75000000  1.0 -0.0821422247
C  C205  1  0.51700000  0.76700000  0.55600000  1.0 -0.0821422247
C  C206  1  0.21100000  0.96100000  0.44400000  1.0 -0.0821422247
C  C207  1  0.78900000  0.23300000  0.75000000  1.0 -0.0821422247
C  C208  1  0.03900000  0.25000000  0.48300000  1.0 -0.0821422247
C  C209  1  0.96100000  0.44400000  0.21100000  1.0 -0.0821422247
C  C210  1  0.75000000  0.78900000  0.23300000  1.0 -0.0821422247
C  C211  1  0.25000000  0.48300000  0.03900000  1.0 -0.0821422247
C  C212  1  0.44400000  0.21100000  0.96100000  1.0 -0.0821422247
C  C213  1  0.55600000  0.51700000  0.76700000  1.0 -0.0821422247
C  C214  1  0.23300000  0.75000000  0.78900000  1.0 -0.0821422247
C  C215  1  0.76700000  0.55600000  0.51700000  1.0 -0.0821422247
C  C216  1  0.48300000  0.03900000  0.25000000  1.0 -0.0821422247
O  O1  1  0.50000000  0.05300000  0.55300000  1.0 -1.0927449377
O  O2  1  0.50000000  0.94700000  0.44700000  1.0 -1.0927449377
O  O3  1  0.05300000  0.55300000  0.50000000  1.0 -1.0994868429
O  O4  1  0.94700000  0.44700000  0.50000000  1.0 -1.0927449377
O  O5  1  0.44700000  0.50000000  0.94700000  1.0 -1.0927449377
O  O6  1  0.55300000  0.50000000  0.05300000  1.0 -1.0927449377
O  O7  1  0.50150000  0.18910000  0.58380000  1.0 -0.6181620286
O  O8  1  0.60530000  0.91770000  0.41620000  1.0 -0.6181620286
O  O9  1  0.39470000  0.81090000  0.31240000  1.0 -0.6181620286
O  O10  1  0.08230000  0.68760000  0.49850000  1.0 -0.6181620286
O  O11  1  0.91770000  0.41620000  0.60530000  1.0 -0.6181620286
O  O12  1  0.31240000  0.39470000  0.81090000  1.0 -0.6181620286
O  O13  1  0.68760000  0.49850000  0.08230000  1.0 -0.6181620286
O  O14  1  0.41620000  0.60530000  0.91770000  1.0 -0.6181620286
O  O15  1  0.58380000  0.50150000  0.18910000  1.0 -0.6181620286
O  O16  1  0.81090000  0.31240000  0.39470000  1.0 -0.6181620286
O  O17  1  0.18910000  0.58380000  0.50150000  1.0 -0.6181620286
O  O18  1  0.49850000  0.08230000  0.68760000  1.0 -0.6181620286
O  O19  1  0.49850000  0.81090000  0.41620000  1.0 -0.6181620286
O  O20  1  0.39470000  0.08230000  0.58380000  1.0 -0.6181620286
O  O21  1  0.60530000  0.18910000  0.68760000  1.0 -0.6181620286
O  O22  1  0.91770000  0.31240000  0.50150000  1.0 -0.6181620286
O  O23  1  0.08230000  0.58380000  0.39470000  1.0 -0.6181620286
O  O24  1  0.68760000  0.60530000  0.18910000  1.0 -0.6181620286
O  O25  1  0.31240000  0.50150000  0.91770000  1.0 -0.6181620286
O  O26  1  0.58380000  0.39470000  0.08230000  1.0 -0.6181620286
O  O27  1  0.41620000  0.49850000  0.81090000  1.0 -0.6181620286
O  O28  1  0.18910000  0.68760000  0.60530000  1.0 -0.6181620286
O  O29  1  0.81090000  0.41620000  0.49850000  1.0 -0.6181620286
O  O30  1  0.50150000  0.91770000  0.31240000  1.0 -0.6181620286
O  O31  1  0.52160000  0.14930000  0.49490000  1.0 -0.6099240732
O  O32  1  0.65440000  0.02670000  0.50510000  1.0 -0.6099240732
O  O33  1  0.34560000  0.85070000  0.37230000  1.0 -0.6099240732
O  O34  1  0.97330000  0.62770000  0.47840000  1.0 -0.6099240732
O  O35  1  0.02670000  0.50510000  0.65440000  1.0 -0.6099240732
O  O36  1  0.37230000  0.34560000  0.85070000  1.0 -0.6099240732
O  O37  1  0.62770000  0.47840000  0.97330000  1.0 -0.6099240732
O  O38  1  0.50510000  0.65440000  0.02670000  1.0 -0.6099240732
O  O39  1  0.49490000  0.52160000  0.14930000  1.0 -0.6099240732
O  O40  1  0.85070000  0.37230000  0.34560000  1.0 -0.6099240732
O  O41  1  0.14930000  0.49490000  0.52160000  1.0 -0.6099240732
O  O42  1  0.47840000  0.97330000  0.62770000  1.0 -0.6099240732
O  O43  1  0.47840000  0.85070000  0.50510000  1.0 -0.6099240732
O  O44  1  0.34560000  0.97330000  0.49490000  1.0 -0.6099240732
O  O45  1  0.65440000  0.14930000  0.62770000  1.0 -0.6099240732
O  O46  1  0.02670000  0.37230000  0.52160000  1.0 -0.6099240732
O  O47  1  0.97330000  0.49490000  0.34560000  1.0 -0.6099240732
O  O48  1  0.62770000  0.65440000  0.14930000  1.0 -0.6099240732
O  O49  1  0.37230000  0.52160000  0.02670000  1.0 -0.6099240732
O  O50  1  0.49490000  0.34560000  0.97330000  1.0 -0.6099240732
O  O51  1  0.50510000  0.47840000  0.85070000  1.0 -0.6099240732
O  O52  1  0.14930000  0.62770000  0.65440000  1.0 -0.6099240732
O  O53  1  0.85070000  0.50510000  0.47840000  1.0 -0.6099240732
O  O54  1  0.52160000  0.02670000  0.37230000  1.0 -0.6099240732
O  O55  1  0.37000000  0.37700000  0.49700000  1.0 -0.4198326173
O  O56  1  0.88000000  0.87300000  0.50300000  1.0 -0.4198326173
O  O57  1  0.12000000  0.62300000  0.99300000  1.0 -0.4198326173
O  O58  1  0.12700000  0.00700000  0.63000000  1.0 -0.4198326173
O  O59  1  0.87300000  0.50300000  0.88000000  1.0 -0.4198326173
O  O60  1  0.99300000  0.12000000  0.62300000  1.0 -0.4198326173
O  O61  1  0.00700000  0.63000000  0.12700000  1.0 -0.4198326173
O  O62  1  0.50300000  0.88000000  0.87300000  1.0 -0.4198326173
O  O63  1  0.49700000  0.37000000  0.37700000  1.0 -0.4198326173
O  O64  1  0.62300000  0.99300000  0.12000000  1.0 -0.4198326173
O  O65  1  0.37700000  0.49700000  0.37000000  1.0 -0.4198326173
O  O66  1  0.63000000  0.12700000  0.00700000  1.0 -0.4198326173
O  O67  1  0.63000000  0.62300000  0.50300000  1.0 -0.4198326173
O  O68  1  0.12000000  0.12700000  0.49700000  1.0 -0.4198326173
O  O69  1  0.88000000  0.37700000  0.00700000  1.0 -0.4198326173
O  O70  1  0.87300000  0.99300000  0.37000000  1.0 -0.4198326173
O  O71  1  0.12700000  0.49700000  0.12000000  1.0 -0.4198326173
O  O72  1  0.00700000  0.88000000  0.37700000  1.0 -0.4198326173
O  O73  1  0.99300000  0.37000000  0.87300000  1.0 -0.4198326173
O  O74  1  0.49700000  0.12000000  0.12700000  1.0 -0.4198326173
O  O75  1  0.50300000  0.63000000  0.62300000  1.0 -0.4198326173
O  O76  1  0.37700000  0.00700000  0.88000000  1.0 -0.4198326173
O  O77  1  0.62300000  0.50300000  0.63000000  1.0 -0.4198326173
O  O78  1  0.37000000  0.87300000  0.99300000  1.0 -0.4198326173
