# DDEC6 charges by PACMAN v1.1 (https://github.com/mtap-research/PACMAN-charge/)
data_XIWQED_FSR_pacman
_symmetry_space_group_name_H-M   'P 1'
_cell_length_a   22.94980000
_cell_length_b   22.94980000
_cell_length_c   22.94980000
_cell_angle_alpha   109.47100000
_cell_angle_beta   109.47100000
_cell_angle_gamma   109.47100000
_symmetry_Int_Tables_number   1
_chemical_formula_structural   CaTiH36C44O13
_chemical_formula_sum   'Ca6 Ti6 H216 C264 O78'
_cell_volume   9305.04274091
_cell_formula_units_Z   6
loop_
 _symmetry_equiv_pos_site_id
 _symmetry_equiv_pos_as_xyz
  1  'x, y, z'
loop_
 _atom_site_type_symbol
 _atom_site_label
 _atom_site_symmetry_multiplicity
 _atom_site_fract_x
 _atom_site_fract_y
 _atom_site_fract_z
 _atom_site_occupancy
 _atom_site_charge
Ca  Ca1  1  0.57500000  0.07500000  0.50000000  1.0 1.4206774815
Ca  Ca2  1  0.42500000  0.92500000  0.50000000  1.0 1.4206774815
Ca  Ca3  1  0.92500000  0.50000000  0.42500000  1.0 1.4206774815
Ca  Ca4  1  0.07500000  0.50000000  0.57500000  1.0 1.4206774815
Ca  Ca5  1  0.50000000  0.42500000  0.92500000  1.0 1.4206774815
Ca  Ca6  1  0.50000000  0.57500000  0.07500000  1.0 1.4206774815
Ti  Ti1  1  0.50000000  0.11940000  0.61940000  1.0 1.8953551634
Ti  Ti2  1  0.50000000  0.88060000  0.38060000  1.0 1.8948957308
Ti  Ti3  1  0.11940000  0.61940000  0.50000000  1.0 1.8953551634
Ti  Ti4  1  0.88060000  0.38060000  0.50000000  1.0 1.8948957308
Ti  Ti5  1  0.38060000  0.50000000  0.88060000  1.0 1.8948957308
Ti  Ti6  1  0.61940000  0.50000000  0.11940000  1.0 1.8953551634
H  H1  1  0.37705000  0.38228000  0.48461000  1.0 0.1220223512
H  H2  1  0.89767000  0.89244000  0.51539000  1.0 0.1220223512
H  H3  1  0.10233000  0.61772000  0.99477000  1.0 0.1220223512
H  H4  1  0.10756000  0.00523000  0.62295000  1.0 0.1220223512
H  H5  1  0.89244000  0.51539000  0.89767000  1.0 0.1220223512
H  H6  1  0.99477000  0.10233000  0.61772000  1.0 0.1220223512
H  H7  1  0.00523000  0.62295000  0.10756000  1.0 0.1220223512
H  H8  1  0.51539000  0.89767000  0.89244000  1.0 0.1220223512
H  H9  1  0.48461000  0.37705000  0.38228000  1.0 0.1220223512
H  H10  1  0.61772000  0.99477000  0.10233000  1.0 0.1220223512
H  H11  1  0.38228000  0.48461000  0.37705000  1.0 0.1220223512
H  H12  1  0.62295000  0.10756000  0.00523000  1.0 0.1220223512
H  H13  1  0.62295000  0.61772000  0.51539000  1.0 0.1220223512
H  H14  1  0.10233000  0.10756000  0.48461000  1.0 0.1220223512
H  H15  1  0.89767000  0.38228000  0.00523000  1.0 0.1220223512
H  H16  1  0.89244000  0.99477000  0.37705000  1.0 0.1220223512
H  H17  1  0.10756000  0.48461000  0.10233000  1.0 0.1220223512
H  H18  1  0.00523000  0.89767000  0.38228000  1.0 0.1220223512
H  H19  1  0.99477000  0.37705000  0.89244000  1.0 0.1220223512
H  H20  1  0.48461000  0.10233000  0.10756000  1.0 0.1220223512
H  H21  1  0.51539000  0.62295000  0.61772000  1.0 0.1220223512
H  H22  1  0.38228000  0.00523000  0.89767000  1.0 0.1220223512
H  H23  1  0.61772000  0.51539000  0.62295000  1.0 0.1220223512
H  H24  1  0.37705000  0.89244000  0.99477000  1.0 0.1220223512
H  H25  1  0.52661000  0.39913000  0.56412000  1.0 0.1090634198
H  H26  1  0.83501000  0.96249000  0.43588000  1.0 0.1090634198
H  H27  1  0.16499000  0.60087000  0.12748000  1.0 0.1090634198
H  H28  1  0.03751000  0.87252000  0.47339000  1.0 0.1090634198
H  H29  1  0.96249000  0.43588000  0.83501000  1.0 0.1090634198
H  H30  1  0.12748000  0.16499000  0.60087000  1.0 0.1090634198
H  H31  1  0.87252000  0.47339000  0.03751000  1.0 0.1090634198
H  H32  1  0.43588000  0.83501000  0.96249000  1.0 0.1090634198
H  H33  1  0.56412000  0.52661000  0.39913000  1.0 0.1090634198
H  H34  1  0.60087000  0.12748000  0.16499000  1.0 0.1090634198
H  H35  1  0.39913000  0.56412000  0.52661000  1.0 0.1090634198
H  H36  1  0.47339000  0.03751000  0.87252000  1.0 0.1090634198
H  H37  1  0.47339000  0.60087000  0.43588000  1.0 0.1090634198
H  H38  1  0.16499000  0.03751000  0.56412000  1.0 0.1090634198
H  H39  1  0.83501000  0.39913000  0.87252000  1.0 0.1090634198
H  H40  1  0.96249000  0.12748000  0.52661000  1.0 0.1090634198
H  H41  1  0.03751000  0.56412000  0.16499000  1.0 0.1090634198
H  H42  1  0.87252000  0.83501000  0.39913000  1.0 0.1090634198
H  H43  1  0.12748000  0.52661000  0.96249000  1.0 0.1090634198
H  H44  1  0.56412000  0.16499000  0.03751000  1.0 0.1090634198
H  H45  1  0.43588000  0.47339000  0.60087000  1.0 0.1090634198
H  H46  1  0.39913000  0.87252000  0.83501000  1.0 0.1090634198
H  H47  1  0.60087000  0.43588000  0.47339000  1.0 0.1090634198
H  H48  1  0.52661000  0.96249000  0.12748000  1.0 0.1090634198
H  H49  1  0.59117000  0.30791000  0.61908000  1.0 0.1294936584
H  H50  1  0.68883000  0.97209000  0.38092000  1.0 0.1294936584
H  H51  1  0.31117000  0.69209000  0.28326000  1.0 0.1294936584
H  H52  1  0.02791000  0.71674000  0.40883000  1.0 0.1294936584
H  H53  1  0.97209000  0.38092000  0.68883000  1.0 0.1294936584
H  H54  1  0.28326000  0.31117000  0.69209000  1.0 0.1294936584
H  H55  1  0.71674000  0.40883000  0.02791000  1.0 0.1294936584
H  H56  1  0.38092000  0.68883000  0.97209000  1.0 0.1294936584
H  H57  1  0.61908000  0.59117000  0.30791000  1.0 0.1294936584
H  H58  1  0.69209000  0.28326000  0.31117000  1.0 0.1294936584
H  H59  1  0.30791000  0.61908000  0.59117000  1.0 0.1294936584
H  H60  1  0.40883000  0.02791000  0.71674000  1.0 0.1294936584
H  H61  1  0.40883000  0.69209000  0.38092000  1.0 0.1294936584
H  H62  1  0.31117000  0.02791000  0.61908000  1.0 0.1294936584
H  H63  1  0.68883000  0.30791000  0.71674000  1.0 0.1294936584
H  H64  1  0.97209000  0.28326000  0.59117000  1.0 0.1294936584
H  H65  1  0.02791000  0.61908000  0.31117000  1.0 0.1294936584
H  H66  1  0.71674000  0.68883000  0.30791000  1.0 0.1294936584
H  H67  1  0.28326000  0.59117000  0.97209000  1.0 0.1294936584
H  H68  1  0.61908000  0.31117000  0.02791000  1.0 0.1294936584
H  H69  1  0.38092000  0.40883000  0.69209000  1.0 0.1294936584
H  H70  1  0.30791000  0.71674000  0.68883000  1.0 0.1294936584
H  H71  1  0.69209000  0.38092000  0.40883000  1.0 0.1294936584
H  H72  1  0.59117000  0.97209000  0.28326000  1.0 0.1294936584
H  H73  1  0.59854000  0.37766000  0.63620000  1.0 0.1090634198
H  H74  1  0.74146000  0.96234000  0.36380000  1.0 0.1090634198
H  H75  1  0.25854000  0.62234000  0.22088000  1.0 0.1090634198
H  H76  1  0.03766000  0.77912000  0.40146000  1.0 0.1090634198
H  H77  1  0.96234000  0.36380000  0.74146000  1.0 0.1090634198
H  H78  1  0.22088000  0.25854000  0.62234000  1.0 0.1090634198
H  H79  1  0.77912000  0.40146000  0.03766000  1.0 0.1090634198
H  H80  1  0.36380000  0.74146000  0.96234000  1.0 0.1090634198
H  H81  1  0.63620000  0.59854000  0.37766000  1.0 0.1090634198
H  H82  1  0.62234000  0.22088000  0.25854000  1.0 0.1090634198
H  H83  1  0.37766000  0.63620000  0.59854000  1.0 0.1090634198
H  H84  1  0.40146000  0.03766000  0.77912000  1.0 0.1090634198
H  H85  1  0.40146000  0.62234000  0.36380000  1.0 0.1090634198
H  H86  1  0.25854000  0.03766000  0.63620000  1.0 0.1090634198
H  H87  1  0.74146000  0.37766000  0.77912000  1.0 0.1090634198
H  H88  1  0.96234000  0.22088000  0.59854000  1.0 0.1090634198
H  H89  1  0.03766000  0.63620000  0.25854000  1.0 0.1090634198
H  H90  1  0.77912000  0.74146000  0.37766000  1.0 0.1090634198
H  H91  1  0.22088000  0.59854000  0.96234000  1.0 0.1090634198
H  H92  1  0.63620000  0.25854000  0.03766000  1.0 0.1090634198
H  H93  1  0.36380000  0.40146000  0.62234000  1.0 0.1090634198
H  H94  1  0.37766000  0.77912000  0.74146000  1.0 0.1090634198
H  H95  1  0.62234000  0.36380000  0.40146000  1.0 0.1090634198
H  H96  1  0.59854000  0.96234000  0.22088000  1.0 0.1090634198
H  H97  1  0.54925000  0.33597000  0.64522000  1.0 0.1220223512
H  H98  1  0.69075000  0.90403000  0.35478000  1.0 0.1220223512
H  H99  1  0.30925000  0.66403000  0.21328000  1.0 0.1220223512
H  H100  1  0.09597000  0.78672000  0.45075000  1.0 0.1220223512
H  H101  1  0.90403000  0.35478000  0.69075000  1.0 0.1220223512
H  H102  1  0.21328000  0.30925000  0.66403000  1.0 0.1220223512
H  H103  1  0.78672000  0.45075000  0.09597000  1.0 0.1220223512
H  H104  1  0.35478000  0.69075000  0.90403000  1.0 0.1220223512
H  H105  1  0.64522000  0.54925000  0.33597000  1.0 0.1220223512
H  H106  1  0.66403000  0.21328000  0.30925000  1.0 0.1220223512
H  H107  1  0.33597000  0.64522000  0.54925000  1.0 0.1220223512
H  H108  1  0.45075000  0.09597000  0.78672000  1.0 0.1220223512
H  H109  1  0.45075000  0.66403000  0.35478000  1.0 0.1220223512
H  H110  1  0.30925000  0.09597000  0.64522000  1.0 0.1220223512
H  H111  1  0.69075000  0.33597000  0.78672000  1.0 0.1220223512
H  H112  1  0.90403000  0.21328000  0.54925000  1.0 0.1220223512
H  H113  1  0.09597000  0.64522000  0.30925000  1.0 0.1220223512
H  H114  1  0.78672000  0.69075000  0.33597000  1.0 0.1220223512
H  H115  1  0.21328000  0.54925000  0.90403000  1.0 0.1220223512
H  H116  1  0.64522000  0.30925000  0.09597000  1.0 0.1220223512
H  H117  1  0.35478000  0.45075000  0.66403000  1.0 0.1220223512
H  H118  1  0.33597000  0.78672000  0.69075000  1.0 0.1220223512
H  H119  1  0.66403000  0.35478000  0.45075000  1.0 0.1220223512
H  H120  1  0.54925000  0.90403000  0.21328000  1.0 0.1220223512
H  H121  1  0.38666000  0.23632000  0.37030000  1.0 0.1220223512
H  H122  1  0.86602000  0.01636000  0.62970000  1.0 0.1220223512
H  H123  1  0.13398000  0.76368000  0.15034000  1.0 0.1220223512
H  H124  1  0.98364000  0.84966000  0.61334000  1.0 0.1220223512
H  H125  1  0.01636000  0.62970000  0.86602000  1.0 0.1294936584
H  H126  1  0.15034000  0.13398000  0.76368000  1.0 0.1294936584
H  H127  1  0.84966000  0.61334000  0.98364000  1.0 0.1294936584
H  H128  1  0.62970000  0.86602000  0.01636000  1.0 0.1220223512
H  H129  1  0.37030000  0.38666000  0.23632000  1.0 0.1220223512
H  H130  1  0.76368000  0.15034000  0.13398000  1.0 0.1220223512
H  H131  1  0.23632000  0.37030000  0.38666000  1.0 0.1220223512
H  H132  1  0.61334000  0.98364000  0.84966000  1.0 0.1294936584
H  H133  1  0.61334000  0.76368000  0.62970000  1.0 0.1220223512
H  H134  1  0.13398000  0.98364000  0.37030000  1.0 0.1294936584
H  H135  1  0.86602000  0.23632000  0.84966000  1.0 0.1220223512
H  H136  1  0.01636000  0.15034000  0.38666000  1.0 0.1294936584
H  H137  1  0.98364000  0.37030000  0.13398000  1.0 0.1220223512
H  H138  1  0.84966000  0.86602000  0.23632000  1.0 0.1220223512
H  H139  1  0.15034000  0.38666000  0.01636000  1.0 0.1220223512
H  H140  1  0.37030000  0.13398000  0.98364000  1.0 0.1294936584
H  H141  1  0.62970000  0.61334000  0.76368000  1.0 0.1220223512
H  H142  1  0.23632000  0.84966000  0.86602000  1.0 0.1294936584
H  H143  1  0.76368000  0.62970000  0.61334000  1.0 0.1220223512
H  H144  1  0.38666000  0.01636000  0.15034000  1.0 0.1220223512
H  H145  1  0.39136000  0.13636000  0.34684000  1.0 0.1220223512
H  H146  1  0.78952000  0.04452000  0.65316000  1.0 0.1220223512
H  H147  1  0.21048000  0.86364000  0.25500000  1.0 0.1220223512
H  H148  1  0.95548000  0.74500000  0.60864000  1.0 0.1220223512
H  H149  1  0.04452000  0.65316000  0.78952000  1.0 0.1220223512
H  H150  1  0.25500000  0.21048000  0.86364000  1.0 0.1220223512
H  H151  1  0.74500000  0.60864000  0.95548000  1.0 0.1220223512
H  H152  1  0.65316000  0.78952000  0.04452000  1.0 0.1220223512
H  H153  1  0.34684000  0.39136000  0.13636000  1.0 0.1220223512
H  H154  1  0.86364000  0.25500000  0.21048000  1.0 0.1220223512
H  H155  1  0.13636000  0.34684000  0.39136000  1.0 0.1220223512
H  H156  1  0.60864000  0.95548000  0.74500000  1.0 0.1220223512
H  H157  1  0.60864000  0.86364000  0.65316000  1.0 0.1220223512
H  H158  1  0.21048000  0.95548000  0.34684000  1.0 0.1220223512
H  H159  1  0.78952000  0.13636000  0.74500000  1.0 0.1220223512
H  H160  1  0.04452000  0.25500000  0.39136000  1.0 0.1220223512
H  H161  1  0.95548000  0.34684000  0.21048000  1.0 0.1220223512
H  H162  1  0.74500000  0.78952000  0.13636000  1.0 0.1220223512
H  H163  1  0.25500000  0.39136000  0.04452000  1.0 0.1220223512
H  H164  1  0.34684000  0.21048000  0.95548000  1.0 0.1220223512
H  H165  1  0.65316000  0.60864000  0.86364000  1.0 0.1220223512
H  H166  1  0.13636000  0.74500000  0.78952000  1.0 0.1220223512
H  H167  1  0.86364000  0.65316000  0.60864000  1.0 0.1220223512
H  H168  1  0.39136000  0.04452000  0.25500000  1.0 0.1220223512
H  H169  1  0.43354000  0.12498000  0.40458000  1.0 0.1294936584
H  H170  1  0.72040000  0.02896000  0.59542000  1.0 0.1294936584
H  H171  1  0.27960000  0.87502000  0.30856000  1.0 0.1294936584
H  H172  1  0.97104000  0.69144000  0.56646000  1.0 0.1294936584
H  H173  1  0.02896000  0.59542000  0.72040000  1.0 0.1294936584
H  H174  1  0.30856000  0.27960000  0.87502000  1.0 0.1294936584
H  H175  1  0.69144000  0.56646000  0.97104000  1.0 0.1294936584
H  H176  1  0.59542000  0.72040000  0.02896000  1.0 0.1294936584
H  H177  1  0.40458000  0.43354000  0.12498000  1.0 0.1294936584
H  H178  1  0.87502000  0.30856000  0.27960000  1.0 0.1294936584
H  H179  1  0.12498000  0.40458000  0.43354000  1.0 0.1294936584
H  H180  1  0.56646000  0.97104000  0.69144000  1.0 0.1294936584
H  H181  1  0.56646000  0.87502000  0.59542000  1.0 0.1294936584
H  H182  1  0.27960000  0.97104000  0.40458000  1.0 0.1294936584
H  H183  1  0.72040000  0.12498000  0.69144000  1.0 0.1294936584
H  H184  1  0.02896000  0.30856000  0.43354000  1.0 0.1351744069
H  H185  1  0.97104000  0.40458000  0.27960000  1.0 0.1351744069
H  H186  1  0.69144000  0.72040000  0.12498000  1.0 0.1294936584
H  H187  1  0.30856000  0.43354000  0.02896000  1.0 0.1294936584
H  H188  1  0.40458000  0.27960000  0.97104000  1.0 0.1351744069
H  H189  1  0.59542000  0.56646000  0.87502000  1.0 0.1294936584
H  H190  1  0.12498000  0.69144000  0.72040000  1.0 0.1294936584
H  H191  1  0.87502000  0.59542000  0.56646000  1.0 0.1294936584
H  H192  1  0.43354000  0.02896000  0.30856000  1.0 0.1294936584
H  H193  1  0.36241000  0.11943000  0.39330000  1.0 0.1220223512
H  H194  1  0.72613000  0.96911000  0.60670000  1.0 0.1220223512
H  H195  1  0.27387000  0.88057000  0.24298000  1.0 0.1220223512
H  H196  1  0.03089000  0.75702000  0.63759000  1.0 0.1220223512
H  H197  1  0.96911000  0.60670000  0.72613000  1.0 0.1220223512
H  H198  1  0.24298000  0.27387000  0.88057000  1.0 0.1220223512
H  H199  1  0.75702000  0.63759000  0.03089000  1.0 0.1220223512
H  H200  1  0.60670000  0.72613000  0.96911000  1.0 0.1220223512
H  H201  1  0.39330000  0.36241000  0.11943000  1.0 0.1220223512
H  H202  1  0.88057000  0.24298000  0.27387000  1.0 0.1220223512
H  H203  1  0.11943000  0.39330000  0.36241000  1.0 0.1220223512
H  H204  1  0.63759000  0.03089000  0.75702000  1.0 0.1220223512
H  H205  1  0.63759000  0.88057000  0.60670000  1.0 0.1220223512
H  H206  1  0.27387000  0.03089000  0.39330000  1.0 0.1220223512
H  H207  1  0.72613000  0.11943000  0.75702000  1.0 0.1220223512
H  H208  1  0.96911000  0.24298000  0.36241000  1.0 0.1220223512
H  H209  1  0.03089000  0.39330000  0.27387000  1.0 0.1220223512
H  H210  1  0.75702000  0.72613000  0.11943000  1.0 0.1220223512
H  H211  1  0.24298000  0.36241000  0.96911000  1.0 0.1220223512
H  H212  1  0.39330000  0.27387000  0.03089000  1.0 0.1220223512
H  H213  1  0.60670000  0.63759000  0.88057000  1.0 0.1220223512
H  H214  1  0.11943000  0.75702000  0.72613000  1.0 0.1220223512
H  H215  1  0.88057000  0.60670000  0.63759000  1.0 0.1220223512
H  H216  1  0.36241000  0.96911000  0.24298000  1.0 0.1220223512
C  C1  1  0.50300000  0.18800000  0.52900000  1.0 0.6093708857
C  C2  1  0.65900000  0.97400000  0.47100000  1.0 0.6093708857
C  C3  1  0.34100000  0.81200000  0.31500000  1.0 0.6093708857
C  C4  1  0.02600000  0.68500000  0.49700000  1.0 0.6093708857
C  C5  1  0.97400000  0.47100000  0.65900000  1.0 0.6093708857
C  C6  1  0.31500000  0.34100000  0.81200000  1.0 0.6093708857
C  C7  1  0.68500000  0.49700000  0.02600000  1.0 0.6093708857
C  C8  1  0.47100000  0.65900000  0.97400000  1.0 0.6093708857
C  C9  1  0.52900000  0.50300000  0.18800000  1.0 0.6093708857
C  C10  1  0.81200000  0.31500000  0.34100000  1.0 0.6093708857
C  C11  1  0.18800000  0.52900000  0.50300000  1.0 0.6093708857
C  C12  1  0.49700000  0.02600000  0.68500000  1.0 0.6093708857
C  C13  1  0.49700000  0.81200000  0.47100000  1.0 0.6093708857
C  C14  1  0.34100000  0.02600000  0.52900000  1.0 0.6093708857
C  C15  1  0.65900000  0.18800000  0.68500000  1.0 0.6093708857
C  C16  1  0.97400000  0.31500000  0.50300000  1.0 0.6093708857
C  C17  1  0.02600000  0.52900000  0.34100000  1.0 0.6093708857
C  C18  1  0.68500000  0.65900000  0.18800000  1.0 0.6093708857
C  C19  1  0.31500000  0.50300000  0.97400000  1.0 0.6093708857
C  C20  1  0.52900000  0.34100000  0.02600000  1.0 0.6093708857
C  C21  1  0.47100000  0.49700000  0.81200000  1.0 0.6093708857
C  C22  1  0.18800000  0.68500000  0.65900000  1.0 0.6093708857
C  C23  1  0.81200000  0.47100000  0.49700000  1.0 0.6093708857
C  C24  1  0.50300000  0.97400000  0.31500000  1.0 0.6093708857
C  C25  1  0.48500000  0.23700000  0.50600000  1.0 -0.1435961423
C  C26  1  0.73100000  0.97900000  0.49400000  1.0 -0.1435961423
C  C27  1  0.26900000  0.76300000  0.24800000  1.0 -0.1435961423
C  C28  1  0.02100000  0.75200000  0.51500000  1.0 -0.1435961423
C  C29  1  0.97900000  0.49400000  0.73100000  1.0 -0.1435961423
C  C30  1  0.24800000  0.26900000  0.76300000  1.0 -0.1435961423
C  C31  1  0.75200000  0.51500000  0.02100000  1.0 -0.1435961423
C  C32  1  0.49400000  0.73100000  0.97900000  1.0 -0.1435961423
C  C33  1  0.50600000  0.48500000  0.23700000  1.0 -0.1435961423
C  C34  1  0.76300000  0.24800000  0.26900000  1.0 -0.1435961423
C  C35  1  0.23700000  0.50600000  0.48500000  1.0 -0.1435961423
C  C36  1  0.51500000  0.02100000  0.75200000  1.0 -0.1435961423
C  C37  1  0.51500000  0.76300000  0.49400000  1.0 -0.1435961423
C  C38  1  0.26900000  0.02100000  0.50600000  1.0 -0.1435961423
C  C39  1  0.73100000  0.23700000  0.75200000  1.0 -0.1435961423
C  C40  1  0.97900000  0.24800000  0.48500000  1.0 -0.1435961423
C  C41  1  0.02100000  0.50600000  0.26900000  1.0 -0.1435961423
C  C42  1  0.75200000  0.73100000  0.23700000  1.0 -0.1435961423
C  C43  1  0.24800000  0.48500000  0.97900000  1.0 -0.1435961423
C  C44  1  0.50600000  0.26900000  0.02100000  1.0 -0.1435961423
C  C45  1  0.49400000  0.51500000  0.76300000  1.0 -0.1435961423
C  C46  1  0.23700000  0.75200000  0.73100000  1.0 -0.1435961423
C  C47  1  0.76300000  0.49400000  0.51500000  1.0 -0.1435961423
C  C48  1  0.48500000  0.97900000  0.24800000  1.0 -0.1435961423
C  C49  1  0.43700000  0.37400000  0.44100000  1.0 0.0875936134
C  C50  1  0.93300000  0.99600000  0.55900000  1.0 0.0875936134
C  C51  1  0.06700000  0.62600000  0.06300000  1.0 0.0875936134
C  C52  1  0.00400000  0.93700000  0.56300000  1.0 0.0875936134
C  C53  1  0.99600000  0.55900000  0.93300000  1.0 0.0875936134
C  C54  1  0.06300000  0.06700000  0.62600000  1.0 0.0875936134
C  C55  1  0.93700000  0.56300000  0.00400000  1.0 0.0875936134
C  C56  1  0.55900000  0.93300000  0.99600000  1.0 0.0875936134
C  C57  1  0.44100000  0.43700000  0.37400000  1.0 0.0875936134
C  C58  1  0.62600000  0.06300000  0.06700000  1.0 0.0875936134
C  C59  1  0.37400000  0.44100000  0.43700000  1.0 0.0875936134
C  C60  1  0.56300000  0.00400000  0.93700000  1.0 0.0875936134
C  C61  1  0.56300000  0.62600000  0.55900000  1.0 0.0875936134
C  C62  1  0.06700000  0.00400000  0.44100000  1.0 0.0875936134
C  C63  1  0.93300000  0.37400000  0.93700000  1.0 0.0875936134
C  C64  1  0.99600000  0.06300000  0.43700000  1.0 0.0875936134
C  C65  1  0.00400000  0.44100000  0.06700000  1.0 0.0875936134
C  C66  1  0.93700000  0.93300000  0.37400000  1.0 0.0875936134
C  C67  1  0.06300000  0.43700000  0.99600000  1.0 0.0875936134
C  C68  1  0.44100000  0.06700000  0.00400000  1.0 0.0875936134
C  C69  1  0.55900000  0.56300000  0.62600000  1.0 0.0875936134
C  C70  1  0.37400000  0.93700000  0.93300000  1.0 0.0875936134
C  C71  1  0.62600000  0.55900000  0.56300000  1.0 0.0875936134
C  C72  1  0.43700000  0.99600000  0.06300000  1.0 0.0875936134
C  C73  1  0.39490000  0.39690000  0.45800000  1.0 -0.2090669433
C  C74  1  0.93890000  0.93690000  0.54200000  1.0 -0.2090669433
C  C75  1  0.06110000  0.60310000  0.99800000  1.0 -0.2090669433
C  C76  1  0.06310000  0.00200000  0.60510000  1.0 -0.2090669433
C  C77  1  0.93690000  0.54200000  0.93890000  1.0 -0.2090669433
C  C78  1  0.99800000  0.06110000  0.60310000  1.0 -0.2090669433
C  C79  1  0.00200000  0.60510000  0.06310000  1.0 -0.2090669433
C  C80  1  0.54200000  0.93890000  0.93690000  1.0 -0.2090669433
C  C81  1  0.45800000  0.39490000  0.39690000  1.0 -0.2090669433
C  C82  1  0.60310000  0.99800000  0.06110000  1.0 -0.2090669433
C  C83  1  0.39690000  0.45800000  0.39490000  1.0 -0.2090669433
C  C84  1  0.60510000  0.06310000  0.00200000  1.0 -0.2090669433
C  C85  1  0.60510000  0.60310000  0.54200000  1.0 -0.2090669433
C  C86  1  0.06110000  0.06310000  0.45800000  1.0 -0.2090669433
C  C87  1  0.93890000  0.39690000  0.00200000  1.0 -0.2090669433
C  C88  1  0.93690000  0.99800000  0.39490000  1.0 -0.2090669433
C  C89  1  0.06310000  0.45800000  0.06110000  1.0 -0.2090669433
C  C90  1  0.00200000  0.93890000  0.39690000  1.0 -0.2090669433
C  C91  1  0.99800000  0.39490000  0.93690000  1.0 -0.2090669433
C  C92  1  0.45800000  0.06110000  0.06310000  1.0 -0.2090669433
C  C93  1  0.54200000  0.60510000  0.60310000  1.0 -0.2090669433
C  C94  1  0.39690000  0.00200000  0.93890000  1.0 -0.2090669433
C  C95  1  0.60310000  0.54200000  0.60510000  1.0 -0.2090669433
C  C96  1  0.39490000  0.93690000  0.99800000  1.0 -0.2090669433
C  C97  1  0.50300000  0.35050000  0.53150000  1.0 -0.2176988265
C  C98  1  0.81900000  0.97150000  0.46850000  1.0 -0.2176988265
C  C99  1  0.18100000  0.64950000  0.15250000  1.0 -0.2176988265
C  C100  1  0.02850000  0.84750000  0.49700000  1.0 -0.2176988265
C  C101  1  0.97150000  0.46850000  0.81900000  1.0 -0.2176988265
C  C102  1  0.15250000  0.18100000  0.64950000  1.0 -0.2176988265
C  C103  1  0.84750000  0.49700000  0.02850000  1.0 -0.2176988265
C  C104  1  0.46850000  0.81900000  0.97150000  1.0 -0.2176988265
C  C105  1  0.53150000  0.50300000  0.35050000  1.0 -0.2176988265
C  C106  1  0.64950000  0.15250000  0.18100000  1.0 -0.2176988265
C  C107  1  0.35050000  0.53150000  0.50300000  1.0 -0.2176988265
C  C108  1  0.49700000  0.02850000  0.84750000  1.0 -0.2176988265
C  C109  1  0.49700000  0.64950000  0.46850000  1.0 -0.2176988265
C  C110  1  0.18100000  0.02850000  0.53150000  1.0 -0.2176988265
C  C111  1  0.81900000  0.35050000  0.84750000  1.0 -0.2176988265
C  C112  1  0.97150000  0.15250000  0.50300000  1.0 -0.2176988265
C  C113  1  0.02850000  0.53150000  0.18100000  1.0 -0.2176988265
C  C114  1  0.84750000  0.81900000  0.35050000  1.0 -0.2176988265
C  C115  1  0.15250000  0.50300000  0.97150000  1.0 -0.2176988265
C  C116  1  0.53150000  0.18100000  0.02850000  1.0 -0.2176988265
C  C117  1  0.46850000  0.49700000  0.64950000  1.0 -0.2176988265
C  C118  1  0.35050000  0.84750000  0.81900000  1.0 -0.2176988265
C  C119  1  0.64950000  0.46850000  0.49700000  1.0 -0.2176988265
C  C120  1  0.50300000  0.97150000  0.15250000  1.0 -0.2176988265
C  C121  1  0.45400000  0.32400000  0.46400000  1.0 0.0600405344
C  C122  1  0.86000000  0.99000000  0.53600000  1.0 0.0600405344
C  C123  1  0.14000000  0.67600000  0.13000000  1.0 0.0600405344
C  C124  1  0.01000000  0.87000000  0.54600000  1.0 0.0600405344
C  C125  1  0.99000000  0.53600000  0.86000000  1.0 0.0600405344
C  C126  1  0.13000000  0.14000000  0.67600000  1.0 0.0600405344
C  C127  1  0.87000000  0.54600000  0.01000000  1.0 0.0600405344
C  C128  1  0.53600000  0.86000000  0.99000000  1.0 0.0600405344
C  C129  1  0.46400000  0.45400000  0.32400000  1.0 0.0600405344
C  C130  1  0.67600000  0.13000000  0.14000000  1.0 0.0600405344
C  C131  1  0.32400000  0.46400000  0.45400000  1.0 0.0600405344
C  C132  1  0.54600000  0.01000000  0.87000000  1.0 0.0600405344
C  C133  1  0.54600000  0.67600000  0.53600000  1.0 0.0600405344
C  C134  1  0.14000000  0.01000000  0.46400000  1.0 0.0600405344
C  C135  1  0.86000000  0.32400000  0.87000000  1.0 0.0600405344
C  C136  1  0.99000000  0.13000000  0.45400000  1.0 0.0600405344
C  C137  1  0.01000000  0.46400000  0.14000000  1.0 0.0600405344
C  C138  1  0.87000000  0.86000000  0.32400000  1.0 0.0600405344
C  C139  1  0.13000000  0.45400000  0.99000000  1.0 0.0600405344
C  C140  1  0.46400000  0.14000000  0.01000000  1.0 0.0600405344
C  C141  1  0.53600000  0.54600000  0.67600000  1.0 0.0600405344
C  C142  1  0.32400000  0.87000000  0.86000000  1.0 0.0600405344
C  C143  1  0.67600000  0.53600000  0.54600000  1.0 0.0600405344
C  C144  1  0.45400000  0.99000000  0.13000000  1.0 0.0600405344
C  C145  1  0.51900000  0.30700000  0.55200000  1.0 0.0970620193
C  C146  1  0.75500000  0.96700000  0.44800000  1.0 0.0970620193
C  C147  1  0.24500000  0.69300000  0.21200000  1.0 0.0970620193
C  C148  1  0.03300000  0.78800000  0.48100000  1.0 0.0970620193
C  C149  1  0.96700000  0.44800000  0.75500000  1.0 0.0970620193
C  C150  1  0.21200000  0.24500000  0.69300000  1.0 0.0970620193
C  C151  1  0.78800000  0.48100000  0.03300000  1.0 0.0970620193
C  C152  1  0.44800000  0.75500000  0.96700000  1.0 0.0970620193
C  C153  1  0.55200000  0.51900000  0.30700000  1.0 0.0970620193
C  C154  1  0.69300000  0.21200000  0.24500000  1.0 0.0970620193
C  C155  1  0.30700000  0.55200000  0.51900000  1.0 0.0970620193
C  C156  1  0.48100000  0.03300000  0.78800000  1.0 0.0970620193
C  C157  1  0.48100000  0.69300000  0.44800000  1.0 0.0970620193
C  C158  1  0.24500000  0.03300000  0.55200000  1.0 0.0970620193
C  C159  1  0.75500000  0.30700000  0.78800000  1.0 0.0970620193
C  C160  1  0.96700000  0.21200000  0.51900000  1.0 0.0970620193
C  C161  1  0.03300000  0.55200000  0.24500000  1.0 0.0970620193
C  C162  1  0.78800000  0.75500000  0.30700000  1.0 0.0970620193
C  C163  1  0.21200000  0.51900000  0.96700000  1.0 0.0970620193
C  C164  1  0.55200000  0.24500000  0.03300000  1.0 0.0970620193
C  C165  1  0.44800000  0.48100000  0.69300000  1.0 0.0970620193
C  C166  1  0.30700000  0.78800000  0.75500000  1.0 0.0970620193
C  C167  1  0.69300000  0.44800000  0.48100000  1.0 0.0970620193
C  C168  1  0.51900000  0.96700000  0.21200000  1.0 0.0970620193
C  C169  1  0.42070000  0.25500000  0.41770000  1.0 -0.2090669433
C  C170  1  0.83730000  0.00300000  0.58230000  1.0 -0.2090669433
C  C171  1  0.16270000  0.74500000  0.16570000  1.0 -0.2090669433
C  C172  1  0.99700000  0.83430000  0.57930000  1.0 -0.2090669433
C  C173  1  0.00300000  0.58230000  0.83730000  1.0 -0.2090669433
C  C174  1  0.16570000  0.16270000  0.74500000  1.0 -0.2090669433
C  C175  1  0.83430000  0.57930000  0.99700000  1.0 -0.2090669433
C  C176  1  0.58230000  0.83730000  0.00300000  1.0 -0.2090669433
C  C177  1  0.41770000  0.42070000  0.25500000  1.0 -0.2090669433
C  C178  1  0.74500000  0.16570000  0.16270000  1.0 -0.2090669433
C  C179  1  0.25500000  0.41770000  0.42070000  1.0 -0.2090669433
C  C180  1  0.57930000  0.99700000  0.83430000  1.0 -0.2090669433
C  C181  1  0.57930000  0.74500000  0.58230000  1.0 -0.2090669433
C  C182  1  0.16270000  0.99700000  0.41770000  1.0 -0.2090669433
C  C183  1  0.83730000  0.25500000  0.83430000  1.0 -0.2090669433
C  C184  1  0.00300000  0.16570000  0.42070000  1.0 -0.2090669433
C  C185  1  0.99700000  0.41770000  0.16270000  1.0 -0.2090669433
C  C186  1  0.83430000  0.83730000  0.25500000  1.0 -0.2090669433
C  C187  1  0.16570000  0.42070000  0.00300000  1.0 -0.2090669433
C  C188  1  0.41770000  0.16270000  0.99700000  1.0 -0.2090669433
C  C189  1  0.58230000  0.57930000  0.74500000  1.0 -0.2090669433
C  C190  1  0.25500000  0.83430000  0.83730000  1.0 -0.2090669433
C  C191  1  0.74500000  0.58230000  0.57930000  1.0 -0.2090669433
C  C192  1  0.42070000  0.00300000  0.16570000  1.0 -0.2090669433
C  C193  1  0.43700000  0.21100000  0.43800000  1.0 0.1090634198
C  C194  1  0.77300000  0.99900000  0.56200000  1.0 0.1090634198
C  C195  1  0.22700000  0.78900000  0.22600000  1.0 0.1090634198
C  C196  1  0.00100000  0.77400000  0.56300000  1.0 0.1090634198
C  C197  1  0.99900000  0.56200000  0.77300000  1.0 0.1090634198
C  C198  1  0.22600000  0.22700000  0.78900000  1.0 0.1090634198
C  C199  1  0.77400000  0.56300000  0.00100000  1.0 0.1090634198
C  C200  1  0.56200000  0.77300000  0.99900000  1.0 0.1090634198
C  C201  1  0.43800000  0.43700000  0.21100000  1.0 0.1090634198
C  C202  1  0.78900000  0.22600000  0.22700000  1.0 0.1090634198
C  C203  1  0.21100000  0.43800000  0.43700000  1.0 0.1090634198
C  C204  1  0.56300000  0.00100000  0.77400000  1.0 0.1090634198
C  C205  1  0.56300000  0.78900000  0.56200000  1.0 0.1090634198
C  C206  1  0.22700000  0.00100000  0.43800000  1.0 0.1090634198
C  C207  1  0.77300000  0.21100000  0.77400000  1.0 0.1090634198
C  C208  1  0.99900000  0.22600000  0.43700000  1.0 0.1090634198
C  C209  1  0.00100000  0.43800000  0.22700000  1.0 0.1090634198
C  C210  1  0.77400000  0.77300000  0.21100000  1.0 0.1090634198
C  C211  1  0.22600000  0.43700000  0.99900000  1.0 0.1090634198
C  C212  1  0.43800000  0.22700000  0.00100000  1.0 0.1090634198
C  C213  1  0.56200000  0.56300000  0.78900000  1.0 0.1090634198
C  C214  1  0.21100000  0.77400000  0.77300000  1.0 0.1090634198
C  C215  1  0.78900000  0.56200000  0.56300000  1.0 0.1090634198
C  C216  1  0.43700000  0.99900000  0.22600000  1.0 0.1090634198
C  C217  1  0.56600000  0.33200000  0.61800000  1.0 -0.336745789
C  C218  1  0.71400000  0.94800000  0.38200000  1.0 -0.336745789
C  C219  1  0.28600000  0.66800000  0.23400000  1.0 -0.336745789
C  C220  1  0.05200000  0.76600000  0.43400000  1.0 -0.336745789
C  C221  1  0.94800000  0.38200000  0.71400000  1.0 -0.336745789
C  C222  1  0.23400000  0.28600000  0.66800000  1.0 -0.336745789
C  C223  1  0.76600000  0.43400000  0.05200000  1.0 -0.336745789
C  C224  1  0.38200000  0.71400000  0.94800000  1.0 -0.336745789
C  C225  1  0.61800000  0.56600000  0.33200000  1.0 -0.336745789
C  C226  1  0.66800000  0.23400000  0.28600000  1.0 -0.336745789
C  C227  1  0.33200000  0.61800000  0.56600000  1.0 -0.336745789
C  C228  1  0.43400000  0.05200000  0.76600000  1.0 -0.336745789
C  C229  1  0.43400000  0.66800000  0.38200000  1.0 -0.336745789
C  C230  1  0.28600000  0.05200000  0.61800000  1.0 -0.336745789
C  C231  1  0.71400000  0.33200000  0.76600000  1.0 -0.336745789
C  C232  1  0.94800000  0.23400000  0.56600000  1.0 -0.336745789
C  C233  1  0.05200000  0.61800000  0.28600000  1.0 -0.336745789
C  C234  1  0.76600000  0.71400000  0.33200000  1.0 -0.336745789
C  C235  1  0.23400000  0.56600000  0.94800000  1.0 -0.336745789
C  C236  1  0.61800000  0.28600000  0.05200000  1.0 -0.336745789
C  C237  1  0.38200000  0.43400000  0.66800000  1.0 -0.336745789
C  C238  1  0.33200000  0.76600000  0.71400000  1.0 -0.336745789
C  C239  1  0.66800000  0.38200000  0.43400000  1.0 -0.336745789
C  C240  1  0.56600000  0.94800000  0.23400000  1.0 -0.336745789
C  C241  1  0.40300000  0.14300000  0.39200000  1.0 -0.4061261407
C  C242  1  0.75100000  0.01100000  0.60800000  1.0 -0.4061261407
C  C243  1  0.24900000  0.85700000  0.26000000  1.0 -0.4061261407
C  C244  1  0.98900000  0.74000000  0.59700000  1.0 -0.4061261407
C  C245  1  0.01100000  0.60800000  0.75100000  1.0 -0.4061261407
C  C246  1  0.26000000  0.24900000  0.85700000  1.0 -0.4061261407
C  C247  1  0.74000000  0.59700000  0.98900000  1.0 -0.4061261407
C  C248  1  0.60800000  0.75100000  0.01100000  1.0 -0.4061261407
C  C249  1  0.39200000  0.40300000  0.14300000  1.0 -0.4061261407
C  C250  1  0.85700000  0.26000000  0.24900000  1.0 -0.4061261407
C  C251  1  0.14300000  0.39200000  0.40300000  1.0 -0.4061261407
C  C252  1  0.59700000  0.98900000  0.74000000  1.0 -0.4061261407
C  C253  1  0.59700000  0.85700000  0.60800000  1.0 -0.4061261407
C  C254  1  0.24900000  0.98900000  0.39200000  1.0 -0.4061261407
C  C255  1  0.75100000  0.14300000  0.74000000  1.0 -0.4061261407
C  C256  1  0.01100000  0.26000000  0.40300000  1.0 -0.4061261407
C  C257  1  0.98900000  0.39200000  0.24900000  1.0 -0.4061261407
C  C258  1  0.74000000  0.75100000  0.14300000  1.0 -0.4061261407
C  C259  1  0.26000000  0.40300000  0.01100000  1.0 -0.4061261407
C  C260  1  0.39200000  0.24900000  0.98900000  1.0 -0.4061261407
C  C261  1  0.60800000  0.59700000  0.85700000  1.0 -0.4061261407
C  C262  1  0.14300000  0.74000000  0.75100000  1.0 -0.4061261407
C  C263  1  0.85700000  0.60800000  0.59700000  1.0 -0.4061261407
C  C264  1  0.40300000  0.01100000  0.26000000  1.0 -0.4061261407
O  O1  1  0.67600000  0.17600000  0.50000000  1.0 -0.4489358829
O  O2  1  0.32400000  0.82400000  0.50000000  1.0 -0.4489358829
O  O3  1  0.82400000  0.50000000  0.32400000  1.0 -0.4489358829
O  O4  1  0.17600000  0.50000000  0.67600000  1.0 -0.4489358829
O  O5  1  0.50000000  0.32400000  0.82400000  1.0 -0.4489358829
O  O6  1  0.50000000  0.67600000  0.17600000  1.0 -0.4489358829
O  O7  1  0.50000000  0.05600000  0.55600000  1.0 -0.9340375082
O  O8  1  0.50000000  0.94400000  0.44400000  1.0 -0.9340375082
O  O9  1  0.05600000  0.55600000  0.50000000  1.0 -0.9340375082
O  O10  1  0.94400000  0.44400000  0.50000000  1.0 -0.9340375082
O  O11  1  0.44400000  0.50000000  0.94400000  1.0 -0.9340375082
O  O12  1  0.55600000  0.50000000  0.05600000  1.0 -0.9340375082
O  O13  1  0.50000000  0.19900000  0.69900000  1.0 -0.629636935
O  O14  1  0.50000000  0.80100000  0.30100000  1.0 -0.629636935
O  O15  1  0.19900000  0.69900000  0.50000000  1.0 -0.629636935
O  O16  1  0.80100000  0.30100000  0.50000000  1.0 -0.629636935
O  O17  1  0.30100000  0.50000000  0.80100000  1.0 -0.629636935
O  O18  1  0.69900000  0.50000000  0.19900000  1.0 -0.629636935
O  O19  1  0.49490000  0.18290000  0.57900000  1.0 -0.5759944137
O  O20  1  0.60390000  0.91590000  0.42100000  1.0 -0.5759944137
O  O21  1  0.39610000  0.81710000  0.31200000  1.0 -0.5759944137
O  O22  1  0.08410000  0.68800000  0.50510000  1.0 -0.5759944137
O  O23  1  0.91590000  0.42100000  0.60390000  1.0 -0.5759944137
O  O24  1  0.31200000  0.39610000  0.81710000  1.0 -0.5759944137
O  O25  1  0.68800000  0.50510000  0.08410000  1.0 -0.5759944137
O  O26  1  0.42100000  0.60390000  0.91590000  1.0 -0.5759944137
O  O27  1  0.57900000  0.49490000  0.18290000  1.0 -0.5759944137
O  O28  1  0.81710000  0.31200000  0.39610000  1.0 -0.5759944137
O  O29  1  0.18290000  0.57900000  0.49490000  1.0 -0.5759944137
O  O30  1  0.50510000  0.08410000  0.68800000  1.0 -0.5759944137
O  O31  1  0.50510000  0.81710000  0.42100000  1.0 -0.5759944137
O  O32  1  0.39610000  0.08410000  0.57900000  1.0 -0.5759944137
O  O33  1  0.60390000  0.18290000  0.68800000  1.0 -0.5759944137
O  O34  1  0.91590000  0.31200000  0.49490000  1.0 -0.5759944137
O  O35  1  0.08410000  0.57900000  0.39610000  1.0 -0.5759944137
O  O36  1  0.68800000  0.60390000  0.18290000  1.0 -0.5759944137
O  O37  1  0.31200000  0.49490000  0.91590000  1.0 -0.5759944137
O  O38  1  0.57900000  0.39610000  0.08410000  1.0 -0.5759944137
O  O39  1  0.42100000  0.50510000  0.81710000  1.0 -0.5759944137
O  O40  1  0.18290000  0.68800000  0.60390000  1.0 -0.5759944137
O  O41  1  0.81710000  0.42100000  0.50510000  1.0 -0.5759944137
O  O42  1  0.49490000  0.91590000  0.31200000  1.0 -0.5759944137
O  O43  1  0.52500000  0.15170000  0.49830000  1.0 -0.5598204947
O  O44  1  0.65340000  0.02670000  0.50170000  1.0 -0.5598204947
O  O45  1  0.34660000  0.84830000  0.37330000  1.0 -0.5598204947
O  O46  1  0.97330000  0.62670000  0.47500000  1.0 -0.5598204947
O  O47  1  0.02670000  0.50170000  0.65340000  1.0 -0.5598204947
O  O48  1  0.37330000  0.34660000  0.84830000  1.0 -0.5598204947
O  O49  1  0.62670000  0.47500000  0.97330000  1.0 -0.5598204947
O  O50  1  0.50170000  0.65340000  0.02670000  1.0 -0.5598204947
O  O51  1  0.49830000  0.52500000  0.15170000  1.0 -0.5598204947
O  O52  1  0.84830000  0.37330000  0.34660000  1.0 -0.5598204947
O  O53  1  0.15170000  0.49830000  0.52500000  1.0 -0.5598204947
O  O54  1  0.47500000  0.97330000  0.62670000  1.0 -0.5598204947
O  O55  1  0.47500000  0.84830000  0.50170000  1.0 -0.5598204947
O  O56  1  0.34660000  0.97330000  0.49830000  1.0 -0.5598204947
O  O57  1  0.65340000  0.15170000  0.62670000  1.0 -0.5598204947
O  O58  1  0.02670000  0.37330000  0.52500000  1.0 -0.5598204947
O  O59  1  0.97330000  0.49830000  0.34660000  1.0 -0.5598204947
O  O60  1  0.62670000  0.65340000  0.15170000  1.0 -0.5598204947
O  O61  1  0.37330000  0.52500000  0.02670000  1.0 -0.5598204947
O  O62  1  0.49830000  0.34660000  0.97330000  1.0 -0.5598204947
O  O63  1  0.50170000  0.47500000  0.84830000  1.0 -0.5598204947
O  O64  1  0.15170000  0.62670000  0.65340000  1.0 -0.5598204947
O  O65  1  0.84830000  0.50170000  0.47500000  1.0 -0.5598204947
O  O66  1  0.52500000  0.02670000  0.37330000  1.0 -0.5598204947
O  O67  1  0.23500000  0.53800000  0.77300000  1.0 0.5575212572
O  O68  1  0.76500000  0.46200000  0.22700000  1.0 0.5575212572
O  O69  1  0.23500000  0.46200000  0.69700000  1.0 0.5575212572
O  O70  1  0.53800000  0.30300000  0.76500000  1.0 0.5575212572
O  O71  1  0.46200000  0.22700000  0.76500000  1.0 0.5575212572
O  O72  1  0.69700000  0.23500000  0.46200000  1.0 0.5575212572
O  O73  1  0.30300000  0.76500000  0.53800000  1.0 0.5575212572
O  O74  1  0.22700000  0.76500000  0.46200000  1.0 0.5575212572
O  O75  1  0.77300000  0.23500000  0.53800000  1.0 0.5575212572
O  O76  1  0.46200000  0.69700000  0.23500000  1.0 0.5575212572
O  O77  1  0.53800000  0.77300000  0.23500000  1.0 0.5575212572
O  O78  1  0.76500000  0.53800000  0.30300000  1.0 0.5575212572
