# DDEC6 charges by PACMAN v1.1 (https://github.com/mtap-research/PACMAN-charge/)
data_XIWYEH_ASR_pacman
_symmetry_space_group_name_H-M   'P 1'
_cell_length_a   10.74550000
_cell_length_b   6.34690000
_cell_length_c   20.64670000
_cell_angle_alpha   90.00000000
_cell_angle_beta   106.00200000
_cell_angle_gamma   90.00000000
_symmetry_Int_Tables_number   1
_chemical_formula_structural   Ti2P4H3O16
_chemical_formula_sum   'Ti8 P16 H12 O64'
_cell_volume   1353.55597857
_cell_formula_units_Z   4
loop_
 _symmetry_equiv_pos_site_id
 _symmetry_equiv_pos_as_xyz
  1  'x, y, z'
loop_
 _atom_site_type_symbol
 _atom_site_label
 _atom_site_symmetry_multiplicity
 _atom_site_fract_x
 _atom_site_fract_y
 _atom_site_fract_z
 _atom_site_occupancy
 _atom_site_charge
Ti  Ti1  1  0.69030000  0.03510000  0.79970000  1.0 2.1834439403
Ti  Ti2  1  0.30970000  0.53510000  0.70030000  1.0 2.1834439403
Ti  Ti3  1  0.30970000  0.96490000  0.20030000  1.0 2.1834439403
Ti  Ti4  1  0.69030000  0.46490000  0.29970000  1.0 2.1834439403
Ti  Ti5  1  0.70320000  0.54300000  0.60650000  1.0 2.1739316947
Ti  Ti6  1  0.29680000  0.04300000  0.89350000  1.0 2.1739316947
Ti  Ti7  1  0.29680000  0.45700000  0.39350000  1.0 2.1739316947
Ti  Ti8  1  0.70320000  0.95700000  0.10650000  1.0 2.1739316947
P  P1  1  0.99460000  0.17160000  0.82230000  1.0 1.5782820946
P  P2  1  0.00540000  0.67160000  0.67770000  1.0 1.5782820946
P  P3  1  0.00540000  0.82840000  0.17770000  1.0 1.5782820946
P  P4  1  0.99460000  0.32840000  0.32230000  1.0 1.5782820946
P  P5  1  0.64080000  0.53770000  0.75700000  1.0 1.6660225954
P  P6  1  0.35920000  0.03770000  0.74300000  1.0 1.6660225954
P  P7  1  0.35920000  0.46230000  0.24300000  1.0 1.6660225954
P  P8  1  0.64080000  0.96230000  0.25700000  1.0 1.6603068119
P  P9  1  0.65870000  0.04880000  0.63350000  1.0 1.6603068119
P  P10  1  0.34130000  0.54880000  0.86650000  1.0 1.6603068119
P  P11  1  0.34130000  0.95120000  0.36650000  1.0 1.6603068119
P  P12  1  0.65870000  0.45120000  0.13350000  1.0 1.6603068119
P  P13  1  0.62660000  0.08160000  0.94680000  1.0 1.6500517196
P  P14  1  0.37340000  0.58160000  0.55320000  1.0 1.6500517196
P  P15  1  0.37340000  0.91840000  0.05320000  1.0 1.6500517196
P  P16  1  0.62660000  0.41840000  0.44680000  1.0 1.6500517196
H  H1  1  0.06570000  0.24470000  0.74690000  1.0 0.4121914497
H  H2  1  0.93430000  0.74470000  0.75310000  1.0 0.4121914497
H  H3  1  0.93430000  0.75530000  0.25310000  1.0 0.4121914497
H  H4  1  0.06570000  0.25530000  0.24690000  1.0 0.4121914497
H  H5  1  0.49430000  0.19330000  0.63050000  1.0 0.4206016055
H  H6  1  0.50570000  0.69330000  0.86950000  1.0 0.4206016055
H  H7  1  0.50570000  0.80670000  0.36950000  1.0 0.4206016055
H  H8  1  0.49430000  0.30670000  0.13050000  1.0 0.4206016055
H  H9  1  0.58410000  0.38340000  0.93440000  1.0 0.4033965534
H  H10  1  0.41590000  0.88340000  0.56560000  1.0 0.4033965534
H  H11  1  0.41590000  0.61660000  0.06560000  1.0 0.4033965534
H  H12  1  0.58410000  0.11660000  0.43440000  1.0 0.4033965534
O  O1  1  0.68940000  0.72960000  0.80100000  1.0 -0.8106509083
O  O2  1  0.31060000  0.22960000  0.69900000  1.0 -0.8106509083
O  O3  1  0.31060000  0.27040000  0.19900000  1.0 -0.8106509083
O  O4  1  0.68940000  0.77040000  0.30100000  1.0 -0.8106509083
O  O5  1  0.69660000  0.02890000  0.89440000  1.0 -0.8036537403
O  O6  1  0.30340000  0.52890000  0.60560000  1.0 -0.8036537403
O  O7  1  0.30340000  0.97110000  0.10560000  1.0 -0.8036537403
O  O8  1  0.69660000  0.47110000  0.39440000  1.0 -0.8036537403
O  O9  1  0.68720000  0.34290000  0.79950000  1.0 -0.8295588726
O  O10  1  0.31280000  0.84290000  0.70050000  1.0 -0.8295588726
O  O11  1  0.31280000  0.65710000  0.20050000  1.0 -0.8295588726
O  O12  1  0.68720000  0.15710000  0.29950000  1.0 -0.8295588726
O  O13  1  0.70560000  0.03100000  0.70850000  1.0 -0.8295588726
O  O14  1  0.29440000  0.53100000  0.79150000  1.0 -0.8295588726
O  O15  1  0.29440000  0.96900000  0.29150000  1.0 -0.8295588726
O  O16  1  0.70560000  0.46900000  0.20850000  1.0 -0.8295588726
O  O17  1  0.49530000  0.53800000  0.73000000  1.0 -0.8666519159
O  O18  1  0.50470000  0.03800000  0.77000000  1.0 -0.8666519159
O  O19  1  0.50470000  0.46200000  0.27000000  1.0 -0.8666519159
O  O20  1  0.49530000  0.96200000  0.23000000  1.0 -0.8666519159
O  O21  1  0.87870000  0.04600000  0.82900000  1.0 -0.7900048429
O  O22  1  0.12130000  0.54600000  0.67100000  1.0 -0.7900048429
O  O23  1  0.12130000  0.95400000  0.17100000  1.0 -0.7900048429
O  O24  1  0.87870000  0.45400000  0.32900000  1.0 -0.7900048429
O  O25  1  0.69970000  0.54030000  0.69720000  1.0 -0.8598177069
O  O26  1  0.30030000  0.04030000  0.80280000  1.0 -0.8598177069
O  O27  1  0.30030000  0.45970000  0.30280000  1.0 -0.8598177069
O  O28  1  0.69970000  0.95970000  0.19720000  1.0 -0.8598177069
O  O29  1  0.68530000  0.84830000  0.59880000  1.0 -0.8106509083
O  O30  1  0.31470000  0.34830000  0.90120000  1.0 -0.8106509083
O  O31  1  0.31470000  0.15170000  0.40120000  1.0 -0.8106509083
O  O32  1  0.68530000  0.65170000  0.09880000  1.0 -0.8106509083
O  O33  1  0.69890000  0.96810000  0.01110000  1.0 -0.780070872
O  O34  1  0.30110000  0.46810000  0.48890000  1.0 -0.780070872
O  O35  1  0.30110000  0.03190000  0.98890000  1.0 -0.780070872
O  O36  1  0.69890000  0.53190000  0.51110000  1.0 -0.780070872
O  O37  1  0.72190000  0.23560000  0.60810000  1.0 -0.780070872
O  O38  1  0.27810000  0.73560000  0.89190000  1.0 -0.780070872
O  O39  1  0.27810000  0.76440000  0.39190000  1.0 -0.780070872
O  O40  1  0.72190000  0.26440000  0.10810000  1.0 -0.780070872
O  O41  1  0.11440000  0.06990000  0.87010000  1.0 -0.7900048429
O  O42  1  0.88560000  0.56990000  0.62990000  1.0 -0.7900048429
O  O43  1  0.88560000  0.93010000  0.12990000  1.0 -0.7900048429
O  O44  1  0.11440000  0.43010000  0.37010000  1.0 -0.7900048429
O  O45  1  0.48740000  0.01320000  0.92180000  1.0 -0.8598177069
O  O46  1  0.51260000  0.51320000  0.57820000  1.0 -0.8598177069
O  O47  1  0.51260000  0.98680000  0.07820000  1.0 -0.8598177069
O  O48  1  0.48740000  0.48680000  0.42180000  1.0 -0.8598177069
O  O49  1  0.00250000  0.17570000  0.74910000  1.0 -0.5587296122
O  O50  1  0.99750000  0.67570000  0.75090000  1.0 -0.5587296122
O  O51  1  0.99750000  0.82430000  0.25090000  1.0 -0.5543944472
O  O52  1  0.00250000  0.32430000  0.24910000  1.0 -0.5587296122
O  O53  1  0.98860000  0.40130000  0.84280000  1.0 -0.610978865
O  O54  1  0.01140000  0.90130000  0.65720000  1.0 -0.610978865
O  O55  1  0.01140000  0.59870000  0.15720000  1.0 -0.610978865
O  O56  1  0.98860000  0.09870000  0.34280000  1.0 -0.610978865
O  O57  1  0.51060000  0.08450000  0.61300000  1.0 -0.5918455356
O  O58  1  0.48940000  0.58450000  0.88700000  1.0 -0.5918455356
O  O59  1  0.48940000  0.91550000  0.38700000  1.0 -0.5918455356
O  O60  1  0.51060000  0.41550000  0.11300000  1.0 -0.5918455356
O  O61  1  0.63860000  0.31840000  0.96310000  1.0 -0.5758172357
O  O62  1  0.36140000  0.81840000  0.53690000  1.0 -0.5758172357
O  O63  1  0.36140000  0.68160000  0.03690000  1.0 -0.5758172357
O  O64  1  0.63860000  0.18160000  0.46310000  1.0 -0.5758172357
