# DDEC6 charges by PACMAN v1.1 (https://github.com/mtap-research/PACMAN-charge/)
data_XOCQOY_FSR_pacman
_chemical_formula_sum              "O48 C204 H96 F72 Co6 Zn4 Mn6"
_cell_length_a       21.2716
_cell_length_b       21.2716
_cell_length_c       15.1756
_cell_angle_alpha    90
_cell_angle_beta     90
_cell_angle_gamma    120

_symmetry_space_group_name_H-M    "P 1"
_symmetry_Int_Tables_number       1

loop_
  _symmetry_equiv_pos_as_xyz
  'x, y, z'

loop_
  _atom_site_type_symbol
  _atom_site_label
  _atom_site_symmetry_multiplicity
  _atom_site_fract_x
  _atom_site_fract_y
  _atom_site_fract_z
  _atom_site_occupancy
 _atom_site_charge
O   O1        1.0  0.20360  0.70120  0.15750  1.0000 -0.5385881609
O   O2        1.0  0.74470  0.37460  0.52040  1.0000 -0.6550918168
C   C1        1.0  0.19480  0.67990  0.23690  1.0000 0.58986265
O   O3        1.0  0.23000  0.65550  0.27490  1.0000 -0.6202508555
C   C2        1.0  0.13650  0.68440  0.28770  1.0000 -0.0285872018
O   O4        1.0  0.73310  0.42440  0.64490  1.0000 -0.6099445766
C   C3        1.0  0.10180  0.71850  0.24910  1.0000 -0.0924860931
C   C4        1.0  0.11880  0.65920  0.37340  1.0000 -0.0976203135
H   H1        1.0  0.11290  0.73550  0.19080  1.0000 0.1194523498
C   C5        1.0  0.05160  0.72730  0.29620  1.0000 -0.1561718679
H   H2        1.0  0.14220  0.63680  0.40070  1.0000 0.1194523498
C   C6        1.0  0.06740  0.66690  0.41830  1.0000 -0.1489451334
C   C7        1.0  0.03370  0.70250  0.38150  1.0000 0.0734817588
H   H3        1.0  0.02900  0.75070  0.26960  1.0000 0.1127469793
H   H4        1.0  0.05450  0.64780  0.47550  1.0000 0.1127469793
C   C8        1.0  0.97960  0.71280  0.43830  1.0000 -0.284166127
C   C9        1.0  0.92080  0.63960  0.47550  1.0000 0.0786229873
C   C10       1.0  0.02520  0.76720  0.51320  1.0000 0.6571396866
C   C11       1.0  0.94030  0.74500  0.38540  1.0000 0.6571396866
C   C12       1.0  0.89590  0.57740  0.42530  1.0000 -0.1410607977
C   C13       1.0  0.88860  0.63130  0.55870  1.0000 -0.1410607977
F   F1        1.0  0.04740  0.73770  0.57180  1.0000 -0.1943840182
F   F2        1.0  0.08350  0.82480  0.47850  1.0000 -0.197079854
F   F3        1.0  0.98830  0.79380  0.55570  1.0000 -0.197079854
F   F4        1.0  0.90630  0.70410  0.31640  1.0000 -0.1943840182
F   F5        1.0  0.98460  0.81250  0.35670  1.0000 -0.197079854
F   F6        1.0  0.88930  0.74830  0.43450  1.0000 -0.197079854
H   H5        1.0  0.91630  0.58140  0.36920  1.0000 0.1194523498
C   C14       1.0  0.84340  0.51080  0.45280  1.0000 -0.1308802356
C   C15       1.0  0.83570  0.56470  0.58690  1.0000 -0.0924860931
H   H6        1.0  0.90370  0.67200  0.59540  1.0000 0.1127469793
C   C16       1.0  0.81350  0.50300  0.53600  1.0000 -0.0355922992
H   H7        1.0  0.82740  0.47030  0.41560  1.0000 0.1127469793
H   H8        1.0  0.81390  0.56050  0.64210  1.0000 0.1300351327
C   C17       1.0  0.75910  0.43000  0.57010  1.0000 0.6213016861
O   O5        1.0  0.29880  0.50240  0.82417  1.0000 -0.6282282418
O   O6        1.0  0.62540  0.37010  0.18707  1.0000 -0.7294537372
C   C18       1.0  0.32010  0.51490  0.90357  1.0000 0.5580147095
O   O7        1.0  0.34450  0.57450  0.94157  1.0000 -0.6202508555
C   C19       1.0  0.31560  0.45210  0.95437  1.0000 -0.0133735717
O   O8        1.0  0.57560  0.30870  0.31157  1.0000 -0.6099445766
C   C20       1.0  0.28150  0.38330  0.91577  1.0000 -0.0976203135
C   C21       1.0  0.34080  0.45960  0.04007  1.0000 -0.0976203135
H   H9        1.0  0.26450  0.37740  0.85747  1.0000 0.1300351327
C   C22       1.0  0.27270  0.32430  0.96287  1.0000 -0.1489451334
H   H10       1.0  0.36320  0.50540  0.06737  1.0000 0.1300351327
C   C23       1.0  0.33310  0.40050  0.08497  1.0000 -0.1410607977
C   C24       1.0  0.29750  0.33120  0.04817  1.0000 0.0734817588
H   H11       1.0  0.24930  0.27830  0.93627  1.0000 0.1127469793
H   H12       1.0  0.35220  0.40670  0.14217  1.0000 0.1127469793
C   C25       1.0  0.28720  0.26680  0.10497  1.0000 -0.284166127
C   C26       1.0  0.36040  0.28120  0.14217  1.0000 0.0786229873
C   C27       1.0  0.23280  0.25800  0.17987  1.0000 0.6571396866
C   C28       1.0  0.25500  0.19530  0.05207  1.0000 0.6571396866
C   C29       1.0  0.42260  0.31850  0.09197  1.0000 -0.1308802356
C   C30       1.0  0.36870  0.25730  0.22537  1.0000 -0.1410607977
F   F7        1.0  0.26230  0.30970  0.23847  1.0000 -0.197079854
F   F8        1.0  0.17520  0.25870  0.14517  1.0000 -0.197079854
F   F9        1.0  0.20620  0.19450  0.22237  1.0000 -0.197079854
F   F10       1.0  0.29590  0.20220  0.98307  1.0000 -0.197079854
F   F11       1.0  0.18750  0.17210  0.02337  1.0000 -0.197079854
F   F12       1.0  0.25170  0.14100  0.10117  1.0000 -0.197079854
H   H13       1.0  0.41860  0.33490  0.03587  1.0000 0.1194523498
C   C31       1.0  0.48920  0.33260  0.11947  1.0000 -0.1410607977
C   C32       1.0  0.43530  0.27100  0.25357  1.0000 -0.0924860931
H   H14       1.0  0.32800  0.23170  0.26207  1.0000 0.1194523498
C   C33       1.0  0.49700  0.31050  0.20267  1.0000 -0.0163348552
H   H15       1.0  0.52970  0.35710  0.08227  1.0000 0.1127469793
H   H16       1.0  0.43950  0.25340  0.30877  1.0000 0.1300351327
C   C34       1.0  0.57000  0.32910  0.23677  1.0000 0.5580147095
O   O9        1.0  0.49760  0.79640  0.49083  1.0000 -0.6282282418
O   O10       1.0  0.62990  0.25530  0.85373  1.0000 -0.7294537372
C   C35       1.0  0.48510  0.80520  0.57023  1.0000 0.5549286657
O   O11       1.0  0.42550  0.77000  0.60823  1.0000 -0.6202508555
C   C36       1.0  0.54790  0.86350  0.62103  1.0000 -0.0163348552
O   O12       1.0  0.69130  0.26690  0.97823  1.0000 -0.6099445766
C   C37       1.0  0.61670  0.89820  0.58243  1.0000 -0.0976203135
C   C38       1.0  0.54040  0.88120  0.70673  1.0000 -0.0976203135
H   H17       1.0  0.62260  0.88710  0.52413  1.0000 0.1300351327
C   C39       1.0  0.67570  0.94840  0.62953  1.0000 -0.1489451334
H   H18       1.0  0.49460  0.85780  0.73403  1.0000 0.1300351327
C   C40       1.0  0.59950  0.93260  0.75163  1.0000 -0.1410607977
C   C41       1.0  0.66880  0.96630  0.71483  1.0000 0.0734817588
H   H19       1.0  0.72170  0.97100  0.60293  1.0000 0.1194523498
H   H20       1.0  0.59330  0.94550  0.80883  1.0000 0.1194523498
C   C42       1.0  0.73320  0.02040  0.77163  1.0000 -0.284166127
C   C43       1.0  0.71880  0.07920  0.80883  1.0000 0.0786229873
C   C44       1.0  0.74200  0.97480  0.84653  1.0000 0.6571396866
C   C45       1.0  0.80470  0.05970  0.71873  1.0000 0.6571396866
C   C46       1.0  0.68150  0.10410  0.75863  1.0000 -0.1308802356
C   C47       1.0  0.74270  0.11140  0.89203  1.0000 -0.1489451334
F   F13       1.0  0.69030  0.95260  0.90513  1.0000 -0.1943840182
F   F14       1.0  0.74130  0.91650  0.81183  1.0000 -0.197079854
F   F15       1.0  0.80550  0.01170  0.88903  1.0000 -0.197079854
F   F16       1.0  0.79780  0.09370  0.64973  1.0000 -0.1943840182
F   F17       1.0  0.82790  0.01540  0.69003  1.0000 -0.197079854
F   F18       1.0  0.85900  0.11070  0.76783  1.0000 -0.197079854
H   H21       1.0  0.66510  0.08370  0.70253  1.0000 0.1194523498
C   C48       1.0  0.66740  0.15660  0.78613  1.0000 -0.1098438895
C   C49       1.0  0.72900  0.16430  0.92023  1.0000 -0.0924860931
H   H22       1.0  0.76830  0.09630  0.92873  1.0000 0.1127469793
C   C50       1.0  0.68950  0.18650  0.86933  1.0000 -0.0163348552
H   H23       1.0  0.64290  0.17260  0.74893  1.0000 0.1194523498
H   H24       1.0  0.74660  0.18610  0.97543  1.0000 0.1300351327
C   C51       1.0  0.67090  0.24090  0.90343  1.0000 0.5665426904
O   O13       1.0  0.79640  0.29880  0.65750  1.0000 -0.5385881609
O   O14       1.0  0.25530  0.62540  0.02040  1.0000 -0.6550918168
C   C52       1.0  0.80520  0.32010  0.73690  1.0000 0.58986265
O   O15       1.0  0.77000  0.34450  0.77490  1.0000 -0.6202508555
C   C53       1.0  0.86350  0.31560  0.78770  1.0000 -0.0285872018
O   O16       1.0  0.26690  0.57560  0.14490  1.0000 -0.6099445766
C   C54       1.0  0.89820  0.28150  0.74910  1.0000 -0.0924860931
C   C55       1.0  0.88120  0.34080  0.87340  1.0000 -0.0976203135
H   H25       1.0  0.88710  0.26450  0.69080  1.0000 0.1194523498
C   C56       1.0  0.94840  0.27270  0.79620  1.0000 -0.1561718679
H   H26       1.0  0.85780  0.36320  0.90070  1.0000 0.1194523498
C   C57       1.0  0.93260  0.33310  0.91830  1.0000 -0.1489451334
C   C58       1.0  0.96630  0.29750  0.88150  1.0000 0.0734817588
H   H27       1.0  0.97100  0.24930  0.76960  1.0000 0.1127469793
H   H28       1.0  0.94550  0.35220  0.97550  1.0000 0.1127469793
C   C59       1.0  0.02040  0.28720  0.93830  1.0000 -0.284166127
C   C60       1.0  0.07920  0.36040  0.97550  1.0000 0.0786229873
C   C61       1.0  0.97480  0.23280  0.01320  1.0000 0.6571396866
C   C62       1.0  0.05970  0.25500  0.88540  1.0000 0.6571396866
C   C63       1.0  0.10410  0.42260  0.92530  1.0000 -0.1410607977
C   C64       1.0  0.11140  0.36870  0.05870  1.0000 -0.1410607977
F   F19       1.0  0.95260  0.26230  0.07180  1.0000 -0.1943840182
F   F20       1.0  0.91650  0.17520  0.97850  1.0000 -0.197079854
F   F21       1.0  0.01170  0.20620  0.05570  1.0000 -0.197079854
F   F22       1.0  0.09370  0.29590  0.81640  1.0000 -0.197079854
F   F23       1.0  0.01540  0.18750  0.85670  1.0000 -0.197079854
F   F24       1.0  0.11070  0.25170  0.93450  1.0000 -0.197079854
H   H29       1.0  0.08370  0.41860  0.86920  1.0000 0.1194523498
C   C65       1.0  0.15660  0.48920  0.95280  1.0000 -0.1308802356
C   C66       1.0  0.16430  0.43530  0.08690  1.0000 -0.0924860931
H   H30       1.0  0.09630  0.32800  0.09540  1.0000 0.1127469793
C   C67       1.0  0.18650  0.49700  0.03600  1.0000 -0.0355922992
H   H31       1.0  0.17260  0.52970  0.91560  1.0000 0.1127469793
H   H32       1.0  0.18610  0.43950  0.14210  1.0000 0.1300351327
C   C68       1.0  0.24090  0.57000  0.07010  1.0000 0.6213016861
O   O17       1.0  0.70120  0.49760  0.32417  1.0000 -0.6282282418
O   O18       1.0  0.37460  0.62990  0.68707  1.0000 -0.7294537372
C   C69       1.0  0.67990  0.48510  0.40357  1.0000 0.5580147095
O   O19       1.0  0.65550  0.42550  0.44157  1.0000 -0.6202508555
C   C70       1.0  0.68440  0.54790  0.45437  1.0000 -0.0133735717
O   O20       1.0  0.42440  0.69130  0.81157  1.0000 -0.6099445766
C   C71       1.0  0.71850  0.61670  0.41577  1.0000 -0.0976203135
C   C72       1.0  0.65920  0.54040  0.54007  1.0000 -0.0976203135
H   H33       1.0  0.73550  0.62260  0.35747  1.0000 0.1300351327
C   C73       1.0  0.72730  0.67570  0.46287  1.0000 -0.1489451334
H   H34       1.0  0.63680  0.49460  0.56737  1.0000 0.1300351327
C   C74       1.0  0.66690  0.59950  0.58497  1.0000 -0.1410607977
C   C75       1.0  0.70250  0.66880  0.54817  1.0000 0.0734817588
H   H35       1.0  0.75070  0.72170  0.43627  1.0000 0.1127469793
H   H36       1.0  0.64780  0.59330  0.64217  1.0000 0.1127469793
C   C76       1.0  0.71280  0.73320  0.60497  1.0000 -0.284166127
C   C77       1.0  0.63960  0.71880  0.64217  1.0000 0.0786229873
C   C78       1.0  0.76720  0.74200  0.67987  1.0000 0.6571396866
C   C79       1.0  0.74500  0.80470  0.55207  1.0000 0.6571396866
C   C80       1.0  0.57740  0.68150  0.59197  1.0000 -0.1308802356
C   C81       1.0  0.63130  0.74270  0.72537  1.0000 -0.1410607977
F   F25       1.0  0.73770  0.69030  0.73847  1.0000 -0.197079854
F   F26       1.0  0.82480  0.74130  0.64517  1.0000 -0.197079854
F   F27       1.0  0.79380  0.80550  0.72237  1.0000 -0.197079854
F   F28       1.0  0.70410  0.79780  0.48307  1.0000 -0.197079854
F   F29       1.0  0.81250  0.82790  0.52337  1.0000 -0.197079854
F   F30       1.0  0.74830  0.85900  0.60117  1.0000 -0.197079854
H   H37       1.0  0.58140  0.66510  0.53587  1.0000 0.1194523498
C   C82       1.0  0.51080  0.66740  0.61947  1.0000 -0.1410607977
C   C83       1.0  0.56470  0.72900  0.75357  1.0000 -0.0924860931
H   H38       1.0  0.67200  0.76830  0.76207  1.0000 0.1194523498
C   C84       1.0  0.50300  0.68950  0.70267  1.0000 -0.0163348552
H   H39       1.0  0.47030  0.64290  0.58227  1.0000 0.1127469793
H   H40       1.0  0.56050  0.74660  0.80877  1.0000 0.1300351327
C   C85       1.0  0.43000  0.67090  0.73677  1.0000 0.5580147095
O   O21       1.0  0.50240  0.20360  0.99083  1.0000 -0.6282282418
O   O22       1.0  0.37010  0.74470  0.35373  1.0000 -0.7294537372
C   C86       1.0  0.51490  0.19480  0.07023  1.0000 0.5580147095
O   O23       1.0  0.57450  0.23000  0.10823  1.0000 -0.6202508555
C   C87       1.0  0.45210  0.13650  0.12103  1.0000 -0.0163348552
O   O24       1.0  0.30870  0.73310  0.47823  1.0000 -0.6099445766
C   C88       1.0  0.38330  0.10180  0.08243  1.0000 -0.0976203135
C   C89       1.0  0.45960  0.11880  0.20673  1.0000 -0.0976203135
H   H41       1.0  0.37740  0.11290  0.02413  1.0000 0.1300351327
C   C90       1.0  0.32430  0.05160  0.12953  1.0000 -0.1489451334
H   H42       1.0  0.50540  0.14220  0.23403  1.0000 0.1300351327
C   C91       1.0  0.40050  0.06740  0.25163  1.0000 -0.1410607977
C   C92       1.0  0.33120  0.03370  0.21483  1.0000 0.0734817588
H   H43       1.0  0.27830  0.02900  0.10293  1.0000 0.1194523498
H   H44       1.0  0.40670  0.05450  0.30883  1.0000 0.1194523498
C   C93       1.0  0.26680  0.97960  0.27163  1.0000 -0.284166127
C   C94       1.0  0.28120  0.92080  0.30883  1.0000 0.0786229873
C   C95       1.0  0.25800  0.02520  0.34653  1.0000 0.6571396866
C   C96       1.0  0.19530  0.94030  0.21873  1.0000 0.6571396866
C   C97       1.0  0.31850  0.89590  0.25863  1.0000 -0.1308802356
C   C98       1.0  0.25730  0.88860  0.39203  1.0000 -0.1489451334
F   F31       1.0  0.30970  0.04740  0.40513  1.0000 -0.1943840182
F   F32       1.0  0.25870  0.08350  0.31183  1.0000 -0.197079854
F   F33       1.0  0.19450  0.98830  0.38903  1.0000 -0.197079854
F   F34       1.0  0.20220  0.90630  0.14973  1.0000 -0.1943840182
F   F35       1.0  0.17210  0.98460  0.19003  1.0000 -0.197079854
F   F36       1.0  0.14100  0.88930  0.26783  1.0000 -0.197079854
H   H45       1.0  0.33490  0.91630  0.20253  1.0000 0.1194523498
C   C99       1.0  0.33260  0.84340  0.28613  1.0000 -0.1098438895
C   C100      1.0  0.27100  0.83570  0.42023  1.0000 -0.0924860931
H   H46       1.0  0.23170  0.90370  0.42873  1.0000 0.1127469793
C   C101      1.0  0.31050  0.81350  0.36933  1.0000 -0.0163348552
H   H47       1.0  0.35710  0.82740  0.24893  1.0000 0.1194523498
H   H48       1.0  0.25340  0.81390  0.47543  1.0000 0.1300351327
C   C102      1.0  0.32910  0.75910  0.40343  1.0000 0.5665426904
O   O25       1.0  0.70120  0.20360  0.50917  1.0000 -0.5385881609
O   O26       1.0  0.37460  0.74470  0.14627  1.0000 -0.6550918168
C   C103      1.0  0.67990  0.19480  0.42977  1.0000 0.58986265
O   O27       1.0  0.65550  0.23000  0.39177  1.0000 -0.6202508555
C   C104      1.0  0.68440  0.13650  0.37897  1.0000 -0.0285872018
O   O28       1.0  0.42440  0.73310  0.02177  1.0000 -0.6099445766
C   C105      1.0  0.71850  0.10180  0.41757  1.0000 -0.0924860931
C   C106      1.0  0.65920  0.11880  0.29327  1.0000 -0.0976203135
H   H49       1.0  0.73550  0.11290  0.47587  1.0000 0.1194523498
C   C107      1.0  0.72730  0.05160  0.37047  1.0000 -0.1561718679
H   H50       1.0  0.63680  0.14220  0.26597  1.0000 0.1194523498
C   C108      1.0  0.66690  0.06740  0.24837  1.0000 -0.1489451334
C   C109      1.0  0.70250  0.03370  0.28517  1.0000 0.0734817588
H   H51       1.0  0.75070  0.02900  0.39707  1.0000 0.1127469793
H   H52       1.0  0.64780  0.05450  0.19117  1.0000 0.1127469793
C   C110      1.0  0.71280  0.97960  0.22837  1.0000 -0.284166127
C   C111      1.0  0.63960  0.92080  0.19117  1.0000 0.0786229873
C   C112      1.0  0.76720  0.02520  0.15347  1.0000 0.6571396866
C   C113      1.0  0.74500  0.94030  0.28127  1.0000 0.6571396866
C   C114      1.0  0.57740  0.89590  0.24137  1.0000 -0.1410607977
C   C115      1.0  0.63130  0.88860  0.10797  1.0000 -0.1410607977
F   F37       1.0  0.73770  0.04740  0.09487  1.0000 -0.1943840182
F   F38       1.0  0.82480  0.08350  0.18817  1.0000 -0.197079854
F   F39       1.0  0.79380  0.98830  0.11097  1.0000 -0.197079854
F   F40       1.0  0.70410  0.90630  0.35027  1.0000 -0.1943840182
F   F41       1.0  0.81250  0.98460  0.30997  1.0000 -0.197079854
F   F42       1.0  0.74830  0.88930  0.23217  1.0000 -0.197079854
H   H53       1.0  0.58140  0.91630  0.29747  1.0000 0.1194523498
C   C116      1.0  0.51080  0.84340  0.21387  1.0000 -0.1308802356
C   C117      1.0  0.56470  0.83570  0.07977  1.0000 -0.0924860931
H   H54       1.0  0.67200  0.90370  0.07127  1.0000 0.1127469793
C   C118      1.0  0.50300  0.81350  0.13067  1.0000 -0.0355922992
H   H55       1.0  0.47030  0.82740  0.25107  1.0000 0.1127469793
H   H56       1.0  0.56050  0.81390  0.02457  1.0000 0.1300351327
C   C119      1.0  0.43000  0.75910  0.09657  1.0000 0.6213016861
O   O29       1.0  0.50240  0.29880  0.84250  1.0000 -0.6282282418
O   O30       1.0  0.37010  0.62540  0.47960  1.0000 -0.7294537372
C   C120      1.0  0.51490  0.32010  0.76310  1.0000 0.5580147095
O   O31       1.0  0.57450  0.34450  0.72510  1.0000 -0.6202508555
C   C121      1.0  0.45210  0.31560  0.71230  1.0000 -0.0133735717
O   O32       1.0  0.30870  0.57560  0.35510  1.0000 -0.6099445766
C   C122      1.0  0.38330  0.28150  0.75090  1.0000 -0.0976203135
C   C123      1.0  0.45960  0.34080  0.62660  1.0000 -0.0976203135
H   H57       1.0  0.37740  0.26450  0.80920  1.0000 0.1300351327
C   C124      1.0  0.32430  0.27270  0.70380  1.0000 -0.1489451334
H   H58       1.0  0.50540  0.36320  0.59930  1.0000 0.1300351327
C   C125      1.0  0.40050  0.33310  0.58170  1.0000 -0.1410607977
C   C126      1.0  0.33120  0.29750  0.61850  1.0000 0.0734817588
H   H59       1.0  0.27830  0.24930  0.73040  1.0000 0.1127469793
H   H60       1.0  0.40670  0.35220  0.52450  1.0000 0.1127469793
C   C127      1.0  0.26680  0.28720  0.56170  1.0000 -0.284166127
C   C128      1.0  0.28120  0.36040  0.52450  1.0000 0.0786229873
C   C129      1.0  0.25800  0.23280  0.48680  1.0000 0.6571396866
C   C130      1.0  0.19530  0.25500  0.61460  1.0000 0.6571396866
C   C131      1.0  0.31850  0.42260  0.57470  1.0000 -0.1308802356
C   C132      1.0  0.25730  0.36870  0.44130  1.0000 -0.1410607977
F   F43       1.0  0.30970  0.26230  0.42820  1.0000 -0.197079854
F   F44       1.0  0.25870  0.17520  0.52150  1.0000 -0.197079854
F   F45       1.0  0.19450  0.20620  0.44430  1.0000 -0.197079854
F   F46       1.0  0.20220  0.29590  0.68360  1.0000 -0.197079854
F   F47       1.0  0.17210  0.18750  0.64330  1.0000 -0.197079854
F   F48       1.0  0.14100  0.25170  0.56550  1.0000 -0.197079854
H   H61       1.0  0.33490  0.41860  0.63080  1.0000 0.1194523498
C   C133      1.0  0.33260  0.48920  0.54720  1.0000 -0.1410607977
C   C134      1.0  0.27100  0.43530  0.41310  1.0000 -0.0924860931
H   H62       1.0  0.23170  0.32800  0.40460  1.0000 0.1194523498
C   C135      1.0  0.31050  0.49700  0.46400  1.0000 -0.0163348552
H   H63       1.0  0.35710  0.52970  0.58440  1.0000 0.1127469793
H   H64       1.0  0.25340  0.43950  0.35790  1.0000 0.1300351327
C   C136      1.0  0.32910  0.57000  0.42990  1.0000 0.5580147095
O   O33       1.0  0.79640  0.49760  0.17583  1.0000 -0.6282282418
O   O34       1.0  0.25530  0.62990  0.81293  1.0000 -0.7294537372
C   C137      1.0  0.80520  0.48510  0.09643  1.0000 0.5549286657
O   O35       1.0  0.77000  0.42550  0.05843  1.0000 -0.6202508555
C   C138      1.0  0.86350  0.54790  0.04563  1.0000 -0.0163348552
O   O36       1.0  0.26690  0.69130  0.68843  1.0000 -0.6099445766
C   C139      1.0  0.89820  0.61670  0.08423  1.0000 -0.0976203135
C   C140      1.0  0.88120  0.54040  0.95993  1.0000 -0.0976203135
H   H65       1.0  0.88710  0.62260  0.14253  1.0000 0.1300351327
C   C141      1.0  0.94840  0.67570  0.03713  1.0000 -0.1489451334
H   H66       1.0  0.85780  0.49460  0.93263  1.0000 0.1300351327
C   C142      1.0  0.93260  0.59950  0.91503  1.0000 -0.1410607977
C   C143      1.0  0.96630  0.66880  0.95183  1.0000 0.0734817588
H   H67       1.0  0.97100  0.72170  0.06373  1.0000 0.1194523498
H   H68       1.0  0.94550  0.59330  0.85783  1.0000 0.1194523498
C   C144      1.0  0.02040  0.73320  0.89503  1.0000 -0.284166127
C   C145      1.0  0.07920  0.71880  0.85783  1.0000 0.0786229873
C   C146      1.0  0.97480  0.74200  0.82013  1.0000 0.6571396866
C   C147      1.0  0.05970  0.80470  0.94793  1.0000 0.6571396866
C   C148      1.0  0.10410  0.68150  0.90803  1.0000 -0.1308802356
C   C149      1.0  0.11140  0.74270  0.77463  1.0000 -0.1489451334
F   F49       1.0  0.95260  0.69030  0.76153  1.0000 -0.1943840182
F   F50       1.0  0.91650  0.74130  0.85483  1.0000 -0.197079854
F   F51       1.0  0.01170  0.80550  0.77763  1.0000 -0.197079854
F   F52       1.0  0.09370  0.79780  0.01693  1.0000 -0.1943840182
F   F53       1.0  0.01540  0.82790  0.97663  1.0000 -0.197079854
F   F54       1.0  0.11070  0.85900  0.89883  1.0000 -0.197079854
H   H69       1.0  0.08370  0.66510  0.96413  1.0000 0.1194523498
C   C150      1.0  0.15660  0.66740  0.88053  1.0000 -0.1098438895
C   C151      1.0  0.16430  0.72900  0.74643  1.0000 -0.0924860931
H   H70       1.0  0.09630  0.76830  0.73793  1.0000 0.1127469793
C   C152      1.0  0.18650  0.68950  0.79733  1.0000 -0.0163348552
H   H71       1.0  0.17260  0.64290  0.91773  1.0000 0.1194523498
H   H72       1.0  0.18610  0.74660  0.69123  1.0000 0.1300351327
C   C153      1.0  0.24090  0.67090  0.76323  1.0000 0.5665426904
O   O37       1.0  0.29880  0.79640  0.00917  1.0000 -0.5385881609
O   O38       1.0  0.62540  0.25530  0.64627  1.0000 -0.6550918168
C   C154      1.0  0.32010  0.80520  0.92977  1.0000 0.58986265
O   O39       1.0  0.34450  0.77000  0.89177  1.0000 -0.6202508555
C   C155      1.0  0.31560  0.86350  0.87897  1.0000 -0.0285872018
O   O40       1.0  0.57560  0.26690  0.52177  1.0000 -0.6099445766
C   C156      1.0  0.28150  0.89820  0.91757  1.0000 -0.0924860931
C   C157      1.0  0.34080  0.88120  0.79327  1.0000 -0.0976203135
H   H73       1.0  0.26450  0.88710  0.97587  1.0000 0.1194523498
C   C158      1.0  0.27270  0.94840  0.87047  1.0000 -0.1561718679
H   H74       1.0  0.36320  0.85780  0.76597  1.0000 0.1194523498
C   C159      1.0  0.33310  0.93260  0.74837  1.0000 -0.1489451334
C   C160      1.0  0.29750  0.96630  0.78517  1.0000 0.0734817588
H   H75       1.0  0.24930  0.97100  0.89707  1.0000 0.1127469793
H   H76       1.0  0.35220  0.94550  0.69117  1.0000 0.1127469793
C   C161      1.0  0.28720  0.02040  0.72837  1.0000 -0.284166127
C   C162      1.0  0.36040  0.07920  0.69117  1.0000 0.0786229873
C   C163      1.0  0.23280  0.97480  0.65347  1.0000 0.6571396866
C   C164      1.0  0.25500  0.05970  0.78127  1.0000 0.6571396866
C   C165      1.0  0.42260  0.10410  0.74137  1.0000 -0.1410607977
C   C166      1.0  0.36870  0.11140  0.60797  1.0000 -0.1410607977
F   F55       1.0  0.26230  0.95260  0.59487  1.0000 -0.1943840182
F   F56       1.0  0.17520  0.91650  0.68817  1.0000 -0.197079854
F   F57       1.0  0.20620  0.01170  0.61097  1.0000 -0.197079854
F   F58       1.0  0.29590  0.09370  0.85027  1.0000 -0.1943840182
F   F59       1.0  0.18750  0.01540  0.80997  1.0000 -0.197079854
F   F60       1.0  0.25170  0.11070  0.73217  1.0000 -0.197079854
H   H77       1.0  0.41860  0.08370  0.79747  1.0000 0.1194523498
C   C167      1.0  0.48920  0.15660  0.71387  1.0000 -0.1308802356
C   C168      1.0  0.43530  0.16430  0.57977  1.0000 -0.0924860931
H   H78       1.0  0.32800  0.09630  0.57127  1.0000 0.1127469793
C   C169      1.0  0.49700  0.18650  0.63067  1.0000 -0.0355922992
H   H79       1.0  0.52970  0.17260  0.75107  1.0000 0.1127469793
H   H80       1.0  0.43950  0.18610  0.52457  1.0000 0.1300351327
C   C170      1.0  0.57000  0.24090  0.59657  1.0000 0.6213016861
O   O41       1.0  0.49760  0.70120  0.34250  1.0000 -0.6282282418
O   O42       1.0  0.62990  0.37460  0.97960  1.0000 -0.7294537372
C   C171      1.0  0.48510  0.67990  0.26310  1.0000 0.5580147095
O   O43       1.0  0.42550  0.65550  0.22510  1.0000 -0.6202508555
C   C172      1.0  0.54790  0.68440  0.21230  1.0000 -0.0133735717
O   O44       1.0  0.69130  0.42440  0.85510  1.0000 -0.6099445766
C   C173      1.0  0.61670  0.71850  0.25090  1.0000 -0.0976203135
C   C174      1.0  0.54040  0.65920  0.12660  1.0000 -0.0976203135
H   H81       1.0  0.62260  0.73550  0.30920  1.0000 0.1300351327
C   C175      1.0  0.67570  0.72730  0.20380  1.0000 -0.1489451334
H   H82       1.0  0.49460  0.63680  0.09930  1.0000 0.1300351327
C   C176      1.0  0.59950  0.66690  0.08170  1.0000 -0.1410607977
C   C177      1.0  0.66880  0.70250  0.11850  1.0000 0.0734817588
H   H83       1.0  0.72170  0.75070  0.23040  1.0000 0.1127469793
H   H84       1.0  0.59330  0.64780  0.02450  1.0000 0.1127469793
C   C178      1.0  0.73320  0.71280  0.06170  1.0000 -0.284166127
C   C179      1.0  0.71880  0.63960  0.02450  1.0000 0.0786229873
C   C180      1.0  0.74200  0.76720  0.98680  1.0000 0.6571396866
C   C181      1.0  0.80470  0.74500  0.11460  1.0000 0.6571396866
C   C182      1.0  0.68150  0.57740  0.07470  1.0000 -0.1308802356
C   C183      1.0  0.74270  0.63130  0.94130  1.0000 -0.1410607977
F   F61       1.0  0.69030  0.73770  0.92820  1.0000 -0.197079854
F   F62       1.0  0.74130  0.82480  0.02150  1.0000 -0.197079854
F   F63       1.0  0.80550  0.79380  0.94430  1.0000 -0.197079854
F   F64       1.0  0.79780  0.70410  0.18360  1.0000 -0.197079854
F   F65       1.0  0.82790  0.81250  0.14330  1.0000 -0.197079854
F   F66       1.0  0.85900  0.74830  0.06550  1.0000 -0.197079854
H   H85       1.0  0.66510  0.58140  0.13080  1.0000 0.1194523498
C   C184      1.0  0.66740  0.51080  0.04720  1.0000 -0.1410607977
C   C185      1.0  0.72900  0.56470  0.91310  1.0000 -0.0924860931
H   H86       1.0  0.76830  0.67200  0.90460  1.0000 0.1194523498
C   C186      1.0  0.68950  0.50300  0.96400  1.0000 -0.0163348552
H   H87       1.0  0.64290  0.47030  0.08440  1.0000 0.1127469793
H   H88       1.0  0.74660  0.56050  0.85790  1.0000 0.1300351327
C   C187      1.0  0.67090  0.43000  0.92990  1.0000 0.5580147095
O   O45       1.0  0.20360  0.50240  0.67583  1.0000 -0.6282282418
O   O46       1.0  0.74470  0.37010  0.31293  1.0000 -0.7294537372
C   C188      1.0  0.19480  0.51490  0.59643  1.0000 0.5549286657
O   O47       1.0  0.23000  0.57450  0.55843  1.0000 -0.6202508555
C   C189      1.0  0.13650  0.45210  0.54563  1.0000 -0.0163348552
O   O48       1.0  0.73310  0.30870  0.18843  1.0000 -0.6099445766
C   C190      1.0  0.10180  0.38330  0.58423  1.0000 -0.0976203135
C   C191      1.0  0.11880  0.45960  0.45993  1.0000 -0.0976203135
H   H89       1.0  0.11290  0.37740  0.64253  1.0000 0.1300351327
C   C192      1.0  0.05160  0.32430  0.53713  1.0000 -0.1489451334
H   H90       1.0  0.14220  0.50540  0.43263  1.0000 0.1300351327
C   C193      1.0  0.06740  0.40050  0.41503  1.0000 -0.1410607977
C   C194      1.0  0.03370  0.33120  0.45183  1.0000 0.0734817588
H   H91       1.0  0.02900  0.27830  0.56373  1.0000 0.1194523498
H   H92       1.0  0.05450  0.40670  0.35783  1.0000 0.1194523498
C   C195      1.0  0.97960  0.26680  0.39503  1.0000 -0.284166127
C   C196      1.0  0.92080  0.28120  0.35783  1.0000 0.0786229873
C   C197      1.0  0.02520  0.25800  0.32013  1.0000 0.6571396866
C   C198      1.0  0.94030  0.19530  0.44793  1.0000 0.6571396866
C   C199      1.0  0.89590  0.31850  0.40803  1.0000 -0.1308802356
C   C200      1.0  0.88860  0.25730  0.27463  1.0000 -0.1489451334
F   F67       1.0  0.04740  0.30970  0.26153  1.0000 -0.1943840182
F   F68       1.0  0.08350  0.25870  0.35483  1.0000 -0.197079854
F   F69       1.0  0.98830  0.19450  0.27763  1.0000 -0.197079854
F   F70       1.0  0.90630  0.20220  0.51693  1.0000 -0.1943840182
F   F71       1.0  0.98460  0.17210  0.47663  1.0000 -0.197079854
F   F72       1.0  0.88930  0.14100  0.39883  1.0000 -0.197079854
H   H93       1.0  0.91630  0.33490  0.46413  1.0000 0.1194523498
C   C201      1.0  0.84340  0.33260  0.38053  1.0000 -0.1098438895
C   C202      1.0  0.83570  0.27100  0.24643  1.0000 -0.0924860931
H   H94       1.0  0.90370  0.23170  0.23793  1.0000 0.1127469793
C   C203      1.0  0.81350  0.31050  0.29733  1.0000 -0.0163348552
H   H95       1.0  0.82740  0.35710  0.41773  1.0000 0.1194523498
H   H96       1.0  0.81390  0.25340  0.19123  1.0000 0.1300351327
C   C204      1.0  0.75910  0.32910  0.26323  1.0000 0.5665426904
Co  Co1       1.0  0.28320  0.71680  0.08333  1.0000 0.8845303708
Co  Co2       1.0  0.28320  0.56640  0.75000  1.0000 0.9538763815
Zn  Zn1       1.0  0.28260  0.56520  0.75000  1.0000 0.9568557197
Co  Co3       1.0  0.43360  0.71680  0.41667  1.0000 0.9538763815
Zn  Zn2       1.0  0.43480  0.71740  0.41667  1.0000 0.9568557197
Co  Co4       1.0  0.71680  0.28320  0.58333  1.0000 0.8845303708
Co  Co5       1.0  0.71680  0.43360  0.25000  1.0000 0.9538763815
Zn  Zn3       1.0  0.71740  0.43480  0.25000  1.0000 0.9568557197
Co  Co6       1.0  0.56640  0.28320  0.91667  1.0000 0.9538763815
Zn  Zn4       1.0  0.56520  0.28260  0.91667  1.0000 0.9568557197
Mn  Mn1       1.0  0.32476  0.64951  0.25000  1.0000 1.3385414833
Mn  Mn2       1.0  0.35049  0.67524  0.91667  1.0000 1.3385414833
Mn  Mn3       1.0  0.32476  0.67524  0.58333  1.0000 1.2948826009
Mn  Mn4       1.0  0.67524  0.35049  0.75000  1.0000 1.3385414833
Mn  Mn5       1.0  0.64951  0.32476  0.41667  1.0000 1.3385414833
Mn  Mn6       1.0  0.67524  0.32476  0.08333  1.0000 1.2948826009
  Zn  Zn5       1.0  0.28320  0.71680  0.08333  1.0000
  Zn  Zn6       1.0  0.71680  0.28320  0.58333  1.0000
  Ca  Ca1       1.0  0.32476  0.64951  0.25000  1.0000
  Ca  Ca2       1.0  0.35049  0.67524  0.91667  1.0000
  Ca  Ca3       1.0  0.32476  0.67524  0.58333  1.0000
  Ca  Ca4       1.0  0.67524  0.35049  0.75000  1.0000
  Ca  Ca5       1.0  0.64951  0.32476  0.41667  1.0000
  Ca  Ca6       1.0  0.67524  0.32476  0.08333  1.0000
