# DDEC6 charges by PACMAN v1.1 (https://github.com/mtap-research/PACMAN-charge/)
data_XOCQUE_ASR_pacman
_symmetry_space_group_name_H-M   'P 1'
_cell_length_a   21.22580000
_cell_length_b   21.22580000
_cell_length_c   15.25420000
_cell_angle_alpha   90.00000000
_cell_angle_beta   90.00000000
_cell_angle_gamma   120.00000000
_symmetry_Int_Tables_number   1
_chemical_formula_structural   Ca2Mn3Zn3Co3H48C102(O2F3)12
_chemical_formula_sum   'Ca4 Mn6 Zn6 Co6 H96 C204 O48 F72'
_cell_volume   5951.79827829
_cell_formula_units_Z   2
loop_
 _symmetry_equiv_pos_site_id
 _symmetry_equiv_pos_as_xyz
  1  'x, y, z'
loop_
 _atom_site_type_symbol
 _atom_site_label
 _atom_site_symmetry_multiplicity
 _atom_site_fract_x
 _atom_site_fract_y
 _atom_site_fract_z
 _atom_site_occupancy
 _atom_site_charge
Ca  Ca1  1  0.67450000  0.34900000  0.58334000  1.0 1.3172550283
Ca  Ca2  1  0.65100000  0.32550000  0.91666000  1.0 1.3172550283
Ca  Ca3  1  0.32550000  0.65100000  0.08334000  1.0 1.3172550283
Ca  Ca4  1  0.34900000  0.67450000  0.41667000  1.0 1.3172550283
Mn  Mn1  1  0.67527000  0.35053000  0.58334000  1.0 1.0444715701
Mn  Mn2  1  0.67527000  0.32473000  0.25000000  1.0 0.9531137131
Mn  Mn3  1  0.64947000  0.32473000  0.91666000  1.0 1.0444715701
Mn  Mn4  1  0.32473000  0.64947000  0.08334000  1.0 1.0453836404
Mn  Mn5  1  0.32473000  0.67527000  0.75000000  1.0 0.9531137131
Mn  Mn6  1  0.35053000  0.67527000  0.41667000  1.0 1.0453836404
Zn  Zn1  1  0.28190000  0.71810000  0.25000000  1.0 0.8420272552
Zn  Zn2  1  0.43620000  0.71810000  0.91666000  1.0 0.9177375816
Zn  Zn3  1  0.28190000  0.56380000  0.58334000  1.0 0.9177375816
Zn  Zn4  1  0.71810000  0.28190000  0.75000000  1.0 0.8420272552
Zn  Zn5  1  0.56380000  0.28190000  0.41667000  1.0 0.9177375816
Zn  Zn6  1  0.71810000  0.43620000  0.08334000  1.0 0.9177375816
Co  Co1  1  0.28300000  0.71700000  0.25000000  1.0 0.7743239484
Co  Co2  1  0.43400000  0.71700000  0.91666000  1.0 0.8789676212
Co  Co3  1  0.28300000  0.56600000  0.58334000  1.0 0.8789676212
Co  Co4  1  0.71700000  0.28300000  0.75000000  1.0 0.7743239484
Co  Co5  1  0.56600000  0.28300000  0.41667000  1.0 0.8789676212
Co  Co6  1  0.71700000  0.43400000  0.08334000  1.0 0.8789676212
H  H1  1  0.81540000  0.56020000  0.69017000  1.0 0.1294347623
H  H2  1  0.91640000  0.58330000  0.96576000  1.0 0.117509271
H  H3  1  0.11160000  0.73580000  0.14306000  1.0 0.1294347623
H  H4  1  0.05580000  0.64950000  0.85816000  1.0 0.1123089321
H  H5  1  0.14130000  0.63580000  0.93556000  1.0 0.1294347623
H  H6  1  0.02810000  0.75170000  0.06247000  1.0 0.1123089321
H  H7  1  0.82730000  0.47060000  0.91736000  1.0 0.1123089321
H  H8  1  0.90420000  0.67310000  0.73986000  1.0 0.117509271
H  H9  1  0.74480000  0.18460000  0.35684000  1.0 0.1294347623
H  H10  1  0.66690000  0.08360000  0.63243000  1.0 0.117509271
H  H11  1  0.62420000  0.88840000  0.80973000  1.0 0.1294347623
H  H12  1  0.59370000  0.94420000  0.52484000  1.0 0.1123089321
H  H13  1  0.49450000  0.85870000  0.60223000  1.0 0.117509271
H  H14  1  0.72360000  0.97190000  0.72913000  1.0 0.1123089321
H  H15  1  0.64330000  0.17270000  0.58403000  1.0 0.1123089321
H  H16  1  0.76890000  0.09580000  0.40654000  1.0 0.117509271
H  H17  1  0.43980000  0.25520000  0.02349000  1.0 0.1294347623
H  H18  1  0.41670000  0.33310000  0.29909000  1.0 0.117509271
H  H19  1  0.26420000  0.37580000  0.47640000  1.0 0.1294347623
H  H20  1  0.35050000  0.40630000  0.19149000  1.0 0.1123089321
H  H21  1  0.36420000  0.50550000  0.26889000  1.0 0.1294347623
H  H22  1  0.24830000  0.27640000  0.39580000  1.0 0.117509271
H  H23  1  0.52940000  0.35670000  0.25070000  1.0 0.1123089321
H  H24  1  0.32690000  0.23110000  0.07319000  1.0 0.117509271
H  H25  1  0.18460000  0.43980000  0.19017000  1.0 0.1294347623
H  H26  1  0.08360000  0.41670000  0.46576000  1.0 0.117509271
H  H27  1  0.88840000  0.26420000  0.64306000  1.0 0.1294347623
H  H28  1  0.94420000  0.35050000  0.35817000  1.0 0.1123089321
H  H29  1  0.85870000  0.36420000  0.43556000  1.0 0.1294347623
H  H30  1  0.97190000  0.24830000  0.56246000  1.0 0.1123089321
H  H31  1  0.17270000  0.52940000  0.41736000  1.0 0.1123089321
H  H32  1  0.09580000  0.32690000  0.23986000  1.0 0.117509271
H  H33  1  0.25520000  0.81540000  0.85684000  1.0 0.1294347623
H  H34  1  0.33310000  0.91640000  0.13243000  1.0 0.117509271
H  H35  1  0.37580000  0.11160000  0.30973000  1.0 0.1294347623
H  H36  1  0.40630000  0.05580000  0.02483000  1.0 0.1123089321
H  H37  1  0.50550000  0.14130000  0.10224000  1.0 0.117509271
H  H38  1  0.27640000  0.02810000  0.22914000  1.0 0.1123089321
H  H39  1  0.35670000  0.82730000  0.08403000  1.0 0.1123089321
H  H40  1  0.23110000  0.90420000  0.90653000  1.0 0.117509271
H  H41  1  0.56020000  0.74480000  0.52350000  1.0 0.1294347623
H  H42  1  0.58330000  0.66690000  0.79909000  1.0 0.117509271
H  H43  1  0.73580000  0.62420000  0.97640000  1.0 0.1294347623
H  H44  1  0.64950000  0.59370000  0.69149000  1.0 0.1123089321
H  H45  1  0.63580000  0.49450000  0.76889000  1.0 0.1294347623
H  H46  1  0.75170000  0.72360000  0.89580000  1.0 0.1123089321
H  H47  1  0.47060000  0.64330000  0.75070000  1.0 0.1123089321
H  H48  1  0.67310000  0.76890000  0.57320000  1.0 0.117509271
H  H49  1  0.56020000  0.81540000  0.30984000  1.0 0.1294347623
H  H50  1  0.58330000  0.91640000  0.03424000  1.0 0.117509271
H  H51  1  0.73580000  0.11160000  0.85694000  1.0 0.1294347623
H  H52  1  0.64950000  0.05580000  0.14183000  1.0 0.1123089321
H  H53  1  0.63580000  0.14130000  0.06444000  1.0 0.1294347623
H  H54  1  0.75170000  0.02810000  0.93754000  1.0 0.1123089321
H  H55  1  0.47060000  0.82730000  0.08264000  1.0 0.1123089321
H  H56  1  0.67310000  0.90420000  0.26014000  1.0 0.117509271
H  H57  1  0.18460000  0.74480000  0.64316000  1.0 0.1294347623
H  H58  1  0.08360000  0.66690000  0.36756000  1.0 0.117509271
H  H59  1  0.88840000  0.62420000  0.19026000  1.0 0.1294347623
H  H60  1  0.94420000  0.59370000  0.47517000  1.0 0.1123089321
H  H61  1  0.85870000  0.49450000  0.39776000  1.0 0.117509271
H  H62  1  0.97190000  0.72360000  0.27087000  1.0 0.1123089321
H  H63  1  0.17270000  0.64330000  0.41596000  1.0 0.1123089321
H  H64  1  0.09580000  0.76890000  0.59347000  1.0 0.117509271
H  H65  1  0.25520000  0.43980000  0.97650000  1.0 0.1294347623
H  H66  1  0.33310000  0.41670000  0.70091000  1.0 0.117509271
H  H67  1  0.37580000  0.26420000  0.52360000  1.0 0.1294347623
H  H68  1  0.40630000  0.35050000  0.80851000  1.0 0.1123089321
H  H69  1  0.50550000  0.36420000  0.73111000  1.0 0.1294347623
H  H70  1  0.27640000  0.24830000  0.60421000  1.0 0.1123089321
H  H71  1  0.35670000  0.52940000  0.74930000  1.0 0.1123089321
H  H72  1  0.23110000  0.32690000  0.92680000  1.0 0.117509271
H  H73  1  0.43980000  0.18460000  0.80983000  1.0 0.1294347623
H  H74  1  0.41670000  0.08360000  0.53424000  1.0 0.117509271
H  H75  1  0.26420000  0.88840000  0.35694000  1.0 0.1294347623
H  H76  1  0.35050000  0.94420000  0.64184000  1.0 0.1123089321
H  H77  1  0.36420000  0.85870000  0.56444000  1.0 0.1294347623
H  H78  1  0.24830000  0.97190000  0.43754000  1.0 0.1123089321
H  H79  1  0.52940000  0.17270000  0.58264000  1.0 0.1123089321
H  H80  1  0.32690000  0.09580000  0.76014000  1.0 0.117509271
H  H81  1  0.81540000  0.25520000  0.14316000  1.0 0.1294347623
H  H82  1  0.91640000  0.33310000  0.86757000  1.0 0.117509271
H  H83  1  0.11160000  0.37580000  0.69027000  1.0 0.1294347623
H  H84  1  0.05580000  0.40630000  0.97516000  1.0 0.1123089321
H  H85  1  0.14130000  0.50550000  0.89777000  1.0 0.117509271
H  H86  1  0.02810000  0.27640000  0.77087000  1.0 0.1123089321
H  H87  1  0.82730000  0.35670000  0.91597000  1.0 0.1123089321
H  H88  1  0.90420000  0.23110000  0.09347000  1.0 0.117509271
H  H89  1  0.74480000  0.56020000  0.47651000  1.0 0.1294347623
H  H90  1  0.66690000  0.58330000  0.20091000  1.0 0.117509271
H  H91  1  0.62420000  0.73580000  0.02361000  1.0 0.1294347623
H  H92  1  0.59370000  0.64950000  0.30850000  1.0 0.1123089321
H  H93  1  0.49450000  0.63580000  0.23111000  1.0 0.1294347623
H  H94  1  0.72360000  0.75170000  0.10421000  1.0 0.1123089321
H  H95  1  0.64330000  0.47060000  0.24930000  1.0 0.1123089321
H  H96  1  0.76890000  0.67310000  0.42680000  1.0 0.117509271
C  C1  1  0.81360000  0.50290000  0.79807000  1.0 -0.020149834
C  C2  1  0.76010000  0.43010000  0.76326000  1.0 0.3982082985
C  C3  1  0.19420000  0.68030000  0.09627000  1.0 0.4495175538
C  C4  1  0.83630000  0.56460000  0.74577000  1.0 -0.0997196556
C  C5  1  0.89650000  0.57870000  0.90956000  1.0 -0.1414377315
C  C6  1  0.10130000  0.71910000  0.08486000  1.0 -0.0997196556
C  C7  1  0.92110000  0.64020000  0.85696000  1.0 0.0767962205
C  C8  1  0.06790000  0.66780000  0.91556000  1.0 -0.1494778245
C  C9  1  0.11860000  0.65940000  0.96166000  1.0 -0.0997196556
C  C10  1  0.13670000  0.68560000  0.04716000  1.0 -0.020149834
C  C11  1  0.05090000  0.72810000  0.03657000  1.0 -0.1560589887
C  C12  1  0.03350000  0.70350000  0.95286000  1.0 0.0767962205
C  C13  1  0.84340000  0.51130000  0.88057000  1.0 -0.1414377315
C  C14  1  0.98010000  0.71390000  0.89446000  1.0 -0.2902906852
C  C15  1  0.88940000  0.63210000  0.77567000  1.0 -0.1414377315
C  C16  1  0.02490000  0.76810000  0.82086000  1.0 0.6519070027
C  C17  1  0.94010000  0.74650000  0.94546000  1.0 0.6519070027
C  C18  1  0.68930000  0.18640000  0.46474000  1.0 -0.0144429656
C  C19  1  0.67000000  0.23990000  0.42994000  1.0 0.4495175538
C  C20  1  0.48610000  0.80580000  0.76294000  1.0 0.5242526017
C  C21  1  0.72830000  0.16370000  0.41243000  1.0 -0.0997196556
C  C22  1  0.68220000  0.10350000  0.57624000  1.0 -0.1414377315
C  C23  1  0.61780000  0.89870000  0.75153000  1.0 -0.0997196556
C  C24  1  0.71910000  0.07890000  0.52363000  1.0 0.0767962205
C  C25  1  0.59990000  0.93210000  0.58223000  1.0 -0.1494778245
C  C26  1  0.54080000  0.88140000  0.62833000  1.0 -0.1089171518
C  C27  1  0.54890000  0.86330000  0.71383000  1.0 -0.020149834
C  C28  1  0.67720000  0.94910000  0.70324000  1.0 -0.1560589887
C  C29  1  0.67000000  0.96650000  0.61953000  1.0 0.0767962205
C  C30  1  0.66790000  0.15660000  0.54724000  1.0 -0.1414377315
C  C31  1  0.73380000  0.01990000  0.56114000  1.0 -0.2902906852
C  C32  1  0.74270000  0.11060000  0.44233000  1.0 -0.1414377315
C  C33  1  0.74320000  0.97510000  0.48753000  1.0 0.6519070027
C  C34  1  0.80640000  0.05990000  0.61213000  1.0 0.6519070027
C  C35  1  0.49710000  0.31070000  0.13140000  1.0 -0.0144429656
C  C36  1  0.56990000  0.33000000  0.09660000  1.0 0.4792885117
C  C37  1  0.31970000  0.51390000  0.42960000  1.0 0.4495175538
C  C38  1  0.43540000  0.27170000  0.07909000  1.0 -0.0997196556
C  C39  1  0.42130000  0.31780000  0.24289000  1.0 -0.1414377315
C  C40  1  0.28090000  0.38220000  0.41819000  1.0 -0.0997196556
C  C41  1  0.35980000  0.28090000  0.19029000  1.0 0.0767962205
C  C42  1  0.33220000  0.40010000  0.24890000  1.0 -0.1494778245
C  C43  1  0.34060000  0.45920000  0.29500000  1.0 -0.1089171518
C  C44  1  0.31440000  0.45110000  0.38050000  1.0 -0.020149834
C  C45  1  0.27190000  0.32280000  0.36989000  1.0 -0.1560589887
C  C46  1  0.29650000  0.33000000  0.28619000  1.0 0.0767962205
C  C47  1  0.48870000  0.33210000  0.21390000  1.0 -0.131472978
C  C48  1  0.28610000  0.26620000  0.22779000  1.0 -0.2902906852
C  C49  1  0.36790000  0.25730000  0.10899000  1.0 -0.1494778245
C  C50  1  0.23190000  0.25680000  0.15419000  1.0 0.6519070027
C  C51  1  0.25350000  0.19360000  0.27880000  1.0 0.6519070027
C  C52  1  0.18640000  0.49710000  0.29807000  1.0 -0.020149834
C  C53  1  0.23990000  0.56990000  0.26327000  1.0 0.3982082985
C  C54  1  0.80580000  0.31970000  0.59627000  1.0 0.4495175538
C  C55  1  0.16370000  0.43540000  0.24577000  1.0 -0.0997196556
C  C56  1  0.10350000  0.42130000  0.40957000  1.0 -0.1414377315
C  C57  1  0.89870000  0.28090000  0.58486000  1.0 -0.0997196556
C  C58  1  0.07890000  0.35980000  0.35696000  1.0 0.0767962205
C  C59  1  0.93210000  0.33220000  0.41557000  1.0 -0.1494778245
C  C60  1  0.88140000  0.34060000  0.46166000  1.0 -0.0997196556
C  C61  1  0.86330000  0.31440000  0.54717000  1.0 -0.020149834
C  C62  1  0.94910000  0.27190000  0.53656000  1.0 -0.1560589887
C  C63  1  0.96650000  0.29650000  0.45287000  1.0 0.0767962205
C  C64  1  0.15660000  0.48870000  0.38056000  1.0 -0.1414377315
C  C65  1  0.01990000  0.28610000  0.39447000  1.0 -0.2902906852
C  C66  1  0.11060000  0.36790000  0.27566000  1.0 -0.1414377315
C  C67  1  0.97510000  0.23190000  0.32087000  1.0 0.6519070027
C  C68  1  0.05990000  0.25350000  0.44546000  1.0 0.6519070027
C  C69  1  0.31070000  0.81360000  0.96474000  1.0 -0.0144429656
C  C70  1  0.33000000  0.76010000  0.92993000  1.0 0.4495175538
C  C71  1  0.51390000  0.19420000  0.26293000  1.0 0.5242526017
C  C72  1  0.27170000  0.83630000  0.91243000  1.0 -0.0997196556
C  C73  1  0.31780000  0.89650000  0.07623000  1.0 -0.1414377315
C  C74  1  0.38220000  0.10130000  0.25154000  1.0 -0.0997196556
C  C75  1  0.28090000  0.92110000  0.02363000  1.0 0.0767962205
C  C76  1  0.40010000  0.06790000  0.08224000  1.0 -0.1494778245
C  C77  1  0.45920000  0.11860000  0.12834000  1.0 -0.1089171518
C  C78  1  0.45110000  0.13670000  0.21383000  1.0 -0.020149834
C  C79  1  0.32280000  0.05090000  0.20324000  1.0 -0.1560589887
C  C80  1  0.33000000  0.03350000  0.11954000  1.0 0.0767962205
C  C81  1  0.33210000  0.84340000  0.04723000  1.0 -0.1414377315
C  C82  1  0.26620000  0.98010000  0.06114000  1.0 -0.2902906852
C  C83  1  0.25730000  0.88940000  0.94234000  1.0 -0.1494778245
C  C84  1  0.25680000  0.02490000  0.98754000  1.0 0.6519070027
C  C85  1  0.19360000  0.94010000  0.11213000  1.0 0.6519070027
C  C86  1  0.50290000  0.68930000  0.63140000  1.0 -0.020149834
C  C87  1  0.43010000  0.67000000  0.59659000  1.0 0.4792885117
C  C88  1  0.68030000  0.48610000  0.92959000  1.0 0.4495175538
C  C89  1  0.56460000  0.72830000  0.57910000  1.0 -0.0997196556
C  C90  1  0.57870000  0.68220000  0.74289000  1.0 -0.1414377315
C  C91  1  0.71910000  0.61780000  0.91819000  1.0 -0.0997196556
C  C92  1  0.64020000  0.71910000  0.69029000  1.0 0.0767962205
C  C93  1  0.66780000  0.59990000  0.74889000  1.0 -0.1494778245
C  C94  1  0.65940000  0.54080000  0.79500000  1.0 -0.1089171518
C  C95  1  0.68560000  0.54890000  0.88050000  1.0 -0.020149834
C  C96  1  0.72810000  0.67720000  0.86989000  1.0 -0.1494778245
C  C97  1  0.70350000  0.67000000  0.78619000  1.0 0.0767962205
C  C98  1  0.51130000  0.66790000  0.71389000  1.0 -0.131472978
C  C99  1  0.71390000  0.73380000  0.72779000  1.0 -0.2902906852
C  C100  1  0.63210000  0.74270000  0.60899000  1.0 -0.1494778245
C  C101  1  0.76810000  0.74320000  0.65419000  1.0 0.6519070027
C  C102  1  0.74650000  0.80640000  0.77880000  1.0 0.6519070027
C  C103  1  0.50290000  0.81360000  0.20194000  1.0 -0.020149834
C  C104  1  0.43010000  0.76010000  0.23674000  1.0 0.3982082985
C  C105  1  0.68030000  0.19420000  0.90373000  1.0 0.4495175538
C  C106  1  0.56460000  0.83630000  0.25423000  1.0 -0.0997196556
C  C107  1  0.57870000  0.89650000  0.09043000  1.0 -0.1414377315
C  C108  1  0.71910000  0.10130000  0.91514000  1.0 -0.0997196556
C  C109  1  0.64020000  0.92110000  0.14303000  1.0 0.0767962205
C  C110  1  0.66780000  0.06790000  0.08443000  1.0 -0.1494778245
C  C111  1  0.65940000  0.11860000  0.03834000  1.0 -0.0997196556
C  C112  1  0.68560000  0.13670000  0.95283000  1.0 -0.020149834
C  C113  1  0.72810000  0.05090000  0.96344000  1.0 -0.1560589887
C  C114  1  0.70350000  0.03350000  0.04714000  1.0 0.0767962205
C  C115  1  0.51130000  0.84340000  0.11943000  1.0 -0.1414377315
C  C116  1  0.71390000  0.98010000  0.10554000  1.0 -0.2902906852
C  C117  1  0.63210000  0.88940000  0.22434000  1.0 -0.1414377315
C  C118  1  0.76810000  0.02490000  0.17913000  1.0 0.6519070027
C  C119  1  0.74650000  0.94010000  0.05454000  1.0 0.6519070027
C  C120  1  0.18640000  0.68930000  0.53526000  1.0 -0.0144429656
C  C121  1  0.23990000  0.67000000  0.57007000  1.0 0.4495175538
C  C122  1  0.80580000  0.48610000  0.23706000  1.0 0.5242526017
C  C123  1  0.16370000  0.72830000  0.58757000  1.0 -0.0997196556
C  C124  1  0.10350000  0.68220000  0.42377000  1.0 -0.1414377315
C  C125  1  0.89870000  0.61780000  0.24846000  1.0 -0.0997196556
C  C126  1  0.07890000  0.71910000  0.47637000  1.0 0.0767962205
C  C127  1  0.93210000  0.59990000  0.41776000  1.0 -0.1494778245
C  C128  1  0.88140000  0.54080000  0.37167000  1.0 -0.1089171518
C  C129  1  0.86330000  0.54890000  0.28617000  1.0 -0.020149834
C  C130  1  0.94910000  0.67720000  0.29677000  1.0 -0.1560589887
C  C131  1  0.96650000  0.67000000  0.38046000  1.0 0.0767962205
C  C132  1  0.15660000  0.66790000  0.45276000  1.0 -0.1414377315
C  C133  1  0.01990000  0.73380000  0.43887000  1.0 -0.2902906852
C  C134  1  0.11060000  0.74270000  0.55766000  1.0 -0.1494778245
C  C135  1  0.97510000  0.74320000  0.51246000  1.0 0.6519070027
C  C136  1  0.05990000  0.80640000  0.38787000  1.0 0.6519070027
C  C137  1  0.31070000  0.49710000  0.86860000  1.0 -0.020149834
C  C138  1  0.33000000  0.56990000  0.90341000  1.0 0.4792885117
C  C139  1  0.51390000  0.31970000  0.57041000  1.0 0.4495175538
C  C140  1  0.27170000  0.43540000  0.92090000  1.0 -0.0997196556
C  C141  1  0.31780000  0.42130000  0.75711000  1.0 -0.1414377315
C  C142  1  0.38220000  0.28090000  0.58181000  1.0 -0.0997196556
C  C143  1  0.28090000  0.35980000  0.80971000  1.0 0.0767962205
C  C144  1  0.40010000  0.33220000  0.75111000  1.0 -0.1494778245
C  C145  1  0.45920000  0.34060000  0.70500000  1.0 -0.1089171518
C  C146  1  0.45110000  0.31440000  0.61950000  1.0 -0.020149834
C  C147  1  0.32280000  0.27190000  0.63011000  1.0 -0.1494778245
C  C148  1  0.33000000  0.29650000  0.71381000  1.0 0.0767962205
C  C149  1  0.33210000  0.48870000  0.78611000  1.0 -0.131472978
C  C150  1  0.26620000  0.28610000  0.77221000  1.0 -0.2902906852
C  C151  1  0.25730000  0.36790000  0.89101000  1.0 -0.1494778245
C  C152  1  0.25680000  0.23190000  0.84581000  1.0 0.6519070027
C  C153  1  0.19360000  0.25350000  0.72120000  1.0 0.6519070027
C  C154  1  0.49710000  0.18640000  0.70193000  1.0 -0.020149834
C  C155  1  0.56990000  0.23990000  0.73674000  1.0 0.3982082985
C  C156  1  0.31970000  0.80580000  0.40374000  1.0 0.4495175538
C  C157  1  0.43540000  0.16370000  0.75423000  1.0 -0.0997196556
C  C158  1  0.42130000  0.10350000  0.59044000  1.0 -0.1414377315
C  C159  1  0.28090000  0.89870000  0.41513000  1.0 -0.0997196556
C  C160  1  0.35980000  0.07890000  0.64304000  1.0 0.0767962205
C  C161  1  0.33220000  0.93210000  0.58444000  1.0 -0.1494778245
C  C162  1  0.34060000  0.88140000  0.53834000  1.0 -0.0997196556
C  C163  1  0.31440000  0.86330000  0.45283000  1.0 -0.020149834
C  C164  1  0.27190000  0.94910000  0.46343000  1.0 -0.1560589887
C  C165  1  0.29650000  0.96650000  0.54714000  1.0 0.0767962205
C  C166  1  0.48870000  0.15660000  0.61943000  1.0 -0.1414377315
C  C167  1  0.28610000  0.01990000  0.60554000  1.0 -0.2902906852
C  C168  1  0.36790000  0.11060000  0.72433000  1.0 -0.1414377315
C  C169  1  0.23190000  0.97510000  0.67914000  1.0 0.6519070027
C  C170  1  0.25350000  0.05990000  0.55454000  1.0 0.6519070027
C  C171  1  0.81360000  0.31070000  0.03526000  1.0 -0.0144429656
C  C172  1  0.76010000  0.33000000  0.07007000  1.0 0.4495175538
C  C173  1  0.19420000  0.51390000  0.73706000  1.0 0.5242526017
C  C174  1  0.83630000  0.27170000  0.08757000  1.0 -0.0997196556
C  C175  1  0.89650000  0.31780000  0.92376000  1.0 -0.1414377315
C  C176  1  0.10130000  0.38220000  0.74847000  1.0 -0.0997196556
C  C177  1  0.92110000  0.28090000  0.97637000  1.0 0.0767962205
C  C178  1  0.06790000  0.40010000  0.91777000  1.0 -0.1494778245
C  C179  1  0.11860000  0.45920000  0.87167000  1.0 -0.1089171518
C  C180  1  0.13670000  0.45110000  0.78617000  1.0 -0.020149834
C  C181  1  0.05090000  0.32280000  0.79676000  1.0 -0.1560589887
C  C182  1  0.03350000  0.33000000  0.88047000  1.0 0.0749261312
C  C183  1  0.84340000  0.33210000  0.95276000  1.0 -0.1414377315
C  C184  1  0.98010000  0.26620000  0.93886000  1.0 -0.2902906852
C  C185  1  0.88940000  0.25730000  0.05767000  1.0 -0.1414377315
C  C186  1  0.02490000  0.25680000  0.01247000  1.0 0.6519070027
C  C187  1  0.94010000  0.19360000  0.88787000  1.0 0.6519070027
C  C188  1  0.68930000  0.50290000  0.36861000  1.0 -0.0144429656
C  C189  1  0.67000000  0.43010000  0.40341000  1.0 0.4792885117
C  C190  1  0.48610000  0.68030000  0.07040000  1.0 0.4495175538
C  C191  1  0.72830000  0.56460000  0.42090000  1.0 -0.0997196556
C  C192  1  0.68220000  0.57870000  0.25710000  1.0 -0.1414377315
C  C193  1  0.61780000  0.71910000  0.08181000  1.0 -0.0997196556
C  C194  1  0.71910000  0.64020000  0.30971000  1.0 0.0767962205
C  C195  1  0.59990000  0.66780000  0.25111000  1.0 -0.1494778245
C  C196  1  0.54080000  0.65940000  0.20500000  1.0 -0.1089171518
C  C197  1  0.54890000  0.68560000  0.11951000  1.0 -0.020149834
C  C198  1  0.67720000  0.72810000  0.13010000  1.0 -0.1494778245
C  C199  1  0.67000000  0.70350000  0.21380000  1.0 0.0767962205
C  C200  1  0.66790000  0.51130000  0.28610000  1.0 -0.131472978
C  C201  1  0.73380000  0.71390000  0.27220000  1.0 -0.2902906852
C  C202  1  0.74270000  0.63210000  0.39100000  1.0 -0.1414377315
C  C203  1  0.74320000  0.76810000  0.34580000  1.0 0.6519070027
C  C204  1  0.80640000  0.74650000  0.22121000  1.0 0.6519070027
O  O1  1  0.74500000  0.37430000  0.81317000  1.0 -0.7406843223
O  O2  1  0.73350000  0.42450000  0.68856000  1.0 -0.6783024736
O  O3  1  0.22990000  0.65670000  0.05867000  1.0 -0.670654013
O  O4  1  0.20360000  0.70210000  0.17566000  1.0 -0.5853306569
O  O5  1  0.62930000  0.25500000  0.47984000  1.0 -0.7703763761
O  O6  1  0.69100000  0.26650000  0.35524000  1.0 -0.523753456
O  O7  1  0.42680000  0.77010000  0.72533000  1.0 -0.523753456
O  O8  1  0.49850000  0.79640000  0.84233000  1.0 -0.6125761487
O  O9  1  0.62570000  0.37070000  0.14649000  1.0 -0.6627433218
O  O10  1  0.57550000  0.30900000  0.02190000  1.0 -0.6963289
O  O11  1  0.34330000  0.57320000  0.39199000  1.0 -0.670654013
O  O12  1  0.29790000  0.50150000  0.50899000  1.0 -0.6188777902
O  O13  1  0.25500000  0.62570000  0.31317000  1.0 -0.7406843223
O  O14  1  0.26650000  0.57550000  0.18857000  1.0 -0.6783024736
O  O15  1  0.77010000  0.34330000  0.55866000  1.0 -0.670654013
O  O16  1  0.79640000  0.29790000  0.67566000  1.0 -0.5839245237
O  O17  1  0.37070000  0.74500000  0.97984000  1.0 -0.7703763761
O  O18  1  0.30900000  0.73350000  0.85523000  1.0 -0.523753456
O  O19  1  0.57320000  0.22990000  0.22534000  1.0 -0.523753456
O  O20  1  0.50150000  0.20360000  0.34234000  1.0 -0.6125761487
O  O21  1  0.37430000  0.62930000  0.64650000  1.0 -0.6627433218
O  O22  1  0.42450000  0.69100000  0.52189000  1.0 -0.6963289
O  O23  1  0.65670000  0.42680000  0.89199000  1.0 -0.670654013
O  O24  1  0.70210000  0.49850000  0.00899000  1.0 -0.6188777902
O  O25  1  0.37430000  0.74500000  0.18684000  1.0 -0.7406843223
O  O26  1  0.42450000  0.73350000  0.31144000  1.0 -0.6783024736
O  O27  1  0.65670000  0.22990000  0.94134000  1.0 -0.670654013
O  O28  1  0.70210000  0.20360000  0.82434000  1.0 -0.5839245237
O  O29  1  0.25500000  0.62930000  0.52016000  1.0 -0.7703763761
O  O30  1  0.26650000  0.69100000  0.64477000  1.0 -0.523753456
O  O31  1  0.77010000  0.42680000  0.27466000  1.0 -0.523753456
O  O32  1  0.79640000  0.49850000  0.15767000  1.0 -0.6125761487
O  O33  1  0.37070000  0.62570000  0.85350000  1.0 -0.6627433218
O  O34  1  0.30900000  0.57550000  0.97811000  1.0 -0.6963289
O  O35  1  0.57320000  0.34330000  0.60801000  1.0 -0.670654013
O  O36  1  0.50150000  0.29790000  0.49101000  1.0 -0.6188777902
O  O37  1  0.62570000  0.25500000  0.68683000  1.0 -0.7406843223
O  O38  1  0.57550000  0.26650000  0.81144000  1.0 -0.6783024736
O  O39  1  0.34330000  0.77010000  0.44133000  1.0 -0.670654013
O  O40  1  0.29790000  0.79640000  0.32433000  1.0 -0.5853306569
O  O41  1  0.74500000  0.37070000  0.02016000  1.0 -0.7703763761
O  O42  1  0.73350000  0.30900000  0.14477000  1.0 -0.523753456
O  O43  1  0.22990000  0.57320000  0.77467000  1.0 -0.523753456
O  O44  1  0.20360000  0.50150000  0.65767000  1.0 -0.6125761487
O  O45  1  0.62930000  0.37430000  0.35351000  1.0 -0.6627433218
O  O46  1  0.69100000  0.42450000  0.47811000  1.0 -0.6963289
O  O47  1  0.42680000  0.65670000  0.10801000  1.0 -0.670654013
O  O48  1  0.49850000  0.70210000  0.99101000  1.0 -0.6188777902
F  F1  1  0.90550000  0.70500000  0.01447000  1.0 -0.1999268684
F  F2  1  0.04850000  0.73810000  0.76257000  1.0 -0.1999268684
F  F3  1  0.08420000  0.82570000  0.85547000  1.0 -0.1999268684
F  F4  1  0.88980000  0.74920000  0.89716000  1.0 -0.1999268684
F  F5  1  0.98870000  0.79450000  0.77816000  1.0 -0.1999268684
F  F6  1  0.98520000  0.81370000  0.97486000  1.0 -0.1999268684
F  F7  1  0.79950000  0.09450000  0.68114000  1.0 -0.1999268684
F  F8  1  0.68960000  0.95150000  0.42923000  1.0 -0.1999268684
F  F9  1  0.74150000  0.91580000  0.52214000  1.0 -0.1999268684
F  F10  1  0.85940000  0.11020000  0.56383000  1.0 -0.1999268684
F  F11  1  0.80580000  0.01130000  0.44483000  1.0 -0.1999268684
F  F12  1  0.82850000  0.01480000  0.64153000  1.0 -0.1999268684
F  F13  1  0.29500000  0.20050000  0.34780000  1.0 -0.1999268684
F  F14  1  0.26190000  0.31040000  0.09589000  1.0 -0.1999268684
F  F15  1  0.17430000  0.25850000  0.18879000  1.0 -0.1999268684
F  F16  1  0.25080000  0.14060000  0.23050000  1.0 -0.1999268684
F  F17  1  0.20550000  0.19420000  0.11149000  1.0 -0.1999268684
F  F18  1  0.18630000  0.17150000  0.30819000  1.0 -0.1999268684
F  F19  1  0.09450000  0.29500000  0.51446000  1.0 -0.1999268684
F  F20  1  0.95150000  0.26190000  0.26256000  1.0 -0.1999268684
F  F21  1  0.91580000  0.17430000  0.35546000  1.0 -0.1999268684
F  F22  1  0.11020000  0.25080000  0.39716000  1.0 -0.1999268684
F  F23  1  0.01130000  0.20550000  0.27816000  1.0 -0.1999268684
F  F24  1  0.01480000  0.18630000  0.47486000  1.0 -0.1999268684
F  F25  1  0.20050000  0.90550000  0.18113000  1.0 -0.1999268684
F  F26  1  0.31040000  0.04850000  0.92924000  1.0 -0.1999268684
F  F27  1  0.25850000  0.08420000  0.02213000  1.0 -0.1999268684
F  F28  1  0.14060000  0.88980000  0.06384000  1.0 -0.1999268684
F  F29  1  0.19420000  0.98870000  0.94483000  1.0 -0.1999268684
F  F30  1  0.17150000  0.98520000  0.14153000  1.0 -0.1999268684
F  F31  1  0.70500000  0.79950000  0.84779000  1.0 -0.1999268684
F  F32  1  0.73810000  0.68960000  0.59589000  1.0 -0.1999268684
F  F33  1  0.82570000  0.74150000  0.68880000  1.0 -0.1999268684
F  F34  1  0.74920000  0.85940000  0.73050000  1.0 -0.1999268684
F  F35  1  0.79450000  0.80580000  0.61150000  1.0 -0.1999268684
F  F36  1  0.81370000  0.82850000  0.80819000  1.0 -0.1999268684
F  F37  1  0.70500000  0.90550000  0.98554000  1.0 -0.1999268684
F  F38  1  0.73810000  0.04850000  0.23744000  1.0 -0.1999268684
F  F39  1  0.82570000  0.08420000  0.14453000  1.0 -0.1999268684
F  F40  1  0.74920000  0.88980000  0.10283000  1.0 -0.1999268684
F  F41  1  0.79450000  0.98870000  0.22184000  1.0 -0.1999268684
F  F42  1  0.81370000  0.98520000  0.02514000  1.0 -0.1999268684
F  F43  1  0.09450000  0.79950000  0.31887000  1.0 -0.1999268684
F  F44  1  0.95150000  0.68960000  0.57076000  1.0 -0.1999268684
F  F45  1  0.91580000  0.74150000  0.47786000  1.0 -0.1999268684
F  F46  1  0.11020000  0.85940000  0.43617000  1.0 -0.1999268684
F  F47  1  0.01130000  0.80580000  0.55517000  1.0 -0.1999268684
F  F48  1  0.01480000  0.82850000  0.35846000  1.0 -0.1999268684
F  F49  1  0.20050000  0.29500000  0.65221000  1.0 -0.1999268684
F  F50  1  0.31040000  0.26190000  0.90411000  1.0 -0.1999268684
F  F51  1  0.25850000  0.17430000  0.81120000  1.0 -0.1999268684
F  F52  1  0.14060000  0.25080000  0.76950000  1.0 -0.1999268684
F  F53  1  0.19420000  0.20550000  0.88850000  1.0 -0.1999268684
F  F54  1  0.17150000  0.18630000  0.69181000  1.0 -0.1999268684
F  F55  1  0.29500000  0.09450000  0.48553000  1.0 -0.1999268684
F  F56  1  0.26190000  0.95150000  0.73743000  1.0 -0.1999268684
F  F57  1  0.17430000  0.91580000  0.64453000  1.0 -0.1999268684
F  F58  1  0.25080000  0.11020000  0.60284000  1.0 -0.1999268684
F  F59  1  0.20550000  0.01130000  0.72184000  1.0 -0.1999268684
F  F60  1  0.18630000  0.01480000  0.52514000  1.0 -0.1999268684
F  F61  1  0.90550000  0.20050000  0.81886000  1.0 -0.1999268684
F  F62  1  0.04850000  0.31040000  0.07076000  1.0 -0.1999268684
F  F63  1  0.08420000  0.25850000  0.97786000  1.0 -0.1999268684
F  F64  1  0.88980000  0.14060000  0.93617000  1.0 -0.1999268684
F  F65  1  0.98870000  0.19420000  0.05516000  1.0 -0.1999268684
F  F66  1  0.98520000  0.17150000  0.85847000  1.0 -0.1999268684
F  F67  1  0.79950000  0.70500000  0.15221000  1.0 -0.1999268684
F  F68  1  0.68960000  0.73810000  0.40410000  1.0 -0.1999268684
F  F69  1  0.74150000  0.82570000  0.31121000  1.0 -0.1999268684
F  F70  1  0.85940000  0.74920000  0.26950000  1.0 -0.1999268684
F  F71  1  0.80580000  0.79450000  0.38850000  1.0 -0.1999268684
F  F72  1  0.82850000  0.81370000  0.19181000  1.0 -0.1999268684
