# DDEC6 charges by PACMAN v1.1 (https://github.com/mtap-research/PACMAN-charge/)
data_XOCRAL_FSR_pacman
_symmetry_space_group_name_H-M   'P 1'
_cell_length_a   21.22320000
_cell_length_b   21.22320000
_cell_length_c   15.17710000
_cell_angle_alpha   90.00000000
_cell_angle_beta   90.00000000
_cell_angle_gamma   120.00000000
_symmetry_Int_Tables_number   1
_chemical_formula_structural   CaMnZnCoH16C34(O2F3)4
_chemical_formula_sum   'Ca6 Mn6 Zn6 Co6 H96 C204 O48 F72'
_cell_volume   5920.26519035
_cell_formula_units_Z   6
loop_
 _symmetry_equiv_pos_site_id
 _symmetry_equiv_pos_as_xyz
  1  'x, y, z'
loop_
 _atom_site_type_symbol
 _atom_site_label
 _atom_site_symmetry_multiplicity
 _atom_site_fract_x
 _atom_site_fract_y
 _atom_site_fract_z
 _atom_site_occupancy
 _atom_site_charge
Ca  Ca1  1  0.68400000  0.31600000  0.58333000  1.0 1.2826574912
Ca  Ca2  1  0.63200000  0.31600000  0.91667000  1.0 1.2826574912
Ca  Ca3  1  0.68400000  0.36800000  0.25000000  1.0 1.2826574912
Ca  Ca4  1  0.31600000  0.68400000  0.08333000  1.0 1.2826574912
Ca  Ca5  1  0.36800000  0.68400000  0.41667000  1.0 1.2826574912
Ca  Ca6  1  0.31600000  0.63200000  0.75000000  1.0 1.2826574912
Mn  Mn1  1  0.67490000  0.32510000  0.58333000  1.0 0.8682358533
Mn  Mn2  1  0.65020000  0.32510000  0.91667000  1.0 0.8682358533
Mn  Mn3  1  0.67490000  0.34980000  0.25000000  1.0 0.8682358533
Mn  Mn4  1  0.32510000  0.67490000  0.08333000  1.0 0.8682358533
Mn  Mn5  1  0.34980000  0.67490000  0.41667000  1.0 0.8682358533
Mn  Mn6  1  0.32510000  0.65020000  0.75000000  1.0 0.8682358533
Zn  Zn1  1  0.71748000  0.43496000  0.75000000  1.0 0.8780612816
Zn  Zn2  1  0.71748000  0.28252000  0.08333000  1.0 0.8780612816
Zn  Zn3  1  0.56504000  0.28252000  0.41667000  1.0 0.8780612816
Zn  Zn4  1  0.28252000  0.56504000  0.25000000  1.0 0.8780612816
Zn  Zn5  1  0.28252000  0.71748000  0.58333000  1.0 0.8780612816
Zn  Zn6  1  0.43496000  0.71748000  0.91667000  1.0 0.8780612816
Co  Co1  1  0.71610000  0.43220000  0.75000000  1.0 0.8043055405
Co  Co2  1  0.71610000  0.28390000  0.08333000  1.0 0.806279244
Co  Co3  1  0.56780000  0.28390000  0.41667000  1.0 0.806279244
Co  Co4  1  0.28390000  0.56780000  0.25000000  1.0 0.806279244
Co  Co5  1  0.28390000  0.71610000  0.58333000  1.0 0.806279244
Co  Co6  1  0.43220000  0.71610000  0.91667000  1.0 0.8043055405
H  H1  1  0.18660000  0.74580000  0.18993000  1.0 0.1241176875
H  H2  1  0.08390000  0.66630000  0.46543000  1.0 0.1126004752
H  H3  1  0.88720000  0.62340000  0.64213000  1.0 0.1306834861
H  H4  1  0.94560000  0.59430000  0.35793000  1.0 0.1126004752
H  H5  1  0.17170000  0.64140000  0.41503000  1.0 0.1126004752
H  H6  1  0.85810000  0.49490000  0.43203000  1.0 0.1241176875
H  H7  1  0.09830000  0.77070000  0.23983000  1.0 0.1126004752
H  H8  1  0.97100000  0.72190000  0.56283000  1.0 0.1126004752
H  H9  1  0.55920000  0.81340000  0.52327000  1.0 0.1241176875
H  H10  1  0.58240000  0.91610000  0.79877000  1.0 0.1126004752
H  H11  1  0.73620000  0.11280000  0.97547000  1.0 0.1306834861
H  H12  1  0.64870000  0.05440000  0.69127000  1.0 0.1126004752
H  H13  1  0.46970000  0.82830000  0.74837000  1.0 0.1126004752
H  H14  1  0.63680000  0.14190000  0.76537000  1.0 0.1241176875
H  H15  1  0.67240000  0.90170000  0.57317000  1.0 0.1126004752
H  H16  1  0.75090000  0.02900000  0.89617000  1.0 0.1126004752
H  H17  1  0.25420000  0.44080000  0.85660000  1.0 0.1241176875
H  H18  1  0.33370000  0.41760000  0.13210000  1.0 0.1126004752
H  H19  1  0.37660000  0.26380000  0.30880000  1.0 0.1306834861
H  H20  1  0.40570000  0.35130000  0.02460000  1.0 0.1126004752
H  H21  1  0.35860000  0.53030000  0.08170000  1.0 0.1126004752
H  H22  1  0.50510000  0.36320000  0.09870000  1.0 0.1241176875
H  H23  1  0.22930000  0.32760000  0.90650000  1.0 0.1126004752
H  H24  1  0.27810000  0.24910000  0.22950000  1.0 0.1126004752
H  H25  1  0.81340000  0.25420000  0.68993000  1.0 0.1241176875
H  H26  1  0.91610000  0.33370000  0.96543000  1.0 0.1126004752
H  H27  1  0.11280000  0.37660000  0.14213000  1.0 0.1306834861
H  H28  1  0.05440000  0.40570000  0.85793000  1.0 0.1126004752
H  H29  1  0.82830000  0.35860000  0.91503000  1.0 0.1126004752
H  H30  1  0.14190000  0.50510000  0.93203000  1.0 0.1241176875
H  H31  1  0.90170000  0.22930000  0.73983000  1.0 0.1126004752
H  H32  1  0.02900000  0.27810000  0.06283000  1.0 0.1126004752
H  H33  1  0.44080000  0.18660000  0.02327000  1.0 0.1241176875
H  H34  1  0.41760000  0.08390000  0.29877000  1.0 0.1126004752
H  H35  1  0.26380000  0.88720000  0.47547000  1.0 0.1306834861
H  H36  1  0.35130000  0.94560000  0.19127000  1.0 0.1126004752
H  H37  1  0.53030000  0.17170000  0.24837000  1.0 0.1126004752
H  H38  1  0.36320000  0.85810000  0.26537000  1.0 0.1241176875
H  H39  1  0.32760000  0.09830000  0.07317000  1.0 0.1126004752
H  H40  1  0.24910000  0.97100000  0.39617000  1.0 0.1126004752
H  H41  1  0.74580000  0.55920000  0.35660000  1.0 0.1241176875
H  H42  1  0.66630000  0.58240000  0.63210000  1.0 0.1126004752
H  H43  1  0.62340000  0.73620000  0.80880000  1.0 0.1306834861
H  H44  1  0.59430000  0.64870000  0.52460000  1.0 0.1126004752
H  H45  1  0.64140000  0.46970000  0.58170000  1.0 0.1126004752
H  H46  1  0.49490000  0.63680000  0.59870000  1.0 0.1241176875
H  H47  1  0.77070000  0.67240000  0.40650000  1.0 0.1126004752
H  H48  1  0.72190000  0.75090000  0.72950000  1.0 0.1126004752
H  H49  1  0.44080000  0.25420000  0.81007000  1.0 0.1241176875
H  H50  1  0.41760000  0.33370000  0.53457000  1.0 0.1126004752
H  H51  1  0.26380000  0.37660000  0.35787000  1.0 0.1306834861
H  H52  1  0.35130000  0.40570000  0.64207000  1.0 0.1126004752
H  H53  1  0.53030000  0.35860000  0.58497000  1.0 0.1126004752
H  H54  1  0.36320000  0.50510000  0.56797000  1.0 0.1241176875
H  H55  1  0.32760000  0.22930000  0.76017000  1.0 0.1126004752
H  H56  1  0.24910000  0.27810000  0.43717000  1.0 0.1126004752
H  H57  1  0.74580000  0.18660000  0.47673000  1.0 0.1241176875
H  H58  1  0.66630000  0.08390000  0.20123000  1.0 0.1126004752
H  H59  1  0.62340000  0.88720000  0.02453000  1.0 0.1306834861
H  H60  1  0.59430000  0.94560000  0.30873000  1.0 0.1126004752
H  H61  1  0.64140000  0.17170000  0.25163000  1.0 0.1126004752
H  H62  1  0.49490000  0.85810000  0.23463000  1.0 0.1241176875
H  H63  1  0.77070000  0.09830000  0.42683000  1.0 0.1126004752
H  H64  1  0.72190000  0.97100000  0.10383000  1.0 0.1126004752
H  H65  1  0.81340000  0.55920000  0.14340000  1.0 0.1241176875
H  H66  1  0.91610000  0.58240000  0.86790000  1.0 0.1126004752
H  H67  1  0.11280000  0.73620000  0.69120000  1.0 0.1306834861
H  H68  1  0.05440000  0.64870000  0.97540000  1.0 0.1126004752
H  H69  1  0.82830000  0.46970000  0.91830000  1.0 0.1126004752
H  H70  1  0.14190000  0.63680000  0.90130000  1.0 0.1241176875
H  H71  1  0.90170000  0.67240000  0.09350000  1.0 0.1126004752
H  H72  1  0.02900000  0.75090000  0.77050000  1.0 0.1126004752
H  H73  1  0.55920000  0.74580000  0.31007000  1.0 0.1241176875
H  H74  1  0.58240000  0.66630000  0.03457000  1.0 0.1126004752
H  H75  1  0.73620000  0.62340000  0.85787000  1.0 0.1306834861
H  H76  1  0.64870000  0.59430000  0.14207000  1.0 0.1126004752
H  H77  1  0.46970000  0.64140000  0.08497000  1.0 0.1126004752
H  H78  1  0.63680000  0.49490000  0.06797000  1.0 0.1241176875
H  H79  1  0.67240000  0.77070000  0.26017000  1.0 0.1126004752
H  H80  1  0.75090000  0.72190000  0.93717000  1.0 0.1126004752
H  H81  1  0.25420000  0.81340000  0.97673000  1.0 0.1241176875
H  H82  1  0.33370000  0.91610000  0.70123000  1.0 0.1126004752
H  H83  1  0.37660000  0.11280000  0.52453000  1.0 0.1306834861
H  H84  1  0.40570000  0.05440000  0.80873000  1.0 0.1126004752
H  H85  1  0.35860000  0.82830000  0.75163000  1.0 0.1126004752
H  H86  1  0.50510000  0.14190000  0.73463000  1.0 0.1241176875
H  H87  1  0.22930000  0.90170000  0.92683000  1.0 0.1126004752
H  H88  1  0.27810000  0.02900000  0.60383000  1.0 0.1126004752
H  H89  1  0.18660000  0.44080000  0.64340000  1.0 0.1241176875
H  H90  1  0.08390000  0.41760000  0.36790000  1.0 0.1126004752
H  H91  1  0.88720000  0.26380000  0.19120000  1.0 0.1306834861
H  H92  1  0.94560000  0.35130000  0.47540000  1.0 0.1126004752
H  H93  1  0.17170000  0.53030000  0.41830000  1.0 0.1126004752
H  H94  1  0.85810000  0.36320000  0.40130000  1.0 0.1241176875
H  H95  1  0.09830000  0.32760000  0.59350000  1.0 0.1126004752
H  H96  1  0.97100000  0.24910000  0.27050000  1.0 0.1126004752
C  C1  1  0.07930000  0.71890000  0.35693000  1.0 0.0773942341
C  C2  1  0.80420000  0.48450000  0.59543000  1.0 0.4473987614
C  C3  1  0.24060000  0.67080000  0.26293000  1.0 0.3806951612
C  C4  1  0.16540000  0.72910000  0.24493000  1.0 -0.1081618343
C  C5  1  0.10350000  0.68160000  0.40943000  1.0 -0.1385641718
C  C6  1  0.18680000  0.68940000  0.29743000  1.0 -0.007260831
C  C7  1  0.89800000  0.61710000  0.58453000  1.0 -0.0990760456
C  C8  1  0.86290000  0.54750000  0.54633000  1.0 -0.0181514971
C  C9  1  0.93270000  0.60010000  0.41463000  1.0 -0.1492572639
C  C10  1  0.15650000  0.66690000  0.37923000  1.0 -0.1385641718
C  C11  1  0.96580000  0.66830000  0.45163000  1.0 0.0718849209
C  C12  1  0.02020000  0.73330000  0.39493000  1.0 -0.2881568055
C  C13  1  0.88110000  0.54020000  0.45923000  1.0 -0.117885556
C  C14  1  0.11220000  0.74380000  0.27493000  1.0 -0.1492572639
C  C15  1  0.94830000  0.67600000  0.53693000  1.0 -0.1492572639
C  C16  1  0.97460000  0.74310000  0.32013000  1.0 0.6542370282
C  C17  1  0.05990000  0.80550000  0.44683000  1.0 0.6555342111
C  C18  1  0.63960000  0.92070000  0.69027000  1.0 0.0773942341
C  C19  1  0.68030000  0.19580000  0.92877000  1.0 0.4473987614
C  C20  1  0.43020000  0.75940000  0.59627000  1.0 0.3806951612
C  C21  1  0.56370000  0.83460000  0.57827000  1.0 -0.1081618343
C  C22  1  0.57810000  0.89650000  0.74277000  1.0 -0.1385641718
C  C23  1  0.50260000  0.81320000  0.63077000  1.0 -0.007260831
C  C24  1  0.71910000  0.10200000  0.91787000  1.0 -0.0990760456
C  C25  1  0.68460000  0.13710000  0.87967000  1.0 -0.0181514971
C  C26  1  0.66740000  0.06730000  0.74797000  1.0 -0.1492572639
C  C27  1  0.51040000  0.84350000  0.71257000  1.0 -0.1385641718
C  C28  1  0.70250000  0.03420000  0.78497000  1.0 0.0718849209
C  C29  1  0.71310000  0.97980000  0.72827000  1.0 -0.2881568055
C  C30  1  0.65910000  0.11890000  0.79257000  1.0 -0.117885556
C  C31  1  0.63160000  0.88780000  0.60827000  1.0 -0.1492572639
C  C32  1  0.72770000  0.05170000  0.87027000  1.0 -0.1492572639
C  C33  1  0.76850000  0.02540000  0.65347000  1.0 0.6542370282
C  C34  1  0.74560000  0.94010000  0.78017000  1.0 0.6555342111
C  C35  1  0.28110000  0.36040000  0.02360000  1.0 0.0773942341
C  C36  1  0.51550000  0.31970000  0.26210000  1.0 0.4473987614
C  C37  1  0.32920000  0.56980000  0.92960000  1.0 0.3806951612
C  C38  1  0.27090000  0.43630000  0.91160000  1.0 -0.1081618343
C  C39  1  0.31840000  0.42190000  0.07610000  1.0 -0.1385641718
C  C40  1  0.31060000  0.49740000  0.96410000  1.0 -0.007260831
C  C41  1  0.38290000  0.28090000  0.25120000  1.0 -0.0990760456
C  C42  1  0.45250000  0.31540000  0.21300000  1.0 -0.0181514971
C  C43  1  0.39990000  0.33260000  0.08130000  1.0 -0.1492572639
C  C44  1  0.33310000  0.48960000  0.04590000  1.0 -0.1385641718
C  C45  1  0.33170000  0.29750000  0.11830000  1.0 0.0718849209
C  C46  1  0.26670000  0.28690000  0.06160000  1.0 -0.2881568055
C  C47  1  0.45980000  0.34090000  0.12590000  1.0 -0.117885556
C  C48  1  0.25620000  0.36840000  0.94160000  1.0 -0.1492572639
C  C49  1  0.32400000  0.27230000  0.20360000  1.0 -0.1492572639
C  C50  1  0.25690000  0.23150000  0.98680000  1.0 0.6542370282
C  C51  1  0.19450000  0.25440000  0.11350000  1.0 0.6555342111
C  C52  1  0.92070000  0.28110000  0.85693000  1.0 0.0773942341
C  C53  1  0.19580000  0.51550000  0.09543000  1.0 0.4473987614
C  C54  1  0.75940000  0.32920000  0.76293000  1.0 0.3806951612
C  C55  1  0.83460000  0.27090000  0.74493000  1.0 -0.1081618343
C  C56  1  0.89650000  0.31840000  0.90943000  1.0 -0.1385641718
C  C57  1  0.81320000  0.31060000  0.79743000  1.0 -0.007260831
C  C58  1  0.10200000  0.38290000  0.08453000  1.0 -0.0990760456
C  C59  1  0.13710000  0.45250000  0.04633000  1.0 -0.0181514971
C  C60  1  0.06730000  0.39990000  0.91463000  1.0 -0.1492572639
C  C61  1  0.84350000  0.33310000  0.87923000  1.0 -0.1385641718
C  C62  1  0.03420000  0.33170000  0.95163000  1.0 0.0718849209
C  C63  1  0.97980000  0.26670000  0.89493000  1.0 -0.2881568055
C  C64  1  0.11890000  0.45980000  0.95923000  1.0 -0.117885556
C  C65  1  0.88780000  0.25620000  0.77493000  1.0 -0.1492572639
C  C66  1  0.05170000  0.32400000  0.03693000  1.0 -0.1492572639
C  C67  1  0.02540000  0.25690000  0.82013000  1.0 0.6542370282
C  C68  1  0.94010000  0.19450000  0.94683000  1.0 0.6555342111
C  C69  1  0.36040000  0.07930000  0.19027000  1.0 0.0773942341
C  C70  1  0.31970000  0.80420000  0.42877000  1.0 0.4473987614
C  C71  1  0.56980000  0.24060000  0.09627000  1.0 0.3806951612
C  C72  1  0.43630000  0.16540000  0.07827000  1.0 -0.1081618343
C  C73  1  0.42190000  0.10350000  0.24277000  1.0 -0.1385641718
C  C74  1  0.49740000  0.18680000  0.13077000  1.0 -0.007260831
C  C75  1  0.28090000  0.89800000  0.41787000  1.0 -0.0990760456
C  C76  1  0.31540000  0.86290000  0.37967000  1.0 -0.0181514971
C  C77  1  0.33260000  0.93270000  0.24797000  1.0 -0.1492572639
C  C78  1  0.48960000  0.15650000  0.21257000  1.0 -0.1385641718
C  C79  1  0.29750000  0.96580000  0.28497000  1.0 0.0718849209
C  C80  1  0.28690000  0.02020000  0.22827000  1.0 -0.2881568055
C  C81  1  0.34090000  0.88110000  0.29257000  1.0 -0.117885556
C  C82  1  0.36840000  0.11220000  0.10827000  1.0 -0.1492572639
C  C83  1  0.27230000  0.94830000  0.37027000  1.0 -0.1492572639
C  C84  1  0.23150000  0.97460000  0.15347000  1.0 0.6542370282
C  C85  1  0.25440000  0.05990000  0.28017000  1.0 0.6555342111
C  C86  1  0.71890000  0.63960000  0.52360000  1.0 0.0773942341
C  C87  1  0.48450000  0.68030000  0.76210000  1.0 0.4473987614
C  C88  1  0.67080000  0.43020000  0.42960000  1.0 0.3806951612
C  C89  1  0.72910000  0.56370000  0.41160000  1.0 -0.1081618343
C  C90  1  0.68160000  0.57810000  0.57610000  1.0 -0.1385641718
C  C91  1  0.68940000  0.50260000  0.46410000  1.0 -0.007260831
C  C92  1  0.61710000  0.71910000  0.75120000  1.0 -0.0990760456
C  C93  1  0.54750000  0.68460000  0.71300000  1.0 -0.0181514971
C  C94  1  0.60010000  0.66740000  0.58130000  1.0 -0.1492572639
C  C95  1  0.66690000  0.51040000  0.54590000  1.0 -0.1385641718
C  C96  1  0.66830000  0.70250000  0.61830000  1.0 0.0718849209
C  C97  1  0.73330000  0.71310000  0.56160000  1.0 -0.2881568055
C  C98  1  0.54020000  0.65910000  0.62590000  1.0 -0.117885556
C  C99  1  0.74380000  0.63160000  0.44160000  1.0 -0.1492572639
C  C100  1  0.67600000  0.72770000  0.70360000  1.0 -0.1492572639
C  C101  1  0.74310000  0.76850000  0.48680000  1.0 0.6542370282
C  C102  1  0.80550000  0.74560000  0.61350000  1.0 0.6555342111
C  C103  1  0.36040000  0.28110000  0.64307000  1.0 0.0773942341
C  C104  1  0.31970000  0.51550000  0.40457000  1.0 0.4473987614
C  C105  1  0.56980000  0.32920000  0.73707000  1.0 0.3806951612
C  C106  1  0.43630000  0.27090000  0.75507000  1.0 -0.1081618343
C  C107  1  0.42190000  0.31840000  0.59057000  1.0 -0.1385641718
C  C108  1  0.49740000  0.31060000  0.70257000  1.0 -0.007260831
C  C109  1  0.28090000  0.38290000  0.41547000  1.0 -0.0990760456
C  C110  1  0.31540000  0.45250000  0.45367000  1.0 -0.0181514971
C  C111  1  0.33260000  0.39990000  0.58537000  1.0 -0.1492572639
C  C112  1  0.48960000  0.33310000  0.62077000  1.0 -0.1385641718
C  C113  1  0.29750000  0.33170000  0.54837000  1.0 0.0718849209
C  C114  1  0.28690000  0.26670000  0.60507000  1.0 -0.2881568055
C  C115  1  0.34090000  0.45980000  0.54077000  1.0 -0.117885556
C  C116  1  0.36840000  0.25620000  0.72507000  1.0 -0.1492572639
C  C117  1  0.27230000  0.32400000  0.46307000  1.0 -0.1492572639
C  C118  1  0.23150000  0.25690000  0.67987000  1.0 0.6542370282
C  C119  1  0.25440000  0.19450000  0.55317000  1.0 0.6555342111
C  C120  1  0.71890000  0.07930000  0.30973000  1.0 0.0773942341
C  C121  1  0.48450000  0.80420000  0.07123000  1.0 0.4473987614
C  C122  1  0.67080000  0.24060000  0.40373000  1.0 0.3806951612
C  C123  1  0.72910000  0.16540000  0.42173000  1.0 -0.1081618343
C  C124  1  0.68160000  0.10350000  0.25723000  1.0 -0.1385641718
C  C125  1  0.68940000  0.18680000  0.36923000  1.0 -0.007260831
C  C126  1  0.61710000  0.89800000  0.08213000  1.0 -0.0990760456
C  C127  1  0.54750000  0.86290000  0.12033000  1.0 -0.0181514971
C  C128  1  0.60010000  0.93270000  0.25203000  1.0 -0.1492572639
C  C129  1  0.66690000  0.15650000  0.28743000  1.0 -0.1385641718
C  C130  1  0.66830000  0.96580000  0.21503000  1.0 0.0718849209
C  C131  1  0.73330000  0.02020000  0.27173000  1.0 -0.2881568055
C  C132  1  0.54020000  0.88110000  0.20743000  1.0 -0.117885556
C  C133  1  0.74380000  0.11220000  0.39173000  1.0 -0.1492572639
C  C134  1  0.67600000  0.94830000  0.12973000  1.0 -0.1492572639
C  C135  1  0.74310000  0.97460000  0.34653000  1.0 0.6542370282
C  C136  1  0.80550000  0.05990000  0.21983000  1.0 0.6555342111
C  C137  1  0.92070000  0.63960000  0.97640000  1.0 0.0773942341
C  C138  1  0.19580000  0.68030000  0.73790000  1.0 0.4473987614
C  C139  1  0.75940000  0.43020000  0.07040000  1.0 0.3806951612
C  C140  1  0.83460000  0.56370000  0.08840000  1.0 -0.1081618343
C  C141  1  0.89650000  0.57810000  0.92390000  1.0 -0.1385641718
C  C142  1  0.81320000  0.50260000  0.03590000  1.0 -0.007260831
C  C143  1  0.10200000  0.71910000  0.74880000  1.0 -0.0990760456
C  C144  1  0.13710000  0.68460000  0.78700000  1.0 -0.0181514971
C  C145  1  0.06730000  0.66740000  0.91870000  1.0 -0.1492572639
C  C146  1  0.84350000  0.51040000  0.95410000  1.0 -0.1385641718
C  C147  1  0.03420000  0.70250000  0.88170000  1.0 0.0718849209
C  C148  1  0.97980000  0.71310000  0.93840000  1.0 -0.2881568055
C  C149  1  0.11890000  0.65910000  0.87410000  1.0 -0.117885556
C  C150  1  0.88780000  0.63160000  0.05840000  1.0 -0.1492572639
C  C151  1  0.05170000  0.72770000  0.79640000  1.0 -0.1492572639
C  C152  1  0.02540000  0.76850000  0.01320000  1.0 0.6542370282
C  C153  1  0.94010000  0.74560000  0.88650000  1.0 0.6555342111
C  C154  1  0.63960000  0.71890000  0.14307000  1.0 0.0773942341
C  C155  1  0.68030000  0.48450000  0.90457000  1.0 0.4473987614
C  C156  1  0.43020000  0.67080000  0.23707000  1.0 0.3806951612
C  C157  1  0.56370000  0.72910000  0.25507000  1.0 -0.1081618343
C  C158  1  0.57810000  0.68160000  0.09057000  1.0 -0.1385641718
C  C159  1  0.50260000  0.68940000  0.20257000  1.0 -0.007260831
C  C160  1  0.71910000  0.61710000  0.91547000  1.0 -0.0990760456
C  C161  1  0.68460000  0.54750000  0.95367000  1.0 -0.0181514971
C  C162  1  0.66740000  0.60010000  0.08537000  1.0 -0.1492572639
C  C163  1  0.51040000  0.66690000  0.12077000  1.0 -0.1385641718
C  C164  1  0.70250000  0.66830000  0.04837000  1.0 0.0718849209
C  C165  1  0.71310000  0.73330000  0.10507000  1.0 -0.2881568055
C  C166  1  0.65910000  0.54020000  0.04077000  1.0 -0.117885556
C  C167  1  0.63160000  0.74380000  0.22507000  1.0 -0.1492572639
C  C168  1  0.72770000  0.67600000  0.96307000  1.0 -0.1492572639
C  C169  1  0.76850000  0.74310000  0.17987000  1.0 0.6542370282
C  C170  1  0.74560000  0.80550000  0.05317000  1.0 0.6555342111
C  C171  1  0.28110000  0.92070000  0.80973000  1.0 0.0773942341
C  C172  1  0.51550000  0.19580000  0.57123000  1.0 0.4473987614
C  C173  1  0.32920000  0.75940000  0.90373000  1.0 0.3806951612
C  C174  1  0.27090000  0.83460000  0.92173000  1.0 -0.1081618343
C  C175  1  0.31840000  0.89650000  0.75723000  1.0 -0.1385641718
C  C176  1  0.31060000  0.81320000  0.86923000  1.0 -0.007260831
C  C177  1  0.38290000  0.10200000  0.58213000  1.0 -0.0990760456
C  C178  1  0.45250000  0.13710000  0.62033000  1.0 -0.0181514971
C  C179  1  0.39990000  0.06730000  0.75203000  1.0 -0.1492572639
C  C180  1  0.33310000  0.84350000  0.78743000  1.0 -0.1385641718
C  C181  1  0.33170000  0.03420000  0.71503000  1.0 0.0718849209
C  C182  1  0.26670000  0.97980000  0.77173000  1.0 -0.2881568055
C  C183  1  0.45980000  0.11890000  0.70743000  1.0 -0.117885556
C  C184  1  0.25620000  0.88780000  0.89173000  1.0 -0.1492572639
C  C185  1  0.32400000  0.05170000  0.62973000  1.0 -0.1492572639
C  C186  1  0.25690000  0.02540000  0.84653000  1.0 0.6542370282
C  C187  1  0.19450000  0.94010000  0.71983000  1.0 0.6542370282
C  C188  1  0.07930000  0.36040000  0.47640000  1.0 0.0773942341
C  C189  1  0.80420000  0.31970000  0.23790000  1.0 0.4473987614
C  C190  1  0.24060000  0.56980000  0.57040000  1.0 0.3806951612
C  C191  1  0.16540000  0.43630000  0.58840000  1.0 -0.1081618343
C  C192  1  0.10350000  0.42190000  0.42390000  1.0 -0.1385641718
C  C193  1  0.18680000  0.49740000  0.53590000  1.0 -0.007260831
C  C194  1  0.89800000  0.28090000  0.24880000  1.0 -0.0990760456
C  C195  1  0.86290000  0.31540000  0.28700000  1.0 -0.0181514971
C  C196  1  0.93270000  0.33260000  0.41870000  1.0 -0.1492572639
C  C197  1  0.15650000  0.48960000  0.45410000  1.0 -0.1385641718
C  C198  1  0.96580000  0.29750000  0.38170000  1.0 0.0718849209
C  C199  1  0.02020000  0.28690000  0.43840000  1.0 -0.2881568055
C  C200  1  0.88110000  0.34090000  0.37410000  1.0 -0.117885556
C  C201  1  0.11220000  0.36840000  0.55840000  1.0 -0.1492572639
C  C202  1  0.94830000  0.27230000  0.29640000  1.0 -0.1492572639
C  C203  1  0.97460000  0.23150000  0.51320000  1.0 0.6542370282
C  C204  1  0.05990000  0.25440000  0.38650000  1.0 0.6555342111
O  O1  1  0.25570000  0.62980000  0.31233000  1.0 -0.6904535125
O  O2  1  0.26700000  0.69160000  0.18733000  1.0 -0.6620896787
O  O3  1  0.76900000  0.42480000  0.55723000  1.0 -0.6383283069
O  O4  1  0.79610000  0.49730000  0.67503000  1.0 -0.5903523396
O  O5  1  0.37410000  0.74430000  0.64567000  1.0 -0.6904535125
O  O6  1  0.42460000  0.73300000  0.52067000  1.0 -0.6620896787
O  O7  1  0.65580000  0.23100000  0.89057000  1.0 -0.6383283069
O  O8  1  0.70120000  0.20390000  0.00837000  1.0 -0.5903523396
O  O9  1  0.37020000  0.62590000  0.97900000  1.0 -0.6904535125
O  O10  1  0.30840000  0.57540000  0.85400000  1.0 -0.6620896787
O  O11  1  0.57520000  0.34420000  0.22390000  1.0 -0.6383283069
O  O12  1  0.50270000  0.29880000  0.34170000  1.0 -0.5903523396
O  O13  1  0.74430000  0.37020000  0.81233000  1.0 -0.6904535125
O  O14  1  0.73300000  0.30840000  0.68733000  1.0 -0.6620896787
O  O15  1  0.23100000  0.57520000  0.05723000  1.0 -0.6383283069
O  O16  1  0.20390000  0.50270000  0.17503000  1.0 -0.5903523396
O  O17  1  0.62590000  0.25570000  0.14567000  1.0 -0.6904535125
O  O18  1  0.57540000  0.26700000  0.02067000  1.0 -0.6620896787
O  O19  1  0.34420000  0.76900000  0.39057000  1.0 -0.6383283069
O  O20  1  0.29880000  0.79610000  0.50837000  1.0 -0.5903523396
O  O21  1  0.62980000  0.37410000  0.47900000  1.0 -0.6904535125
O  O22  1  0.69160000  0.42460000  0.35400000  1.0 -0.6620896787
O  O23  1  0.42480000  0.65580000  0.72390000  1.0 -0.6383283069
O  O24  1  0.49730000  0.70120000  0.84170000  1.0 -0.5903523396
O  O25  1  0.62590000  0.37020000  0.68767000  1.0 -0.6904535125
O  O26  1  0.57540000  0.30840000  0.81267000  1.0 -0.6620896787
O  O27  1  0.34420000  0.57520000  0.44277000  1.0 -0.6383283069
O  O28  1  0.29880000  0.50270000  0.32497000  1.0 -0.5903523396
O  O29  1  0.62980000  0.25570000  0.35433000  1.0 -0.6904535125
O  O30  1  0.69160000  0.26700000  0.47933000  1.0 -0.6620896787
O  O31  1  0.42480000  0.76900000  0.10943000  1.0 -0.6383283069
O  O32  1  0.49730000  0.79610000  0.99163000  1.0 -0.5903523396
O  O33  1  0.74430000  0.37410000  0.02100000  1.0 -0.6904535125
O  O34  1  0.73300000  0.42460000  0.14600000  1.0 -0.6620896787
O  O35  1  0.23100000  0.65580000  0.77610000  1.0 -0.6383283069
O  O36  1  0.20390000  0.70120000  0.65830000  1.0 -0.5903523396
O  O37  1  0.37410000  0.62980000  0.18767000  1.0 -0.6904535125
O  O38  1  0.42460000  0.69160000  0.31267000  1.0 -0.6620896787
O  O39  1  0.65580000  0.42480000  0.94277000  1.0 -0.6383283069
O  O40  1  0.70120000  0.49730000  0.82497000  1.0 -0.5903523396
O  O41  1  0.37020000  0.74430000  0.85433000  1.0 -0.6904535125
O  O42  1  0.30840000  0.73300000  0.97933000  1.0 -0.6620896787
O  O43  1  0.57520000  0.23100000  0.60943000  1.0 -0.6383283069
O  O44  1  0.50270000  0.20390000  0.49163000  1.0 -0.5903523396
O  O45  1  0.25570000  0.62590000  0.52100000  1.0 -0.6904535125
O  O46  1  0.26700000  0.57540000  0.64600000  1.0 -0.6620896787
O  O47  1  0.76900000  0.34420000  0.27610000  1.0 -0.6383283069
O  O48  1  0.79610000  0.29880000  0.15830000  1.0 -0.5903523396
F  F1  1  0.09390000  0.79810000  0.51643000  1.0 -0.2002381495
F  F2  1  0.95220000  0.69010000  0.26133000  1.0 -0.2002381495
F  F3  1  0.01160000  0.80590000  0.27783000  1.0 -0.2002381495
F  F4  1  0.11070000  0.85880000  0.39803000  1.0 -0.2002381495
F  F5  1  0.01510000  0.82770000  0.47603000  1.0 -0.2002381495
F  F6  1  0.91610000  0.74100000  0.35473000  1.0 -0.2002381495
F  F7  1  0.70420000  0.90610000  0.84977000  1.0 -0.2002381495
F  F8  1  0.73790000  0.04780000  0.59467000  1.0 -0.2002381495
F  F9  1  0.79430000  0.98840000  0.61117000  1.0 -0.2002381495
F  F10  1  0.74810000  0.88930000  0.73137000  1.0 -0.2002381495
F  F11  1  0.81260000  0.98490000  0.80937000  1.0 -0.2002381495
F  F12  1  0.82490000  0.08390000  0.68807000  1.0 -0.2002381495
F  F13  1  0.20190000  0.29580000  0.18310000  1.0 -0.2002381495
F  F14  1  0.30990000  0.26210000  0.92800000  1.0 -0.2002381495
F  F15  1  0.19410000  0.20570000  0.94450000  1.0 -0.2002381495
F  F16  1  0.14120000  0.25190000  0.06470000  1.0 -0.2002381495
F  F17  1  0.17230000  0.18740000  0.14270000  1.0 -0.2002381495
F  F18  1  0.25900000  0.17510000  0.02140000  1.0 -0.2002381495
F  F19  1  0.90610000  0.20190000  0.01643000  1.0 -0.2002381495
F  F20  1  0.04780000  0.30990000  0.76133000  1.0 -0.2002381495
F  F21  1  0.98840000  0.19410000  0.77783000  1.0 -0.2002381495
F  F22  1  0.88930000  0.14120000  0.89803000  1.0 -0.2002381495
F  F23  1  0.98490000  0.17230000  0.97603000  1.0 -0.2002381495
F  F24  1  0.08390000  0.25900000  0.85473000  1.0 -0.2002381495
F  F25  1  0.29580000  0.09390000  0.34977000  1.0 -0.2002381495
F  F26  1  0.26210000  0.95220000  0.09467000  1.0 -0.2002381495
F  F27  1  0.20570000  0.01160000  0.11117000  1.0 -0.2002381495
F  F28  1  0.25190000  0.11070000  0.23137000  1.0 -0.2002381495
F  F29  1  0.18740000  0.01510000  0.30937000  1.0 -0.2002381495
F  F30  1  0.17510000  0.91610000  0.18807000  1.0 -0.2002381495
F  F31  1  0.79810000  0.70420000  0.68310000  1.0 -0.2002381495
F  F32  1  0.69010000  0.73790000  0.42800000  1.0 -0.2002381495
F  F33  1  0.80590000  0.79430000  0.44450000  1.0 -0.2002381495
F  F34  1  0.85880000  0.74810000  0.56470000  1.0 -0.2002381495
F  F35  1  0.82770000  0.81260000  0.64270000  1.0 -0.2002381495
F  F36  1  0.74100000  0.82490000  0.52140000  1.0 -0.2002381495
F  F37  1  0.29580000  0.20190000  0.48357000  1.0 -0.2002381495
F  F38  1  0.26210000  0.30990000  0.73867000  1.0 -0.2002381495
F  F39  1  0.20570000  0.19410000  0.72217000  1.0 -0.2002381495
F  F40  1  0.25190000  0.14120000  0.60197000  1.0 -0.2002381495
F  F41  1  0.18740000  0.17230000  0.52397000  1.0 -0.2002381495
F  F42  1  0.17510000  0.25900000  0.64527000  1.0 -0.2002381495
F  F43  1  0.79810000  0.09390000  0.15023000  1.0 -0.2002381495
F  F44  1  0.69010000  0.95220000  0.40533000  1.0 -0.2002381495
F  F45  1  0.80590000  0.01160000  0.38883000  1.0 -0.2002381495
F  F46  1  0.85880000  0.11070000  0.26863000  1.0 -0.2002381495
F  F47  1  0.82770000  0.01510000  0.19063000  1.0 -0.2002381495
F  F48  1  0.74100000  0.91610000  0.31193000  1.0 -0.2002381495
F  F49  1  0.90610000  0.70420000  0.81690000  1.0 -0.2002381495
F  F50  1  0.04780000  0.73790000  0.07200000  1.0 -0.2002381495
F  F51  1  0.98840000  0.79430000  0.05550000  1.0 -0.2002381495
F  F52  1  0.88930000  0.74810000  0.93530000  1.0 -0.2002381495
F  F53  1  0.98490000  0.81260000  0.85730000  1.0 -0.2002381495
F  F54  1  0.08390000  0.82490000  0.97860000  1.0 -0.2002381495
F  F55  1  0.70420000  0.79810000  0.98357000  1.0 -0.2002381495
F  F56  1  0.73790000  0.69010000  0.23867000  1.0 -0.2002381495
F  F57  1  0.79430000  0.80590000  0.22217000  1.0 -0.2002381495
F  F58  1  0.74810000  0.85880000  0.10197000  1.0 -0.2002381495
F  F59  1  0.81260000  0.82770000  0.02397000  1.0 -0.2002381495
F  F60  1  0.82490000  0.74100000  0.14527000  1.0 -0.2002381495
F  F61  1  0.20190000  0.90610000  0.65023000  1.0 -0.2002381495
F  F62  1  0.30990000  0.04780000  0.90533000  1.0 -0.2002381495
F  F63  1  0.19410000  0.98840000  0.88883000  1.0 -0.2002381495
F  F64  1  0.14120000  0.88930000  0.76863000  1.0 -0.2002381495
F  F65  1  0.17230000  0.98490000  0.69063000  1.0 -0.2002381495
F  F66  1  0.25900000  0.08390000  0.81193000  1.0 -0.2002381495
F  F67  1  0.09390000  0.29580000  0.31690000  1.0 -0.2002381495
F  F68  1  0.95220000  0.26210000  0.57200000  1.0 -0.2002381495
F  F69  1  0.01160000  0.20570000  0.55550000  1.0 -0.2002381495
F  F70  1  0.11070000  0.25190000  0.43530000  1.0 -0.2002381495
F  F71  1  0.01510000  0.18740000  0.35730000  1.0 -0.2002381495
F  F72  1  0.91610000  0.17510000  0.47860000  1.0 -0.2002381495
