# DDEC6 charges by PACMAN v1.1 (https://github.com/mtap-research/PACMAN-charge/)
data_XOCROZ_FSR_pacman
_symmetry_space_group_name_H-M   'P 1'
_cell_length_a   21.26390000
_cell_length_b   21.26390000
_cell_length_c   15.10830000
_cell_angle_alpha   90.00000000
_cell_angle_beta   90.00000000
_cell_angle_gamma   120.00000000
_symmetry_Int_Tables_number   1
_chemical_formula_structural   MnZnCo2H16C34(O2F3)4
_chemical_formula_sum   'Mn6 Zn6 Co12 H96 C204 O48 F72'
_cell_volume   5916.05324411
_cell_formula_units_Z   6
loop_
 _symmetry_equiv_pos_site_id
 _symmetry_equiv_pos_as_xyz
  1  'x, y, z'
loop_
 _atom_site_type_symbol
 _atom_site_label
 _atom_site_symmetry_multiplicity
 _atom_site_fract_x
 _atom_site_fract_y
 _atom_site_fract_z
 _atom_site_occupancy
 _atom_site_charge
Mn  Mn1  1  0.67585000  0.32415000  0.58333000  1.0 1.0149843387
Mn  Mn2  1  0.64830000  0.32415000  0.91667000  1.0 1.0149843387
Mn  Mn3  1  0.67585000  0.35170000  0.25000000  1.0 1.0149843387
Mn  Mn4  1  0.32415000  0.67585000  0.08333000  1.0 1.0149843387
Mn  Mn5  1  0.35170000  0.67585000  0.41667000  1.0 1.0149843387
Mn  Mn6  1  0.32415000  0.64830000  0.75000000  1.0 1.0149843387
Zn  Zn1  1  0.71770000  0.43540000  0.75000000  1.0 0.8831294866
Zn  Zn2  1  0.71770000  0.28230000  0.08333000  1.0 0.8831294866
Zn  Zn3  1  0.56460000  0.28230000  0.41667000  1.0 0.8831294866
Zn  Zn4  1  0.28230000  0.56460000  0.25000000  1.0 0.8831294866
Zn  Zn5  1  0.28230000  0.71770000  0.58333000  1.0 0.8831294866
Zn  Zn6  1  0.43540000  0.71770000  0.91667000  1.0 0.8831294866
Co  Co1  1  0.56800000  0.28400000  0.41667000  1.0 0.8210301392
Co  Co2  1  0.71600000  0.43200000  0.75000000  1.0 0.8210301392
Co  Co3  1  0.71600000  0.28400000  0.08333000  1.0 0.8210301392
Co  Co4  1  0.43200000  0.71600000  0.91667000  1.0 0.8210301392
Co  Co5  1  0.28400000  0.56800000  0.25000000  1.0 0.8210301392
Co  Co6  1  0.28400000  0.71600000  0.58333000  1.0 0.8210301392
Co  Co7  1  0.67150000  0.32850000  0.58333000  1.0 0.8600463958
Co  Co8  1  0.65700000  0.32850000  0.91667000  1.0 0.8600463958
Co  Co9  1  0.67150000  0.34300000  0.25000000  1.0 0.8600463958
Co  Co10  1  0.32850000  0.67150000  0.08333000  1.0 0.8600463958
Co  Co11  1  0.34300000  0.67150000  0.41667000  1.0 0.8600463958
Co  Co12  1  0.32850000  0.65700000  0.75000000  1.0 0.8600463958
H  H1  1  0.37860000  0.26490000  0.31043000  1.0 0.1309677234
H  H2  1  0.50640000  0.36370000  0.09883000  1.0 0.1309677234
H  H3  1  0.27870000  0.24860000  0.23033000  1.0 0.1098611645
H  H4  1  0.40680000  0.35140000  0.02193000  1.0 0.1174137145
H  H5  1  0.22840000  0.32660000  0.90713000  1.0 0.1174137145
H  H6  1  0.33200000  0.41690000  0.13473000  1.0 0.1174137145
H  H7  1  0.25250000  0.43880000  0.85603000  1.0 0.1309677234
H  H8  1  0.35730000  0.53050000  0.08353000  1.0 0.1098611645
H  H9  1  0.88630000  0.62140000  0.64377000  1.0 0.1309677234
H  H10  1  0.85730000  0.49360000  0.43217000  1.0 0.1309677234
H  H11  1  0.96990000  0.72130000  0.56367000  1.0 0.1098611645
H  H12  1  0.94460000  0.59320000  0.35527000  1.0 0.1174137145
H  H13  1  0.09820000  0.77160000  0.24047000  1.0 0.1174137145
H  H14  1  0.08490000  0.66800000  0.46807000  1.0 0.1174137145
H  H15  1  0.18630000  0.74750000  0.18937000  1.0 0.1309677234
H  H16  1  0.17320000  0.64270000  0.41687000  1.0 0.1098611645
H  H17  1  0.73510000  0.11370000  0.97710000  1.0 0.1309677234
H  H18  1  0.63630000  0.14270000  0.76550000  1.0 0.1309677234
H  H19  1  0.75140000  0.03010000  0.89700000  1.0 0.1098611645
H  H20  1  0.64860000  0.05540000  0.68860000  1.0 0.1174137145
H  H21  1  0.67340000  0.90180000  0.57380000  1.0 0.1174137145
H  H22  1  0.58310000  0.91510000  0.80140000  1.0 0.1174137145
H  H23  1  0.56120000  0.81370000  0.52270000  1.0 0.1309677234
H  H24  1  0.46950000  0.82680000  0.75020000  1.0 0.1098611645
H  H25  1  0.62140000  0.73510000  0.81043000  1.0 0.1309677234
H  H26  1  0.49360000  0.63630000  0.59883000  1.0 0.1309677234
H  H27  1  0.72130000  0.75140000  0.73033000  1.0 0.1098611645
H  H28  1  0.59320000  0.64860000  0.52193000  1.0 0.1174137145
H  H29  1  0.77160000  0.67340000  0.40713000  1.0 0.1174137145
H  H30  1  0.66800000  0.58310000  0.63473000  1.0 0.1174137145
H  H31  1  0.74750000  0.56120000  0.35603000  1.0 0.1309677234
H  H32  1  0.64270000  0.46950000  0.58353000  1.0 0.1098611645
H  H33  1  0.11370000  0.37860000  0.14377000  1.0 0.1309677234
H  H34  1  0.14270000  0.50640000  0.93217000  1.0 0.1309677234
H  H35  1  0.03010000  0.27870000  0.06367000  1.0 0.1098611645
H  H36  1  0.05540000  0.40680000  0.85527000  1.0 0.1174137145
H  H37  1  0.90180000  0.22840000  0.74047000  1.0 0.1174137145
H  H38  1  0.91510000  0.33200000  0.96807000  1.0 0.1174137145
H  H39  1  0.81370000  0.25250000  0.68937000  1.0 0.1309677234
H  H40  1  0.82680000  0.35730000  0.91687000  1.0 0.1098611645
H  H41  1  0.26490000  0.88630000  0.47710000  1.0 0.1309677234
H  H42  1  0.36370000  0.85730000  0.26550000  1.0 0.1309677234
H  H43  1  0.24860000  0.96990000  0.39700000  1.0 0.1098611645
H  H44  1  0.35140000  0.94460000  0.18860000  1.0 0.1174137145
H  H45  1  0.32660000  0.09820000  0.07380000  1.0 0.1174137145
H  H46  1  0.41690000  0.08490000  0.30140000  1.0 0.1174137145
H  H47  1  0.43880000  0.18630000  0.02270000  1.0 0.1309677234
H  H48  1  0.53050000  0.17320000  0.25020000  1.0 0.1098611645
H  H49  1  0.11370000  0.73510000  0.68957000  1.0 0.1309677234
H  H50  1  0.14270000  0.63630000  0.90117000  1.0 0.1309677234
H  H51  1  0.03010000  0.75140000  0.76967000  1.0 0.1098611645
H  H52  1  0.05540000  0.64860000  0.97807000  1.0 0.1174137145
H  H53  1  0.90180000  0.67340000  0.09287000  1.0 0.1174137145
H  H54  1  0.91510000  0.58310000  0.86527000  1.0 0.1174137145
H  H55  1  0.81370000  0.56120000  0.14397000  1.0 0.1309677234
H  H56  1  0.82680000  0.46950000  0.91647000  1.0 0.1098611645
H  H57  1  0.26490000  0.37860000  0.35623000  1.0 0.1309677234
H  H58  1  0.36370000  0.50640000  0.56783000  1.0 0.1309677234
H  H59  1  0.24860000  0.27870000  0.43633000  1.0 0.1098611645
H  H60  1  0.35140000  0.40680000  0.64473000  1.0 0.1174137145
H  H61  1  0.32660000  0.22840000  0.75953000  1.0 0.1174137145
H  H62  1  0.41690000  0.33200000  0.53193000  1.0 0.1174137145
H  H63  1  0.43880000  0.25250000  0.81063000  1.0 0.1309677234
H  H64  1  0.53050000  0.35730000  0.58313000  1.0 0.1098611645
H  H65  1  0.62140000  0.88630000  0.02290000  1.0 0.1309677234
H  H66  1  0.49360000  0.85730000  0.23450000  1.0 0.1309677234
H  H67  1  0.72130000  0.96990000  0.10300000  1.0 0.1098611645
H  H68  1  0.59320000  0.94460000  0.31140000  1.0 0.1174137145
H  H69  1  0.77160000  0.09820000  0.42620000  1.0 0.1174137145
H  H70  1  0.66800000  0.08490000  0.19860000  1.0 0.1174137145
H  H71  1  0.74750000  0.18630000  0.47730000  1.0 0.1309677234
H  H72  1  0.64270000  0.17320000  0.24980000  1.0 0.1098611645
H  H73  1  0.88630000  0.26490000  0.18957000  1.0 0.1309677234
H  H74  1  0.85730000  0.36370000  0.40117000  1.0 0.1309677234
H  H75  1  0.96990000  0.24860000  0.26967000  1.0 0.1098611645
H  H76  1  0.94460000  0.35140000  0.47807000  1.0 0.1174137145
H  H77  1  0.09820000  0.32660000  0.59287000  1.0 0.1174137145
H  H78  1  0.08490000  0.41690000  0.36527000  1.0 0.1174137145
H  H79  1  0.18630000  0.43880000  0.64397000  1.0 0.1309677234
H  H80  1  0.17320000  0.53050000  0.41647000  1.0 0.1098611645
H  H81  1  0.73510000  0.62140000  0.85623000  1.0 0.1309677234
H  H82  1  0.63630000  0.49360000  0.06783000  1.0 0.1309677234
H  H83  1  0.75140000  0.72130000  0.93633000  1.0 0.1098611645
H  H84  1  0.64860000  0.59320000  0.14473000  1.0 0.1174137145
H  H85  1  0.67340000  0.77160000  0.25953000  1.0 0.1174137145
H  H86  1  0.58310000  0.66800000  0.03193000  1.0 0.1174137145
H  H87  1  0.56120000  0.74750000  0.31063000  1.0 0.1309677234
H  H88  1  0.46950000  0.64270000  0.08313000  1.0 0.1098611645
H  H89  1  0.37860000  0.11370000  0.52290000  1.0 0.1309677234
H  H90  1  0.50640000  0.14270000  0.73450000  1.0 0.1309677234
H  H91  1  0.27870000  0.03010000  0.60300000  1.0 0.1098611645
H  H92  1  0.40680000  0.05540000  0.81140000  1.0 0.1174137145
H  H93  1  0.22840000  0.90180000  0.92620000  1.0 0.1174137145
H  H94  1  0.33200000  0.91510000  0.69860000  1.0 0.1174137145
H  H95  1  0.25250000  0.81370000  0.97730000  1.0 0.1309677234
H  H96  1  0.35730000  0.82680000  0.74980000  1.0 0.1098611645
C  C1  1  0.51570000  0.32120000  0.26083000  1.0 0.450634825
C  C2  1  0.45240000  0.31630000  0.21203000  1.0 -0.0091331954
C  C3  1  0.38420000  0.28170000  0.25183000  1.0 -0.1009038853
C  C4  1  0.46040000  0.34120000  0.12593000  1.0 -0.1097587964
C  C5  1  0.32470000  0.27250000  0.20363000  1.0 -0.1567757684
C  C6  1  0.40090000  0.33300000  0.07983000  1.0 -0.151221065
C  C7  1  0.33070000  0.29710000  0.11843000  1.0 0.0706435305
C  C8  1  0.26670000  0.28710000  0.06233000  1.0 -0.2871126839
C  C9  1  0.25650000  0.23200000  0.98743000  1.0 0.6538743269
C  C10  1  0.19570000  0.25630000  0.11563000  1.0 0.6538743269
C  C11  1  0.28030000  0.36040000  0.02363000  1.0 0.0754284255
C  C12  1  0.25560000  0.36790000  0.94243000  1.0 -0.1423477477
C  C13  1  0.31720000  0.42160000  0.07773000  1.0 -0.1423477477
C  C14  1  0.26980000  0.43490000  0.91183000  1.0 -0.1009038853
C  C15  1  0.33200000  0.48940000  0.04723000  1.0 -0.151221065
C  C16  1  0.30970000  0.49660000  0.96303000  1.0 -0.0091331954
C  C17  1  0.32880000  0.56980000  0.92953000  1.0 0.450634825
C  C18  1  0.80550000  0.48430000  0.59417000  1.0 0.450634825
C  C19  1  0.86390000  0.54760000  0.54537000  1.0 -0.0091331954
C  C20  1  0.89750000  0.61580000  0.58517000  1.0 -0.1009038853
C  C21  1  0.88080000  0.53960000  0.45927000  1.0 -0.1097587964
C  C22  1  0.94780000  0.67530000  0.53697000  1.0 -0.1567757684
C  C23  1  0.93210000  0.59910000  0.41317000  1.0 -0.151221065
C  C24  1  0.96640000  0.66930000  0.45177000  1.0 0.0706435305
C  C25  1  0.02040000  0.73330000  0.39567000  1.0 -0.2871126839
C  C26  1  0.97550000  0.74350000  0.32077000  1.0 0.6538743269
C  C27  1  0.06060000  0.80430000  0.44897000  1.0 0.6538743269
C  C28  1  0.08010000  0.71970000  0.35697000  1.0 0.0706435305
C  C29  1  0.11230000  0.74440000  0.27577000  1.0 -0.1423477477
C  C30  1  0.10440000  0.68280000  0.41107000  1.0 -0.1423477477
C  C31  1  0.16510000  0.73020000  0.24517000  1.0 -0.1009038853
C  C32  1  0.15740000  0.66800000  0.38057000  1.0 -0.151221065
C  C33  1  0.18690000  0.69030000  0.29637000  1.0 -0.0091331954
C  C34  1  0.24100000  0.67120000  0.26287000  1.0 0.450634825
C  C35  1  0.67880000  0.19450000  0.92750000  1.0 0.450634825
C  C36  1  0.68370000  0.13610000  0.87870000  1.0 -0.0091331954
C  C37  1  0.71830000  0.10250000  0.91850000  1.0 -0.1009038853
C  C38  1  0.65880000  0.11920000  0.79260000  1.0 -0.1097587964
C  C39  1  0.72750000  0.05220000  0.87030000  1.0 -0.1567757684
C  C40  1  0.66700000  0.06790000  0.74650000  1.0 -0.151221065
C  C41  1  0.70290000  0.03360000  0.78510000  1.0 0.0706435305
C  C42  1  0.71290000  0.97960000  0.72900000  1.0 -0.2871126839
C  C43  1  0.76800000  0.02450000  0.65410000  1.0 0.6538743269
C  C44  1  0.74370000  0.93940000  0.78230000  1.0 0.6538743269
C  C45  1  0.63960000  0.91990000  0.69030000  1.0 0.0706435305
C  C46  1  0.63210000  0.88770000  0.60910000  1.0 -0.1423477477
C  C47  1  0.57840000  0.89560000  0.74440000  1.0 -0.1423477477
C  C48  1  0.56510000  0.83490000  0.57850000  1.0 -0.1009038853
C  C49  1  0.51060000  0.84260000  0.71390000  1.0 -0.151221065
C  C50  1  0.50340000  0.81310000  0.62970000  1.0 -0.0091331954
C  C51  1  0.43020000  0.75900000  0.59620000  1.0 0.450634825
C  C52  1  0.48430000  0.67880000  0.76083000  1.0 0.450634825
C  C53  1  0.54760000  0.68370000  0.71203000  1.0 -0.0091331954
C  C54  1  0.61580000  0.71830000  0.75183000  1.0 -0.1009038853
C  C55  1  0.53960000  0.65880000  0.62593000  1.0 -0.1097587964
C  C56  1  0.67530000  0.72750000  0.70363000  1.0 -0.1567757684
C  C57  1  0.59910000  0.66700000  0.57983000  1.0 -0.151221065
C  C58  1  0.66930000  0.70290000  0.61843000  1.0 0.0706435305
C  C59  1  0.73330000  0.71290000  0.56233000  1.0 -0.2871126839
C  C60  1  0.74350000  0.76800000  0.48743000  1.0 0.6538743269
C  C61  1  0.80430000  0.74370000  0.61563000  1.0 0.6538743269
C  C62  1  0.71970000  0.63960000  0.52363000  1.0 0.0706435305
C  C63  1  0.74440000  0.63210000  0.44243000  1.0 -0.1423477477
C  C64  1  0.68280000  0.57840000  0.57773000  1.0 -0.1423477477
C  C65  1  0.73020000  0.56510000  0.41183000  1.0 -0.1009038853
C  C66  1  0.66800000  0.51060000  0.54723000  1.0 -0.151221065
C  C67  1  0.69030000  0.50340000  0.46303000  1.0 -0.0091331954
C  C68  1  0.67120000  0.43020000  0.42953000  1.0 0.4441690735
C  C69  1  0.19450000  0.51570000  0.09417000  1.0 0.450634825
C  C70  1  0.13610000  0.45240000  0.04537000  1.0 -0.0091331954
C  C71  1  0.10250000  0.38420000  0.08517000  1.0 -0.1009038853
C  C72  1  0.11920000  0.46040000  0.95927000  1.0 -0.1097587964
C  C73  1  0.05220000  0.32470000  0.03697000  1.0 -0.1567757684
C  C74  1  0.06790000  0.40090000  0.91317000  1.0 -0.151221065
C  C75  1  0.03360000  0.33070000  0.95177000  1.0 0.0706435305
C  C76  1  0.97960000  0.26670000  0.89567000  1.0 -0.2871126839
C  C77  1  0.02450000  0.25650000  0.82077000  1.0 0.6538743269
C  C78  1  0.93940000  0.19570000  0.94897000  1.0 0.6538743269
C  C79  1  0.91990000  0.28030000  0.85697000  1.0 0.0706435305
C  C80  1  0.88770000  0.25560000  0.77577000  1.0 -0.1423477477
C  C81  1  0.89560000  0.31720000  0.91107000  1.0 -0.1423477477
C  C82  1  0.83490000  0.26980000  0.74517000  1.0 -0.1009038853
C  C83  1  0.84260000  0.33200000  0.88057000  1.0 -0.151221065
C  C84  1  0.81310000  0.30970000  0.79637000  1.0 -0.0091331954
C  C85  1  0.75900000  0.32880000  0.76287000  1.0 0.450634825
C  C86  1  0.32120000  0.80550000  0.42750000  1.0 0.450634825
C  C87  1  0.31630000  0.86390000  0.37870000  1.0 -0.0091331954
C  C88  1  0.28170000  0.89750000  0.41850000  1.0 -0.1009038853
C  C89  1  0.34120000  0.88080000  0.29260000  1.0 -0.1097587964
C  C90  1  0.27250000  0.94780000  0.37030000  1.0 -0.1567757684
C  C91  1  0.33300000  0.93210000  0.24650000  1.0 -0.151221065
C  C92  1  0.29710000  0.96640000  0.28510000  1.0 0.0706435305
C  C93  1  0.28710000  0.02040000  0.22900000  1.0 -0.2871126839
C  C94  1  0.23200000  0.97550000  0.15410000  1.0 0.6538743269
C  C95  1  0.25630000  0.06060000  0.28230000  1.0 0.6538743269
C  C96  1  0.36040000  0.08010000  0.19030000  1.0 0.0706435305
C  C97  1  0.36790000  0.11230000  0.10910000  1.0 -0.1423477477
C  C98  1  0.42160000  0.10440000  0.24440000  1.0 -0.1423477477
C  C99  1  0.43490000  0.16510000  0.07850000  1.0 -0.1009038853
C  C100  1  0.48940000  0.15740000  0.21390000  1.0 -0.151221065
C  C101  1  0.49660000  0.18690000  0.12970000  1.0 -0.0091331954
C  C102  1  0.56980000  0.24100000  0.09620000  1.0 0.4441690735
C  C103  1  0.19450000  0.67880000  0.73917000  1.0 0.450634825
C  C104  1  0.13610000  0.68370000  0.78797000  1.0 -0.0091331954
C  C105  1  0.10250000  0.71830000  0.74817000  1.0 -0.1009038853
C  C106  1  0.11920000  0.65880000  0.87407000  1.0 -0.1097587964
C  C107  1  0.05220000  0.72750000  0.79637000  1.0 -0.1567757684
C  C108  1  0.06790000  0.66700000  0.92017000  1.0 -0.151221065
C  C109  1  0.03360000  0.70290000  0.88157000  1.0 0.0706435305
C  C110  1  0.97960000  0.71290000  0.93767000  1.0 -0.2871126839
C  C111  1  0.02450000  0.76800000  0.01257000  1.0 0.6538743269
C  C112  1  0.93940000  0.74370000  0.88437000  1.0 0.6538743269
C  C113  1  0.91990000  0.63960000  0.97637000  1.0 0.0706435305
C  C114  1  0.88770000  0.63210000  0.05757000  1.0 -0.1423477477
C  C115  1  0.89560000  0.57840000  0.92227000  1.0 -0.1423477477
C  C116  1  0.83490000  0.56510000  0.08817000  1.0 -0.1009038853
C  C117  1  0.84260000  0.51060000  0.95277000  1.0 -0.151221065
C  C118  1  0.81310000  0.50340000  0.03697000  1.0 -0.0091331954
C  C119  1  0.75900000  0.43020000  0.07047000  1.0 0.4441690735
C  C120  1  0.32120000  0.51570000  0.40583000  1.0 0.450634825
C  C121  1  0.31630000  0.45240000  0.45463000  1.0 -0.0091331954
C  C122  1  0.28170000  0.38420000  0.41483000  1.0 -0.1009038853
C  C123  1  0.34120000  0.46040000  0.54073000  1.0 -0.1097587964
C  C124  1  0.27250000  0.32470000  0.46303000  1.0 -0.1567757684
C  C125  1  0.33300000  0.40090000  0.58683000  1.0 -0.151221065
C  C126  1  0.29710000  0.33070000  0.54823000  1.0 0.0706435305
C  C127  1  0.28710000  0.26670000  0.60433000  1.0 -0.2871126839
C  C128  1  0.23200000  0.25650000  0.67923000  1.0 0.6538743269
C  C129  1  0.25630000  0.19570000  0.55103000  1.0 0.6538743269
C  C130  1  0.36040000  0.28030000  0.64303000  1.0 0.0706435305
C  C131  1  0.36790000  0.25560000  0.72423000  1.0 -0.1423477477
C  C132  1  0.42160000  0.31720000  0.58893000  1.0 -0.1423477477
C  C133  1  0.43490000  0.26980000  0.75483000  1.0 -0.1009038853
C  C134  1  0.48940000  0.33200000  0.61943000  1.0 -0.151221065
C  C135  1  0.49660000  0.30970000  0.70363000  1.0 -0.0091331954
C  C136  1  0.56980000  0.32880000  0.73713000  1.0 0.450634825
C  C137  1  0.48430000  0.80550000  0.07250000  1.0 0.450634825
C  C138  1  0.54760000  0.86390000  0.12130000  1.0 -0.0091331954
C  C139  1  0.61580000  0.89750000  0.08150000  1.0 -0.1009038853
C  C140  1  0.53960000  0.88080000  0.20740000  1.0 -0.1097587964
C  C141  1  0.67530000  0.94780000  0.12970000  1.0 -0.1567757684
C  C142  1  0.59910000  0.93210000  0.25350000  1.0 -0.151221065
C  C143  1  0.66930000  0.96640000  0.21490000  1.0 0.0706435305
C  C144  1  0.73330000  0.02040000  0.27100000  1.0 -0.2871126839
C  C145  1  0.74350000  0.97550000  0.34590000  1.0 0.6538743269
C  C146  1  0.80430000  0.06060000  0.21770000  1.0 0.6538743269
C  C147  1  0.71970000  0.08010000  0.30970000  1.0 0.0706435305
C  C148  1  0.74440000  0.11230000  0.39090000  1.0 -0.1423477477
C  C149  1  0.68280000  0.10440000  0.25560000  1.0 -0.1423477477
C  C150  1  0.73020000  0.16510000  0.42150000  1.0 -0.1009038853
C  C151  1  0.66800000  0.15740000  0.28610000  1.0 -0.151221065
C  C152  1  0.69030000  0.18690000  0.37030000  1.0 -0.0091331954
C  C153  1  0.67120000  0.24100000  0.40380000  1.0 0.450634825
C  C154  1  0.80550000  0.32120000  0.23917000  1.0 0.450634825
C  C155  1  0.86390000  0.31630000  0.28797000  1.0 -0.0091331954
C  C156  1  0.89750000  0.28170000  0.24817000  1.0 -0.1009038853
C  C157  1  0.88080000  0.34120000  0.37407000  1.0 -0.1097587964
C  C158  1  0.94780000  0.27250000  0.29637000  1.0 -0.1567757684
C  C159  1  0.93210000  0.33300000  0.42017000  1.0 -0.151221065
C  C160  1  0.96640000  0.29710000  0.38157000  1.0 0.0706435305
C  C161  1  0.02040000  0.28710000  0.43767000  1.0 -0.2871126839
C  C162  1  0.97550000  0.23200000  0.51257000  1.0 0.6538743269
C  C163  1  0.06060000  0.25630000  0.38437000  1.0 0.6538743269
C  C164  1  0.08010000  0.36040000  0.47637000  1.0 0.0706435305
C  C165  1  0.11230000  0.36790000  0.55757000  1.0 -0.1423477477
C  C166  1  0.10440000  0.42160000  0.42227000  1.0 -0.1423477477
C  C167  1  0.16510000  0.43490000  0.58817000  1.0 -0.1009038853
C  C168  1  0.15740000  0.48940000  0.45277000  1.0 -0.151221065
C  C169  1  0.18690000  0.49660000  0.53697000  1.0 -0.0091331954
C  C170  1  0.24100000  0.56980000  0.57047000  1.0 0.450634825
C  C171  1  0.67880000  0.48430000  0.90583000  1.0 0.450634825
C  C172  1  0.68370000  0.54760000  0.95463000  1.0 -0.0091331954
C  C173  1  0.71830000  0.61580000  0.91483000  1.0 -0.1009038853
C  C174  1  0.65880000  0.53960000  0.04073000  1.0 -0.1097587964
C  C175  1  0.72750000  0.67530000  0.96303000  1.0 -0.1567757684
C  C176  1  0.66700000  0.59910000  0.08683000  1.0 -0.151221065
C  C177  1  0.70290000  0.66930000  0.04823000  1.0 0.0706435305
C  C178  1  0.71290000  0.73330000  0.10433000  1.0 -0.2871126839
C  C179  1  0.76800000  0.74350000  0.17923000  1.0 0.6538743269
C  C180  1  0.74370000  0.80430000  0.05103000  1.0 0.6538743269
C  C181  1  0.63960000  0.71970000  0.14303000  1.0 0.0754284255
C  C182  1  0.63210000  0.74440000  0.22423000  1.0 -0.1423477477
C  C183  1  0.57840000  0.68280000  0.08893000  1.0 -0.1423477477
C  C184  1  0.56510000  0.73020000  0.25483000  1.0 -0.1009038853
C  C185  1  0.51060000  0.66800000  0.11943000  1.0 -0.151221065
C  C186  1  0.50340000  0.69030000  0.20363000  1.0 -0.0091331954
C  C187  1  0.43020000  0.67120000  0.23713000  1.0 0.450634825
C  C188  1  0.51570000  0.19450000  0.57250000  1.0 0.450634825
C  C189  1  0.45240000  0.13610000  0.62130000  1.0 -0.0091331954
C  C190  1  0.38420000  0.10250000  0.58150000  1.0 -0.1009038853
C  C191  1  0.46040000  0.11920000  0.70740000  1.0 -0.1097587964
C  C192  1  0.32470000  0.05220000  0.62970000  1.0 -0.1567757684
C  C193  1  0.40090000  0.06790000  0.75350000  1.0 -0.151221065
C  C194  1  0.33070000  0.03360000  0.71490000  1.0 0.0706435305
C  C195  1  0.26670000  0.97960000  0.77100000  1.0 -0.2871126839
C  C196  1  0.25650000  0.02450000  0.84590000  1.0 0.6538743269
C  C197  1  0.19570000  0.93940000  0.71770000  1.0 0.6538743269
C  C198  1  0.28030000  0.91990000  0.80970000  1.0 0.0706435305
C  C199  1  0.25560000  0.88770000  0.89090000  1.0 -0.1423477477
C  C200  1  0.31720000  0.89560000  0.75560000  1.0 -0.1423477477
C  C201  1  0.26980000  0.83490000  0.92150000  1.0 -0.1009038853
C  C202  1  0.33200000  0.84260000  0.78610000  1.0 -0.151221065
C  C203  1  0.30970000  0.81310000  0.87030000  1.0 -0.0091331954
C  C204  1  0.32880000  0.75900000  0.90380000  1.0 0.450634825
O  O1  1  0.63050000  0.37440000  0.47943000  1.0 -0.7130772897
O  O2  1  0.50310000  0.29860000  0.34313000  1.0 -0.6101300551
O  O3  1  0.76930000  0.42410000  0.55733000  1.0 -0.6013363161
O  O4  1  0.73280000  0.30880000  0.68723000  1.0 -0.6101300551
O  O5  1  0.74390000  0.36950000  0.81277000  1.0 -0.7130772897
O  O6  1  0.79550000  0.49690000  0.67647000  1.0 -0.6101300551
O  O7  1  0.65480000  0.23070000  0.89067000  1.0 -0.6013363161
O  O8  1  0.57600000  0.26720000  0.02057000  1.0 -0.6101300551
O  O9  1  0.62560000  0.25610000  0.14610000  1.0 -0.7130772897
O  O10  1  0.70140000  0.20450000  0.00980000  1.0 -0.6101300551
O  O11  1  0.57590000  0.34520000  0.22400000  1.0 -0.6013363161
O  O12  1  0.69120000  0.42400000  0.35390000  1.0 -0.6101300551
O  O13  1  0.36950000  0.62560000  0.97943000  1.0 -0.7154861399
O  O14  1  0.49690000  0.70140000  0.84313000  1.0 -0.6101300551
O  O15  1  0.23070000  0.57590000  0.05733000  1.0 -0.6013363161
O  O16  1  0.26720000  0.69120000  0.18723000  1.0 -0.6101300551
O  O17  1  0.25610000  0.63050000  0.31277000  1.0 -0.7154861399
O  O18  1  0.20450000  0.50310000  0.17647000  1.0 -0.6101300551
O  O19  1  0.34520000  0.76930000  0.39067000  1.0 -0.6013363161
O  O20  1  0.42400000  0.73280000  0.52057000  1.0 -0.6101300551
O  O21  1  0.37440000  0.74390000  0.64610000  1.0 -0.7154861399
O  O22  1  0.29860000  0.79550000  0.50980000  1.0 -0.6101300551
O  O23  1  0.42410000  0.65480000  0.72400000  1.0 -0.6013363161
O  O24  1  0.30880000  0.57600000  0.85390000  1.0 -0.6101300551
O  O25  1  0.25610000  0.62560000  0.52057000  1.0 -0.7154861399
O  O26  1  0.20450000  0.70140000  0.65687000  1.0 -0.6101300551
O  O27  1  0.34520000  0.57590000  0.44267000  1.0 -0.6013363161
O  O28  1  0.42400000  0.69120000  0.31277000  1.0 -0.6101300551
O  O29  1  0.37440000  0.63050000  0.18723000  1.0 -0.7154861399
O  O30  1  0.29860000  0.50310000  0.32353000  1.0 -0.6101300551
O  O31  1  0.42410000  0.76930000  0.10933000  1.0 -0.6013363161
O  O32  1  0.30880000  0.73280000  0.97943000  1.0 -0.6101300551
O  O33  1  0.36950000  0.74390000  0.85390000  1.0 -0.7154861399
O  O34  1  0.49690000  0.79550000  0.99020000  1.0 -0.6101300551
O  O35  1  0.23070000  0.65480000  0.77600000  1.0 -0.6013363161
O  O36  1  0.26720000  0.57600000  0.64610000  1.0 -0.6101300551
O  O37  1  0.74390000  0.37440000  0.02057000  1.0 -0.7130772897
O  O38  1  0.79550000  0.29860000  0.15687000  1.0 -0.6101300551
O  O39  1  0.65480000  0.42410000  0.94267000  1.0 -0.6013363161
O  O40  1  0.57600000  0.30880000  0.81277000  1.0 -0.6101300551
O  O41  1  0.62560000  0.36950000  0.68723000  1.0 -0.7154861399
O  O42  1  0.70140000  0.49690000  0.82353000  1.0 -0.6101300551
O  O43  1  0.57590000  0.23070000  0.60933000  1.0 -0.6013363161
O  O44  1  0.69120000  0.26720000  0.47943000  1.0 -0.6101300551
O  O45  1  0.63050000  0.25610000  0.35390000  1.0 -0.7130772897
O  O46  1  0.50310000  0.20450000  0.49020000  1.0 -0.6101300551
O  O47  1  0.76930000  0.34520000  0.27600000  1.0 -0.6013363161
O  O48  1  0.73280000  0.42400000  0.14610000  1.0 -0.6101300551
F  F1  1  0.30940000  0.26200000  0.92783000  1.0 -0.2061790844
F  F2  1  0.25830000  0.17490000  0.02173000  1.0 -0.2001662469
F  F3  1  0.19340000  0.20540000  0.94533000  1.0 -0.2001662469
F  F4  1  0.20300000  0.29710000  0.18553000  1.0 -0.2001662469
F  F5  1  0.14190000  0.25240000  0.06713000  1.0 -0.2001662469
F  F6  1  0.17280000  0.18840000  0.14503000  1.0 -0.2001662469
F  F7  1  0.95260000  0.69060000  0.26117000  1.0 -0.2061790844
F  F8  1  0.91660000  0.74170000  0.35507000  1.0 -0.2001662469
F  F9  1  0.01200000  0.80660000  0.27867000  1.0 -0.2001662469
F  F10  1  0.09410000  0.79700000  0.51887000  1.0 -0.2001662469
F  F11  1  0.11050000  0.85810000  0.40047000  1.0 -0.2001662469
F  F12  1  0.01560000  0.82720000  0.47837000  1.0 -0.2001662469
F  F13  1  0.73800000  0.04740000  0.59450000  1.0 -0.2061790844
F  F14  1  0.82510000  0.08340000  0.68840000  1.0 -0.2001662469
F  F15  1  0.79460000  0.98800000  0.61200000  1.0 -0.2001662469
F  F16  1  0.70290000  0.90590000  0.85220000  1.0 -0.2001662469
F  F17  1  0.74760000  0.88950000  0.73380000  1.0 -0.2001662469
F  F18  1  0.81160000  0.98440000  0.81170000  1.0 -0.2001662469
F  F19  1  0.69060000  0.73800000  0.42783000  1.0 -0.2061790844
F  F20  1  0.74170000  0.82510000  0.52173000  1.0 -0.2001662469
F  F21  1  0.80660000  0.79460000  0.44533000  1.0 -0.2001662469
F  F22  1  0.79700000  0.70290000  0.68553000  1.0 -0.2001662469
F  F23  1  0.85810000  0.74760000  0.56713000  1.0 -0.2001662469
F  F24  1  0.82720000  0.81160000  0.64503000  1.0 -0.2001662469
F  F25  1  0.04740000  0.30940000  0.76117000  1.0 -0.2061790844
F  F26  1  0.08340000  0.25830000  0.85507000  1.0 -0.2001662469
F  F27  1  0.98800000  0.19340000  0.77867000  1.0 -0.2001662469
F  F28  1  0.90590000  0.20300000  0.01887000  1.0 -0.2001662469
F  F29  1  0.88950000  0.14190000  0.90047000  1.0 -0.2001662469
F  F30  1  0.98440000  0.17280000  0.97837000  1.0 -0.2001662469
F  F31  1  0.26200000  0.95260000  0.09450000  1.0 -0.2061790844
F  F32  1  0.17490000  0.91660000  0.18840000  1.0 -0.2001662469
F  F33  1  0.20540000  0.01200000  0.11200000  1.0 -0.2001662469
F  F34  1  0.29710000  0.09410000  0.35220000  1.0 -0.2001662469
F  F35  1  0.25240000  0.11050000  0.23380000  1.0 -0.2001662469
F  F36  1  0.18840000  0.01560000  0.31170000  1.0 -0.2001662469
F  F37  1  0.04740000  0.73800000  0.07217000  1.0 -0.2061790844
F  F38  1  0.08340000  0.82510000  0.97827000  1.0 -0.2001662469
F  F39  1  0.98800000  0.79460000  0.05467000  1.0 -0.2001662469
F  F40  1  0.90590000  0.70290000  0.81447000  1.0 -0.2001662469
F  F41  1  0.88950000  0.74760000  0.93287000  1.0 -0.2001662469
F  F42  1  0.98440000  0.81160000  0.85497000  1.0 -0.2001662469
F  F43  1  0.26200000  0.30940000  0.73883000  1.0 -0.2061790844
F  F44  1  0.17490000  0.25830000  0.64493000  1.0 -0.2001662469
F  F45  1  0.20540000  0.19340000  0.72133000  1.0 -0.2001662469
F  F46  1  0.29710000  0.20300000  0.48113000  1.0 -0.2001662469
F  F47  1  0.25240000  0.14190000  0.59953000  1.0 -0.2001662469
F  F48  1  0.18840000  0.17280000  0.52163000  1.0 -0.2001662469
F  F49  1  0.69060000  0.95260000  0.40550000  1.0 -0.2061790844
F  F50  1  0.74170000  0.91660000  0.31160000  1.0 -0.2001662469
F  F51  1  0.80660000  0.01200000  0.38800000  1.0 -0.2001662469
F  F52  1  0.79700000  0.09410000  0.14780000  1.0 -0.2001662469
F  F53  1  0.85810000  0.11050000  0.26620000  1.0 -0.2001662469
F  F54  1  0.82720000  0.01560000  0.18830000  1.0 -0.2001662469
F  F55  1  0.95260000  0.26200000  0.57217000  1.0 -0.2061790844
F  F56  1  0.91660000  0.17490000  0.47827000  1.0 -0.2001662469
F  F57  1  0.01200000  0.20540000  0.55467000  1.0 -0.2001662469
F  F58  1  0.09410000  0.29710000  0.31447000  1.0 -0.2001662469
F  F59  1  0.11050000  0.25240000  0.43287000  1.0 -0.2001662469
F  F60  1  0.01560000  0.18840000  0.35497000  1.0 -0.2001662469
F  F61  1  0.73800000  0.69060000  0.23883000  1.0 -0.2061790844
F  F62  1  0.82510000  0.74170000  0.14493000  1.0 -0.2001662469
F  F63  1  0.79460000  0.80660000  0.22133000  1.0 -0.2001662469
F  F64  1  0.70290000  0.79700000  0.98113000  1.0 -0.2001662469
F  F65  1  0.74760000  0.85810000  0.09953000  1.0 -0.2001662469
F  F66  1  0.81160000  0.82720000  0.02163000  1.0 -0.2001662469
F  F67  1  0.30940000  0.04740000  0.90550000  1.0 -0.2061790844
F  F68  1  0.25830000  0.08340000  0.81160000  1.0 -0.2001662469
F  F69  1  0.19340000  0.98800000  0.88800000  1.0 -0.2001662469
F  F70  1  0.20300000  0.90590000  0.64780000  1.0 -0.2001662469
F  F71  1  0.14190000  0.88950000  0.76620000  1.0 -0.2001662469
F  F72  1  0.17280000  0.98440000  0.68830000  1.0 -0.2001662469
