# DDEC6 charges by PACMAN v1.1 (https://github.com/mtap-research/PACMAN-charge/)
data_XOCREP_FSR_pacman
_symmetry_space_group_name_H-M   'P 1'
_cell_length_a   21.26190000
_cell_length_b   21.26190000
_cell_length_c   15.11930000
_cell_angle_alpha   90.00000000
_cell_angle_beta   90.00000000
_cell_angle_gamma   120.00000000
_symmetry_Int_Tables_number   1
_chemical_formula_structural   MnH8C17(O2F3)2
_chemical_formula_sum   'Mn12 H96 C204 O48 F72'
_cell_volume   5919.24694420
_cell_formula_units_Z   12
loop_
 _symmetry_equiv_pos_site_id
 _symmetry_equiv_pos_as_xyz
  1  'x, y, z'
loop_
 _atom_site_type_symbol
 _atom_site_label
 _atom_site_symmetry_multiplicity
 _atom_site_fract_x
 _atom_site_fract_y
 _atom_site_fract_z
 _atom_site_occupancy
 _atom_site_charge
Mn  Mn1  1  0.71640000  0.43280000  0.75000000  1.0 0.9096241154
Mn  Mn2  1  0.71640000  0.28360000  0.41667000  1.0 0.9096241154
Mn  Mn3  1  0.56720000  0.28360000  0.08333000  1.0 0.9096241154
Mn  Mn4  1  0.28360000  0.56720000  0.25000000  1.0 0.9096241154
Mn  Mn5  1  0.28360000  0.71640000  0.91667000  1.0 0.9096241154
Mn  Mn6  1  0.43280000  0.71640000  0.58333000  1.0 0.9096241154
Mn  Mn7  1  0.67530000  0.32470000  0.91667000  1.0 1.0299107887
Mn  Mn8  1  0.64940000  0.32470000  0.58333000  1.0 1.0299107887
Mn  Mn9  1  0.67530000  0.35060000  0.25000000  1.0 1.0299107887
Mn  Mn10  1  0.32470000  0.67530000  0.41667000  1.0 1.0299107887
Mn  Mn11  1  0.35060000  0.67530000  0.08333000  1.0 1.0299107887
Mn  Mn12  1  0.32470000  0.64940000  0.75000000  1.0 1.0299107887
H  H1  1  0.18540000  0.74530000  0.30977000  1.0 0.1286625191
H  H2  1  0.88310000  0.62270000  0.86067000  1.0 0.1286625191
H  H3  1  0.94560000  0.59520000  0.14317000  1.0 0.1204605483
H  H4  1  0.08390000  0.66690000  0.03327000  1.0 0.1204605483
H  H5  1  0.09800000  0.77260000  0.25987000  1.0 0.1204605483
H  H6  1  0.97080000  0.72220000  0.93697000  1.0 0.1204605483
H  H7  1  0.17330000  0.64320000  0.08217000  1.0 0.1204605483
H  H8  1  0.85710000  0.49450000  0.07067000  1.0 0.1286625191
H  H9  1  0.55990000  0.81460000  0.97643000  1.0 0.1286625191
H  H10  1  0.73960000  0.11690000  0.52733000  1.0 0.1286625191
H  H11  1  0.64960000  0.05440000  0.80983000  1.0 0.1204605483
H  H12  1  0.58300000  0.91610000  0.69993000  1.0 0.1204605483
H  H13  1  0.67460000  0.90200000  0.92653000  1.0 0.1204605483
H  H14  1  0.75140000  0.02920000  0.60363000  1.0 0.1204605483
H  H15  1  0.46990000  0.82670000  0.74883000  1.0 0.1204605483
H  H16  1  0.63740000  0.14290000  0.73733000  1.0 0.1286625191
H  H17  1  0.25470000  0.44010000  0.64310000  1.0 0.1286625191
H  H18  1  0.37730000  0.26040000  0.19400000  1.0 0.1286625191
H  H19  1  0.40480000  0.35040000  0.47650000  1.0 0.1204605483
H  H20  1  0.33310000  0.41700000  0.36660000  1.0 0.1204605483
H  H21  1  0.22740000  0.32540000  0.59320000  1.0 0.1204605483
H  H22  1  0.27780000  0.24860000  0.27030000  1.0 0.1204605483
H  H23  1  0.35680000  0.53010000  0.41550000  1.0 0.1204605483
H  H24  1  0.50550000  0.36260000  0.40400000  1.0 0.1286625191
H  H25  1  0.81460000  0.25470000  0.80977000  1.0 0.1286625191
H  H26  1  0.11690000  0.37730000  0.36067000  1.0 0.1286625191
H  H27  1  0.05440000  0.40480000  0.64317000  1.0 0.1204605483
H  H28  1  0.91610000  0.33310000  0.53327000  1.0 0.1204605483
H  H29  1  0.90200000  0.22740000  0.75987000  1.0 0.1204605483
H  H30  1  0.02920000  0.27780000  0.43697000  1.0 0.1204605483
H  H31  1  0.82670000  0.35680000  0.58217000  1.0 0.1204605483
H  H32  1  0.14290000  0.50550000  0.57067000  1.0 0.1286625191
H  H33  1  0.44010000  0.18540000  0.47643000  1.0 0.1286625191
H  H34  1  0.26040000  0.88310000  0.02733000  1.0 0.1286625191
H  H35  1  0.35040000  0.94560000  0.30983000  1.0 0.1204605483
H  H36  1  0.41700000  0.08390000  0.19993000  1.0 0.1204605483
H  H37  1  0.32540000  0.09800000  0.42653000  1.0 0.1204605483
H  H38  1  0.24860000  0.97080000  0.10363000  1.0 0.1204605483
H  H39  1  0.53010000  0.17330000  0.24883000  1.0 0.1204605483
H  H40  1  0.36260000  0.85710000  0.23733000  1.0 0.1286625191
H  H41  1  0.74530000  0.55990000  0.14310000  1.0 0.1286625191
H  H42  1  0.62270000  0.73960000  0.69400000  1.0 0.1286625191
H  H43  1  0.59520000  0.64960000  0.97650000  1.0 0.1204605483
H  H44  1  0.66690000  0.58300000  0.86660000  1.0 0.1204605483
H  H45  1  0.77260000  0.67460000  0.09320000  1.0 0.1204605483
H  H46  1  0.72220000  0.75140000  0.77030000  1.0 0.1204605483
H  H47  1  0.64320000  0.46990000  0.91550000  1.0 0.1204605483
H  H48  1  0.49450000  0.63740000  0.90400000  1.0 0.1286625191
H  H49  1  0.44010000  0.25470000  0.69023000  1.0 0.1286625191
H  H50  1  0.26040000  0.37730000  0.13933000  1.0 0.1286625191
H  H51  1  0.35040000  0.40480000  0.85683000  1.0 0.1204605483
H  H52  1  0.41700000  0.33310000  0.96673000  1.0 0.1204605483
H  H53  1  0.32540000  0.22740000  0.74013000  1.0 0.1204605483
H  H54  1  0.24860000  0.27780000  0.06303000  1.0 0.1204605483
H  H55  1  0.53010000  0.35680000  0.91783000  1.0 0.1204605483
H  H56  1  0.36260000  0.50550000  0.92933000  1.0 0.1286625191
H  H57  1  0.74530000  0.18540000  0.02357000  1.0 0.1286625191
H  H58  1  0.62270000  0.88310000  0.47267000  1.0 0.1286625191
H  H59  1  0.59520000  0.94560000  0.19017000  1.0 0.1204605483
H  H60  1  0.66690000  0.08390000  0.30007000  1.0 0.1204605483
H  H61  1  0.77260000  0.09800000  0.07347000  1.0 0.1204605483
H  H62  1  0.72220000  0.97080000  0.39637000  1.0 0.1204605483
H  H63  1  0.64320000  0.17330000  0.25117000  1.0 0.1204605483
H  H64  1  0.49450000  0.85710000  0.26267000  1.0 0.1286625191
H  H65  1  0.81460000  0.55990000  0.35690000  1.0 0.1286625191
H  H66  1  0.11690000  0.73960000  0.80600000  1.0 0.1286625191
H  H67  1  0.05440000  0.64960000  0.52350000  1.0 0.1204605483
H  H68  1  0.91610000  0.58300000  0.63340000  1.0 0.1204605483
H  H69  1  0.90200000  0.67460000  0.40680000  1.0 0.1204605483
H  H70  1  0.02920000  0.75140000  0.72970000  1.0 0.1204605483
H  H71  1  0.82670000  0.46990000  0.58450000  1.0 0.1204605483
H  H72  1  0.14290000  0.63740000  0.59600000  1.0 0.1286625191
H  H73  1  0.55990000  0.74530000  0.19023000  1.0 0.1286625191
H  H74  1  0.73960000  0.62270000  0.63933000  1.0 0.1286625191
H  H75  1  0.64960000  0.59520000  0.35683000  1.0 0.1204605483
H  H76  1  0.58300000  0.66690000  0.46673000  1.0 0.1204605483
H  H77  1  0.67460000  0.77260000  0.24013000  1.0 0.1204605483
H  H78  1  0.75140000  0.72220000  0.56303000  1.0 0.1204605483
H  H79  1  0.46990000  0.64320000  0.41783000  1.0 0.1204605483
H  H80  1  0.63740000  0.49450000  0.42933000  1.0 0.1286625191
H  H81  1  0.25470000  0.81460000  0.52357000  1.0 0.1286625191
H  H82  1  0.37730000  0.11690000  0.97267000  1.0 0.1286625191
H  H83  1  0.40480000  0.05440000  0.69017000  1.0 0.1204605483
H  H84  1  0.33310000  0.91610000  0.80007000  1.0 0.1204605483
H  H85  1  0.22740000  0.90200000  0.57347000  1.0 0.1204605483
H  H86  1  0.27780000  0.02920000  0.89637000  1.0 0.1204605483
H  H87  1  0.35680000  0.82670000  0.75117000  1.0 0.1204605483
H  H88  1  0.50550000  0.14290000  0.76267000  1.0 0.1286625191
H  H89  1  0.18540000  0.44010000  0.85690000  1.0 0.1286625191
H  H90  1  0.88310000  0.26040000  0.30600000  1.0 0.1286625191
H  H91  1  0.94560000  0.35040000  0.02350000  1.0 0.1204605483
H  H92  1  0.08390000  0.41700000  0.13340000  1.0 0.1204605483
H  H93  1  0.09800000  0.32540000  0.90680000  1.0 0.1204605483
H  H94  1  0.97080000  0.24860000  0.22970000  1.0 0.1204605483
H  H95  1  0.17330000  0.53010000  0.08450000  1.0 0.1204605483
H  H96  1  0.85710000  0.36260000  0.09600000  1.0 0.1286625191
C  C1  1  0.16460000  0.72930000  0.25357000  1.0 -0.0886561914
C  C2  1  0.18730000  0.69060000  0.20137000  1.0 -0.0236286923
C  C3  1  0.24090000  0.67110000  0.23717000  1.0 0.5927865364
C  C4  1  0.86350000  0.54730000  0.95397000  1.0 -0.0236286923
C  C5  1  0.80490000  0.48370000  0.90467000  1.0 0.5628699321
C  C6  1  0.89640000  0.61640000  0.91787000  1.0 -0.0886561914
C  C7  1  0.08010000  0.71940000  0.14377000  1.0 0.0796695266
C  C8  1  0.93260000  0.60040000  0.08537000  1.0 -0.139953456
C  C9  1  0.10410000  0.68240000  0.08987000  1.0 -0.1273378051
C  C10  1  0.11170000  0.74500000  0.22467000  1.0 -0.1503891453
C  C11  1  0.96580000  0.66730000  0.04797000  1.0 0.0796695266
C  C12  1  0.94800000  0.67600000  0.96347000  1.0 -0.1556624216
C  C13  1  0.15750000  0.66830000  0.11897000  1.0 -0.1013912781
C  C14  1  0.02060000  0.73380000  0.10637000  1.0 -0.276787623
C  C15  1  0.88070000  0.53990000  0.04217000  1.0 -0.0886561914
C  C16  1  0.97550000  0.74390000  0.18007000  1.0 0.6544367828
C  C17  1  0.06060000  0.80540000  0.05127000  1.0 0.6637222775
C  C18  1  0.56470000  0.83540000  0.92023000  1.0 -0.0886561914
C  C19  1  0.50330000  0.81270000  0.86803000  1.0 -0.0236286923
C  C20  1  0.43020000  0.75910000  0.90383000  1.0 0.5927865364
C  C21  1  0.68380000  0.13650000  0.62063000  1.0 -0.0236286923
C  C22  1  0.67880000  0.19510000  0.57133000  1.0 0.5628699321
C  C23  1  0.72000000  0.10360000  0.58453000  1.0 -0.0886561914
C  C24  1  0.63930000  0.91990000  0.81043000  1.0 0.0796695266
C  C25  1  0.66780000  0.06740000  0.75203000  1.0 -0.139953456
C  C26  1  0.57830000  0.89590000  0.75653000  1.0 -0.1273378051
C  C27  1  0.63330000  0.88830000  0.89133000  1.0 -0.1503891453
C  C28  1  0.70150000  0.03420000  0.71463000  1.0 0.0796695266
C  C29  1  0.72800000  0.05200000  0.63013000  1.0 -0.1556624216
C  C30  1  0.51080000  0.84250000  0.78563000  1.0 -0.1013912781
C  C31  1  0.71320000  0.97940000  0.77303000  1.0 -0.276787623
C  C32  1  0.65920000  0.11930000  0.70883000  1.0 -0.0886561914
C  C33  1  0.76840000  0.02450000  0.84673000  1.0 0.6544367828
C  C34  1  0.74480000  0.93940000  0.71793000  1.0 0.6637222775
C  C35  1  0.27070000  0.43530000  0.58690000  1.0 -0.0886561914
C  C36  1  0.30940000  0.49670000  0.53470000  1.0 -0.0236286923
C  C37  1  0.32890000  0.56980000  0.57050000  1.0 0.5927865364
C  C38  1  0.45270000  0.31620000  0.28730000  1.0 -0.0236286923
C  C39  1  0.51630000  0.32120000  0.23800000  1.0 0.5628699321
C  C40  1  0.38360000  0.28000000  0.25120000  1.0 -0.0886561914
C  C41  1  0.28060000  0.36070000  0.47710000  1.0 0.0796695266
C  C42  1  0.39960000  0.33220000  0.41870000  1.0 -0.139953456
C  C43  1  0.31760000  0.42170000  0.42320000  1.0 -0.1273378051
C  C44  1  0.25500000  0.36670000  0.55800000  1.0 -0.1503891453
C  C45  1  0.33270000  0.29850000  0.38130000  1.0 0.0796695266
C  C46  1  0.32400000  0.27200000  0.29680000  1.0 -0.1556624216
C  C47  1  0.33170000  0.48920000  0.45230000  1.0 -0.1013912781
C  C48  1  0.26620000  0.28680000  0.43970000  1.0 -0.276787623
C  C49  1  0.46010000  0.34080000  0.37550000  1.0 -0.0886561914
C  C50  1  0.25610000  0.23160000  0.51340000  1.0 0.6544367828
C  C51  1  0.19460000  0.25520000  0.38460000  1.0 0.6637222775
C  C52  1  0.83540000  0.27070000  0.75357000  1.0 -0.0886561914
C  C53  1  0.81270000  0.30940000  0.70137000  1.0 -0.0236286923
C  C54  1  0.75910000  0.32890000  0.73717000  1.0 0.5927865364
C  C55  1  0.13650000  0.45270000  0.45397000  1.0 -0.0236286923
C  C56  1  0.19510000  0.51630000  0.40467000  1.0 0.5628699321
C  C57  1  0.10360000  0.38360000  0.41787000  1.0 -0.0886561914
C  C58  1  0.91990000  0.28060000  0.64377000  1.0 0.0796695266
C  C59  1  0.06740000  0.39960000  0.58537000  1.0 -0.139953456
C  C60  1  0.89590000  0.31760000  0.58987000  1.0 -0.1273378051
C  C61  1  0.88830000  0.25500000  0.72467000  1.0 -0.1503891453
C  C62  1  0.03420000  0.33270000  0.54797000  1.0 0.0796695266
C  C63  1  0.05200000  0.32400000  0.46347000  1.0 -0.1556624216
C  C64  1  0.84250000  0.33170000  0.61897000  1.0 -0.1013912781
C  C65  1  0.97940000  0.26620000  0.60637000  1.0 -0.276787623
C  C66  1  0.11930000  0.46010000  0.54217000  1.0 -0.0886561914
C  C67  1  0.02450000  0.25610000  0.68007000  1.0 0.6544367828
C  C68  1  0.93940000  0.19460000  0.55127000  1.0 0.6637222775
C  C69  1  0.43530000  0.16460000  0.42023000  1.0 -0.0886561914
C  C70  1  0.49670000  0.18730000  0.36803000  1.0 -0.0236286923
C  C71  1  0.56980000  0.24090000  0.40383000  1.0 0.5927865364
C  C72  1  0.31620000  0.86350000  0.12063000  1.0 -0.0236286923
C  C73  1  0.32120000  0.80490000  0.07133000  1.0 0.5628699321
C  C74  1  0.28000000  0.89640000  0.08453000  1.0 -0.0886561914
C  C75  1  0.36070000  0.08010000  0.31043000  1.0 0.0796695266
C  C76  1  0.33220000  0.93260000  0.25203000  1.0 -0.139953456
C  C77  1  0.42170000  0.10410000  0.25653000  1.0 -0.1273378051
C  C78  1  0.36670000  0.11170000  0.39133000  1.0 -0.1503891453
C  C79  1  0.29850000  0.96580000  0.21463000  1.0 0.0796695266
C  C80  1  0.27200000  0.94800000  0.13013000  1.0 -0.1556624216
C  C81  1  0.48920000  0.15750000  0.28563000  1.0 -0.1013912781
C  C82  1  0.28680000  0.02060000  0.27303000  1.0 -0.276787623
C  C83  1  0.34080000  0.88070000  0.20883000  1.0 -0.0886561914
C  C84  1  0.23160000  0.97550000  0.34673000  1.0 0.6544367828
C  C85  1  0.25520000  0.06060000  0.21793000  1.0 0.6637222775
C  C86  1  0.72930000  0.56470000  0.08690000  1.0 -0.0886561914
C  C87  1  0.69060000  0.50330000  0.03470000  1.0 -0.0236286923
C  C88  1  0.67110000  0.43020000  0.07050000  1.0 0.5927865364
C  C89  1  0.54730000  0.68380000  0.78730000  1.0 -0.0236286923
C  C90  1  0.48370000  0.67880000  0.73800000  1.0 0.5628699321
C  C91  1  0.61640000  0.72000000  0.75120000  1.0 -0.0886561914
C  C92  1  0.71940000  0.63930000  0.97710000  1.0 0.0796695266
C  C93  1  0.60040000  0.66780000  0.91870000  1.0 -0.139953456
C  C94  1  0.68240000  0.57830000  0.92320000  1.0 -0.1273378051
C  C95  1  0.74500000  0.63330000  0.05800000  1.0 -0.1503891453
C  C96  1  0.66730000  0.70150000  0.88130000  1.0 0.0796695266
C  C97  1  0.67600000  0.72800000  0.79680000  1.0 -0.1556624216
C  C98  1  0.66830000  0.51080000  0.95230000  1.0 -0.1013912781
C  C99  1  0.73380000  0.71320000  0.93970000  1.0 -0.276787623
C  C100  1  0.53990000  0.65920000  0.87550000  1.0 -0.0886561914
C  C101  1  0.74390000  0.76840000  0.01340000  1.0 0.6544367828
C  C102  1  0.80540000  0.74480000  0.88460000  1.0 0.6637222775
C  C103  1  0.43530000  0.27070000  0.74643000  1.0 -0.0886561914
C  C104  1  0.49670000  0.30940000  0.79863000  1.0 -0.0236286923
C  C105  1  0.56980000  0.32890000  0.76283000  1.0 0.5927865364
C  C106  1  0.31620000  0.45270000  0.04603000  1.0 -0.0236286923
C  C107  1  0.32120000  0.51630000  0.09533000  1.0 0.5628699321
C  C108  1  0.28000000  0.38360000  0.08213000  1.0 -0.0886561914
C  C109  1  0.36070000  0.28060000  0.85623000  1.0 0.0796695266
C  C110  1  0.33220000  0.39960000  0.91463000  1.0 -0.139953456
C  C111  1  0.42170000  0.31760000  0.91013000  1.0 -0.1273378051
C  C112  1  0.36670000  0.25500000  0.77533000  1.0 -0.1503891453
C  C113  1  0.29850000  0.33270000  0.95203000  1.0 0.0796695266
C  C114  1  0.27200000  0.32400000  0.03653000  1.0 -0.1556624216
C  C115  1  0.48920000  0.33170000  0.88103000  1.0 -0.1013912781
C  C116  1  0.28680000  0.26620000  0.89363000  1.0 -0.276787623
C  C117  1  0.34080000  0.46010000  0.95783000  1.0 -0.0886561914
C  C118  1  0.23160000  0.25610000  0.81993000  1.0 0.6544367828
C  C119  1  0.25520000  0.19460000  0.94873000  1.0 0.6637222775
C  C120  1  0.72930000  0.16460000  0.07977000  1.0 -0.0886561914
C  C121  1  0.69060000  0.18730000  0.13197000  1.0 -0.0236286923
C  C122  1  0.67110000  0.24090000  0.09617000  1.0 0.5927865364
C  C123  1  0.54730000  0.86350000  0.37937000  1.0 -0.0236286923
C  C124  1  0.48370000  0.80490000  0.42867000  1.0 0.5628699321
C  C125  1  0.61640000  0.89640000  0.41547000  1.0 -0.0886561914
C  C126  1  0.71940000  0.08010000  0.18957000  1.0 0.0796695266
C  C127  1  0.60040000  0.93260000  0.24797000  1.0 -0.139953456
C  C128  1  0.68240000  0.10410000  0.24347000  1.0 -0.1273378051
C  C129  1  0.74500000  0.11170000  0.10867000  1.0 -0.1503891453
C  C130  1  0.66730000  0.96580000  0.28537000  1.0 0.0796695266
C  C131  1  0.67600000  0.94800000  0.36987000  1.0 -0.1556624216
C  C132  1  0.66830000  0.15750000  0.21437000  1.0 -0.1013912781
C  C133  1  0.73380000  0.02060000  0.22697000  1.0 -0.276787623
C  C134  1  0.53990000  0.88070000  0.29117000  1.0 -0.0886561914
C  C135  1  0.74390000  0.97550000  0.15327000  1.0 0.6544367828
C  C136  1  0.80540000  0.06060000  0.28207000  1.0 0.6637222775
C  C137  1  0.83540000  0.56470000  0.41310000  1.0 -0.0886561914
C  C138  1  0.81270000  0.50330000  0.46530000  1.0 -0.0236286923
C  C139  1  0.75910000  0.43020000  0.42950000  1.0 0.5927865364
C  C140  1  0.13650000  0.68380000  0.71270000  1.0 -0.0236286923
C  C141  1  0.19510000  0.67880000  0.76200000  1.0 0.5628699321
C  C142  1  0.10360000  0.72000000  0.74880000  1.0 -0.0886561914
C  C143  1  0.91990000  0.63930000  0.52290000  1.0 0.0796695266
C  C144  1  0.06740000  0.66780000  0.58130000  1.0 -0.139953456
C  C145  1  0.89590000  0.57830000  0.57680000  1.0 -0.1273378051
C  C146  1  0.88830000  0.63330000  0.44200000  1.0 -0.1503891453
C  C147  1  0.03420000  0.70150000  0.61870000  1.0 0.0796695266
C  C148  1  0.05200000  0.72800000  0.70320000  1.0 -0.1556624216
C  C149  1  0.84250000  0.51080000  0.54770000  1.0 -0.1013912781
C  C150  1  0.97940000  0.71320000  0.56030000  1.0 -0.276787623
C  C151  1  0.11930000  0.65920000  0.62450000  1.0 -0.0886561914
C  C152  1  0.02450000  0.76840000  0.48660000  1.0 0.6544367828
C  C153  1  0.93940000  0.74480000  0.61540000  1.0 0.6637222775
C  C154  1  0.56470000  0.72930000  0.24643000  1.0 -0.0886561914
C  C155  1  0.50330000  0.69060000  0.29863000  1.0 -0.0236286923
C  C156  1  0.43020000  0.67110000  0.26283000  1.0 0.5927865364
C  C157  1  0.68380000  0.54730000  0.54603000  1.0 -0.0236286923
C  C158  1  0.67880000  0.48370000  0.59533000  1.0 0.5628699321
C  C159  1  0.72000000  0.61640000  0.58213000  1.0 -0.0886561914
C  C160  1  0.63930000  0.71940000  0.35623000  1.0 0.0796695266
C  C161  1  0.66780000  0.60040000  0.41463000  1.0 -0.139953456
C  C162  1  0.57830000  0.68240000  0.41013000  1.0 -0.1273378051
C  C163  1  0.63330000  0.74500000  0.27533000  1.0 -0.1503891453
C  C164  1  0.70150000  0.66730000  0.45203000  1.0 0.0796695266
C  C165  1  0.72800000  0.67600000  0.53653000  1.0 -0.1556624216
C  C166  1  0.51080000  0.66830000  0.38103000  1.0 -0.1013912781
C  C167  1  0.71320000  0.73380000  0.39363000  1.0 -0.276787623
C  C168  1  0.65920000  0.53990000  0.45783000  1.0 -0.0886561914
C  C169  1  0.76840000  0.74390000  0.31993000  1.0 0.6544367828
C  C170  1  0.74480000  0.80540000  0.44873000  1.0 0.6637222775
C  C171  1  0.27070000  0.83540000  0.57977000  1.0 -0.0886561914
C  C172  1  0.30940000  0.81270000  0.63197000  1.0 -0.0236286923
C  C173  1  0.32890000  0.75910000  0.59617000  1.0 0.5927865364
C  C174  1  0.45270000  0.13650000  0.87937000  1.0 -0.0236286923
C  C175  1  0.51630000  0.19510000  0.92867000  1.0 0.5628699321
C  C176  1  0.38360000  0.10360000  0.91547000  1.0 -0.0886561914
C  C177  1  0.28060000  0.91990000  0.68957000  1.0 0.0796695266
C  C178  1  0.39960000  0.06740000  0.74797000  1.0 -0.139953456
C  C179  1  0.31760000  0.89590000  0.74347000  1.0 -0.1273378051
C  C180  1  0.25500000  0.88830000  0.60867000  1.0 -0.1503891453
C  C181  1  0.33270000  0.03420000  0.78537000  1.0 0.0796695266
C  C182  1  0.32400000  0.05200000  0.86987000  1.0 -0.1556624216
C  C183  1  0.33170000  0.84250000  0.71437000  1.0 -0.1013912781
C  C184  1  0.26620000  0.97940000  0.72697000  1.0 -0.276787623
C  C185  1  0.46010000  0.11930000  0.79117000  1.0 -0.0886561914
C  C186  1  0.25610000  0.02450000  0.65327000  1.0 0.6544367828
C  C187  1  0.19460000  0.93940000  0.78207000  1.0 0.6637222775
C  C188  1  0.16460000  0.43530000  0.91310000  1.0 -0.0886561914
C  C189  1  0.18730000  0.49670000  0.96530000  1.0 -0.0236286923
C  C190  1  0.24090000  0.56980000  0.92950000  1.0 0.5927865364
C  C191  1  0.86350000  0.31620000  0.21270000  1.0 -0.0236286923
C  C192  1  0.80490000  0.32120000  0.26200000  1.0 0.5628699321
C  C193  1  0.89640000  0.28000000  0.24880000  1.0 -0.0886561914
C  C194  1  0.08010000  0.36070000  0.02290000  1.0 0.0796695266
C  C195  1  0.93260000  0.33220000  0.08130000  1.0 -0.139953456
C  C196  1  0.10410000  0.42170000  0.07680000  1.0 -0.1273378051
C  C197  1  0.11170000  0.36670000  0.94200000  1.0 -0.1503891453
C  C198  1  0.96580000  0.29850000  0.11870000  1.0 0.0796695266
C  C199  1  0.94800000  0.27200000  0.20320000  1.0 -0.1556624216
C  C200  1  0.15750000  0.48920000  0.04770000  1.0 -0.1013912781
C  C201  1  0.02060000  0.28680000  0.06030000  1.0 -0.276787623
C  C202  1  0.88070000  0.34080000  0.12450000  1.0 -0.0886561914
C  C203  1  0.97550000  0.23160000  0.98660000  1.0 0.6544367828
C  C204  1  0.06060000  0.25520000  0.11540000  1.0 0.6637222775
O  O1  1  0.25540000  0.63070000  0.18747000  1.0 -0.5791368377
O  O2  1  0.26690000  0.69120000  0.31167000  1.0 -0.5206383378
O  O3  1  0.76910000  0.42420000  0.94277000  1.0 -0.5486151121
O  O4  1  0.79500000  0.49730000  0.82577000  1.0 -0.5254896587
O  O5  1  0.37530000  0.74460000  0.85413000  1.0 -0.5791368377
O  O6  1  0.42430000  0.73310000  0.97833000  1.0 -0.5206383378
O  O7  1  0.65510000  0.23090000  0.60943000  1.0 -0.5486151121
O  O8  1  0.70230000  0.20500000  0.49243000  1.0 -0.5254896587
O  O9  1  0.36930000  0.62470000  0.52080000  1.0 -0.5791368377
O  O10  1  0.30880000  0.57570000  0.64500000  1.0 -0.5206383378
O  O11  1  0.57580000  0.34490000  0.27610000  1.0 -0.5486151121
O  O12  1  0.50270000  0.29770000  0.15910000  1.0 -0.5206383378
O  O13  1  0.74460000  0.36930000  0.68747000  1.0 -0.5791368377
O  O14  1  0.73310000  0.30880000  0.81167000  1.0 -0.5206383378
O  O15  1  0.23090000  0.57580000  0.44277000  1.0 -0.5486151121
O  O16  1  0.20500000  0.50270000  0.32577000  1.0 -0.5254896587
O  O17  1  0.62470000  0.25540000  0.35413000  1.0 -0.5791368377
O  O18  1  0.57570000  0.26690000  0.47833000  1.0 -0.5206383378
O  O19  1  0.34490000  0.76910000  0.10943000  1.0 -0.5486151121
O  O20  1  0.29770000  0.79500000  0.99243000  1.0 -0.5254896587
O  O21  1  0.63070000  0.37530000  0.02080000  1.0 -0.5791368377
O  O22  1  0.69120000  0.42430000  0.14500000  1.0 -0.5206383378
O  O23  1  0.42420000  0.65510000  0.77610000  1.0 -0.5486151121
O  O24  1  0.49730000  0.70230000  0.65910000  1.0 -0.5254896587
O  O25  1  0.62470000  0.36930000  0.81253000  1.0 -0.5791368377
O  O26  1  0.57570000  0.30880000  0.68833000  1.0 -0.5206383378
O  O27  1  0.34490000  0.57580000  0.05723000  1.0 -0.5486151121
O  O28  1  0.29770000  0.50270000  0.17423000  1.0 -0.5254896587
O  O29  1  0.63070000  0.25540000  0.14587000  1.0 -0.5791368377
O  O30  1  0.69120000  0.26690000  0.02167000  1.0 -0.5206383378
O  O31  1  0.42420000  0.76910000  0.39057000  1.0 -0.5486151121
O  O32  1  0.49730000  0.79500000  0.50757000  1.0 -0.5254896587
O  O33  1  0.74460000  0.37530000  0.47920000  1.0 -0.5791368377
O  O34  1  0.73310000  0.42430000  0.35500000  1.0 -0.5206383378
O  O35  1  0.23090000  0.65510000  0.72390000  1.0 -0.5486151121
O  O36  1  0.20500000  0.70230000  0.84090000  1.0 -0.5254896587
O  O37  1  0.37530000  0.63070000  0.31253000  1.0 -0.5791368377
O  O38  1  0.42430000  0.69120000  0.18833000  1.0 -0.5206383378
O  O39  1  0.65510000  0.42420000  0.55723000  1.0 -0.5486151121
O  O40  1  0.70230000  0.49730000  0.67423000  1.0 -0.5254896587
O  O41  1  0.36930000  0.74460000  0.64587000  1.0 -0.5791368377
O  O42  1  0.30880000  0.73310000  0.52167000  1.0 -0.5206383378
O  O43  1  0.57580000  0.23090000  0.89057000  1.0 -0.5486151121
O  O44  1  0.50270000  0.20500000  0.00757000  1.0 -0.5254896587
O  O45  1  0.25540000  0.62470000  0.97920000  1.0 -0.5791368377
O  O46  1  0.26690000  0.57570000  0.85500000  1.0 -0.5206383378
O  O47  1  0.76910000  0.34490000  0.22390000  1.0 -0.5486151121
O  O48  1  0.79500000  0.29770000  0.34090000  1.0 -0.5254896587
F  F1  1  0.09350000  0.79740000  0.98137000  1.0 -0.1903917327
F  F2  1  0.95310000  0.69150000  0.23817000  1.0 -0.1903917327
F  F3  1  0.01190000  0.80620000  0.22157000  1.0 -0.1903917327
F  F4  1  0.91670000  0.74140000  0.14637000  1.0 -0.1903917327
F  F5  1  0.01540000  0.82780000  0.02137000  1.0 -0.2010303119
F  F6  1  0.11100000  0.85870000  0.09927000  1.0 -0.1903917327
F  F7  1  0.70390000  0.90650000  0.64803000  1.0 -0.1903917327
F  F8  1  0.73840000  0.04690000  0.90483000  1.0 -0.1903917327
F  F9  1  0.79430000  0.98810000  0.88823000  1.0 -0.1903917327
F  F10  1  0.82470000  0.08330000  0.81303000  1.0 -0.1903917327
F  F11  1  0.81240000  0.98460000  0.68803000  1.0 -0.2010303119
F  F12  1  0.74770000  0.88900000  0.76593000  1.0 -0.1903917327
F  F13  1  0.20260000  0.29610000  0.31470000  1.0 -0.1903917327
F  F14  1  0.30850000  0.26160000  0.57150000  1.0 -0.1903917327
F  F15  1  0.19380000  0.20570000  0.55490000  1.0 -0.1903917327
F  F16  1  0.25860000  0.17530000  0.47970000  1.0 -0.1903917327
F  F17  1  0.17220000  0.18760000  0.35470000  1.0 -0.2010303119
F  F18  1  0.14130000  0.25230000  0.43260000  1.0 -0.1903917327
F  F19  1  0.90650000  0.20260000  0.48137000  1.0 -0.1903917327
F  F20  1  0.04690000  0.30850000  0.73817000  1.0 -0.1903917327
F  F21  1  0.98810000  0.19380000  0.72157000  1.0 -0.1903917327
F  F22  1  0.08330000  0.25860000  0.64637000  1.0 -0.1903917327
F  F23  1  0.98460000  0.17220000  0.52137000  1.0 -0.2010303119
F  F24  1  0.88900000  0.14130000  0.59927000  1.0 -0.1903917327
F  F25  1  0.29610000  0.09350000  0.14803000  1.0 -0.1903917327
F  F26  1  0.26160000  0.95310000  0.40483000  1.0 -0.1903917327
F  F27  1  0.20570000  0.01190000  0.38823000  1.0 -0.1903917327
F  F28  1  0.17530000  0.91670000  0.31303000  1.0 -0.1903917327
F  F29  1  0.18760000  0.01540000  0.18803000  1.0 -0.2010303119
F  F30  1  0.25230000  0.11100000  0.26593000  1.0 -0.1903917327
F  F31  1  0.79740000  0.70390000  0.81470000  1.0 -0.1903917327
F  F32  1  0.69150000  0.73840000  0.07150000  1.0 -0.1903917327
F  F33  1  0.80620000  0.79430000  0.05490000  1.0 -0.1903917327
F  F34  1  0.74140000  0.82470000  0.97970000  1.0 -0.1903917327
F  F35  1  0.82780000  0.81240000  0.85470000  1.0 -0.2010303119
F  F36  1  0.85870000  0.74770000  0.93260000  1.0 -0.1903917327
F  F37  1  0.29610000  0.20260000  0.01863000  1.0 -0.1903917327
F  F38  1  0.26160000  0.30850000  0.76183000  1.0 -0.1903917327
F  F39  1  0.20570000  0.19380000  0.77843000  1.0 -0.1903917327
F  F40  1  0.17530000  0.25860000  0.85363000  1.0 -0.1903917327
F  F41  1  0.18760000  0.17220000  0.97863000  1.0 -0.2010303119
F  F42  1  0.25230000  0.14130000  0.90073000  1.0 -0.1903917327
F  F43  1  0.79740000  0.09350000  0.35197000  1.0 -0.1903917327
F  F44  1  0.69150000  0.95310000  0.09517000  1.0 -0.1903917327
F  F45  1  0.80620000  0.01190000  0.11177000  1.0 -0.1903917327
F  F46  1  0.74140000  0.91670000  0.18697000  1.0 -0.1903917327
F  F47  1  0.82780000  0.01540000  0.31197000  1.0 -0.2010303119
F  F48  1  0.85870000  0.11100000  0.23407000  1.0 -0.1903917327
F  F49  1  0.90650000  0.70390000  0.68530000  1.0 -0.1903917327
F  F50  1  0.04690000  0.73840000  0.42850000  1.0 -0.1903917327
F  F51  1  0.98810000  0.79430000  0.44510000  1.0 -0.1903917327
F  F52  1  0.08330000  0.82470000  0.52030000  1.0 -0.1903917327
F  F53  1  0.98460000  0.81240000  0.64530000  1.0 -0.2010303119
F  F54  1  0.88900000  0.74770000  0.56740000  1.0 -0.1903917327
F  F55  1  0.70390000  0.79740000  0.51863000  1.0 -0.1903917327
F  F56  1  0.73840000  0.69150000  0.26183000  1.0 -0.1903917327
F  F57  1  0.79430000  0.80620000  0.27843000  1.0 -0.1903917327
F  F58  1  0.82470000  0.74140000  0.35363000  1.0 -0.1903917327
F  F59  1  0.81240000  0.82780000  0.47863000  1.0 -0.2010303119
F  F60  1  0.74770000  0.85870000  0.40073000  1.0 -0.1903917327
F  F61  1  0.20260000  0.90650000  0.85197000  1.0 -0.1903917327
F  F62  1  0.30850000  0.04690000  0.59517000  1.0 -0.1903917327
F  F63  1  0.19380000  0.98810000  0.61177000  1.0 -0.1903917327
F  F64  1  0.25860000  0.08330000  0.68697000  1.0 -0.1903917327
F  F65  1  0.17220000  0.98460000  0.81197000  1.0 -0.2010303119
F  F66  1  0.14130000  0.88900000  0.73407000  1.0 -0.1903917327
F  F67  1  0.09350000  0.29610000  0.18530000  1.0 -0.1903917327
F  F68  1  0.95310000  0.26160000  0.92850000  1.0 -0.1903917327
F  F69  1  0.01190000  0.20570000  0.94510000  1.0 -0.1903917327
F  F70  1  0.91670000  0.17530000  0.02030000  1.0 -0.1903917327
F  F71  1  0.01540000  0.18760000  0.14530000  1.0 -0.2010303119
F  F72  1  0.11100000  0.25230000  0.06740000  1.0 -0.1903917327
