# DDEC6 charges by PACMAN v1.1 (https://github.com/mtap-research/PACMAN-charge/)
data_XOCRUF01_FSR_pacman
_symmetry_space_group_name_H-M   'P 1'
_cell_length_a   21.28600000
_cell_length_b   21.28600000
_cell_length_c   15.08200000
_cell_angle_alpha   90.00000000
_cell_angle_beta   90.00000000
_cell_angle_gamma   120.00000000
_symmetry_Int_Tables_number   1
_chemical_formula_structural   MnZnCo2H16C34(O2F3)4
_chemical_formula_sum   'Mn6 Zn6 Co12 H96 C204 O48 F72'
_cell_volume   5918.03710498
_cell_formula_units_Z   6
loop_
 _symmetry_equiv_pos_site_id
 _symmetry_equiv_pos_as_xyz
  1  'x, y, z'
loop_
 _atom_site_type_symbol
 _atom_site_label
 _atom_site_symmetry_multiplicity
 _atom_site_fract_x
 _atom_site_fract_y
 _atom_site_fract_z
 _atom_site_occupancy
 _atom_site_charge
Mn  Mn1  1  0.32370000  0.67630000  0.91667000  1.0 1.0034670261
Mn  Mn2  1  0.35260000  0.67630000  0.58333000  1.0 1.0034670261
Mn  Mn3  1  0.32370000  0.64740000  0.25000000  1.0 1.0034670261
Mn  Mn4  1  0.67630000  0.32370000  0.41667000  1.0 1.0034670261
Mn  Mn5  1  0.64740000  0.32370000  0.08333000  1.0 1.0034670261
Mn  Mn6  1  0.67630000  0.35260000  0.75000000  1.0 1.0034670261
Zn  Zn1  1  0.28250000  0.56500000  0.75000000  1.0 0.8504591611
Zn  Zn2  1  0.28250000  0.71750000  0.41667000  1.0 0.8504591611
Zn  Zn3  1  0.43500000  0.71750000  0.08333000  1.0 0.8504591611
Zn  Zn4  1  0.71750000  0.43500000  0.25000000  1.0 0.8504591611
Zn  Zn5  1  0.71750000  0.28250000  0.91667000  1.0 0.8504591611
Zn  Zn6  1  0.56500000  0.28250000  0.58333000  1.0 0.8504591611
Co  Co1  1  0.28410000  0.56820000  0.75000000  1.0 0.7744467882
Co  Co2  1  0.28410000  0.71590000  0.41667000  1.0 0.7744467882
Co  Co3  1  0.43180000  0.71590000  0.08333000  1.0 0.7744467882
Co  Co4  1  0.71590000  0.43180000  0.25000000  1.0 0.7744467882
Co  Co5  1  0.71590000  0.28410000  0.91667000  1.0 0.7744467882
Co  Co6  1  0.56820000  0.28410000  0.58333000  1.0 0.7744467882
Co  Co7  1  0.32950000  0.67050000  0.91667000  1.0 0.841958446
Co  Co8  1  0.34100000  0.67050000  0.58333000  1.0 0.841958446
Co  Co9  1  0.32950000  0.65900000  0.25000000  1.0 0.841958446
Co  Co10  1  0.67050000  0.32950000  0.41667000  1.0 0.841958446
Co  Co11  1  0.65900000  0.32950000  0.08333000  1.0 0.841958446
Co  Co12  1  0.67050000  0.34100000  0.75000000  1.0 0.841958446
H  H1  1  0.81250000  0.25150000  0.30837000  1.0 0.1294980474
H  H2  1  0.90250000  0.22960000  0.26137000  1.0 0.1165718165
H  H3  1  0.91740000  0.33490000  0.03427000  1.0 0.1165718165
H  H4  1  0.11560000  0.37960000  0.85747000  1.0 0.1294980474
H  H5  1  0.14190000  0.50700000  0.06917000  1.0 0.1294980474
H  H6  1  0.05450000  0.40610000  0.14387000  1.0 0.1139774461
H  H7  1  0.02930000  0.27950000  0.93597000  1.0 0.1139774461
H  H8  1  0.82690000  0.35630000  0.08137000  1.0 0.1042807427
H  H9  1  0.43900000  0.18750000  0.97503000  1.0 0.1294980474
H  H10  1  0.32710000  0.09750000  0.92803000  1.0 0.1165718165
H  H11  1  0.41750000  0.08260000  0.70093000  1.0 0.1165718165
H  H12  1  0.26400000  0.88440000  0.52413000  1.0 0.1294980474
H  H13  1  0.36510000  0.85810000  0.73583000  1.0 0.1294980474
H  H14  1  0.35160000  0.94550000  0.81053000  1.0 0.1139774461
H  H15  1  0.25020000  0.97070000  0.60263000  1.0 0.1139774461
H  H16  1  0.52940000  0.17310000  0.74803000  1.0 0.1042807427
H  H17  1  0.74850000  0.56100000  0.64170000  1.0 0.1294980474
H  H18  1  0.77040000  0.67290000  0.59470000  1.0 0.1165718165
H  H19  1  0.66510000  0.58250000  0.36760000  1.0 0.1165718165
H  H20  1  0.62040000  0.73600000  0.19080000  1.0 0.1294980474
H  H21  1  0.49300000  0.63490000  0.40250000  1.0 0.1294980474
H  H22  1  0.59390000  0.64840000  0.47720000  1.0 0.1139774461
H  H23  1  0.72050000  0.74980000  0.26930000  1.0 0.1139774461
H  H24  1  0.64370000  0.47060000  0.41470000  1.0 0.1042807427
H  H25  1  0.18750000  0.74850000  0.80837000  1.0 0.1294980474
H  H26  1  0.09750000  0.77040000  0.76137000  1.0 0.1165718165
H  H27  1  0.08260000  0.66510000  0.53427000  1.0 0.1165718165
H  H28  1  0.88440000  0.62040000  0.35747000  1.0 0.1294980474
H  H29  1  0.85810000  0.49300000  0.56917000  1.0 0.1294980474
H  H30  1  0.94550000  0.59390000  0.64387000  1.0 0.1139774461
H  H31  1  0.97070000  0.72050000  0.43597000  1.0 0.1139774461
H  H32  1  0.17310000  0.64370000  0.58137000  1.0 0.1042807427
H  H33  1  0.56100000  0.81250000  0.47503000  1.0 0.1294980474
H  H34  1  0.67290000  0.90250000  0.42803000  1.0 0.1165718165
H  H35  1  0.58250000  0.91740000  0.20093000  1.0 0.1165718165
H  H36  1  0.73600000  0.11560000  0.02413000  1.0 0.1294980474
H  H37  1  0.63490000  0.14190000  0.23583000  1.0 0.1294980474
H  H38  1  0.64840000  0.05450000  0.31053000  1.0 0.1139774461
H  H39  1  0.74980000  0.02930000  0.10263000  1.0 0.1139774461
H  H40  1  0.47060000  0.82690000  0.24803000  1.0 0.1042807427
H  H41  1  0.25150000  0.43900000  0.14170000  1.0 0.1294980474
H  H42  1  0.22960000  0.32710000  0.09470000  1.0 0.1165718165
H  H43  1  0.33490000  0.41750000  0.86760000  1.0 0.1165718165
H  H44  1  0.37960000  0.26400000  0.69080000  1.0 0.1294980474
H  H45  1  0.50700000  0.36510000  0.90250000  1.0 0.1294980474
H  H46  1  0.40610000  0.35160000  0.97720000  1.0 0.1139774461
H  H47  1  0.27950000  0.25020000  0.76930000  1.0 0.1139774461
H  H48  1  0.35630000  0.52940000  0.91470000  1.0 0.1042807427
H  H49  1  0.56100000  0.74850000  0.69163000  1.0 0.1294980474
H  H50  1  0.67290000  0.77040000  0.73863000  1.0 0.1165718165
H  H51  1  0.58250000  0.66510000  0.96573000  1.0 0.1165718165
H  H52  1  0.73600000  0.62040000  0.14253000  1.0 0.1294980474
H  H53  1  0.63490000  0.49300000  0.93083000  1.0 0.1294980474
H  H54  1  0.64840000  0.59390000  0.85613000  1.0 0.1139774461
H  H55  1  0.74980000  0.72050000  0.06403000  1.0 0.1139774461
H  H56  1  0.47060000  0.64370000  0.91863000  1.0 0.1042807427
H  H57  1  0.25150000  0.81250000  0.02497000  1.0 0.1294980474
H  H58  1  0.22960000  0.90250000  0.07197000  1.0 0.1165718165
H  H59  1  0.33490000  0.91740000  0.29907000  1.0 0.1165718165
H  H60  1  0.37960000  0.11560000  0.47587000  1.0 0.1294980474
H  H61  1  0.50700000  0.14190000  0.26417000  1.0 0.1294980474
H  H62  1  0.40610000  0.05450000  0.18947000  1.0 0.1139774461
H  H63  1  0.27950000  0.02930000  0.39737000  1.0 0.1139774461
H  H64  1  0.35630000  0.82690000  0.25197000  1.0 0.1042807427
H  H65  1  0.18750000  0.43900000  0.35830000  1.0 0.1294980474
H  H66  1  0.09750000  0.32710000  0.40530000  1.0 0.1165718165
H  H67  1  0.08260000  0.41750000  0.63240000  1.0 0.1165718165
H  H68  1  0.88440000  0.26400000  0.80920000  1.0 0.1294980474
H  H69  1  0.85810000  0.36510000  0.59750000  1.0 0.1294980474
H  H70  1  0.94550000  0.35160000  0.52280000  1.0 0.1139774461
H  H71  1  0.97070000  0.25020000  0.73070000  1.0 0.1139774461
H  H72  1  0.17310000  0.52940000  0.58530000  1.0 0.1042807427
H  H73  1  0.43900000  0.25150000  0.19163000  1.0 0.1294980474
H  H74  1  0.32710000  0.22960000  0.23863000  1.0 0.1165718165
H  H75  1  0.41750000  0.33490000  0.46573000  1.0 0.1165718165
H  H76  1  0.26400000  0.37960000  0.64253000  1.0 0.1294980474
H  H77  1  0.36510000  0.50700000  0.43083000  1.0 0.1294980474
H  H78  1  0.35160000  0.40610000  0.35613000  1.0 0.1139774461
H  H79  1  0.25020000  0.27950000  0.56403000  1.0 0.1139774461
H  H80  1  0.52940000  0.35630000  0.41863000  1.0 0.1042807427
H  H81  1  0.74850000  0.18750000  0.52497000  1.0 0.1294980474
H  H82  1  0.77040000  0.09750000  0.57197000  1.0 0.1165718165
H  H83  1  0.66510000  0.08260000  0.79907000  1.0 0.1165718165
H  H84  1  0.62040000  0.88440000  0.97587000  1.0 0.1294980474
H  H85  1  0.49300000  0.85810000  0.76417000  1.0 0.1294980474
H  H86  1  0.59390000  0.94550000  0.68947000  1.0 0.1139774461
H  H87  1  0.72050000  0.97070000  0.89737000  1.0 0.1139774461
H  H88  1  0.64370000  0.17310000  0.75197000  1.0 0.1042807427
H  H89  1  0.81250000  0.56100000  0.85830000  1.0 0.1294980474
H  H90  1  0.90250000  0.67290000  0.90530000  1.0 0.1165718165
H  H91  1  0.91740000  0.58250000  0.13240000  1.0 0.1165718165
H  H92  1  0.11560000  0.73600000  0.30920000  1.0 0.1294980474
H  H93  1  0.14190000  0.63490000  0.09750000  1.0 0.1294980474
H  H94  1  0.05450000  0.64840000  0.02280000  1.0 0.1139774461
H  H95  1  0.02930000  0.74980000  0.23070000  1.0 0.1139774461
H  H96  1  0.82690000  0.47060000  0.08530000  1.0 0.1042807427
C  C1  1  0.81320000  0.31020000  0.20297000  1.0 -0.004494265
C  C2  1  0.75840000  0.32820000  0.23717000  1.0 0.4412502574
C  C3  1  0.83490000  0.26990000  0.25337000  1.0 -0.1028457133
C  C4  1  0.92050000  0.28150000  0.14267000  1.0 0.073208182
C  C5  1  0.13660000  0.45260000  0.95397000  1.0 -0.0061987116
C  C6  1  0.19520000  0.51630000  0.90497000  1.0 0.4840800661
C  C7  1  0.88800000  0.25610000  0.22517000  1.0 -0.1504833721
C  C8  1  0.89670000  0.31860000  0.09047000  1.0 -0.1414766757
C  C9  1  0.03390000  0.33260000  0.04777000  1.0 0.073208182
C  C10  1  0.10350000  0.38540000  0.91567000  1.0 -0.1028457133
C  C11  1  0.11900000  0.46120000  0.04167000  1.0 -0.1193844301
C  C12  1  0.06740000  0.40090000  0.08587000  1.0 -0.1504833721
C  C13  1  0.05200000  0.32550000  0.96287000  1.0 -0.1624972098
C  C14  1  0.84320000  0.33210000  0.11887000  1.0 -0.1504833721
C  C15  1  0.94010000  0.19630000  0.04977000  1.0 0.6522545593
C  C16  1  0.02430000  0.25720000  0.17817000  1.0 0.6522545593
C  C17  1  0.97970000  0.26730000  0.10427000  1.0 -0.2919773308
C  C18  1  0.49700000  0.18680000  0.86963000  1.0 -0.004494265
C  C19  1  0.56980000  0.24160000  0.90383000  1.0 0.4412502574
C  C20  1  0.43500000  0.16510000  0.92003000  1.0 -0.1028457133
C  C21  1  0.36100000  0.07950000  0.80933000  1.0 0.073208182
C  C22  1  0.31600000  0.86340000  0.62063000  1.0 -0.0061987116
C  C23  1  0.32110000  0.80480000  0.57163000  1.0 0.4840800661
C  C24  1  0.36810000  0.11200000  0.89183000  1.0 -0.1504833721
C  C25  1  0.42190000  0.10330000  0.75713000  1.0 -0.1414766757
C  C26  1  0.29870000  0.96610000  0.71443000  1.0 0.073208182
C  C27  1  0.28190000  0.89650000  0.58233000  1.0 -0.1028457133
C  C28  1  0.34220000  0.88100000  0.70833000  1.0 -0.1193844301
C  C29  1  0.33350000  0.93260000  0.75253000  1.0 -0.1504833721
C  C30  1  0.27350000  0.94800000  0.62953000  1.0 -0.1624972098
C  C31  1  0.48890000  0.15680000  0.78553000  1.0 -0.1504833721
C  C32  1  0.25620000  0.05990000  0.71643000  1.0 0.6522545593
C  C33  1  0.23290000  0.97570000  0.84483000  1.0 0.6522545593
C  C34  1  0.28760000  0.02030000  0.77093000  1.0 -0.2919773308
C  C35  1  0.68980000  0.50300000  0.53630000  1.0 -0.004494265
C  C36  1  0.67180000  0.43020000  0.57050000  1.0 0.4412502574
C  C37  1  0.73010000  0.56500000  0.58670000  1.0 -0.1028457133
C  C38  1  0.71850000  0.63900000  0.47600000  1.0 0.073208182
C  C39  1  0.54740000  0.68400000  0.28730000  1.0 -0.0061987116
C  C40  1  0.48370000  0.67890000  0.23830000  1.0 0.4840800661
C  C41  1  0.74390000  0.63190000  0.55850000  1.0 -0.1504833721
C  C42  1  0.68140000  0.57810000  0.42380000  1.0 -0.1414766757
C  C43  1  0.66740000  0.70130000  0.38110000  1.0 0.073208182
C  C44  1  0.61460000  0.71810000  0.24900000  1.0 -0.1028457133
C  C45  1  0.53880000  0.65780000  0.37500000  1.0 -0.1193844301
C  C46  1  0.59910000  0.66650000  0.41920000  1.0 -0.1504833721
C  C47  1  0.67450000  0.72650000  0.29620000  1.0 -0.1624972098
C  C48  1  0.66790000  0.51110000  0.45220000  1.0 -0.1504833721
C  C49  1  0.80370000  0.74380000  0.38310000  1.0 0.6522545593
C  C50  1  0.74280000  0.76710000  0.51150000  1.0 0.6522545593
C  C51  1  0.73270000  0.71240000  0.43760000  1.0 -0.2919773308
C  C52  1  0.18680000  0.68980000  0.70297000  1.0 -0.004494265
C  C53  1  0.24160000  0.67180000  0.73717000  1.0 0.4412502574
C  C54  1  0.16510000  0.73010000  0.75337000  1.0 -0.1028457133
C  C55  1  0.07950000  0.71850000  0.64267000  1.0 0.073208182
C  C56  1  0.86340000  0.54740000  0.45397000  1.0 -0.0061987116
C  C57  1  0.80480000  0.48370000  0.40497000  1.0 0.4840800661
C  C58  1  0.11200000  0.74390000  0.72517000  1.0 -0.1504833721
C  C59  1  0.10330000  0.68140000  0.59047000  1.0 -0.1414766757
C  C60  1  0.96610000  0.66740000  0.54777000  1.0 0.073208182
C  C61  1  0.89650000  0.61460000  0.41567000  1.0 -0.1028457133
C  C62  1  0.88100000  0.53880000  0.54167000  1.0 -0.1193844301
C  C63  1  0.93260000  0.59910000  0.58587000  1.0 -0.1504833721
C  C64  1  0.94800000  0.67450000  0.46287000  1.0 -0.1624972098
C  C65  1  0.15680000  0.66790000  0.61887000  1.0 -0.1504833721
C  C66  1  0.05990000  0.80370000  0.54977000  1.0 0.6522545593
C  C67  1  0.97570000  0.74280000  0.67817000  1.0 0.6522545593
C  C68  1  0.02030000  0.73270000  0.60427000  1.0 -0.2919773308
C  C69  1  0.50300000  0.81320000  0.36963000  1.0 -0.004494265
C  C70  1  0.43020000  0.75840000  0.40383000  1.0 0.4412502574
C  C71  1  0.56500000  0.83490000  0.42003000  1.0 -0.1028457133
C  C72  1  0.63900000  0.92050000  0.30933000  1.0 0.073208182
C  C73  1  0.68400000  0.13660000  0.12063000  1.0 -0.0061987116
C  C74  1  0.67890000  0.19520000  0.07163000  1.0 0.4850572971
C  C75  1  0.63190000  0.88800000  0.39183000  1.0 -0.1504833721
C  C76  1  0.57810000  0.89670000  0.25713000  1.0 -0.1414766757
C  C77  1  0.70130000  0.03390000  0.21443000  1.0 0.073208182
C  C78  1  0.71810000  0.10350000  0.08233000  1.0 -0.1028457133
C  C79  1  0.65780000  0.11900000  0.20833000  1.0 -0.1193844301
C  C80  1  0.66650000  0.06740000  0.25253000  1.0 -0.1504833721
C  C81  1  0.72650000  0.05200000  0.12953000  1.0 -0.1624972098
C  C82  1  0.51110000  0.84320000  0.28553000  1.0 -0.1504833721
C  C83  1  0.74380000  0.94010000  0.21643000  1.0 0.6522545593
C  C84  1  0.76710000  0.02430000  0.34483000  1.0 0.6522545593
C  C85  1  0.71240000  0.97970000  0.27093000  1.0 -0.2919773308
C  C86  1  0.31020000  0.49700000  0.03630000  1.0 -0.004494265
C  C87  1  0.32820000  0.56980000  0.07050000  1.0 0.4412502574
C  C88  1  0.26990000  0.43500000  0.08670000  1.0 -0.1028457133
C  C89  1  0.28150000  0.36100000  0.97600000  1.0 0.073208182
C  C90  1  0.45260000  0.31600000  0.78730000  1.0 -0.0061987116
C  C91  1  0.51630000  0.32110000  0.73830000  1.0 0.4850572971
C  C92  1  0.25610000  0.36810000  0.05850000  1.0 -0.1504833721
C  C93  1  0.31860000  0.42190000  0.92380000  1.0 -0.1414766757
C  C94  1  0.33260000  0.29870000  0.88110000  1.0 0.073208182
C  C95  1  0.38540000  0.28190000  0.74900000  1.0 -0.1028457133
C  C96  1  0.46120000  0.34220000  0.87500000  1.0 -0.1193844301
C  C97  1  0.40090000  0.33350000  0.91920000  1.0 -0.1504833721
C  C98  1  0.32550000  0.27350000  0.79620000  1.0 -0.1624972098
C  C99  1  0.33210000  0.48890000  0.95220000  1.0 -0.1504833721
C  C100  1  0.19630000  0.25620000  0.88310000  1.0 0.6522545593
C  C101  1  0.25720000  0.23290000  0.01150000  1.0 0.6522545593
C  C102  1  0.26730000  0.28760000  0.93760000  1.0 -0.2919773308
C  C103  1  0.50300000  0.68980000  0.79703000  1.0 -0.004494265
C  C104  1  0.43020000  0.67180000  0.76283000  1.0 0.4412502574
C  C105  1  0.56500000  0.73010000  0.74663000  1.0 -0.1028457133
C  C106  1  0.63900000  0.71850000  0.85733000  1.0 0.073208182
C  C107  1  0.68400000  0.54740000  0.04603000  1.0 -0.0061987116
C  C108  1  0.67890000  0.48370000  0.09503000  1.0 0.4850572971
C  C109  1  0.63190000  0.74390000  0.77483000  1.0 -0.1504833721
C  C110  1  0.57810000  0.68140000  0.90953000  1.0 -0.1414766757
C  C111  1  0.70130000  0.66740000  0.95223000  1.0 0.073208182
C  C112  1  0.71810000  0.61460000  0.08433000  1.0 -0.1028457133
C  C113  1  0.65780000  0.53880000  0.95833000  1.0 -0.1193844301
C  C114  1  0.66650000  0.59910000  0.91413000  1.0 -0.1504833721
C  C115  1  0.72650000  0.67450000  0.03713000  1.0 -0.1624972098
C  C116  1  0.51110000  0.66790000  0.88113000  1.0 -0.1504833721
C  C117  1  0.74380000  0.80370000  0.95023000  1.0 0.6522545593
C  C118  1  0.76710000  0.74280000  0.82183000  1.0 0.6522545593
C  C119  1  0.71240000  0.73270000  0.89573000  1.0 -0.2919773308
C  C120  1  0.31020000  0.81320000  0.13037000  1.0 -0.004494265
C  C121  1  0.32820000  0.75840000  0.09617000  1.0 0.4412502574
C  C122  1  0.26990000  0.83490000  0.07997000  1.0 -0.1028457133
C  C123  1  0.28150000  0.92050000  0.19067000  1.0 0.073208182
C  C124  1  0.45260000  0.13660000  0.37937000  1.0 -0.0061987116
C  C125  1  0.51630000  0.19520000  0.42837000  1.0 0.4850572971
C  C126  1  0.25610000  0.88800000  0.10817000  1.0 -0.1504833721
C  C127  1  0.31860000  0.89670000  0.24287000  1.0 -0.1414766757
C  C128  1  0.33260000  0.03390000  0.28557000  1.0 0.073208182
C  C129  1  0.38540000  0.10350000  0.41767000  1.0 -0.1028457133
C  C130  1  0.46120000  0.11900000  0.29167000  1.0 -0.1193844301
C  C131  1  0.40090000  0.06740000  0.24747000  1.0 -0.1504833721
C  C132  1  0.32550000  0.05200000  0.37047000  1.0 -0.1624972098
C  C133  1  0.33210000  0.84320000  0.21447000  1.0 -0.1504833721
C  C134  1  0.19630000  0.94010000  0.28357000  1.0 0.6522545593
C  C135  1  0.25720000  0.02430000  0.15517000  1.0 0.6522545593
C  C136  1  0.26730000  0.97970000  0.22907000  1.0 -0.2919773308
C  C137  1  0.18680000  0.49700000  0.46370000  1.0 -0.004494265
C  C138  1  0.24160000  0.56980000  0.42950000  1.0 0.4412502574
C  C139  1  0.16510000  0.43500000  0.41330000  1.0 -0.1028457133
C  C140  1  0.07950000  0.36100000  0.52400000  1.0 0.073208182
C  C141  1  0.86340000  0.31600000  0.71270000  1.0 -0.0061987116
C  C142  1  0.80480000  0.32110000  0.76170000  1.0 0.4850572971
C  C143  1  0.11200000  0.36810000  0.44150000  1.0 -0.1504833721
C  C144  1  0.10330000  0.42190000  0.57620000  1.0 -0.1414766757
C  C145  1  0.96610000  0.29870000  0.61890000  1.0 0.073208182
C  C146  1  0.89650000  0.28190000  0.75100000  1.0 -0.1028457133
C  C147  1  0.88100000  0.34220000  0.62500000  1.0 -0.1193844301
C  C148  1  0.93260000  0.33350000  0.58080000  1.0 -0.1504833721
C  C149  1  0.94800000  0.27350000  0.70380000  1.0 -0.1624972098
C  C150  1  0.15680000  0.48890000  0.54780000  1.0 -0.1504833721
C  C151  1  0.05990000  0.25620000  0.61690000  1.0 0.6522545593
C  C152  1  0.97570000  0.23290000  0.48850000  1.0 0.6522545593
C  C153  1  0.02030000  0.28760000  0.56240000  1.0 -0.2919773308
C  C154  1  0.49700000  0.31020000  0.29703000  1.0 -0.004494265
C  C155  1  0.56980000  0.32820000  0.26283000  1.0 0.4412502574
C  C156  1  0.43500000  0.26990000  0.24663000  1.0 -0.1028457133
C  C157  1  0.36100000  0.28150000  0.35733000  1.0 0.073208182
C  C158  1  0.31600000  0.45260000  0.54603000  1.0 -0.0061987116
C  C159  1  0.32110000  0.51630000  0.59503000  1.0 0.4840800661
C  C160  1  0.36810000  0.25610000  0.27483000  1.0 -0.1504833721
C  C161  1  0.42190000  0.31860000  0.40953000  1.0 -0.1414766757
C  C162  1  0.29870000  0.33260000  0.45223000  1.0 0.073208182
C  C163  1  0.28190000  0.38540000  0.58433000  1.0 -0.1028457133
C  C164  1  0.34220000  0.46120000  0.45833000  1.0 -0.1193844301
C  C165  1  0.33350000  0.40090000  0.41413000  1.0 -0.1504833721
C  C166  1  0.27350000  0.32550000  0.53713000  1.0 -0.1624972098
C  C167  1  0.48890000  0.33210000  0.38113000  1.0 -0.1504833721
C  C168  1  0.25620000  0.19630000  0.45023000  1.0 0.6522545593
C  C169  1  0.23290000  0.25720000  0.32183000  1.0 0.6522545593
C  C170  1  0.28760000  0.26730000  0.39573000  1.0 -0.2919773308
C  C171  1  0.68980000  0.18680000  0.63037000  1.0 -0.004494265
C  C172  1  0.67180000  0.24160000  0.59617000  1.0 0.4412502574
C  C173  1  0.73010000  0.16510000  0.57997000  1.0 -0.1028457133
C  C174  1  0.71850000  0.07950000  0.69067000  1.0 0.073208182
C  C175  1  0.54740000  0.86340000  0.87937000  1.0 -0.0061987116
C  C176  1  0.48370000  0.80480000  0.92837000  1.0 0.4840800661
C  C177  1  0.74390000  0.11200000  0.60817000  1.0 -0.1504833721
C  C178  1  0.68140000  0.10330000  0.74287000  1.0 -0.1414766757
C  C179  1  0.66740000  0.96610000  0.78557000  1.0 0.073208182
C  C180  1  0.61460000  0.89650000  0.91767000  1.0 -0.1028457133
C  C181  1  0.53880000  0.88100000  0.79167000  1.0 -0.1193844301
C  C182  1  0.59910000  0.93260000  0.74747000  1.0 -0.1504833721
C  C183  1  0.67450000  0.94800000  0.87047000  1.0 -0.1624972098
C  C184  1  0.66790000  0.15680000  0.71447000  1.0 -0.1504833721
C  C185  1  0.80370000  0.05990000  0.78357000  1.0 0.6522545593
C  C186  1  0.74280000  0.97570000  0.65517000  1.0 0.6522545593
C  C187  1  0.73270000  0.02030000  0.72907000  1.0 -0.2919773308
C  C188  1  0.81320000  0.50300000  0.96370000  1.0 -0.004494265
C  C189  1  0.75840000  0.43020000  0.92950000  1.0 0.4412502574
C  C190  1  0.83490000  0.56500000  0.91330000  1.0 -0.1028457133
C  C191  1  0.92050000  0.63900000  0.02400000  1.0 0.073208182
C  C192  1  0.13660000  0.68400000  0.21270000  1.0 -0.0061987116
C  C193  1  0.19520000  0.67890000  0.26170000  1.0 0.4840800661
C  C194  1  0.88800000  0.63190000  0.94150000  1.0 -0.1504833721
C  C195  1  0.89670000  0.57810000  0.07620000  1.0 -0.1414766757
C  C196  1  0.03390000  0.70130000  0.11890000  1.0 0.073208182
C  C197  1  0.10350000  0.71810000  0.25100000  1.0 -0.1028457133
C  C198  1  0.11900000  0.65780000  0.12500000  1.0 -0.1193844301
C  C199  1  0.06740000  0.66650000  0.08080000  1.0 -0.1504833721
C  C200  1  0.05200000  0.72650000  0.20380000  1.0 -0.1624972098
C  C201  1  0.84320000  0.51110000  0.04780000  1.0 -0.1504833721
C  C202  1  0.94010000  0.74380000  0.11690000  1.0 0.6522545593
C  C203  1  0.02430000  0.76710000  0.98850000  1.0 0.6522545593
C  C204  1  0.97970000  0.71240000  0.06240000  1.0 -0.2919773308
O  O1  1  0.74360000  0.36850000  0.18637000  1.0 -0.7023891432
O  O2  1  0.73290000  0.30810000  0.31217000  1.0 -0.5877528909
O  O3  1  0.23070000  0.57630000  0.94327000  1.0 -0.6040654155
O  O4  1  0.20460000  0.50430000  0.82547000  1.0 -0.5832931671
O  O5  1  0.62490000  0.25640000  0.85303000  1.0 -0.7023891432
O  O6  1  0.57520000  0.26710000  0.97883000  1.0 -0.5877528909
O  O7  1  0.34560000  0.76930000  0.60993000  1.0 -0.6040654155
O  O8  1  0.29970000  0.79540000  0.49213000  1.0 -0.5832931671
O  O9  1  0.63150000  0.37510000  0.51970000  1.0 -0.7023891432
O  O10  1  0.69190000  0.42480000  0.64550000  1.0 -0.5877528909
O  O11  1  0.42370000  0.65440000  0.27660000  1.0 -0.6040654155
O  O12  1  0.49570000  0.70030000  0.15880000  1.0 -0.5832931671
O  O13  1  0.25640000  0.63150000  0.68637000  1.0 -0.7023891432
O  O14  1  0.26710000  0.69190000  0.81217000  1.0 -0.5877528909
O  O15  1  0.76930000  0.42370000  0.44327000  1.0 -0.6040654155
O  O16  1  0.79540000  0.49570000  0.32547000  1.0 -0.5832931671
O  O17  1  0.37510000  0.74360000  0.35303000  1.0 -0.7023891432
O  O18  1  0.42480000  0.73290000  0.47883000  1.0 -0.5877528909
O  O19  1  0.65440000  0.23070000  0.10993000  1.0 -0.6040654155
O  O20  1  0.70030000  0.20460000  0.99213000  1.0 -0.5832931671
O  O21  1  0.36850000  0.62490000  0.01970000  1.0 -0.7023891432
O  O22  1  0.30810000  0.57520000  0.14550000  1.0 -0.5877528909
O  O23  1  0.57630000  0.34560000  0.77660000  1.0 -0.6040654155
O  O24  1  0.50430000  0.29970000  0.65880000  1.0 -0.5832931671
O  O25  1  0.37510000  0.63150000  0.81363000  1.0 -0.7023891432
O  O26  1  0.42480000  0.69190000  0.68783000  1.0 -0.5877528909
O  O27  1  0.65440000  0.42370000  0.05673000  1.0 -0.6040654155
O  O28  1  0.70030000  0.49570000  0.17453000  1.0 -0.5832931671
O  O29  1  0.36850000  0.74360000  0.14697000  1.0 -0.7023891432
O  O30  1  0.30810000  0.73290000  0.02117000  1.0 -0.5877528909
O  O31  1  0.57630000  0.23070000  0.39007000  1.0 -0.6040654155
O  O32  1  0.50430000  0.20460000  0.50787000  1.0 -0.5832931671
O  O33  1  0.25640000  0.62490000  0.48030000  1.0 -0.7023891432
O  O34  1  0.26710000  0.57520000  0.35450000  1.0 -0.5877528909
O  O35  1  0.76930000  0.34560000  0.72340000  1.0 -0.6040654155
O  O36  1  0.79540000  0.29970000  0.84120000  1.0 -0.5832931671
O  O37  1  0.62490000  0.36850000  0.31363000  1.0 -0.7023891432
O  O38  1  0.57520000  0.30810000  0.18783000  1.0 -0.5877528909
O  O39  1  0.34560000  0.57630000  0.55673000  1.0 -0.6040654155
O  O40  1  0.29970000  0.50430000  0.67453000  1.0 -0.5832931671
O  O41  1  0.63150000  0.25640000  0.64697000  1.0 -0.7023891432
O  O42  1  0.69190000  0.26710000  0.52117000  1.0 -0.5877528909
O  O43  1  0.42370000  0.76930000  0.89007000  1.0 -0.6040654155
O  O44  1  0.49570000  0.79540000  0.00787000  1.0 -0.5832931671
O  O45  1  0.74360000  0.37510000  0.98030000  1.0 -0.7023891432
O  O46  1  0.73290000  0.42480000  0.85450000  1.0 -0.5877528909
O  O47  1  0.23070000  0.65440000  0.22340000  1.0 -0.6040654155
O  O48  1  0.20460000  0.70030000  0.34120000  1.0 -0.5832931671
F  F1  1  0.90620000  0.20370000  0.98037000  1.0 -0.200838554
F  F2  1  0.04680000  0.30900000  0.23907000  1.0 -0.200838554
F  F3  1  0.98790000  0.19450000  0.22197000  1.0 -0.200838554
F  F4  1  0.08290000  0.25900000  0.14427000  1.0 -0.200838554
F  F5  1  0.88920000  0.14230000  0.09907000  1.0 -0.200838554
F  F6  1  0.98460000  0.17340000  0.02037000  1.0 -0.200838554
F  F7  1  0.29750000  0.09380000  0.64703000  1.0 -0.200838554
F  F8  1  0.26220000  0.95320000  0.90573000  1.0 -0.200838554
F  F9  1  0.20660000  0.01210000  0.88863000  1.0 -0.200838554
F  F10  1  0.17610000  0.91710000  0.81093000  1.0 -0.200838554
F  F11  1  0.25310000  0.11080000  0.76573000  1.0 -0.200838554
F  F12  1  0.18880000  0.01540000  0.68703000  1.0 -0.200838554
F  F13  1  0.79630000  0.70250000  0.31370000  1.0 -0.200838554
F  F14  1  0.69100000  0.73780000  0.57240000  1.0 -0.200838554
F  F15  1  0.80550000  0.79340000  0.55530000  1.0 -0.200838554
F  F16  1  0.74100000  0.82390000  0.47760000  1.0 -0.200838554
F  F17  1  0.85770000  0.74690000  0.43240000  1.0 -0.200838554
F  F18  1  0.82660000  0.81120000  0.35370000  1.0 -0.200838554
F  F19  1  0.09380000  0.79630000  0.48037000  1.0 -0.200838554
F  F20  1  0.95320000  0.69100000  0.73907000  1.0 -0.200838554
F  F21  1  0.01210000  0.80550000  0.72197000  1.0 -0.200838554
F  F22  1  0.91710000  0.74100000  0.64427000  1.0 -0.200838554
F  F23  1  0.11080000  0.85770000  0.59907000  1.0 -0.200838554
F  F24  1  0.01540000  0.82660000  0.52037000  1.0 -0.200838554
F  F25  1  0.70250000  0.90620000  0.14703000  1.0 -0.200838554
F  F26  1  0.73780000  0.04680000  0.40573000  1.0 -0.200838554
F  F27  1  0.79340000  0.98790000  0.38863000  1.0 -0.200838554
F  F28  1  0.82390000  0.08290000  0.31093000  1.0 -0.200838554
F  F29  1  0.74690000  0.88920000  0.26573000  1.0 -0.200838554
F  F30  1  0.81120000  0.98460000  0.18703000  1.0 -0.200838554
F  F31  1  0.20370000  0.29750000  0.81370000  1.0 -0.200838554
F  F32  1  0.30900000  0.26220000  0.07240000  1.0 -0.200838554
F  F33  1  0.19450000  0.20660000  0.05530000  1.0 -0.200838554
F  F34  1  0.25900000  0.17610000  0.97760000  1.0 -0.200838554
F  F35  1  0.14230000  0.25310000  0.93240000  1.0 -0.200838554
F  F36  1  0.17340000  0.18880000  0.85370000  1.0 -0.200838554
F  F37  1  0.70250000  0.79630000  0.01963000  1.0 -0.200838554
F  F38  1  0.73780000  0.69100000  0.76093000  1.0 -0.200838554
F  F39  1  0.79340000  0.80550000  0.77803000  1.0 -0.200838554
F  F40  1  0.82390000  0.74100000  0.85573000  1.0 -0.200838554
F  F41  1  0.74690000  0.85770000  0.90093000  1.0 -0.200838554
F  F42  1  0.81120000  0.82660000  0.97963000  1.0 -0.200838554
F  F43  1  0.20370000  0.90620000  0.35297000  1.0 -0.200838554
F  F44  1  0.30900000  0.04680000  0.09427000  1.0 -0.200838554
F  F45  1  0.19450000  0.98790000  0.11137000  1.0 -0.200838554
F  F46  1  0.25900000  0.08290000  0.18907000  1.0 -0.200838554
F  F47  1  0.14230000  0.88920000  0.23427000  1.0 -0.200838554
F  F48  1  0.17340000  0.98460000  0.31297000  1.0 -0.200838554
F  F49  1  0.09380000  0.29750000  0.68630000  1.0 -0.200838554
F  F50  1  0.95320000  0.26220000  0.42760000  1.0 -0.200838554
F  F51  1  0.01210000  0.20660000  0.44470000  1.0 -0.200838554
F  F52  1  0.91710000  0.17610000  0.52240000  1.0 -0.200838554
F  F53  1  0.11080000  0.25310000  0.56760000  1.0 -0.200838554
F  F54  1  0.01540000  0.18880000  0.64630000  1.0 -0.200838554
F  F55  1  0.29750000  0.20370000  0.51963000  1.0 -0.200838554
F  F56  1  0.26220000  0.30900000  0.26093000  1.0 -0.200838554
F  F57  1  0.20660000  0.19450000  0.27803000  1.0 -0.200838554
F  F58  1  0.17610000  0.25900000  0.35573000  1.0 -0.200838554
F  F59  1  0.25310000  0.14230000  0.40093000  1.0 -0.200838554
F  F60  1  0.18880000  0.17340000  0.47963000  1.0 -0.200838554
F  F61  1  0.79630000  0.09380000  0.85297000  1.0 -0.200838554
F  F62  1  0.69100000  0.95320000  0.59427000  1.0 -0.200838554
F  F63  1  0.80550000  0.01210000  0.61137000  1.0 -0.200838554
F  F64  1  0.74100000  0.91710000  0.68907000  1.0 -0.200838554
F  F65  1  0.85770000  0.11080000  0.73427000  1.0 -0.200838554
F  F66  1  0.82660000  0.01540000  0.81297000  1.0 -0.200838554
F  F67  1  0.90620000  0.70250000  0.18630000  1.0 -0.200838554
F  F68  1  0.04680000  0.73780000  0.92760000  1.0 -0.200838554
F  F69  1  0.98790000  0.79340000  0.94470000  1.0 -0.200838554
F  F70  1  0.08290000  0.82390000  0.02240000  1.0 -0.200838554
F  F71  1  0.88920000  0.74690000  0.06760000  1.0 -0.200838554
F  F72  1  0.98460000  0.81120000  0.14630000  1.0 -0.200838554
