# DDEC6 charges by PACMAN v1.1 (https://github.com/mtap-research/PACMAN-charge/)
data_XOCRUF_FSR_pacman
_chemical_formula_sum              "O48 F72 C204 H96 Mn6 Co12"
_cell_length_a       21.2528
_cell_length_b       21.2528
_cell_length_c       15.071
_cell_angle_alpha    90
_cell_angle_beta     90
_cell_angle_gamma    120

_symmetry_space_group_name_H-M    "P 1"
_symmetry_Int_Tables_number       1

loop_
  _symmetry_equiv_pos_as_xyz
  'x, y, z'

loop_
  _atom_site_type_symbol
  _atom_site_label
  _atom_site_symmetry_multiplicity
  _atom_site_fract_x
  _atom_site_fract_y
  _atom_site_fract_z
  _atom_site_occupancy
 _atom_site_charge
O   O1        1.0  0.73380  0.30880  0.81270  1.0000 -0.4232644065
F   F1        1.0  0.90660  0.20340  0.48110  1.0000 -0.2008568767
F   F2        1.0  0.88950  0.14110  0.60020  1.0000 -0.2008568767
F   F3        1.0  0.04610  0.30800  0.74160  1.0000 -0.2008568767
F   F4        1.0  0.98720  0.19250  0.72200  1.0000 -0.2008568767
C   C1        1.0  0.19610  0.51660  0.40530  1.0000 0.5655084402
F   F5        1.0  0.98600  0.17350  0.52180  1.0000 -0.2008568767
F   F6        1.0  0.08300  0.25710  0.64370  1.0000 -0.2008568767
C   C2        1.0  0.89480  0.31690  0.59070  1.0000 -0.1321822156
H   H1        1.0  0.91380  0.33100  0.53320  1.0000 0.1198737239
C   C3        1.0  0.10460  0.38640  0.41640  1.0000 -0.0914884594
H   H2        1.0  0.11730  0.38160  0.35810  1.0000 0.1316405039
C   C4        1.0  0.75780  0.32920  0.73740  1.0000 0.5470176936
C   C5        1.0  0.81160  0.31030  0.70190  1.0000 -0.0266465658
C   C6        1.0  0.06720  0.40050  0.58720  1.0000 -0.1412444945
H   H3        1.0  0.05380  0.40620  0.64490  1.0000 0.1198737239
C   C7        1.0  0.02370  0.25510  0.67950  1.0000 0.66092063
C   C8        1.0  0.97860  0.26540  0.60560  1.0000 -0.2851712752
C   C9        1.0  0.03520  0.33210  0.54930  1.0000 0.0829268335
C   C10       1.0  0.88690  0.25470  0.72620  1.0000 -0.1492475097
H   H4        1.0  0.90040  0.22740  0.76240  1.0000 0.1198737239
C   C11       1.0  0.93960  0.19480  0.55000  1.0000 0.66092063
C   C12       1.0  0.83440  0.27080  0.75410  1.0000 -0.0996175532
H   H5        1.0  0.81320  0.25460  0.81030  1.0000 0.1198737239
C   C13       1.0  0.11750  0.45930  0.54230  1.0000 -0.0996175532
H   H6        1.0  0.14000  0.50530  0.56930  1.0000 0.1198737239
C   C14       1.0  0.84360  0.33370  0.61880  1.0000 -0.0996175532
H   H7        1.0  0.83020  0.36090  0.58220  1.0000 0.1198737239
O   O2        1.0  0.74430  0.36810  0.68730  1.0000 -0.5219391037
O   O3        1.0  0.20190  0.50170  0.32550  1.0000 -0.5219391037
C   C15       1.0  0.05210  0.32440  0.46180  1.0000 -0.1596671392
H   H8        1.0  0.02880  0.27870  0.43400  1.0000 0.1131503385
C   C16       1.0  0.13650  0.45140  0.45410  1.0000 -0.0164629758
C   C17       1.0  0.91990  0.28020  0.64250  1.0000 0.0829268335
O   O4        1.0  0.22920  0.57430  0.44290  1.0000 -0.4994512895
O   O5        1.0  0.69120  0.42500  0.14603  1.0000 -0.4232644065
F   F7        1.0  0.79660  0.70320  0.81443  1.0000 -0.2008568767
F   F8        1.0  0.85890  0.74840  0.93353  1.0000 -0.2008568767
F   F9        1.0  0.69200  0.73810  0.07493  1.0000 -0.2008568767
F   F10       1.0  0.80750  0.79470  0.05533  1.0000 -0.2008568767
C   C18       1.0  0.48340  0.67950  0.73863  1.0000 0.5655084402
F   F11       1.0  0.82650  0.81250  0.85513  1.0000 -0.2008568767
F   F12       1.0  0.74290  0.82590  0.97703  1.0000 -0.2008568767
C   C19       1.0  0.68310  0.57790  0.92403  1.0000 -0.1321822156
H   H9        1.0  0.66900  0.58280  0.86653  1.0000 0.1198737239
C   C20       1.0  0.61360  0.71820  0.74973  1.0000 -0.0914884594
H   H10       1.0  0.61840  0.73570  0.69143  1.0000 0.1316405039
C   C21       1.0  0.67080  0.42860  0.07073  1.0000 0.5470176936
C   C22       1.0  0.68970  0.50130  0.03523  1.0000 -0.0266465658
C   C23       1.0  0.59950  0.66670  0.92053  1.0000 -0.1412444945
H   H11       1.0  0.59380  0.64760  0.97823  1.0000 0.1198737239
C   C24       1.0  0.74490  0.76860  0.01283  1.0000 0.66092063
C   C25       1.0  0.73460  0.71320  0.93893  1.0000 -0.2851712752
C   C26       1.0  0.66790  0.70310  0.88263  1.0000 0.0829268335
C   C27       1.0  0.74530  0.63220  0.05953  1.0000 -0.1492475097
H   H12       1.0  0.77260  0.67300  0.09573  1.0000 0.1198737239
C   C28       1.0  0.80520  0.74480  0.88333  1.0000 0.66092063
C   C29       1.0  0.72920  0.56360  0.08743  1.0000 -0.0996175532
H   H13       1.0  0.74540  0.55860  0.14363  1.0000 0.1198737239
C   C30       1.0  0.54070  0.65820  0.87563  1.0000 -0.0996175532
H   H14       1.0  0.49470  0.63470  0.90263  1.0000 0.1198737239
C   C31       1.0  0.66630  0.50990  0.95213  1.0000 -0.0996175532
H   H15       1.0  0.63910  0.46930  0.91553  1.0000 0.1198737239
O   O6        1.0  0.63190  0.37620  0.02063  1.0000 -0.5219391037
O   O7        1.0  0.49830  0.70020  0.65883  1.0000 -0.5219391037
C   C32       1.0  0.67560  0.72770  0.79513  1.0000 -0.1596671392
H   H16       1.0  0.72130  0.75010  0.76733  1.0000 0.1131503385
C   C33       1.0  0.54860  0.68510  0.78743  1.0000 -0.0164629758
C   C34       1.0  0.71980  0.63970  0.97583  1.0000 0.0829268335
O   O8        1.0  0.42570  0.65490  0.77623  1.0000 -0.4994512895
O   O9        1.0  0.57500  0.26620  0.47937  1.0000 -0.4232644065
F   F13       1.0  0.29680  0.09340  0.14777  1.0000 -0.2008568767
F   F14       1.0  0.25160  0.11050  0.26687  1.0000 -0.2008568767
F   F15       1.0  0.26190  0.95390  0.40827  1.0000 -0.2008568767
F   F16       1.0  0.20530  0.01280  0.38867  1.0000 -0.2008568767
C   C35       1.0  0.32050  0.80390  0.07197  1.0000 0.5655084402
F   F17       1.0  0.18750  0.01400  0.18847  1.0000 -0.205839013
F   F18       1.0  0.17410  0.91700  0.31037  1.0000 -0.2008568767
C   C36       1.0  0.42210  0.10520  0.25737  1.0000 -0.1321822156
H   H17       1.0  0.41720  0.08620  0.19987  1.0000 0.1198737239
C   C37       1.0  0.28180  0.89540  0.08307  1.0000 -0.0914884594
H   H18       1.0  0.26430  0.88270  0.02477  1.0000 0.1316405039
C   C38       1.0  0.57140  0.24220  0.40407  1.0000 0.5470176936
C   C39       1.0  0.49870  0.18840  0.36857  1.0000 -0.0266465658
C   C40       1.0  0.33330  0.93280  0.25387  1.0000 -0.1412444945
H   H19       1.0  0.35240  0.94620  0.31157  1.0000 0.1198737239
C   C41       1.0  0.23140  0.97630  0.34617  1.0000 0.66092063
C   C42       1.0  0.28680  0.02140  0.27227  1.0000 -0.2851712752
C   C43       1.0  0.29690  0.96480  0.21597  1.0000 0.0829268335
C   C44       1.0  0.36780  0.11310  0.39287  1.0000 -0.1492475097
H   H20       1.0  0.32700  0.09960  0.42907  1.0000 0.1198737239
C   C45       1.0  0.25520  0.06040  0.21667  1.0000 0.66092063
C   C46       1.0  0.43640  0.16560  0.42077  1.0000 -0.0996175532
H   H21       1.0  0.44140  0.18680  0.47697  1.0000 0.1198737239
C   C47       1.0  0.34180  0.88250  0.20897  1.0000 -0.0996175532
H   H22       1.0  0.36530  0.86000  0.23597  1.0000 0.1198737239
C   C48       1.0  0.49010  0.15640  0.28547  1.0000 -0.0996175532
H   H23       1.0  0.53070  0.16980  0.24887  1.0000 0.1198737239
O   O10       1.0  0.62380  0.25570  0.35397  1.0000 -0.5219391037
O   O11       1.0  0.29980  0.79810  0.99217  1.0000 -0.5219391037
C   C49       1.0  0.27230  0.94790  0.12847  1.0000 -0.1596671392
H   H24       1.0  0.24990  0.97120  0.10067  1.0000 0.1131503385
C   C50       1.0  0.31490  0.86350  0.12077  1.0000 -0.0164629758
C   C51       1.0  0.36030  0.08010  0.30917  1.0000 0.0829268335
O   O12       1.0  0.34510  0.77080  0.10957  1.0000 -0.4994512895
O   O13       1.0  0.26620  0.69120  0.31270  1.0000 -0.4232644065
F   F19       1.0  0.09340  0.79660  0.98110  1.0000 -0.2008568767
F   F20       1.0  0.11050  0.85890  0.10020  1.0000 -0.2008568767
F   F21       1.0  0.95390  0.69200  0.24160  1.0000 -0.2008568767
F   F22       1.0  0.01280  0.80750  0.22200  1.0000 -0.2008568767
C   C52       1.0  0.80390  0.48340  0.90530  1.0000 0.5655084402
F   F23       1.0  0.01400  0.82650  0.02180  1.0000 -0.2008568767
F   F24       1.0  0.91700  0.74290  0.14370  1.0000 -0.2008568767
C   C53       1.0  0.10520  0.68310  0.09070  1.0000 -0.1321822156
H   H25       1.0  0.08620  0.66900  0.03320  1.0000 0.1198737239
C   C54       1.0  0.89540  0.61360  0.91640  1.0000 -0.0914884594
H   H26       1.0  0.88270  0.61840  0.85810  1.0000 0.1316405039
C   C55       1.0  0.24220  0.67080  0.23740  1.0000 0.5470176936
C   C56       1.0  0.18840  0.68970  0.20190  1.0000 -0.0266465658
C   C57       1.0  0.93280  0.59950  0.08720  1.0000 -0.1412444945
H   H27       1.0  0.94620  0.59380  0.14490  1.0000 0.1198737239
C   C58       1.0  0.97630  0.74490  0.17950  1.0000 0.66092063
C   C59       1.0  0.02140  0.73460  0.10560  1.0000 -0.2851712752
C   C60       1.0  0.96480  0.66790  0.04930  1.0000 0.0829268335
C   C61       1.0  0.11310  0.74530  0.22620  1.0000 -0.1492475097
H   H28       1.0  0.09960  0.77260  0.26240  1.0000 0.1198737239
C   C62       1.0  0.06040  0.80520  0.05000  1.0000 0.66092063
C   C63       1.0  0.16560  0.72920  0.25410  1.0000 -0.0996175532
H   H29       1.0  0.18680  0.74540  0.31030  1.0000 0.1198737239
C   C64       1.0  0.88250  0.54070  0.04230  1.0000 -0.0996175532
H   H30       1.0  0.86000  0.49470  0.06930  1.0000 0.1198737239
C   C65       1.0  0.15640  0.66630  0.11880  1.0000 -0.0996175532
H   H31       1.0  0.16980  0.63910  0.08220  1.0000 0.1198737239
O   O14       1.0  0.25570  0.63190  0.18730  1.0000 -0.5219391037
O   O15       1.0  0.79810  0.49830  0.82550  1.0000 -0.5219391037
C   C66       1.0  0.94790  0.67560  0.96180  1.0000 -0.1596671392
H   H32       1.0  0.97120  0.72130  0.93400  1.0000 0.1131503385
C   C67       1.0  0.86350  0.54860  0.95410  1.0000 -0.0164629758
C   C68       1.0  0.08010  0.71980  0.14250  1.0000 0.0829268335
O   O16       1.0  0.77080  0.42570  0.94290  1.0000 -0.4994512895
O   O17       1.0  0.30880  0.57500  0.64603  1.0000 -0.4232644065
F   F25       1.0  0.20340  0.29680  0.31443  1.0000 -0.2008568767
F   F26       1.0  0.14110  0.25160  0.43353  1.0000 -0.2008568767
F   F27       1.0  0.30800  0.26190  0.57493  1.0000 -0.2008568767
F   F28       1.0  0.19250  0.20530  0.55533  1.0000 -0.2008568767
C   C69       1.0  0.51660  0.32050  0.23863  1.0000 0.5655084402
F   F29       1.0  0.17350  0.18750  0.35513  1.0000 -0.2008568767
F   F30       1.0  0.25710  0.17410  0.47703  1.0000 -0.2008568767
C   C70       1.0  0.31690  0.42210  0.42403  1.0000 -0.1321822156
H   H33       1.0  0.33100  0.41720  0.36653  1.0000 0.1198737239
C   C71       1.0  0.38640  0.28180  0.24973  1.0000 -0.0914884594
H   H34       1.0  0.38160  0.26430  0.19143  1.0000 0.1316405039
C   C72       1.0  0.32920  0.57140  0.57073  1.0000 0.5470176936
C   C73       1.0  0.31030  0.49870  0.53523  1.0000 -0.0266465658
C   C74       1.0  0.40050  0.33330  0.42053  1.0000 -0.1412444945
H   H35       1.0  0.40620  0.35240  0.47823  1.0000 0.1198737239
C   C75       1.0  0.25510  0.23140  0.51283  1.0000 0.66092063
C   C76       1.0  0.26540  0.28680  0.43893  1.0000 -0.2851712752
C   C77       1.0  0.33210  0.29690  0.38263  1.0000 0.0829268335
C   C78       1.0  0.25470  0.36780  0.55953  1.0000 -0.1492475097
H   H36       1.0  0.22740  0.32700  0.59573  1.0000 0.1198737239
C   C79       1.0  0.19480  0.25520  0.38333  1.0000 0.66092063
C   C80       1.0  0.27080  0.43640  0.58743  1.0000 -0.0996175532
H   H37       1.0  0.25460  0.44140  0.64363  1.0000 0.1198737239
C   C81       1.0  0.45930  0.34180  0.37563  1.0000 -0.0996175532
H   H38       1.0  0.50530  0.36530  0.40263  1.0000 0.1198737239
C   C82       1.0  0.33370  0.49010  0.45213  1.0000 -0.0996175532
H   H39       1.0  0.36090  0.53070  0.41553  1.0000 0.1198737239
O   O18       1.0  0.36810  0.62380  0.52063  1.0000 -0.5219391037
O   O19       1.0  0.50170  0.29980  0.15883  1.0000 -0.5219391037
C   C83       1.0  0.32440  0.27230  0.29513  1.0000 -0.1596671392
H   H40       1.0  0.27870  0.24990  0.26733  1.0000 0.1131503385
C   C84       1.0  0.45140  0.31490  0.28743  1.0000 -0.0164629758
C   C85       1.0  0.28020  0.36030  0.47583  1.0000 0.0829268335
O   O20       1.0  0.57430  0.34510  0.27623  1.0000 -0.4994512895
O   O21       1.0  0.42500  0.73380  0.97937  1.0000 -0.4232644065
F   F31       1.0  0.70320  0.90660  0.64777  1.0000 -0.2008568767
F   F32       1.0  0.74840  0.88950  0.76687  1.0000 -0.2008568767
F   F33       1.0  0.73810  0.04610  0.90827  1.0000 -0.2008568767
F   F34       1.0  0.79470  0.98720  0.88867  1.0000 -0.2008568767
C   C86       1.0  0.67950  0.19610  0.57197  1.0000 0.5655084402
F   F35       1.0  0.81250  0.98600  0.68847  1.0000 -0.2008568767
F   F36       1.0  0.82590  0.08300  0.81037  1.0000 -0.2008568767
C   C87       1.0  0.57790  0.89480  0.75737  1.0000 -0.1321822156
H   H41       1.0  0.58280  0.91380  0.69987  1.0000 0.1198737239
C   C88       1.0  0.71820  0.10460  0.58307  1.0000 -0.0914884594
H   H42       1.0  0.73570  0.11730  0.52477  1.0000 0.1316405039
C   C89       1.0  0.42860  0.75780  0.90407  1.0000 0.5470176936
C   C90       1.0  0.50130  0.81160  0.86857  1.0000 -0.0266465658
C   C91       1.0  0.66670  0.06720  0.75387  1.0000 -0.1412444945
H   H43       1.0  0.64760  0.05380  0.81157  1.0000 0.1198737239
C   C92       1.0  0.76860  0.02370  0.84617  1.0000 0.66092063
C   C93       1.0  0.71320  0.97860  0.77227  1.0000 -0.2851712752
C   C94       1.0  0.70310  0.03520  0.71597  1.0000 0.0829268335
C   C95       1.0  0.63220  0.88690  0.89287  1.0000 -0.1492475097
H   H44       1.0  0.67300  0.90040  0.92907  1.0000 0.1198737239
C   C96       1.0  0.74480  0.93960  0.71667  1.0000 0.66092063
C   C97       1.0  0.56360  0.83440  0.92077  1.0000 -0.0996175532
H   H45       1.0  0.55860  0.81320  0.97697  1.0000 0.1198737239
C   C98       1.0  0.65820  0.11750  0.70897  1.0000 -0.0996175532
H   H46       1.0  0.63470  0.14000  0.73597  1.0000 0.1198737239
C   C99       1.0  0.50990  0.84360  0.78547  1.0000 -0.0996175532
H   H47       1.0  0.46930  0.83020  0.74887  1.0000 0.1198737239
O   O22       1.0  0.37620  0.74430  0.85397  1.0000 -0.5219391037
O   O23       1.0  0.70020  0.20190  0.49217  1.0000 -0.5219391037
C   C100      1.0  0.72770  0.05210  0.62847  1.0000 -0.1596671392
H   H48       1.0  0.75010  0.02880  0.60067  1.0000 0.1131503385
C   C101      1.0  0.68510  0.13650  0.62077  1.0000 -0.0164629758
C   C102      1.0  0.63970  0.91990  0.80917  1.0000 0.0829268335
O   O24       1.0  0.65490  0.22920  0.60957  1.0000 -0.4994512895
O   O25       1.0  0.30880  0.73380  0.52063  1.0000 -0.4232644065
F   F37       1.0  0.20340  0.90660  0.85223  1.0000 -0.2008568767
F   F38       1.0  0.14110  0.88950  0.73313  1.0000 -0.2008568767
F   F39       1.0  0.30800  0.04610  0.59173  1.0000 -0.2008568767
F   F40       1.0  0.19250  0.98720  0.61133  1.0000 -0.2008568767
C   C103      1.0  0.51660  0.19610  0.92803  1.0000 0.5655084402
F   F41       1.0  0.17350  0.98600  0.81153  1.0000 -0.2008568767
F   F42       1.0  0.25710  0.08300  0.68963  1.0000 -0.2008568767
C   C104      1.0  0.31690  0.89480  0.74263  1.0000 -0.1321822156
H   H49       1.0  0.33100  0.91380  0.80013  1.0000 0.1198737239
C   C105      1.0  0.38640  0.10460  0.91693  1.0000 -0.0914884594
H   H50       1.0  0.38160  0.11730  0.97523  1.0000 0.1316405039
C   C106      1.0  0.32920  0.75780  0.59593  1.0000 0.5470176936
C   C107      1.0  0.31030  0.81160  0.63143  1.0000 -0.0266465658
C   C108      1.0  0.40050  0.06720  0.74613  1.0000 -0.1412444945
H   H51       1.0  0.40620  0.05380  0.68843  1.0000 0.1198737239
C   C109      1.0  0.25510  0.02370  0.65383  1.0000 0.66092063
C   C110      1.0  0.26540  0.97860  0.72773  1.0000 -0.2851712752
C   C111      1.0  0.33210  0.03520  0.78403  1.0000 0.0829268335
C   C112      1.0  0.25470  0.88690  0.60713  1.0000 -0.1492475097
H   H52       1.0  0.22740  0.90040  0.57093  1.0000 0.1198737239
C   C113      1.0  0.19480  0.93960  0.78333  1.0000 0.66092063
C   C114      1.0  0.27080  0.83440  0.57923  1.0000 -0.0996175532
H   H53       1.0  0.25460  0.81320  0.52303  1.0000 0.1198737239
C   C115      1.0  0.45930  0.11750  0.79103  1.0000 -0.0996175532
H   H54       1.0  0.50530  0.14000  0.76403  1.0000 0.1198737239
C   C116      1.0  0.33370  0.84360  0.71453  1.0000 -0.0996175532
H   H55       1.0  0.36090  0.83020  0.75113  1.0000 0.1198737239
O   O26       1.0  0.36810  0.74430  0.64603  1.0000 -0.5219391037
O   O27       1.0  0.50170  0.20190  0.00783  1.0000 -0.5219391037
C   C117      1.0  0.32440  0.05210  0.87153  1.0000 -0.1596671392
H   H56       1.0  0.27870  0.02880  0.89933  1.0000 0.1131503385
C   C118      1.0  0.45140  0.13650  0.87923  1.0000 -0.0164629758
C   C119      1.0  0.28020  0.91990  0.69083  1.0000 0.0829268335
O   O28       1.0  0.57430  0.22920  0.89043  1.0000 -0.4994512895
O   O29       1.0  0.42500  0.69120  0.18730  1.0000 -0.4232644065
F   F43       1.0  0.70320  0.79660  0.51890  1.0000 -0.2008568767
F   F44       1.0  0.74840  0.85890  0.39980  1.0000 -0.2008568767
F   F45       1.0  0.73810  0.69200  0.25840  1.0000 -0.2008568767
F   F46       1.0  0.79470  0.80750  0.27800  1.0000 -0.2008568767
C   C120      1.0  0.67950  0.48340  0.59470  1.0000 0.5655084402
F   F47       1.0  0.81250  0.82650  0.47820  1.0000 -0.2008568767
F   F48       1.0  0.82590  0.74290  0.35630  1.0000 -0.2008568767
C   C121      1.0  0.57790  0.68310  0.40930  1.0000 -0.1321822156
H   H57       1.0  0.58280  0.66900  0.46680  1.0000 0.1198737239
C   C122      1.0  0.71820  0.61360  0.58360  1.0000 -0.0914884594
H   H58       1.0  0.73570  0.61840  0.64190  1.0000 0.1316405039
C   C123      1.0  0.42860  0.67080  0.26260  1.0000 0.5470176936
C   C124      1.0  0.50130  0.68970  0.29810  1.0000 -0.0266465658
C   C125      1.0  0.66670  0.59950  0.41280  1.0000 -0.1412444945
H   H59       1.0  0.64760  0.59380  0.35510  1.0000 0.1198737239
C   C126      1.0  0.76860  0.74490  0.32050  1.0000 0.66092063
C   C127      1.0  0.71320  0.73460  0.39440  1.0000 -0.2851712752
C   C128      1.0  0.70310  0.66790  0.45070  1.0000 0.0829268335
C   C129      1.0  0.63220  0.74530  0.27380  1.0000 -0.1492475097
H   H60       1.0  0.67300  0.77260  0.23760  1.0000 0.1198737239
C   C130      1.0  0.74480  0.80520  0.45000  1.0000 0.66092063
C   C131      1.0  0.56360  0.72920  0.24590  1.0000 -0.0996175532
H   H61       1.0  0.55860  0.74540  0.18970  1.0000 0.1198737239
C   C132      1.0  0.65820  0.54070  0.45770  1.0000 -0.0996175532
H   H62       1.0  0.63470  0.49470  0.43070  1.0000 0.1198737239
C   C133      1.0  0.50990  0.66630  0.38120  1.0000 -0.0996175532
H   H63       1.0  0.46930  0.63910  0.41780  1.0000 0.1198737239
O   O30       1.0  0.37620  0.63190  0.31270  1.0000 -0.5219391037
O   O31       1.0  0.70020  0.49830  0.67450  1.0000 -0.5219391037
C   C134      1.0  0.72770  0.67560  0.53820  1.0000 -0.1596671392
H   H64       1.0  0.75010  0.72130  0.56600  1.0000 0.1131503385
C   C135      1.0  0.68510  0.54860  0.54590  1.0000 -0.0164629758
C   C136      1.0  0.63970  0.71980  0.35750  1.0000 0.0829268335
O   O32       1.0  0.65490  0.42570  0.55710  1.0000 -0.4994512895
O   O33       1.0  0.26620  0.57500  0.85397  1.0000 -0.4232644065
F   F49       1.0  0.09340  0.29680  0.18557  1.0000 -0.2008568767
F   F50       1.0  0.11050  0.25160  0.06647  1.0000 -0.2008568767
F   F51       1.0  0.95390  0.26190  0.92507  1.0000 -0.2008568767
F   F52       1.0  0.01280  0.20530  0.94467  1.0000 -0.2008568767
C   C137      1.0  0.80390  0.32050  0.26137  1.0000 0.5655084402
F   F53       1.0  0.01400  0.18750  0.14487  1.0000 -0.2008568767
F   F54       1.0  0.91700  0.17410  0.02297  1.0000 -0.2008568767
C   C138      1.0  0.10520  0.42210  0.07597  1.0000 -0.1321822156
H   H65       1.0  0.08620  0.41720  0.13347  1.0000 0.1198737239
C   C139      1.0  0.89540  0.28180  0.25027  1.0000 -0.0914884594
H   H66       1.0  0.88270  0.26430  0.30857  1.0000 0.1316405039
C   C140      1.0  0.24220  0.57140  0.92927  1.0000 0.5470176936
C   C141      1.0  0.18840  0.49870  0.96477  1.0000 -0.0266465658
C   C142      1.0  0.93280  0.33330  0.07947  1.0000 -0.1412444945
H   H67       1.0  0.94620  0.35240  0.02177  1.0000 0.1198737239
C   C143      1.0  0.97630  0.23140  0.98717  1.0000 0.66092063
C   C144      1.0  0.02140  0.28680  0.06107  1.0000 -0.2851712752
C   C145      1.0  0.96480  0.29690  0.11737  1.0000 0.0829268335
C   C146      1.0  0.11310  0.36780  0.94047  1.0000 -0.1492475097
H   H68       1.0  0.09960  0.32700  0.90427  1.0000 0.1198737239
C   C147      1.0  0.06040  0.25520  0.11667  1.0000 0.66092063
C   C148      1.0  0.16560  0.43640  0.91257  1.0000 -0.0996175532
H   H69       1.0  0.18680  0.44140  0.85637  1.0000 0.1198737239
C   C149      1.0  0.88250  0.34180  0.12437  1.0000 -0.0996175532
H   H70       1.0  0.86000  0.36530  0.09737  1.0000 0.1198737239
C   C150      1.0  0.15640  0.49010  0.04787  1.0000 -0.0996175532
H   H71       1.0  0.16980  0.53070  0.08447  1.0000 0.1198737239
O   O34       1.0  0.25570  0.62380  0.97937  1.0000 -0.5219391037
O   O35       1.0  0.79810  0.29980  0.34117  1.0000 -0.5219391037
C   C151      1.0  0.94790  0.27230  0.20487  1.0000 -0.1596671392
H   H72       1.0  0.97120  0.24990  0.23267  1.0000 0.1131503385
C   C152      1.0  0.86350  0.31490  0.21257  1.0000 -0.0164629758
C   C153      1.0  0.08010  0.36030  0.02417  1.0000 0.0829268335
O   O36       1.0  0.77080  0.34510  0.22377  1.0000 -0.4994512895
O   O37       1.0  0.69120  0.26620  0.02063  1.0000 -0.4232644065
F   F55       1.0  0.79660  0.09340  0.35223  1.0000 -0.2008568767
F   F56       1.0  0.85890  0.11050  0.23313  1.0000 -0.2008568767
F   F57       1.0  0.69200  0.95390  0.09173  1.0000 -0.2008568767
F   F58       1.0  0.80750  0.01280  0.11133  1.0000 -0.2008568767
C   C154      1.0  0.48340  0.80390  0.42803  1.0000 0.5655084402
F   F59       1.0  0.82650  0.01400  0.31153  1.0000 -0.2008568767
F   F60       1.0  0.74290  0.91700  0.18963  1.0000 -0.2008568767
C   C155      1.0  0.68310  0.10520  0.24263  1.0000 -0.1321822156
H   H73       1.0  0.66900  0.08620  0.30013  1.0000 0.1198737239
C   C156      1.0  0.61360  0.89540  0.41693  1.0000 -0.0914884594
H   H74       1.0  0.61840  0.88270  0.47523  1.0000 0.1316405039
C   C157      1.0  0.67080  0.24220  0.09593  1.0000 0.5470176936
C   C158      1.0  0.68970  0.18840  0.13143  1.0000 -0.0266465658
C   C159      1.0  0.59950  0.93280  0.24613  1.0000 -0.1412444945
H   H75       1.0  0.59380  0.94620  0.18843  1.0000 0.1198737239
C   C160      1.0  0.74490  0.97630  0.15383  1.0000 0.66092063
C   C161      1.0  0.73460  0.02140  0.22773  1.0000 -0.2851712752
C   C162      1.0  0.66790  0.96480  0.28403  1.0000 0.0829268335
C   C163      1.0  0.74530  0.11310  0.10713  1.0000 -0.1492475097
H   H76       1.0  0.77260  0.09960  0.07093  1.0000 0.1198737239
C   C164      1.0  0.80520  0.06040  0.28333  1.0000 0.66092063
C   C165      1.0  0.72920  0.16560  0.07923  1.0000 -0.0996175532
H   H77       1.0  0.74540  0.18680  0.02303  1.0000 0.1198737239
C   C166      1.0  0.54070  0.88250  0.29103  1.0000 -0.0996175532
H   H78       1.0  0.49470  0.86000  0.26403  1.0000 0.1198737239
C   C167      1.0  0.66630  0.15640  0.21453  1.0000 -0.0996175532
H   H79       1.0  0.63910  0.16980  0.25113  1.0000 0.1198737239
O   O38       1.0  0.63190  0.25570  0.14603  1.0000 -0.5219391037
O   O39       1.0  0.49830  0.79810  0.50783  1.0000 -0.5219391037
C   C168      1.0  0.67560  0.94790  0.37153  1.0000 -0.1596671392
H   H80       1.0  0.72130  0.97120  0.39933  1.0000 0.1131503385
C   C169      1.0  0.54860  0.86350  0.37923  1.0000 -0.0164629758
C   C170      1.0  0.71980  0.08010  0.19083  1.0000 0.0829268335
O   O40       1.0  0.42570  0.77080  0.39043  1.0000 -0.4994512895
O   O41       1.0  0.57500  0.30880  0.68730  1.0000 -0.4232644065
F   F61       1.0  0.29680  0.20340  0.01890  1.0000 -0.2008568767
F   F62       1.0  0.25160  0.14110  0.89980  1.0000 -0.2008568767
F   F63       1.0  0.26190  0.30800  0.75840  1.0000 -0.2008568767
F   F64       1.0  0.20530  0.19250  0.77800  1.0000 -0.2008568767
C   C171      1.0  0.32050  0.51660  0.09470  1.0000 0.5655084402
F   F65       1.0  0.18750  0.17350  0.97820  1.0000 -0.2008568767
F   F66       1.0  0.17410  0.25710  0.85630  1.0000 -0.2008568767
C   C172      1.0  0.42210  0.31690  0.90930  1.0000 -0.1321822156
H   H81       1.0  0.41720  0.33100  0.96680  1.0000 0.1198737239
C   C173      1.0  0.28180  0.38640  0.08360  1.0000 -0.0914884594
H   H82       1.0  0.26430  0.38160  0.14190  1.0000 0.1316405039
C   C174      1.0  0.57140  0.32920  0.76260  1.0000 0.5470176936
C   C175      1.0  0.49870  0.31030  0.79810  1.0000 -0.0266465658
C   C176      1.0  0.33330  0.40050  0.91280  1.0000 -0.1412444945
H   H83       1.0  0.35240  0.40620  0.85510  1.0000 0.1198737239
C   C177      1.0  0.23140  0.25510  0.82050  1.0000 0.66092063
C   C178      1.0  0.28680  0.26540  0.89440  1.0000 -0.2851712752
C   C179      1.0  0.29690  0.33210  0.95070  1.0000 0.0829268335
C   C180      1.0  0.36780  0.25470  0.77380  1.0000 -0.1492475097
H   H84       1.0  0.32700  0.22740  0.73760  1.0000 0.1198737239
C   C181      1.0  0.25520  0.19480  0.95000  1.0000 0.66092063
C   C182      1.0  0.43640  0.27080  0.74590  1.0000 -0.0996175532
H   H85       1.0  0.44140  0.25460  0.68970  1.0000 0.1198737239
C   C183      1.0  0.34180  0.45930  0.95770  1.0000 -0.0996175532
H   H86       1.0  0.36530  0.50530  0.93070  1.0000 0.1198737239
C   C184      1.0  0.49010  0.33370  0.88120  1.0000 -0.0996175532
H   H87       1.0  0.53070  0.36090  0.91780  1.0000 0.1198737239
O   O42       1.0  0.62380  0.36810  0.81270  1.0000 -0.5219391037
O   O43       1.0  0.29980  0.50170  0.17450  1.0000 -0.5219391037
C   C185      1.0  0.27230  0.32440  0.03820  1.0000 -0.1596671392
H   H88       1.0  0.24990  0.27870  0.06600  1.0000 0.1131503385
C   C186      1.0  0.31490  0.45140  0.04590  1.0000 -0.0164629758
C   C187      1.0  0.36030  0.28020  0.85750  1.0000 0.0829268335
O   O44       1.0  0.34510  0.57430  0.05710  1.0000 -0.4994512895
O   O45       1.0  0.73380  0.42500  0.35397  1.0000 -0.4232644065
F   F67       1.0  0.90660  0.70320  0.68557  1.0000 -0.2008568767
F   F68       1.0  0.88950  0.74840  0.56647  1.0000 -0.2008568767
F   F69       1.0  0.04610  0.73810  0.42507  1.0000 -0.2008568767
F   F70       1.0  0.98720  0.79470  0.44467  1.0000 -0.2008568767
C   C188      1.0  0.19610  0.67950  0.76137  1.0000 0.5655084402
F   F71       1.0  0.98600  0.81250  0.64487  1.0000 -0.2008568767
F   F72       1.0  0.08300  0.82590  0.52297  1.0000 -0.2008568767
C   C189      1.0  0.89480  0.57790  0.57597  1.0000 -0.1321822156
H   H89       1.0  0.91380  0.58280  0.63347  1.0000 0.1198737239
C   C190      1.0  0.10460  0.71820  0.75027  1.0000 -0.0914884594
H   H90       1.0  0.11730  0.73570  0.80857  1.0000 0.1316405039
C   C191      1.0  0.75780  0.42860  0.42927  1.0000 0.5470176936
C   C192      1.0  0.81160  0.50130  0.46477  1.0000 -0.0266465658
C   C193      1.0  0.06720  0.66670  0.57947  1.0000 -0.1412444945
H   H91       1.0  0.05380  0.64760  0.52177  1.0000 0.1198737239
C   C194      1.0  0.02370  0.76860  0.48717  1.0000 0.66092063
C   C195      1.0  0.97860  0.71320  0.56107  1.0000 -0.2851712752
C   C196      1.0  0.03520  0.70310  0.61737  1.0000 0.0829268335
C   C197      1.0  0.88690  0.63220  0.44047  1.0000 -0.1492475097
H   H92       1.0  0.90040  0.67300  0.40427  1.0000 0.1198737239
C   C198      1.0  0.93960  0.74480  0.61667  1.0000 0.66092063
C   C199      1.0  0.83440  0.56360  0.41257  1.0000 -0.0996175532
H   H93       1.0  0.81320  0.55860  0.35637  1.0000 0.1198737239
C   C200      1.0  0.11750  0.65820  0.62437  1.0000 -0.0996175532
H   H94       1.0  0.14000  0.63470  0.59737  1.0000 0.1198737239
C   C201      1.0  0.84360  0.50990  0.54787  1.0000 -0.0996175532
H   H95       1.0  0.83020  0.46930  0.58447  1.0000 0.1198737239
O   O46       1.0  0.74430  0.37620  0.47937  1.0000 -0.5219391037
O   O47       1.0  0.20190  0.70020  0.84117  1.0000 -0.5219391037
C   C202      1.0  0.05210  0.72770  0.70487  1.0000 -0.1596671392
H   H96       1.0  0.02880  0.75010  0.73267  1.0000 0.1131503385
C   C203      1.0  0.13650  0.68510  0.71257  1.0000 -0.0164629758
C   C204      1.0  0.91990  0.63970  0.52417  1.0000 0.0829268335
O   O48       1.0  0.22920  0.65490  0.72377  1.0000 -0.4994512895
Mn  Mn1       1.0  0.67495  0.32505  0.91667  1.0000 0.517189319
Co  Co1       1.0  0.70200  0.29800  0.91667  1.0000 0.418476835
Mn  Mn2       1.0  0.67495  0.34990  0.25000  1.0000 0.517189319
Co  Co2       1.0  0.70200  0.40400  0.25000  1.0000 0.418476835
Mn  Mn3       1.0  0.65010  0.32505  0.58333  1.0000 0.517189319
Co  Co3       1.0  0.59600  0.29800  0.58333  1.0000 0.418476835
Mn  Mn4       1.0  0.32505  0.67495  0.41667  1.0000 0.517189319
Co  Co4       1.0  0.29800  0.70200  0.41667  1.0000 0.418476835
Mn  Mn5       1.0  0.32505  0.65010  0.75000  1.0000 0.517189319
Co  Co5       1.0  0.29800  0.59600  0.75000  1.0000 0.418476835
Mn  Mn6       1.0  0.34990  0.67495  0.08333  1.0000 0.517189319
Co  Co6       1.0  0.40400  0.70200  0.08333  1.0000 0.418476835
Co  Co7       1.0  0.71690  0.43380  0.75000  1.0000 0.8820526253
Co  Co8       1.0  0.56620  0.28310  0.08333  1.0000 0.8820526253
Co  Co9       1.0  0.71690  0.28310  0.41667  1.0000 0.8820526253
Co  Co10      1.0  0.28310  0.56620  0.25000  1.0000 0.8820526253
Co  Co11      1.0  0.43380  0.71690  0.58333  1.0000 0.8820526253
Co  Co12      1.0  0.28310  0.71690  0.91667  1.0000 0.8820526253
  Zn  Zn1       1.0  0.71690  0.43380  0.75000  1.0000
  Zn  Zn2       1.0  0.56620  0.28310  0.08333  1.0000
  Zn  Zn3       1.0  0.71690  0.28310  0.41667  1.0000
  Zn  Zn4       1.0  0.28310  0.56620  0.25000  1.0000
  Zn  Zn5       1.0  0.43380  0.71690  0.58333  1.0000
  Zn  Zn6       1.0  0.28310  0.71690  0.91667  1.0000
