# DDEC6 charges by PACMAN v1.1 (https://github.com/mtap-research/PACMAN-charge/)
data_XOCSIU_ASR_pacman
_symmetry_space_group_name_H-M   'P 1'
_cell_length_a   21.25530000
_cell_length_b   21.25530000
_cell_length_c   15.06960000
_cell_angle_alpha   90.00000000
_cell_angle_beta   90.00000000
_cell_angle_gamma   120.00000000
_symmetry_Int_Tables_number   1
_chemical_formula_structural   MnZnCoH16C34(O2F3)4
_chemical_formula_sum   'Mn6 Zn6 Co6 H96 C204 O48 F72'
_cell_volume   5896.12706881
_cell_formula_units_Z   6
loop_
 _symmetry_equiv_pos_site_id
 _symmetry_equiv_pos_as_xyz
  1  'x, y, z'
loop_
 _atom_site_type_symbol
 _atom_site_label
 _atom_site_symmetry_multiplicity
 _atom_site_fract_x
 _atom_site_fract_y
 _atom_site_fract_z
 _atom_site_occupancy
 _atom_site_charge
Mn  Mn1  1  0.67488000  0.32512000  0.91667000  1.0 0.962773078
Mn  Mn2  1  0.65024000  0.32512000  0.58333000  1.0 0.962773078
Mn  Mn3  1  0.67488000  0.34976000  0.25000000  1.0 0.962773078
Mn  Mn4  1  0.32512000  0.67488000  0.41667000  1.0 0.962773078
Mn  Mn5  1  0.34976000  0.67488000  0.08333000  1.0 0.962773078
Mn  Mn6  1  0.32512000  0.65024000  0.75000000  1.0 0.962773078
Zn  Zn1  1  0.71840000  0.43680000  0.75000000  1.0 0.9755982203
Zn  Zn2  1  0.71840000  0.28160000  0.41667000  1.0 0.9755982203
Zn  Zn3  1  0.56320000  0.28160000  0.08333000  1.0 0.9755982203
Zn  Zn4  1  0.28160000  0.56320000  0.25000000  1.0 0.9755982203
Zn  Zn5  1  0.28160000  0.71840000  0.91667000  1.0 0.9755982203
Zn  Zn6  1  0.43680000  0.71840000  0.58333000  1.0 0.9755982203
Co  Co1  1  0.71610000  0.43220000  0.75000000  1.0 0.9755982203
Co  Co2  1  0.71610000  0.28390000  0.41667000  1.0 0.9755982203
Co  Co3  1  0.56780000  0.28390000  0.08333000  1.0 0.9755982203
Co  Co4  1  0.28390000  0.56780000  0.25000000  1.0 0.9755982203
Co  Co5  1  0.28390000  0.71610000  0.91667000  1.0 0.9749494129
Co  Co6  1  0.43220000  0.71610000  0.58333000  1.0 0.9755982203
H  H1  1  0.18841000  0.74890000  0.30907000  1.0 0.1272420742
H  H2  1  0.94711000  0.59460000  0.14367000  1.0 0.1124302049
H  H3  1  0.88621000  0.62130000  0.85587000  1.0 0.1272420742
H  H4  1  0.85641000  0.49430000  0.07037000  1.0 0.1272420742
H  H5  1  0.09971000  0.77300000  0.25937000  1.0 0.1124302049
H  H6  1  0.08491000  0.66880000  0.03217000  1.0 0.1163781294
H  H7  1  0.17131000  0.64240000  0.08217000  1.0 0.1124302049
H  H8  1  0.96951000  0.72110000  0.93587000  1.0 0.1124302049
H  H9  1  0.56049000  0.81159000  0.97573000  1.0 0.1272420742
H  H10  1  0.64749000  0.05289000  0.81033000  1.0 0.1124302049
H  H11  1  0.73509000  0.11379000  0.52253000  1.0 0.1272420742
H  H12  1  0.63789000  0.14359000  0.73703000  1.0 0.1272420742
H  H13  1  0.67329000  0.90029000  0.92603000  1.0 0.1124302049
H  H14  1  0.58389000  0.91509000  0.69883000  1.0 0.1163781294
H  H15  1  0.47109000  0.82869000  0.74883000  1.0 0.1124302049
H  H16  1  0.75159000  0.03049000  0.60253000  1.0 0.1124302049
H  H17  1  0.25110000  0.43951000  0.64240000  1.0 0.1272420742
H  H18  1  0.40540000  0.35251000  0.47700000  1.0 0.1124302049
H  H19  1  0.37870000  0.26491000  0.18920000  1.0 0.1272420742
H  H20  1  0.50570000  0.36211000  0.40370000  1.0 0.1272420742
H  H21  1  0.22700000  0.32671000  0.59270000  1.0 0.1124302049
H  H22  1  0.33120000  0.41611000  0.36550000  1.0 0.1163781294
H  H23  1  0.35760000  0.52891000  0.41550000  1.0 0.1124302049
H  H24  1  0.27890000  0.24841000  0.26920000  1.0 0.1124302049
H  H25  1  0.81159000  0.25110000  0.80907000  1.0 0.1272420742
H  H26  1  0.05289000  0.40540000  0.64367000  1.0 0.1124302049
H  H27  1  0.11379000  0.37870000  0.35587000  1.0 0.1272420742
H  H28  1  0.14359000  0.50570000  0.57037000  1.0 0.1272420742
H  H29  1  0.90029000  0.22700000  0.75937000  1.0 0.1124302049
H  H30  1  0.91509000  0.33120000  0.53217000  1.0 0.1163781294
H  H31  1  0.82869000  0.35760000  0.58217000  1.0 0.1124302049
H  H32  1  0.03049000  0.27890000  0.43587000  1.0 0.1124302049
H  H33  1  0.43951000  0.18841000  0.47573000  1.0 0.1272420742
H  H34  1  0.35251000  0.94711000  0.31033000  1.0 0.1124302049
H  H35  1  0.26491000  0.88621000  0.02253000  1.0 0.1272420742
H  H36  1  0.36211000  0.85641000  0.23703000  1.0 0.1272420742
H  H37  1  0.32671000  0.09971000  0.42603000  1.0 0.1124302049
H  H38  1  0.41611000  0.08491000  0.19883000  1.0 0.1163781294
H  H39  1  0.52891000  0.17131000  0.24883000  1.0 0.1124302049
H  H40  1  0.24841000  0.96951000  0.10253000  1.0 0.1124302049
H  H41  1  0.74890000  0.56049000  0.14240000  1.0 0.1272420742
H  H42  1  0.59460000  0.64749000  0.97700000  1.0 0.1124302049
H  H43  1  0.62130000  0.73509000  0.68920000  1.0 0.1272420742
H  H44  1  0.49430000  0.63789000  0.90370000  1.0 0.1272420742
H  H45  1  0.77300000  0.67329000  0.09270000  1.0 0.1124302049
H  H46  1  0.66880000  0.58389000  0.86550000  1.0 0.1163781294
H  H47  1  0.64240000  0.47109000  0.91550000  1.0 0.1124302049
H  H48  1  0.72110000  0.75159000  0.76920000  1.0 0.1124302049
H  H49  1  0.43951000  0.25110000  0.69093000  1.0 0.1272420742
H  H50  1  0.35251000  0.40540000  0.85633000  1.0 0.1124302049
H  H51  1  0.26491000  0.37870000  0.14413000  1.0 0.1272420742
H  H52  1  0.36211000  0.50570000  0.92963000  1.0 0.1272420742
H  H53  1  0.32671000  0.22700000  0.74063000  1.0 0.1124302049
H  H54  1  0.41611000  0.33120000  0.96783000  1.0 0.1163781294
H  H55  1  0.52891000  0.35760000  0.91783000  1.0 0.1124302049
H  H56  1  0.24841000  0.27890000  0.06413000  1.0 0.1124302049
H  H57  1  0.74890000  0.18841000  0.02427000  1.0 0.1272420742
H  H58  1  0.59460000  0.94711000  0.18967000  1.0 0.1124302049
H  H59  1  0.62130000  0.88621000  0.47747000  1.0 0.1272420742
H  H60  1  0.49430000  0.85641000  0.26297000  1.0 0.1272420742
H  H61  1  0.77300000  0.09971000  0.07397000  1.0 0.1124302049
H  H62  1  0.66880000  0.08491000  0.30117000  1.0 0.1163781294
H  H63  1  0.64240000  0.17131000  0.25117000  1.0 0.1124302049
H  H64  1  0.72110000  0.96951000  0.39747000  1.0 0.1124302049
H  H65  1  0.81159000  0.56049000  0.35760000  1.0 0.1272420742
H  H66  1  0.05289000  0.64749000  0.52300000  1.0 0.1124302049
H  H67  1  0.11379000  0.73509000  0.81080000  1.0 0.1272420742
H  H68  1  0.14359000  0.63789000  0.59630000  1.0 0.1272420742
H  H69  1  0.90029000  0.67329000  0.40730000  1.0 0.1124302049
H  H70  1  0.91509000  0.58389000  0.63450000  1.0 0.1163781294
H  H71  1  0.82869000  0.47109000  0.58450000  1.0 0.1124302049
H  H72  1  0.03049000  0.75159000  0.73080000  1.0 0.1124302049
H  H73  1  0.56049000  0.74890000  0.19093000  1.0 0.1272420742
H  H74  1  0.64749000  0.59460000  0.35633000  1.0 0.1124302049
H  H75  1  0.73509000  0.62130000  0.64413000  1.0 0.1272420742
H  H76  1  0.63789000  0.49430000  0.42963000  1.0 0.1272420742
H  H77  1  0.67329000  0.77300000  0.24063000  1.0 0.1124302049
H  H78  1  0.58389000  0.66880000  0.46783000  1.0 0.1163781294
H  H79  1  0.47109000  0.64240000  0.41783000  1.0 0.1124302049
H  H80  1  0.75159000  0.72110000  0.56413000  1.0 0.1124302049
H  H81  1  0.25110000  0.81159000  0.52427000  1.0 0.1272420742
H  H82  1  0.40540000  0.05289000  0.68967000  1.0 0.1124302049
H  H83  1  0.37870000  0.11379000  0.97747000  1.0 0.1272420742
H  H84  1  0.50570000  0.14359000  0.76297000  1.0 0.1272420742
H  H85  1  0.22700000  0.90029000  0.57397000  1.0 0.1124302049
H  H86  1  0.33120000  0.91509000  0.80117000  1.0 0.1163781294
H  H87  1  0.35760000  0.82869000  0.75117000  1.0 0.1124302049
H  H88  1  0.27890000  0.03049000  0.89747000  1.0 0.1124302049
H  H89  1  0.18841000  0.43951000  0.85760000  1.0 0.1272420742
H  H90  1  0.94711000  0.35251000  0.02300000  1.0 0.1124302049
H  H91  1  0.88621000  0.26491000  0.31080000  1.0 0.1272420742
H  H92  1  0.85641000  0.36211000  0.09630000  1.0 0.1272420742
H  H93  1  0.09971000  0.32671000  0.90730000  1.0 0.1124302049
H  H94  1  0.08491000  0.41611000  0.13450000  1.0 0.1163781294
H  H95  1  0.17131000  0.52891000  0.08450000  1.0 0.1124302049
H  H96  1  0.96951000  0.24841000  0.23080000  1.0 0.1124302049
C  C1  1  0.08071000  0.72110000  0.14327000  1.0 0.0772386835
C  C2  1  0.18781000  0.69010000  0.20167000  1.0 -0.0238894896
C  C3  1  0.24101000  0.67060000  0.23697000  1.0 0.5478473836
C  C4  1  0.16651000  0.73110000  0.25357000  1.0 -0.1009587783
C  C5  1  0.80491000  0.48380000  0.90487000  1.0 0.5408819053
C  C6  1  0.93301000  0.60010000  0.08637000  1.0 -0.1486067728
C  C7  1  0.89741000  0.61580000  0.91467000  1.0 -0.1009587783
C  C8  1  0.88061000  0.53990000  0.04217000  1.0 -0.1072446174
C  C9  1  0.11341000  0.74570000  0.22367000  1.0 -0.1486067728
C  C10  1  0.86411000  0.54790000  0.95517000  1.0 -0.0070770295
C  C11  1  0.10461000  0.68370000  0.08927000  1.0 -0.1403839906
C  C12  1  0.15671000  0.66840000  0.11907000  1.0 -0.1306946269
C  C13  1  0.94721000  0.67490000  0.96257000  1.0 -0.1486067728
C  C14  1  0.06051000  0.80450000  0.05137000  1.0 0.6514768832
C  C15  1  0.96561000  0.66870000  0.04847000  1.0 0.0772386835
C  C16  1  0.97601000  0.74440000  0.18007000  1.0 0.6514768832
C  C17  1  0.02091000  0.73410000  0.10547000  1.0 -0.2857817527
C  C18  1  0.64039000  0.91929000  0.80993000  1.0 0.0772386835
C  C19  1  0.50229000  0.81219000  0.86833000  1.0 -0.0238894896
C  C20  1  0.42959000  0.75899000  0.90363000  1.0 0.5478473836
C  C21  1  0.56459000  0.83349000  0.92023000  1.0 -0.1009587783
C  C22  1  0.67889000  0.19509000  0.57153000  1.0 0.5408819053
C  C23  1  0.66709000  0.06699000  0.75303000  1.0 -0.1403839906
C  C24  1  0.71839000  0.10259000  0.58133000  1.0 -0.1009587783
C  C25  1  0.65929000  0.11939000  0.70883000  1.0 -0.1072446174
C  C26  1  0.63229000  0.88659000  0.89033000  1.0 -0.1486067728
C  C27  1  0.68379000  0.13589000  0.62183000  1.0 -0.0070770295
C  C28  1  0.57909000  0.89539000  0.75593000  1.0 -0.1403839906
C  C29  1  0.51169000  0.84329000  0.78573000  1.0 -0.1306946269
C  C30  1  0.72769000  0.05279000  0.62923000  1.0 -0.1486067728
C  C31  1  0.74399000  0.93949000  0.71803000  1.0 0.6514768832
C  C32  1  0.70309000  0.03439000  0.71513000  1.0 0.0745096234
C  C33  1  0.76839000  0.02399000  0.84673000  1.0 0.6514768832
C  C34  1  0.71319000  0.97909000  0.77213000  1.0 -0.2857817527
C  C35  1  0.27890000  0.35961000  0.47660000  1.0 0.0772386835
C  C36  1  0.30990000  0.49771000  0.53500000  1.0 -0.0238894896
C  C37  1  0.32940000  0.57041000  0.57030000  1.0 0.5478473836
C  C38  1  0.26890000  0.43541000  0.58690000  1.0 -0.1009587783
C  C39  1  0.51620000  0.32111000  0.23820000  1.0 0.5408819053
C  C40  1  0.39990000  0.33291000  0.41970000  1.0 -0.1486067728
C  C41  1  0.38420000  0.28161000  0.24800000  1.0 -0.1009587783
C  C42  1  0.46010000  0.34071000  0.37550000  1.0 -0.1072446174
C  C43  1  0.25430000  0.36771000  0.55700000  1.0 -0.1486067728
C  C44  1  0.45210000  0.31621000  0.28850000  1.0 -0.0070770295
C  C45  1  0.31630000  0.42091000  0.42260000  1.0 -0.1403839906
C  C46  1  0.33160000  0.48831000  0.45240000  1.0 -0.1306946269
C  C47  1  0.32510000  0.27231000  0.29590000  1.0 -0.1486067728
C  C48  1  0.19550000  0.25601000  0.38470000  1.0 0.6514768832
C  C49  1  0.33130000  0.29691000  0.38180000  1.0 0.0745096234
C  C50  1  0.25560000  0.23161000  0.51340000  1.0 0.6514768832
C  C51  1  0.26590000  0.28681000  0.43880000  1.0 -0.2857817527
C  C52  1  0.91929000  0.27890000  0.64327000  1.0 0.0772386835
C  C53  1  0.81219000  0.30990000  0.70167000  1.0 -0.0238894896
C  C54  1  0.75899000  0.32940000  0.73697000  1.0 0.5478473836
C  C55  1  0.83349000  0.26890000  0.75357000  1.0 -0.1009587783
C  C56  1  0.19509000  0.51620000  0.40487000  1.0 0.5408819053
C  C57  1  0.06699000  0.39990000  0.58637000  1.0 -0.1486067728
C  C58  1  0.10259000  0.38420000  0.41467000  1.0 -0.1009587783
C  C59  1  0.11939000  0.46010000  0.54217000  1.0 -0.1072446174
C  C60  1  0.88659000  0.25430000  0.72367000  1.0 -0.1486067728
C  C61  1  0.13589000  0.45210000  0.45517000  1.0 -0.0070770295
C  C62  1  0.89539000  0.31630000  0.58927000  1.0 -0.1403839906
C  C63  1  0.84329000  0.33160000  0.61907000  1.0 -0.1306946269
C  C64  1  0.05279000  0.32510000  0.46257000  1.0 -0.1486067728
C  C65  1  0.93949000  0.19550000  0.55137000  1.0 0.6514768832
C  C66  1  0.03439000  0.33130000  0.54847000  1.0 0.0745096234
C  C67  1  0.02399000  0.25560000  0.68007000  1.0 0.6514768832
C  C68  1  0.97909000  0.26590000  0.60547000  1.0 -0.2857817527
C  C69  1  0.35961000  0.08071000  0.30993000  1.0 0.0772386835
C  C70  1  0.49771000  0.18781000  0.36833000  1.0 -0.0238894896
C  C71  1  0.57041000  0.24101000  0.40363000  1.0 0.5478473836
C  C72  1  0.43541000  0.16651000  0.42023000  1.0 -0.1009587783
C  C73  1  0.32111000  0.80491000  0.07153000  1.0 0.5408819053
C  C74  1  0.33291000  0.93301000  0.25303000  1.0 -0.1486067728
C  C75  1  0.28161000  0.89741000  0.08133000  1.0 -0.1009587783
C  C76  1  0.34071000  0.88061000  0.20883000  1.0 -0.1072446174
C  C77  1  0.36771000  0.11341000  0.39033000  1.0 -0.1486067728
C  C78  1  0.31621000  0.86411000  0.12183000  1.0 -0.0070770295
C  C79  1  0.42091000  0.10461000  0.25593000  1.0 -0.1403839906
C  C80  1  0.48831000  0.15671000  0.28573000  1.0 -0.1306946269
C  C81  1  0.27231000  0.94721000  0.12923000  1.0 -0.1486067728
C  C82  1  0.25601000  0.06051000  0.21803000  1.0 0.6514768832
C  C83  1  0.29691000  0.96561000  0.21513000  1.0 0.0772386835
C  C84  1  0.23161000  0.97601000  0.34673000  1.0 0.6514768832
C  C85  1  0.28681000  0.02091000  0.27213000  1.0 -0.2857817527
C  C86  1  0.72110000  0.64039000  0.97660000  1.0 0.0772386835
C  C87  1  0.69010000  0.50229000  0.03500000  1.0 -0.0238894896
C  C88  1  0.67060000  0.42959000  0.07030000  1.0 0.5478473836
C  C89  1  0.73110000  0.56459000  0.08690000  1.0 -0.1009587783
C  C90  1  0.48380000  0.67889000  0.73820000  1.0 0.5408819053
C  C91  1  0.60010000  0.66709000  0.91970000  1.0 -0.1486067728
C  C92  1  0.61580000  0.71839000  0.74800000  1.0 -0.1009587783
C  C93  1  0.53990000  0.65929000  0.87550000  1.0 -0.1072446174
C  C94  1  0.74570000  0.63229000  0.05700000  1.0 -0.1486067728
C  C95  1  0.54790000  0.68379000  0.78850000  1.0 -0.0070770295
C  C96  1  0.68370000  0.57909000  0.92260000  1.0 -0.1403839906
C  C97  1  0.66840000  0.51169000  0.95240000  1.0 -0.1306946269
C  C98  1  0.67490000  0.72769000  0.79590000  1.0 -0.1486067728
C  C99  1  0.80450000  0.74399000  0.88470000  1.0 0.6514768832
C  C100  1  0.66870000  0.70309000  0.88180000  1.0 0.0745096234
C  C101  1  0.74440000  0.76839000  0.01340000  1.0 0.6514768832
C  C102  1  0.73410000  0.71319000  0.93880000  1.0 -0.2857817527
C  C103  1  0.35961000  0.27890000  0.85673000  1.0 0.0772386835
C  C104  1  0.49771000  0.30990000  0.79833000  1.0 -0.0238894896
C  C105  1  0.57041000  0.32940000  0.76303000  1.0 0.5478473836
C  C106  1  0.43541000  0.26890000  0.74643000  1.0 -0.1009587783
C  C107  1  0.32111000  0.51620000  0.09513000  1.0 0.5408819053
C  C108  1  0.33291000  0.39990000  0.91363000  1.0 -0.1486067728
C  C109  1  0.28161000  0.38420000  0.08533000  1.0 -0.1009587783
C  C110  1  0.34071000  0.46010000  0.95783000  1.0 -0.1072446174
C  C111  1  0.36771000  0.25430000  0.77633000  1.0 -0.1486067728
C  C112  1  0.31621000  0.45210000  0.04483000  1.0 -0.0070770295
C  C113  1  0.42091000  0.31630000  0.91073000  1.0 -0.1403839906
C  C114  1  0.48831000  0.33160000  0.88093000  1.0 -0.1306946269
C  C115  1  0.27231000  0.32510000  0.03743000  1.0 -0.1486067728
C  C116  1  0.25601000  0.19550000  0.94863000  1.0 0.6514768832
C  C117  1  0.29691000  0.33130000  0.95153000  1.0 0.0745096234
C  C118  1  0.23161000  0.25560000  0.81993000  1.0 0.6514768832
C  C119  1  0.28681000  0.26590000  0.89453000  1.0 -0.2857817527
C  C120  1  0.72110000  0.08071000  0.19007000  1.0 0.0772386835
C  C121  1  0.69010000  0.18781000  0.13167000  1.0 -0.0238894896
C  C122  1  0.67060000  0.24101000  0.09637000  1.0 0.5478473836
C  C123  1  0.73110000  0.16651000  0.07977000  1.0 -0.1009587783
C  C124  1  0.48380000  0.80491000  0.42847000  1.0 0.5408819053
C  C125  1  0.60010000  0.93301000  0.24697000  1.0 -0.1486067728
C  C126  1  0.61580000  0.89741000  0.41867000  1.0 -0.1009587783
C  C127  1  0.53990000  0.88061000  0.29117000  1.0 -0.1072446174
C  C128  1  0.74570000  0.11341000  0.10967000  1.0 -0.1486067728
C  C129  1  0.54790000  0.86411000  0.37817000  1.0 -0.0070770295
C  C130  1  0.68370000  0.10461000  0.24407000  1.0 -0.1403839906
C  C131  1  0.66840000  0.15671000  0.21427000  1.0 -0.1306946269
C  C132  1  0.67490000  0.94721000  0.37077000  1.0 -0.1486067728
C  C133  1  0.80450000  0.06051000  0.28197000  1.0 0.6514768832
C  C134  1  0.66870000  0.96561000  0.28487000  1.0 0.0745096234
C  C135  1  0.74440000  0.97601000  0.15327000  1.0 0.6514768832
C  C136  1  0.73410000  0.02091000  0.22787000  1.0 -0.2857817527
C  C137  1  0.91929000  0.64039000  0.52340000  1.0 0.0772386835
C  C138  1  0.81219000  0.50229000  0.46500000  1.0 -0.0238894896
C  C139  1  0.75899000  0.42959000  0.42970000  1.0 0.5478473836
C  C140  1  0.83349000  0.56459000  0.41310000  1.0 -0.1009587783
C  C141  1  0.19509000  0.67889000  0.76180000  1.0 0.5408819053
C  C142  1  0.06699000  0.66709000  0.58030000  1.0 -0.1486067728
C  C143  1  0.10259000  0.71839000  0.75200000  1.0 -0.1009587783
C  C144  1  0.11939000  0.65929000  0.62450000  1.0 -0.1072446174
C  C145  1  0.88659000  0.63229000  0.44300000  1.0 -0.1486067728
C  C146  1  0.13589000  0.68379000  0.71150000  1.0 -0.0070770295
C  C147  1  0.89539000  0.57909000  0.57740000  1.0 -0.1403839906
C  C148  1  0.84329000  0.51169000  0.54760000  1.0 -0.1306946269
C  C149  1  0.05279000  0.72769000  0.70410000  1.0 -0.1486067728
C  C150  1  0.93949000  0.74399000  0.61530000  1.0 0.6514768832
C  C151  1  0.03439000  0.70309000  0.61820000  1.0 0.0745096234
C  C152  1  0.02399000  0.76839000  0.48660000  1.0 0.6514768832
C  C153  1  0.97909000  0.71319000  0.56120000  1.0 -0.2857817527
C  C154  1  0.64039000  0.72110000  0.35673000  1.0 0.0772386835
C  C155  1  0.50229000  0.69010000  0.29833000  1.0 -0.0238894896
C  C156  1  0.42959000  0.67060000  0.26303000  1.0 0.5478473836
C  C157  1  0.56459000  0.73110000  0.24643000  1.0 -0.1009587783
C  C158  1  0.67889000  0.48380000  0.59513000  1.0 0.5408819053
C  C159  1  0.66709000  0.60010000  0.41363000  1.0 -0.1486067728
C  C160  1  0.71839000  0.61580000  0.58533000  1.0 -0.1009587783
C  C161  1  0.65929000  0.53990000  0.45783000  1.0 -0.1072446174
C  C162  1  0.63229000  0.74570000  0.27633000  1.0 -0.1486067728
C  C163  1  0.68379000  0.54790000  0.54483000  1.0 -0.0070770295
C  C164  1  0.57909000  0.68370000  0.41073000  1.0 -0.1403839906
C  C165  1  0.51169000  0.66840000  0.38093000  1.0 -0.1306946269
C  C166  1  0.72769000  0.67490000  0.53743000  1.0 -0.1552234656
C  C167  1  0.74399000  0.80450000  0.44863000  1.0 0.6514768832
C  C168  1  0.70309000  0.66870000  0.45153000  1.0 0.0772386835
C  C169  1  0.76839000  0.74440000  0.31993000  1.0 0.6514768832
C  C170  1  0.71319000  0.73410000  0.39453000  1.0 -0.2857817527
C  C171  1  0.27890000  0.91929000  0.69007000  1.0 0.0772386835
C  C172  1  0.30990000  0.81219000  0.63167000  1.0 -0.0238894896
C  C173  1  0.32940000  0.75899000  0.59637000  1.0 0.5478473836
C  C174  1  0.26890000  0.83349000  0.57977000  1.0 -0.1009587783
C  C175  1  0.51620000  0.19509000  0.92847000  1.0 0.5408819053
C  C176  1  0.39990000  0.06699000  0.74697000  1.0 -0.1486067728
C  C177  1  0.38420000  0.10259000  0.91867000  1.0 -0.1009587783
C  C178  1  0.46010000  0.11939000  0.79117000  1.0 -0.1072446174
C  C179  1  0.25430000  0.88659000  0.60967000  1.0 -0.1486067728
C  C180  1  0.45210000  0.13589000  0.87817000  1.0 -0.0070770295
C  C181  1  0.31630000  0.89539000  0.74407000  1.0 -0.1403839906
C  C182  1  0.33160000  0.84329000  0.71427000  1.0 -0.1306946269
C  C183  1  0.32510000  0.05279000  0.87077000  1.0 -0.1486067728
C  C184  1  0.19550000  0.93949000  0.78197000  1.0 0.6514768832
C  C185  1  0.33130000  0.03439000  0.78487000  1.0 0.0745096234
C  C186  1  0.25560000  0.02399000  0.65327000  1.0 0.6514768832
C  C187  1  0.26590000  0.97909000  0.72787000  1.0 -0.2857817527
C  C188  1  0.08071000  0.35961000  0.02340000  1.0 0.0772386835
C  C189  1  0.18781000  0.49771000  0.96500000  1.0 -0.0238894896
C  C190  1  0.24101000  0.57041000  0.92970000  1.0 0.5478473836
C  C191  1  0.16651000  0.43541000  0.91310000  1.0 -0.1009587783
C  C192  1  0.80491000  0.32111000  0.26180000  1.0 0.5408819053
C  C193  1  0.93301000  0.33291000  0.08030000  1.0 -0.1486067728
C  C194  1  0.89741000  0.28161000  0.25200000  1.0 -0.1009587783
C  C195  1  0.88061000  0.34071000  0.12450000  1.0 -0.1072446174
C  C196  1  0.11341000  0.36771000  0.94300000  1.0 -0.1486067728
C  C197  1  0.86411000  0.31621000  0.21150000  1.0 -0.0070770295
C  C198  1  0.10461000  0.42091000  0.07740000  1.0 -0.1403839906
C  C199  1  0.15671000  0.48831000  0.04760000  1.0 -0.1306946269
C  C200  1  0.94721000  0.27231000  0.20410000  1.0 -0.1486067728
C  C201  1  0.06051000  0.25601000  0.11530000  1.0 0.6514768832
C  C202  1  0.96561000  0.29691000  0.11820000  1.0 0.0772386835
C  C203  1  0.97601000  0.23161000  0.98660000  1.0 0.6514768832
C  C204  1  0.02091000  0.28681000  0.06120000  1.0 -0.2857817527
O  O1  1  0.25581000  0.63020000  0.18717000  1.0 -0.6780891186
O  O2  1  0.76951000  0.42410000  0.94387000  1.0 -0.5444918937
O  O3  1  0.26741000  0.69160000  0.31327000  1.0 -0.5444918937
O  O4  1  0.79501000  0.49660000  0.82427000  1.0 -0.6517719494
O  O5  1  0.37439000  0.74419000  0.85383000  1.0 -0.6780891186
O  O6  1  0.65459000  0.23049000  0.61053000  1.0 -0.5444918937
O  O7  1  0.42419000  0.73259000  0.97993000  1.0 -0.5444918937
O  O8  1  0.70159000  0.20499000  0.49093000  1.0 -0.6517719494
O  O9  1  0.36980000  0.62561000  0.52050000  1.0 -0.6780891186
O  O10  1  0.57590000  0.34541000  0.27720000  1.0 -0.5444918937
O  O11  1  0.30840000  0.57581000  0.64660000  1.0 -0.5444918937
O  O12  1  0.50340000  0.29841000  0.15760000  1.0 -0.6517719494
O  O13  1  0.74419000  0.36980000  0.68717000  1.0 -0.6780891186
O  O14  1  0.23049000  0.57590000  0.44387000  1.0 -0.5444918937
O  O15  1  0.73259000  0.30840000  0.81327000  1.0 -0.5444918937
O  O16  1  0.20499000  0.50340000  0.32427000  1.0 -0.6517719494
O  O17  1  0.62561000  0.25581000  0.35383000  1.0 -0.6780891186
O  O18  1  0.34541000  0.76951000  0.11053000  1.0 -0.5444918937
O  O19  1  0.57581000  0.26741000  0.47993000  1.0 -0.5444918937
O  O20  1  0.29841000  0.79501000  0.99093000  1.0 -0.6517719494
O  O21  1  0.63020000  0.37439000  0.02050000  1.0 -0.6780891186
O  O22  1  0.42410000  0.65459000  0.77720000  1.0 -0.5450937218
O  O23  1  0.69160000  0.42419000  0.14660000  1.0 -0.5444918937
O  O24  1  0.49660000  0.70159000  0.65760000  1.0 -0.6517719494
O  O25  1  0.62561000  0.36980000  0.81283000  1.0 -0.6780891186
O  O26  1  0.34541000  0.57590000  0.05613000  1.0 -0.5450937218
O  O27  1  0.57581000  0.30840000  0.68673000  1.0 -0.5444918937
O  O28  1  0.29841000  0.50340000  0.17573000  1.0 -0.6517719494
O  O29  1  0.63020000  0.25581000  0.14617000  1.0 -0.6780891186
O  O30  1  0.42410000  0.76951000  0.38947000  1.0 -0.5444918937
O  O31  1  0.69160000  0.26741000  0.02007000  1.0 -0.5444918937
O  O32  1  0.49660000  0.79501000  0.50907000  1.0 -0.6517719494
O  O33  1  0.74419000  0.37439000  0.47950000  1.0 -0.6780891186
O  O34  1  0.23049000  0.65459000  0.72280000  1.0 -0.5444918937
O  O35  1  0.73259000  0.42419000  0.35340000  1.0 -0.5444918937
O  O36  1  0.20499000  0.70159000  0.84240000  1.0 -0.6517719494
O  O37  1  0.37439000  0.63020000  0.31283000  1.0 -0.6780891186
O  O38  1  0.65459000  0.42410000  0.55613000  1.0 -0.5444918937
O  O39  1  0.42419000  0.69160000  0.18673000  1.0 -0.5444918937
O  O40  1  0.70159000  0.49660000  0.67573000  1.0 -0.6517719494
O  O41  1  0.36980000  0.74419000  0.64617000  1.0 -0.6780891186
O  O42  1  0.57590000  0.23049000  0.88947000  1.0 -0.5444918937
O  O43  1  0.30840000  0.73259000  0.52007000  1.0 -0.5444918937
O  O44  1  0.50340000  0.20499000  0.00907000  1.0 -0.6517719494
O  O45  1  0.25581000  0.62561000  0.97950000  1.0 -0.6780891186
O  O46  1  0.76951000  0.34541000  0.22280000  1.0 -0.5450937218
O  O47  1  0.26741000  0.57581000  0.85340000  1.0 -0.5444918937
O  O48  1  0.79501000  0.29841000  0.34240000  1.0 -0.6517719494
F  F1  1  0.95341000  0.69240000  0.24037000  1.0 -0.1999256705
F  F2  1  0.09391000  0.79760000  0.98157000  1.0 -0.1938616886
F  F3  1  0.01291000  0.80760000  0.22147000  1.0 -0.1999256705
F  F4  1  0.91691000  0.74260000  0.14567000  1.0 -0.1999256705
F  F5  1  0.01561000  0.82760000  0.02137000  1.0 -0.1999256705
F  F6  1  0.11101000  0.85900000  0.09897000  1.0 -0.1938616886
F  F7  1  0.73899000  0.04659000  0.90703000  1.0 -0.1999256705
F  F8  1  0.70369000  0.90609000  0.64823000  1.0 -0.1938616886
F  F9  1  0.79469000  0.98709000  0.88813000  1.0 -0.1999256705
F  F10  1  0.82569000  0.08309000  0.81233000  1.0 -0.1999256705
F  F11  1  0.81199000  0.98439000  0.68803000  1.0 -0.1999256705
F  F12  1  0.74799000  0.88899000  0.76563000  1.0 -0.1938616886
F  F13  1  0.30760000  0.26101000  0.57370000  1.0 -0.1999256705
F  F14  1  0.20240000  0.29631000  0.31490000  1.0 -0.1938616886
F  F15  1  0.19240000  0.20531000  0.55480000  1.0 -0.1999256705
F  F16  1  0.25740000  0.17431000  0.47900000  1.0 -0.1999256705
F  F17  1  0.17240000  0.18801000  0.35470000  1.0 -0.1999256705
F  F18  1  0.14100000  0.25201000  0.43230000  1.0 -0.1938616886
F  F19  1  0.04659000  0.30760000  0.74037000  1.0 -0.1999256705
F  F20  1  0.90609000  0.20240000  0.48157000  1.0 -0.1938616886
F  F21  1  0.98709000  0.19240000  0.72147000  1.0 -0.1999256705
F  F22  1  0.08309000  0.25740000  0.64567000  1.0 -0.1999256705
F  F23  1  0.98439000  0.17240000  0.52137000  1.0 -0.1999256705
F  F24  1  0.88899000  0.14100000  0.59897000  1.0 -0.1938616886
F  F25  1  0.26101000  0.95341000  0.40703000  1.0 -0.1999256705
F  F26  1  0.29631000  0.09391000  0.14823000  1.0 -0.1938616886
F  F27  1  0.20531000  0.01291000  0.38813000  1.0 -0.1999256705
F  F28  1  0.17431000  0.91691000  0.31233000  1.0 -0.1999256705
F  F29  1  0.18801000  0.01561000  0.18803000  1.0 -0.1999256705
F  F30  1  0.25201000  0.11101000  0.26563000  1.0 -0.1938616886
F  F31  1  0.69240000  0.73899000  0.07370000  1.0 -0.1999256705
F  F32  1  0.79760000  0.70369000  0.81490000  1.0 -0.1938616886
F  F33  1  0.80760000  0.79469000  0.05480000  1.0 -0.1999256705
F  F34  1  0.74260000  0.82569000  0.97900000  1.0 -0.1999256705
F  F35  1  0.82760000  0.81199000  0.85470000  1.0 -0.1999256705
F  F36  1  0.85900000  0.74799000  0.93230000  1.0 -0.1938616886
F  F37  1  0.26101000  0.30760000  0.75963000  1.0 -0.1999256705
F  F38  1  0.29631000  0.20240000  0.01843000  1.0 -0.1938616886
F  F39  1  0.20531000  0.19240000  0.77853000  1.0 -0.1999256705
F  F40  1  0.17431000  0.25740000  0.85433000  1.0 -0.1999256705
F  F41  1  0.18801000  0.17240000  0.97863000  1.0 -0.1999256705
F  F42  1  0.25201000  0.14100000  0.90103000  1.0 -0.1938616886
F  F43  1  0.69240000  0.95341000  0.09297000  1.0 -0.1999256705
F  F44  1  0.79760000  0.09391000  0.35177000  1.0 -0.1938616886
F  F45  1  0.80760000  0.01291000  0.11187000  1.0 -0.1999256705
F  F46  1  0.74260000  0.91691000  0.18767000  1.0 -0.1999256705
F  F47  1  0.82760000  0.01561000  0.31197000  1.0 -0.1999256705
F  F48  1  0.85900000  0.11101000  0.23437000  1.0 -0.1938616886
F  F49  1  0.04659000  0.73899000  0.42630000  1.0 -0.1999256705
F  F50  1  0.90609000  0.70369000  0.68510000  1.0 -0.1938616886
F  F51  1  0.98709000  0.79469000  0.44520000  1.0 -0.1999256705
F  F52  1  0.08309000  0.82569000  0.52100000  1.0 -0.1999256705
F  F53  1  0.98439000  0.81199000  0.64530000  1.0 -0.1999256705
F  F54  1  0.88899000  0.74799000  0.56770000  1.0 -0.1938616886
F  F55  1  0.73899000  0.69240000  0.25963000  1.0 -0.1999256705
F  F56  1  0.70369000  0.79760000  0.51843000  1.0 -0.1938616886
F  F57  1  0.79469000  0.80760000  0.27853000  1.0 -0.1999256705
F  F58  1  0.82569000  0.74260000  0.35433000  1.0 -0.1999256705
F  F59  1  0.81199000  0.82760000  0.47863000  1.0 -0.1999256705
F  F60  1  0.74799000  0.85900000  0.40103000  1.0 -0.1938616886
F  F61  1  0.30760000  0.04659000  0.59297000  1.0 -0.1999256705
F  F62  1  0.20240000  0.90609000  0.85177000  1.0 -0.1938616886
F  F63  1  0.19240000  0.98709000  0.61187000  1.0 -0.1999256705
F  F64  1  0.25740000  0.08309000  0.68767000  1.0 -0.1999256705
F  F65  1  0.17240000  0.98439000  0.81197000  1.0 -0.1999256705
F  F66  1  0.14100000  0.88899000  0.73437000  1.0 -0.1938616886
F  F67  1  0.95341000  0.26101000  0.92630000  1.0 -0.1999256705
F  F68  1  0.09391000  0.29631000  0.18510000  1.0 -0.1938616886
F  F69  1  0.01291000  0.20531000  0.94520000  1.0 -0.1999256705
F  F70  1  0.91691000  0.17431000  0.02100000  1.0 -0.1999256705
F  F71  1  0.01561000  0.18801000  0.14530000  1.0 -0.1999256705
F  F72  1  0.11101000  0.25201000  0.06770000  1.0 -0.1938616886
