# DDEC6 charges by PACMAN v1.1 (https://github.com/mtap-research/PACMAN-charge/)
data_XOCWUJ_ASR_pacman
_symmetry_space_group_name_H-M   'P 1'
_cell_length_a   10.51050000
_cell_length_b   11.43900000
_cell_length_c   13.44430000
_cell_angle_alpha   68.99800000
_cell_angle_beta   78.80500000
_cell_angle_gamma   63.73200000
_symmetry_Int_Tables_number   1
_chemical_formula_structural   Tm2U3H6(C5O4)6
_chemical_formula_sum   'Tm2 U3 H6 C30 O24'
_cell_volume   1351.97153911
_cell_formula_units_Z   1
loop_
 _symmetry_equiv_pos_site_id
 _symmetry_equiv_pos_as_xyz
  1  'x, y, z'
loop_
 _atom_site_type_symbol
 _atom_site_label
 _atom_site_symmetry_multiplicity
 _atom_site_fract_x
 _atom_site_fract_y
 _atom_site_fract_z
 _atom_site_occupancy
 _atom_site_charge
Tm  Tm1  1  0.59821000  0.23153000  0.75042000  1.0 1.8650978978
Tm  Tm2  1  0.40179000  0.76847000  0.24958000  1.0 1.8642114576
U  U1  1  0.62220000  0.71335000  0.83679000  1.0 2.0625320848
U  U2  1  0.37780000  0.28665000  0.16321000  1.0 2.0625320848
U  U3  1  0.00000000  0.50000000  0.50000000  1.0 1.9674619611
H  H1  1  0.09860000  0.36160000  0.95530000  1.0 0.1070936149
H  H2  1  0.90140000  0.63840000  0.04470000  1.0 0.1070936149
H  H3  1  0.15750000  0.11140000  0.73370000  1.0 0.1070936149
H  H4  1  0.84250000  0.88860000  0.26630000  1.0 0.1070936149
H  H5  1  0.71220000  0.99870000  0.41950000  1.0 0.1070936149
H  H6  1  0.28780000  0.00130000  0.58050000  1.0 0.1070936149
C  C1  1  0.99480000  0.34350000  0.85360000  1.0 -0.089167501
C  C2  1  0.00520000  0.65650000  0.14640000  1.0 -0.089167501
C  C3  1  0.11200000  0.31410000  0.90800000  1.0 -0.1038807344
C  C4  1  0.88800000  0.68590000  0.09200000  1.0 -0.1038807344
C  C5  1  0.24850000  0.21610000  0.89410000  1.0 -0.1380266708
C  C6  1  0.75150000  0.78390000  0.10590000  1.0 -0.1380266708
C  C7  1  0.26500000  0.14550000  0.82310000  1.0 -0.0567962688
C  C8  1  0.73500000  0.85450000  0.17690000  1.0 -0.0567962688
C  C9  1  0.14620000  0.16620000  0.77460000  1.0 -0.1593951408
C  C10  1  0.85380000  0.83380000  0.22540000  1.0 -0.1593951408
C  C11  1  0.01280000  0.26650000  0.78620000  1.0 -0.089167501
C  C12  1  0.98720000  0.73350000  0.21380000  1.0 -0.089167501
C  C13  1  0.62560000  0.99900000  0.45210000  1.0 -0.1380266708
C  C14  1  0.37440000  0.00100000  0.54790000  1.0 -0.1380266708
C  C15  1  0.61660000  0.87740000  0.50450000  1.0 -0.0700916268
C  C16  1  0.38340000  0.12260000  0.49550000  1.0 -0.0700916268
C  C17  1  0.48990000  0.87420000  0.55540000  1.0 -0.0840804514
C  C18  1  0.51010000  0.12580000  0.44460000  1.0 -0.0840804514
C  C19  1  0.86400000  0.46260000  0.85720000  1.0 0.5251010831
C  C20  1  0.13600000  0.53740000  0.14280000  1.0 0.5249467667
C  C21  1  0.36280000  0.19500000  0.95550000  1.0 0.6222336169
C  C22  1  0.63720000  0.80500000  0.04450000  1.0 0.6222336169
C  C23  1  0.40700000  0.04300000  0.79540000  1.0 0.6111783262
C  C24  1  0.59300000  0.95700000  0.20460000  1.0 0.6111783262
C  C25  1  0.89450000  0.29180000  0.72590000  1.0 0.63547309
C  C26  1  0.10550000  0.70820000  0.27410000  1.0 0.63547309
C  C27  1  0.46810000  0.74610000  0.62010000  1.0 0.5941959497
C  C28  1  0.53190000  0.25390000  0.37990000  1.0 0.5941959497
C  C29  1  0.74530000  0.74700000  0.50770000  1.0 0.5387808259
C  C30  1  0.25470000  0.25300000  0.49230000  1.0 0.5387808259
O  O1  1  0.85160000  0.53610000  0.91480000  1.0 -0.6379538898
O  O2  1  0.14840000  0.46390000  0.08520000  1.0 -0.6379538898
O  O3  1  0.76050000  0.49620000  0.80120000  1.0 -0.6379538898
O  O4  1  0.23950000  0.50380000  0.19880000  1.0 -0.6379538898
O  O5  1  0.81200000  0.23510000  0.77120000  1.0 -0.7005140607
O  O6  1  0.18800000  0.76490000  0.22880000  1.0 -0.7005140607
O  O7  1  0.88610000  0.36240000  0.62680000  1.0 -0.6588540201
O  O8  1  0.11390000  0.63760000  0.37320000  1.0 -0.6588540201
O  O9  1  0.41750000  0.92100000  0.81850000  1.0 -0.6588540201
O  O10  1  0.58250000  0.07900000  0.18150000  1.0 -0.6588540201
O  O11  1  0.50300000  0.08010000  0.75420000  1.0 -0.7071037118
O  O12  1  0.49700000  0.91990000  0.24580000  1.0 -0.7071037118
O  O13  1  0.48460000  0.18000000  0.91520000  1.0 -0.7483375196
O  O14  1  0.51540000  0.82000000  0.08480000  1.0 -0.7483375196
O  O15  1  0.32900000  0.19490000  0.05170000  1.0 -0.6588540201
O  O16  1  0.67100000  0.80510000  0.94830000  1.0 -0.6588540201
O  O17  1  0.50180000  0.69400000  0.71720000  1.0 -0.6811129872
O  O18  1  0.49820000  0.30600000  0.28280000  1.0 -0.6811129872
O  O19  1  0.41220000  0.69940000  0.57960000  1.0 -0.5382122819
O  O20  1  0.58780000  0.30060000  0.42040000  1.0 -0.5382122819
O  O21  1  0.73500000  0.63480000  0.53490000  1.0 -0.580148441
O  O22  1  0.26500000  0.36520000  0.46510000  1.0 -0.580148441
O  O23  1  0.86570000  0.75050000  0.47970000  1.0 -0.6225529138
O  O24  1  0.13430000  0.24950000  0.52030000  1.0 -0.6225529138
