# DDEC6 charges by PACMAN v1.1 (https://github.com/mtap-research/PACMAN-charge/)
data_XOCWOD_ASR_pacman
_symmetry_space_group_name_H-M   'P 1'
_cell_length_a   10.51360000
_cell_length_b   11.46500000
_cell_length_c   13.41750000
_cell_angle_alpha   69.08400000
_cell_angle_beta   78.60700000
_cell_angle_gamma   63.54200000
_symmetry_Int_Tables_number   1
_chemical_formula_structural   Er2U3H6(C5O4)6
_chemical_formula_sum   'Er2 U3 H6 C30 O24'
_cell_volume   1351.08367160
_cell_formula_units_Z   1
loop_
 _symmetry_equiv_pos_site_id
 _symmetry_equiv_pos_as_xyz
  1  'x, y, z'
loop_
 _atom_site_type_symbol
 _atom_site_label
 _atom_site_symmetry_multiplicity
 _atom_site_fract_x
 _atom_site_fract_y
 _atom_site_fract_z
 _atom_site_occupancy
 _atom_site_charge
Er  Er1  1  0.59886000  0.23045000  0.75015000  1.0 1.8015573579
Er  Er2  1  0.40114000  0.76955000  0.24985000  1.0 1.8015573579
U  U1  1  0.62304000  0.71343000  0.83640000  1.0 2.0464800554
U  U2  1  0.37696000  0.28657000  0.16360000  1.0 2.0464800554
U  U3  1  0.00000000  0.50000000  0.50000000  1.0 1.9890292841
H  H1  1  0.09680000  0.35860000  0.95840000  1.0 0.1132900077
H  H2  1  0.90320000  0.64140000  0.04160000  1.0 0.1132900077
H  H3  1  0.15800000  0.11260000  0.73250000  1.0 0.103563163
H  H4  1  0.84200000  0.88740000  0.26750000  1.0 0.103563163
H  H5  1  0.71260000  0.99850000  0.41580000  1.0 0.103563163
H  H6  1  0.28740000  0.00150000  0.58420000  1.0 0.103563163
C  C1  1  0.99790000  0.34350000  0.85280000  1.0 -0.0623689494
C  C2  1  0.00210000  0.65650000  0.14720000  1.0 -0.0623689494
C  C3  1  0.11110000  0.31290000  0.90950000  1.0 -0.1184539315
C  C4  1  0.88890000  0.68710000  0.09050000  1.0 -0.1184539315
C  C5  1  0.24600000  0.21510000  0.89480000  1.0 -0.1121135098
C  C6  1  0.75400000  0.78490000  0.10520000  1.0 -0.1121135098
C  C7  1  0.26570000  0.14130000  0.82470000  1.0 -0.078373875
C  C8  1  0.73430000  0.85870000  0.17530000  1.0 -0.078373875
C  C9  1  0.14680000  0.16610000  0.77450000  1.0 -0.1501625669
C  C10  1  0.85320000  0.83390000  0.22550000  1.0 -0.1564376322
C  C11  1  0.01330000  0.26730000  0.78540000  1.0 -0.0909983306
C  C12  1  0.98670000  0.73270000  0.21460000  1.0 -0.0909983306
C  C13  1  0.62630000  0.99940000  0.45010000  1.0 -0.1449673218
C  C14  1  0.37370000  0.00060000  0.54990000  1.0 -0.1501625669
C  C15  1  0.61640000  0.87590000  0.50540000  1.0 -0.078373875
C  C16  1  0.38360000  0.12410000  0.49460000  1.0 -0.078373875
C  C17  1  0.48700000  0.87620000  0.55610000  1.0 -0.0909983306
C  C18  1  0.51300000  0.12380000  0.44390000  1.0 -0.0909983306
C  C19  1  0.86090000  0.46180000  0.85920000  1.0 0.5349992472
C  C20  1  0.13910000  0.53820000  0.14080000  1.0 0.5349992472
C  C21  1  0.36220000  0.19440000  0.95570000  1.0 0.6168904262
C  C22  1  0.63780000  0.80560000  0.04430000  1.0 0.6168904262
C  C23  1  0.40680000  0.04160000  0.79580000  1.0 0.6112268525
C  C24  1  0.59320000  0.95840000  0.20420000  1.0 0.6112268525
C  C25  1  0.89370000  0.29120000  0.72550000  1.0 0.6320903259
C  C26  1  0.10630000  0.70880000  0.27450000  1.0 0.6320903259
C  C27  1  0.46800000  0.74750000  0.62130000  1.0 0.5946774441
C  C28  1  0.53200000  0.25250000  0.37870000  1.0 0.5946774441
C  C29  1  0.74450000  0.74540000  0.50790000  1.0 0.536721732
C  C30  1  0.25550000  0.25460000  0.49210000  1.0 0.536721732
O  O1  1  0.84950000  0.53740000  0.91370000  1.0 -0.6352729839
O  O2  1  0.15050000  0.46260000  0.08630000  1.0 -0.6299397511
O  O3  1  0.76080000  0.49640000  0.80170000  1.0 -0.6299397511
O  O4  1  0.23920000  0.50360000  0.19830000  1.0 -0.6299397511
O  O5  1  0.81310000  0.23570000  0.77090000  1.0 -0.6590895794
O  O6  1  0.18690000  0.76430000  0.22910000  1.0 -0.6590895794
O  O7  1  0.88610000  0.36360000  0.62690000  1.0 -0.6590895794
O  O8  1  0.11390000  0.63640000  0.37310000  1.0 -0.6590895794
O  O9  1  0.41850000  0.92000000  0.81930000  1.0 -0.6540975017
O  O10  1  0.58150000  0.08000000  0.18070000  1.0 -0.6540975017
O  O11  1  0.50390000  0.07840000  0.75360000  1.0 -0.7040017885
O  O12  1  0.49610000  0.92160000  0.24640000  1.0 -0.7040017885
O  O13  1  0.48410000  0.17690000  0.91680000  1.0 -0.7187778992
O  O14  1  0.51590000  0.82310000  0.08320000  1.0 -0.7187778992
O  O15  1  0.32700000  0.19710000  0.05140000  1.0 -0.6590895794
O  O16  1  0.67300000  0.80290000  0.94860000  1.0 -0.6590895794
O  O17  1  0.50080000  0.69390000  0.71810000  1.0 -0.6737062377
O  O18  1  0.49920000  0.30610000  0.28190000  1.0 -0.6737062377
O  O19  1  0.40970000  0.70160000  0.58080000  1.0 -0.5491897208
O  O20  1  0.59030000  0.29840000  0.41920000  1.0 -0.5491897208
O  O21  1  0.73290000  0.63400000  0.53400000  1.0 -0.5875008148
O  O22  1  0.26710000  0.36600000  0.46600000  1.0 -0.5875008148
O  O23  1  0.86540000  0.74960000  0.47880000  1.0 -0.6299397511
O  O24  1  0.13460000  0.25040000  0.52120000  1.0 -0.6299397511
