# DDEC6 charges by PACMAN v1.1 (https://github.com/mtap-research/PACMAN-charge/)
data_XOCWIX_ASR_pacman
_symmetry_space_group_name_H-M   'P 1'
_cell_length_a   10.56260000
_cell_length_b   11.45590000
_cell_length_c   13.48390000
_cell_angle_alpha   69.11200000
_cell_angle_beta   78.88900000
_cell_angle_gamma   63.61400000
_symmetry_Int_Tables_number   1
_chemical_formula_structural   Ho2U3H6(C5O4)6
_chemical_formula_sum   'Ho2 U3 H6 C30 O24'
_cell_volume   1364.42312106
_cell_formula_units_Z   1
loop_
 _symmetry_equiv_pos_site_id
 _symmetry_equiv_pos_as_xyz
  1  'x, y, z'
loop_
 _atom_site_type_symbol
 _atom_site_label
 _atom_site_symmetry_multiplicity
 _atom_site_fract_x
 _atom_site_fract_y
 _atom_site_fract_z
 _atom_site_occupancy
 _atom_site_charge
Ho  Ho1  1  0.59942000  0.23148000  0.75050000  1.0 1.7928744647
Ho  Ho2  1  0.40058000  0.76852000  0.24950000  1.0 1.7928744647
U  U1  1  0.62316000  0.71341000  0.83667000  1.0 2.0582688543
U  U2  1  0.37684000  0.28659000  0.16333000  1.0 2.0582688543
U  U3  1  0.00000000  0.50000000  0.50000000  1.0 1.9782238695
H  H1  1  0.09870000  0.36320000  0.95530000  1.0 0.109052414
H  H2  1  0.90130000  0.63680000  0.04470000  1.0 0.109052414
H  H3  1  0.15710000  0.11150000  0.73410000  1.0 0.109052414
H  H4  1  0.84290000  0.88850000  0.26590000  1.0 0.109052414
H  H5  1  0.71380000  0.99980000  0.41690000  1.0 0.1005074027
H  H6  1  0.28620000  0.00020000  0.58310000  1.0 0.1005074027
C  C1  1  0.99770000  0.34570000  0.85000000  1.0 -0.0627361853
C  C2  1  0.00230000  0.65430000  0.15000000  1.0 -0.0627361853
C  C3  1  0.11300000  0.31650000  0.90720000  1.0 -0.1185601336
C  C4  1  0.88700000  0.68350000  0.09280000  1.0 -0.1185601336
C  C5  1  0.24830000  0.21870000  0.89270000  1.0 -0.1185601336
C  C6  1  0.75170000  0.78130000  0.10730000  1.0 -0.1185601336
C  C7  1  0.26690000  0.14400000  0.82260000  1.0 -0.0871977574
C  C8  1  0.73310000  0.85600000  0.17740000  1.0 -0.0871977574
C  C9  1  0.14700000  0.16620000  0.77460000  1.0 -0.1537325811
C  C10  1  0.85300000  0.83380000  0.22540000  1.0 -0.1537325811
C  C11  1  0.01460000  0.26740000  0.78620000  1.0 -0.0871977574
C  C12  1  0.98540000  0.73260000  0.21380000  1.0 -0.0871977574
C  C13  1  0.62810000  0.99960000  0.45010000  1.0 -0.1342854706
C  C14  1  0.37190000  0.00040000  0.54990000  1.0 -0.1370377523
C  C15  1  0.61800000  0.87430000  0.50570000  1.0 -0.1005033274
C  C16  1  0.38200000  0.12570000  0.49430000  1.0 -0.1005033274
C  C17  1  0.49100000  0.87370000  0.55610000  1.0 -0.0753624608
C  C18  1  0.50900000  0.12630000  0.44390000  1.0 -0.0753624608
C  C19  1  0.86180000  0.46560000  0.85410000  1.0 0.5297507736
C  C20  1  0.13820000  0.53440000  0.14590000  1.0 0.5297507736
C  C21  1  0.36340000  0.19570000  0.95540000  1.0 0.6158244106
C  C22  1  0.63660000  0.80430000  0.04460000  1.0 0.6158244106
C  C23  1  0.40740000  0.04240000  0.79780000  1.0 0.6112548206
C  C24  1  0.59260000  0.95760000  0.20220000  1.0 0.6112548206
C  C25  1  0.89430000  0.29210000  0.72490000  1.0 0.6375949475
C  C26  1  0.10570000  0.70790000  0.27510000  1.0 0.6375949475
C  C27  1  0.47170000  0.74420000  0.62200000  1.0 0.5973712894
C  C28  1  0.52830000  0.25580000  0.37800000  1.0 0.5973712894
C  C29  1  0.74430000  0.74730000  0.50790000  1.0 0.5370228979
C  C30  1  0.25570000  0.25270000  0.49210000  1.0 0.5370228979
O  O1  1  0.85090000  0.53870000  0.91190000  1.0 -0.6473013964
O  O2  1  0.14910000  0.46130000  0.08810000  1.0 -0.6473013964
O  O3  1  0.76220000  0.49580000  0.80100000  1.0 -0.5934770909
O  O4  1  0.23780000  0.50420000  0.19900000  1.0 -0.5934770909
O  O5  1  0.81450000  0.23540000  0.77090000  1.0 -0.6733924654
O  O6  1  0.18550000  0.76460000  0.22910000  1.0 -0.676456025
O  O7  1  0.88720000  0.36170000  0.62800000  1.0 -0.6473013964
O  O8  1  0.11280000  0.63830000  0.37200000  1.0 -0.6473013964
O  O9  1  0.41680000  0.92210000  0.81750000  1.0 -0.659132829
O  O10  1  0.58320000  0.07790000  0.18250000  1.0 -0.659132829
O  O11  1  0.50230000  0.08010000  0.75400000  1.0 -0.6995300707
O  O12  1  0.49770000  0.91990000  0.24600000  1.0 -0.6995300707
O  O13  1  0.48160000  0.18060000  0.91510000  1.0 -0.6995300707
O  O14  1  0.51840000  0.81940000  0.08490000  1.0 -0.6995300707
O  O15  1  0.32700000  0.19520000  0.05190000  1.0 -0.676456025
O  O16  1  0.67300000  0.80480000  0.94810000  1.0 -0.676456025
O  O17  1  0.50270000  0.69400000  0.71840000  1.0 -0.6733924654
O  O18  1  0.49730000  0.30600000  0.28160000  1.0 -0.6733924654
O  O19  1  0.41700000  0.69730000  0.58010000  1.0 -0.5606463161
O  O20  1  0.58300000  0.30270000  0.41990000  1.0 -0.5606463161
O  O21  1  0.73700000  0.63460000  0.53680000  1.0 -0.5736486819
O  O22  1  0.26300000  0.36540000  0.46320000  1.0 -0.5736486819
O  O23  1  0.86590000  0.75100000  0.47760000  1.0 -0.6428340879
O  O24  1  0.13410000  0.24900000  0.52240000  1.0 -0.6428340879
