# DDEC6 charges by PACMAN v1.1 (https://github.com/mtap-research/PACMAN-charge/)
data_XOHLEM_ASR_pacman
_symmetry_space_group_name_H-M   'P 1'
_cell_length_a   10.57870000
_cell_length_b   10.57870000
_cell_length_c   15.82800000
_cell_angle_alpha   90.00000000
_cell_angle_beta   90.00000000
_cell_angle_gamma   104.37600000
_symmetry_Int_Tables_number   1
_chemical_formula_structural   Zn4H6C18O13
_chemical_formula_sum   'Zn8 H12 C36 O26'
_cell_volume   1715.82987900
_cell_formula_units_Z   2
loop_
 _symmetry_equiv_pos_site_id
 _symmetry_equiv_pos_as_xyz
  1  'x, y, z'
loop_
 _atom_site_type_symbol
 _atom_site_label
 _atom_site_symmetry_multiplicity
 _atom_site_fract_x
 _atom_site_fract_y
 _atom_site_fract_z
 _atom_site_occupancy
 _atom_site_charge
Zn  Zn1  1  0.76248000  0.87114000  0.07621000  1.0 0.954178613
Zn  Zn2  1  0.23752000  0.12886000  0.57621000  1.0 0.954178613
Zn  Zn3  1  0.12886000  0.23752000  0.42379000  1.0 0.954178613
Zn  Zn4  1  0.87114000  0.76248000  0.92379000  1.0 0.954178613
Zn  Zn5  1  0.72129000  0.55793000  0.05664000  1.0 0.9782216664
Zn  Zn6  1  0.27871000  0.44207000  0.55664000  1.0 0.9782216664
Zn  Zn7  1  0.44207000  0.27871000  0.44336000  1.0 0.9782216664
Zn  Zn8  1  0.55793000  0.72129000  0.94336000  1.0 0.9782216664
H  H1  1  0.91950000  0.49430000  0.28800000  1.0 0.1347417649
H  H2  1  0.08050000  0.50570000  0.78800000  1.0 0.1357739683
H  H3  1  0.50570000  0.08050000  0.21200000  1.0 0.1347417649
H  H4  1  0.49430000  0.91950000  0.71200000  1.0 0.1357739683
H  H5  1  0.17010000  0.74610000  0.45060000  1.0 0.1357739683
H  H6  1  0.82990000  0.25390000  0.95060000  1.0 0.1357739683
H  H7  1  0.25390000  0.82990000  0.04940000  1.0 0.1357739683
H  H8  1  0.74610000  0.17010000  0.54940000  1.0 0.1357739683
H  H9  1  0.95380000  0.88540000  0.28370000  1.0 0.1243029724
H  H10  1  0.04620000  0.11460000  0.78370000  1.0 0.1243029724
H  H11  1  0.11460000  0.04620000  0.21630000  1.0 0.1243029724
H  H12  1  0.88540000  0.95380000  0.71630000  1.0 0.1243029724
C  C1  1  0.91090000  0.68450000  0.28030000  1.0 -0.0595300418
C  C2  1  0.08910000  0.31550000  0.78030000  1.0 -0.0595300418
C  C3  1  0.31550000  0.08910000  0.21970000  1.0 -0.0595300418
C  C4  1  0.68450000  0.91090000  0.71970000  1.0 -0.0595300418
C  C5  1  0.94930000  0.57770000  0.31020000  1.0 -0.088089032
C  C6  1  0.05070000  0.42230000  0.81020000  1.0 -0.088089032
C  C7  1  0.42230000  0.05070000  0.18980000  1.0 -0.088089032
C  C8  1  0.57770000  0.94930000  0.68980000  1.0 -0.088089032
C  C9  1  0.04750000  0.61070000  0.38480000  1.0 -0.0060681068
C  C10  1  0.95250000  0.38930000  0.88480000  1.0 -0.0047483166
C  C11  1  0.38930000  0.95250000  0.11520000  1.0 -0.0047483166
C  C12  1  0.61070000  0.04750000  0.61520000  1.0 -0.0060681068
C  C13  1  0.10330000  0.73250000  0.41080000  1.0 -0.088089032
C  C14  1  0.89670000  0.26750000  0.91080000  1.0 -0.0799461786
C  C15  1  0.26750000  0.89670000  0.08920000  1.0 -0.088089032
C  C16  1  0.73250000  0.10330000  0.58920000  1.0 -0.088089032
C  C17  1  0.06010000  0.84570000  0.37710000  1.0 -0.0336634029
C  C18  1  0.93990000  0.15430000  0.87710000  1.0 -0.0336634029
C  C19  1  0.15430000  0.93990000  0.12290000  1.0 -0.0336634029
C  C20  1  0.84570000  0.06010000  0.62290000  1.0 -0.0336634029
C  C21  1  0.97430000  0.81550000  0.31160000  1.0 -0.0799461786
C  C22  1  0.02570000  0.18450000  0.81160000  1.0 -0.0799461786
C  C23  1  0.18450000  0.02570000  0.18840000  1.0 -0.0799461786
C  C24  1  0.81550000  0.97430000  0.68840000  1.0 -0.0799461786
C  C25  1  0.82560000  0.67100000  0.20850000  1.0 0.5522852953
C  C26  1  0.17440000  0.32900000  0.70850000  1.0 0.5522852953
C  C27  1  0.32900000  0.17440000  0.29150000  1.0 0.5522852953
C  C28  1  0.67100000  0.82560000  0.79150000  1.0 0.5522852953
C  C29  1  0.09860000  0.49000000  0.41670000  1.0 0.6006889608
C  C30  1  0.90140000  0.51000000  0.91670000  1.0 0.6006889608
C  C31  1  0.51000000  0.90140000  0.08330000  1.0 0.6006889608
C  C32  1  0.49000000  0.09860000  0.58330000  1.0 0.6006889608
C  C33  1  0.10400000  0.97100000  0.42280000  1.0 0.5741189833
C  C34  1  0.89600000  0.02900000  0.92280000  1.0 0.5741189833
C  C35  1  0.02900000  0.89600000  0.07720000  1.0 0.5741189833
C  C36  1  0.97100000  0.10400000  0.57720000  1.0 0.5741189833
O  O1  1  0.75391000  0.74909000  0.19540000  1.0 -0.5287279222
O  O2  1  0.24609000  0.25091000  0.69540000  1.0 -0.5287279222
O  O3  1  0.25091000  0.24609000  0.30460000  1.0 -0.5287279222
O  O4  1  0.74909000  0.75391000  0.80460000  1.0 -0.5287279222
O  O5  1  0.82449000  0.56871000  0.15767000  1.0 -0.5721852068
O  O6  1  0.17551000  0.43129000  0.65767000  1.0 -0.5721852068
O  O7  1  0.43129000  0.17551000  0.34233000  1.0 -0.5721852068
O  O8  1  0.56871000  0.82449000  0.84233000  1.0 -0.5721852068
O  O9  1  0.06307000  0.38293000  0.38230000  1.0 -0.4740547124
O  O10  1  0.93693000  0.61707000  0.88230000  1.0 -0.4740547124
O  O11  1  0.61707000  0.93693000  0.11770000  1.0 -0.4740547124
O  O12  1  0.38293000  0.06307000  0.61770000  1.0 -0.4740547124
O  O13  1  0.17087000  0.52513000  0.48140000  1.0 -0.5576595251
O  O14  1  0.82913000  0.47487000  0.98140000  1.0 -0.5576595251
O  O15  1  0.47487000  0.82913000  0.01860000  1.0 -0.5576595251
O  O16  1  0.52513000  0.17087000  0.51860000  1.0 -0.5576595251
O  O17  1  0.04686000  0.05634000  0.39258000  1.0 -0.5398695354
O  O18  1  0.95314000  0.94366000  0.89258000  1.0 -0.5398695354
O  O19  1  0.94366000  0.95314000  0.10742000  1.0 -0.5398695354
O  O20  1  0.05634000  0.04686000  0.60742000  1.0 -0.5398695354
O  O21  1  0.19841000  0.98887000  0.47090000  1.0 -0.5184181814
O  O22  1  0.80159000  0.01113000  0.97090000  1.0 -0.5184181814
O  O23  1  0.01113000  0.80159000  0.02910000  1.0 -0.5184181814
O  O24  1  0.98887000  0.19841000  0.52910000  1.0 -0.5184181814
O  O25  1  0.71680000  0.71680000  0.00000000  1.0 -1.0224461142
O  O26  1  0.28320000  0.28320000  0.50000000  1.0 -1.0224461142
