# DDEC6 charges by PACMAN v1.1 (https://github.com/mtap-research/PACMAN-charge/)
data_XOLGEM_ASR_pacman
_symmetry_space_group_name_H-M   'P 1'
_cell_length_a   27.43900000
_cell_length_b   27.43900000
_cell_length_c   27.43900000
_cell_angle_alpha   37.62630000
_cell_angle_beta   37.62630000
_cell_angle_gamma   37.62630000
_symmetry_Int_Tables_number   1
_chemical_formula_structural   Li3Co8C48(N3O4)12
_chemical_formula_sum   'Li6 Co16 C96 N72 O96'
_cell_volume   6907.10738994
_cell_formula_units_Z   2
loop_
 _symmetry_equiv_pos_site_id
 _symmetry_equiv_pos_as_xyz
  1  'x, y, z'
loop_
 _atom_site_type_symbol
 _atom_site_label
 _atom_site_symmetry_multiplicity
 _atom_site_fract_x
 _atom_site_fract_y
 _atom_site_fract_z
 _atom_site_occupancy
 _atom_site_charge
Li  Li1  1  0.38215000  0.11785000  0.75000000  1.0 0.989233327
Li  Li2  1  0.11785000  0.75000000  0.38215000  1.0 0.989233327
Li  Li3  1  0.75000000  0.38215000  0.11785000  1.0 0.989233327
Li  Li4  1  0.61785000  0.88215000  0.25000000  1.0 0.989233327
Li  Li5  1  0.88215000  0.25000000  0.61785000  1.0 1.003280771
Li  Li6  1  0.25000000  0.61785000  0.88215000  1.0 1.003280771
Co  Co1  1  0.43120000  0.43120000  0.43120000  1.0 0.8502040626
Co  Co2  1  0.06880000  0.06880000  0.06880000  1.0 0.8502040626
Co  Co3  1  0.56880000  0.56880000  0.56880000  1.0 0.8502040626
Co  Co4  1  0.93120000  0.93120000  0.93120000  1.0 0.8502040626
Co  Co5  1  0.64505000  0.14921000  0.63726000  1.0 0.8502040626
Co  Co6  1  0.14921000  0.63726000  0.64505000  1.0 0.8502040626
Co  Co7  1  0.63726000  0.64505000  0.14921000  1.0 0.8559385808
Co  Co8  1  0.35079000  0.85495000  0.86274000  1.0 0.8559385808
Co  Co9  1  0.86274000  0.35079000  0.85495000  1.0 0.8559385808
Co  Co10  1  0.85495000  0.86274000  0.35079000  1.0 0.8559385808
Co  Co11  1  0.35495000  0.85079000  0.36274000  1.0 0.8559385808
Co  Co12  1  0.85079000  0.36274000  0.35495000  1.0 0.8559385808
Co  Co13  1  0.36274000  0.35495000  0.85079000  1.0 0.8502040626
Co  Co14  1  0.64921000  0.14505000  0.13726000  1.0 0.8559385808
Co  Co15  1  0.13726000  0.64921000  0.14505000  1.0 0.8559385808
Co  Co16  1  0.14505000  0.13726000  0.64921000  1.0 0.8502040626
C  C1  1  0.39481000  0.28171000  0.58531000  1.0 0.6165746273
C  C2  1  0.28171000  0.58531000  0.39481000  1.0 0.6165746273
C  C3  1  0.58531000  0.39481000  0.28171000  1.0 0.6138079213
C  C4  1  0.21829000  0.10519000  0.91469000  1.0 0.6138079213
C  C5  1  0.91469000  0.21829000  0.10519000  1.0 0.6165746273
C  C6  1  0.10519000  0.91469000  0.21829000  1.0 0.6138079213
C  C7  1  0.60519000  0.71829000  0.41469000  1.0 0.6138079213
C  C8  1  0.71829000  0.41469000  0.60519000  1.0 0.6165746273
C  C9  1  0.41469000  0.60519000  0.71829000  1.0 0.6165746273
C  C10  1  0.78171000  0.89481000  0.08531000  1.0 0.6165746273
C  C11  1  0.08531000  0.78171000  0.89481000  1.0 0.6165746273
C  C12  1  0.89481000  0.08531000  0.78171000  1.0 0.6165746273
C  C13  1  0.46592000  0.26682000  0.57802000  1.0 0.0367456736
C  C14  1  0.26682000  0.57802000  0.46592000  1.0 0.0367456736
C  C15  1  0.57802000  0.46592000  0.26682000  1.0 0.0367456736
C  C16  1  0.23318000  0.03408000  0.92198000  1.0 0.0367456736
C  C17  1  0.92198000  0.23318000  0.03408000  1.0 0.0367456736
C  C18  1  0.03408000  0.92198000  0.23318000  1.0 0.0367456736
C  C19  1  0.53408000  0.73318000  0.42198000  1.0 0.0367456736
C  C20  1  0.73318000  0.42198000  0.53408000  1.0 0.0290456517
C  C21  1  0.42198000  0.53408000  0.73318000  1.0 0.0367456736
C  C22  1  0.76682000  0.96592000  0.07802000  1.0 0.0367456736
C  C23  1  0.07802000  0.76682000  0.96592000  1.0 0.0367456736
C  C24  1  0.96592000  0.07802000  0.76682000  1.0 0.0367456736
C  C25  1  0.51297000  0.20367000  0.62547000  1.0 0.0224304406
C  C26  1  0.20367000  0.62547000  0.51297000  1.0 0.0224304406
C  C27  1  0.62547000  0.51297000  0.20367000  1.0 0.0224304406
C  C28  1  0.29633000  0.98703000  0.87453000  1.0 0.0224304406
C  C29  1  0.87453000  0.29633000  0.98703000  1.0 0.0224304406
C  C30  1  0.98703000  0.87453000  0.29633000  1.0 0.0224304406
C  C31  1  0.48703000  0.79633000  0.37453000  1.0 0.0224304406
C  C32  1  0.79633000  0.37453000  0.48703000  1.0 0.0224304406
C  C33  1  0.37453000  0.48703000  0.79633000  1.0 0.0224304406
C  C34  1  0.70367000  0.01297000  0.12547000  1.0 0.0224304406
C  C35  1  0.12547000  0.70367000  0.01297000  1.0 0.0224304406
C  C36  1  0.01297000  0.12547000  0.70367000  1.0 0.0224304406
C  C37  1  0.51998000  0.11678000  0.70778000  1.0 0.6138079213
C  C38  1  0.11678000  0.70778000  0.51998000  1.0 0.6138079213
C  C39  1  0.70778000  0.51998000  0.11678000  1.0 0.6138079213
C  C40  1  0.38322000  0.98002000  0.79222000  1.0 0.6138079213
C  C41  1  0.79222000  0.38322000  0.98002000  1.0 0.6138079213
C  C42  1  0.98002000  0.79222000  0.38322000  1.0 0.6138079213
C  C43  1  0.48002000  0.88322000  0.29222000  1.0 0.6138079213
C  C44  1  0.88322000  0.29222000  0.48002000  1.0 0.6138079213
C  C45  1  0.29222000  0.48002000  0.88322000  1.0 0.6138079213
C  C46  1  0.61678000  0.01998000  0.20778000  1.0 0.6138079213
C  C47  1  0.20778000  0.61678000  0.01998000  1.0 0.6138079213
C  C48  1  0.01998000  0.20778000  0.61678000  1.0 0.6138079213
C  C49  1  0.67555000  0.07485000  0.76595000  1.0 0.5702206992
C  C50  1  0.07485000  0.76595000  0.67555000  1.0 0.5702206992
C  C51  1  0.76595000  0.67555000  0.07485000  1.0 0.5702206992
C  C52  1  0.42515000  0.82445000  0.73405000  1.0 0.5702206992
C  C53  1  0.73405000  0.42515000  0.82445000  1.0 0.5702206992
C  C54  1  0.82445000  0.73405000  0.42515000  1.0 0.5702206992
C  C55  1  0.32445000  0.92515000  0.23405000  1.0 0.5702206992
C  C56  1  0.92515000  0.23405000  0.32445000  1.0 0.5702206992
C  C57  1  0.23405000  0.32445000  0.92515000  1.0 0.5702206992
C  C58  1  0.57485000  0.17555000  0.26595000  1.0 0.5702206992
C  C59  1  0.26595000  0.57485000  0.17555000  1.0 0.5702206992
C  C60  1  0.17555000  0.26595000  0.57485000  1.0 0.5702206992
C  C61  1  0.58856000  0.15786000  0.77386000  1.0 0.0290456517
C  C62  1  0.15786000  0.77386000  0.58856000  1.0 0.0290456517
C  C63  1  0.77386000  0.58856000  0.15786000  1.0 0.0290456517
C  C64  1  0.34214000  0.91144000  0.72614000  1.0 0.0290456517
C  C65  1  0.72614000  0.34214000  0.91144000  1.0 0.0290456517
C  C66  1  0.91144000  0.72614000  0.34214000  1.0 0.0290456517
C  C67  1  0.41144000  0.84214000  0.22614000  1.0 0.0290456517
C  C68  1  0.84214000  0.22614000  0.41144000  1.0 0.0290456517
C  C69  1  0.22614000  0.41144000  0.84214000  1.0 0.0290456517
C  C70  1  0.65786000  0.08856000  0.27386000  1.0 0.0290456517
C  C71  1  0.27386000  0.65786000  0.08856000  1.0 0.0290456517
C  C72  1  0.08856000  0.27386000  0.65786000  1.0 0.0290456517
C  C73  1  0.52476000  0.20526000  0.82056000  1.0 0.0290456517
C  C74  1  0.20526000  0.82056000  0.52476000  1.0 0.0290456517
C  C75  1  0.82056000  0.52476000  0.20526000  1.0 0.0290456517
C  C76  1  0.29474000  0.97524000  0.67944000  1.0 0.0290456517
C  C77  1  0.67944000  0.29474000  0.97524000  1.0 0.0290456517
C  C78  1  0.97524000  0.67944000  0.29474000  1.0 0.0290456517
C  C79  1  0.47524000  0.79474000  0.17944000  1.0 0.0290456517
C  C80  1  0.79474000  0.17944000  0.47524000  1.0 0.0290456517
C  C81  1  0.17944000  0.47524000  0.79474000  1.0 0.0290456517
C  C82  1  0.70526000  0.02476000  0.32056000  1.0 0.0290456517
C  C83  1  0.32056000  0.70526000  0.02476000  1.0 0.0290456517
C  C84  1  0.02476000  0.32056000  0.70526000  1.0 0.0290456517
C  C85  1  0.50653000  0.19643000  0.89493000  1.0 0.5702206992
C  C86  1  0.19643000  0.89493000  0.50653000  1.0 0.5702206992
C  C87  1  0.89493000  0.50653000  0.19643000  1.0 0.5702206992
C  C88  1  0.30357000  0.99347000  0.60507000  1.0 0.5763141038
C  C89  1  0.60507000  0.30357000  0.99347000  1.0 0.5702206992
C  C90  1  0.99347000  0.60507000  0.30357000  1.0 0.5763141038
C  C91  1  0.49347000  0.80357000  0.10507000  1.0 0.5702206992
C  C92  1  0.80357000  0.10507000  0.49347000  1.0 0.5702206992
C  C93  1  0.10507000  0.49347000  0.80357000  1.0 0.5702206992
C  C94  1  0.69643000  0.00653000  0.39493000  1.0 0.5702206992
C  C95  1  0.39493000  0.69643000  0.00653000  1.0 0.5702206992
C  C96  1  0.00653000  0.39493000  0.69643000  1.0 0.5702206992
N  N1  1  0.49619000  0.32799000  0.50749000  1.0 -0.1723702273
N  N2  1  0.32799000  0.50749000  0.49619000  1.0 -0.1723702273
N  N3  1  0.50749000  0.49619000  0.32799000  1.0 -0.1723702273
N  N4  1  0.17201000  0.00381000  0.99251000  1.0 -0.1723702273
N  N5  1  0.99251000  0.17201000  0.00381000  1.0 -0.1723702273
N  N6  1  0.00381000  0.99251000  0.17201000  1.0 -0.1723702273
N  N7  1  0.50381000  0.67201000  0.49251000  1.0 -0.1723702273
N  N8  1  0.67201000  0.49251000  0.50381000  1.0 -0.1723702273
N  N9  1  0.49251000  0.50381000  0.67201000  1.0 -0.1723702273
N  N10  1  0.82799000  0.99619000  0.00749000  1.0 -0.1723702273
N  N11  1  0.00749000  0.82799000  0.99619000  1.0 -0.1723702273
N  N12  1  0.99619000  0.00749000  0.82799000  1.0 -0.1723702273
N  N13  1  0.55999000  0.30729000  0.50639000  1.0 -0.0085918652
N  N14  1  0.30729000  0.50639000  0.55999000  1.0 -0.0085918652
N  N15  1  0.50639000  0.55999000  0.30729000  1.0 -0.0085918652
N  N16  1  0.19271000  0.94001000  0.99361000  1.0 -0.0085918652
N  N17  1  0.99361000  0.19271000  0.94001000  1.0 -0.0085918652
N  N18  1  0.94001000  0.99361000  0.19271000  1.0 -0.0085918652
N  N19  1  0.44001000  0.69271000  0.49361000  1.0 -0.0085918652
N  N20  1  0.69271000  0.49361000  0.44001000  1.0 -0.0085918652
N  N21  1  0.49361000  0.44001000  0.69271000  1.0 -0.0085918652
N  N22  1  0.80729000  0.05999000  0.00639000  1.0 -0.0085918652
N  N23  1  0.00639000  0.80729000  0.05999000  1.0 -0.0085918652
N  N24  1  0.05999000  0.00639000  0.80729000  1.0 -0.0085918652
N  N25  1  0.57041000  0.23151000  0.57751000  1.0 -0.1588391094
N  N26  1  0.23151000  0.57751000  0.57041000  1.0 -0.1588391094
N  N27  1  0.57751000  0.57041000  0.23151000  1.0 -0.1588391094
N  N28  1  0.26849000  0.92959000  0.92249000  1.0 -0.1588391094
N  N29  1  0.92249000  0.26849000  0.92959000  1.0 -0.1588391094
N  N30  1  0.92959000  0.92249000  0.26849000  1.0 -0.1588391094
N  N31  1  0.42959000  0.76849000  0.42249000  1.0 -0.1588391094
N  N32  1  0.76849000  0.42249000  0.42959000  1.0 -0.1588391094
N  N33  1  0.42249000  0.42959000  0.76849000  1.0 -0.1588391094
N  N34  1  0.73151000  0.07041000  0.07751000  1.0 -0.1588391094
N  N35  1  0.07751000  0.73151000  0.07041000  1.0 -0.1588391094
N  N36  1  0.07041000  0.07751000  0.73151000  1.0 -0.1588391094
N  N37  1  0.55896000  0.20496000  0.71706000  1.0 -0.1723702273
N  N38  1  0.20496000  0.71706000  0.55896000  1.0 -0.1723702273
N  N39  1  0.71706000  0.55896000  0.20496000  1.0 -0.1760679959
N  N40  1  0.29504000  0.94104000  0.78294000  1.0 -0.1723702273
N  N41  1  0.78294000  0.29504000  0.94104000  1.0 -0.1723702273
N  N42  1  0.94104000  0.78294000  0.29504000  1.0 -0.1760679959
N  N43  1  0.44104000  0.79504000  0.28294000  1.0 -0.1723702273
N  N44  1  0.79504000  0.28294000  0.44104000  1.0 -0.1723702273
N  N45  1  0.28294000  0.44104000  0.79504000  1.0 -0.1723702273
N  N46  1  0.70496000  0.05896000  0.21706000  1.0 -0.1723702273
N  N47  1  0.21706000  0.70496000  0.05896000  1.0 -0.1760679959
N  N48  1  0.05896000  0.21706000  0.70496000  1.0 -0.1723702273
N  N49  1  0.48272000  0.27462000  0.72922000  1.0 0.0112251789
N  N50  1  0.27462000  0.72922000  0.48272000  1.0 0.0112251789
N  N51  1  0.72922000  0.48272000  0.27462000  1.0 0.0112251789
N  N52  1  0.22538000  0.01728000  0.77078000  1.0 0.0112251789
N  N53  1  0.77078000  0.22538000  0.01728000  1.0 0.0112251789
N  N54  1  0.01728000  0.77078000  0.22538000  1.0 0.0112251789
N  N55  1  0.51728000  0.72538000  0.27078000  1.0 0.0112251789
N  N56  1  0.72538000  0.27078000  0.51728000  1.0 0.0112251789
N  N57  1  0.27078000  0.51728000  0.72538000  1.0 0.0112251789
N  N58  1  0.77462000  0.98272000  0.22922000  1.0 0.0112251789
N  N59  1  0.22922000  0.77462000  0.98272000  1.0 0.0112251789
N  N60  1  0.98272000  0.22922000  0.77462000  1.0 0.0112251789
N  N61  1  0.46208000  0.27578000  0.79028000  1.0 -0.1588391094
N  N62  1  0.27578000  0.79028000  0.46208000  1.0 -0.1588391094
N  N63  1  0.79028000  0.46208000  0.27578000  1.0 -0.1588391094
N  N64  1  0.22422000  0.03792000  0.70972000  1.0 -0.1588391094
N  N65  1  0.70972000  0.22422000  0.03792000  1.0 -0.1588391094
N  N66  1  0.03792000  0.70972000  0.22422000  1.0 -0.1588391094
N  N67  1  0.53792000  0.72422000  0.20972000  1.0 -0.1588391094
N  N68  1  0.72422000  0.20972000  0.53792000  1.0 -0.1588391094
N  N69  1  0.20972000  0.53792000  0.72422000  1.0 -0.1588391094
N  N70  1  0.77578000  0.96208000  0.29028000  1.0 -0.1588391094
N  N71  1  0.29028000  0.77578000  0.96208000  1.0 -0.1588391094
N  N72  1  0.96208000  0.29028000  0.77578000  1.0 -0.1588391094
O  O1  1  0.37162000  0.35362000  0.52312000  1.0 -0.4392997759
O  O2  1  0.35362000  0.52312000  0.37162000  1.0 -0.4392997759
O  O3  1  0.52312000  0.37162000  0.35362000  1.0 -0.4392997759
O  O4  1  0.14638000  0.12838000  0.97688000  1.0 -0.4392997759
O  O5  1  0.97688000  0.14638000  0.12838000  1.0 -0.4392997759
O  O6  1  0.12838000  0.97688000  0.14638000  1.0 -0.4392997759
O  O7  1  0.62838000  0.64638000  0.47688000  1.0 -0.4392997759
O  O8  1  0.64638000  0.47688000  0.62838000  1.0 -0.4392997759
O  O9  1  0.47688000  0.62838000  0.64638000  1.0 -0.4392997759
O  O10  1  0.85362000  0.87162000  0.02312000  1.0 -0.4392997759
O  O11  1  0.02312000  0.85362000  0.87162000  1.0 -0.4392997759
O  O12  1  0.87162000  0.02312000  0.85362000  1.0 -0.4392997759
O  O13  1  0.36479000  0.22749000  0.64699000  1.0 -0.5070779799
O  O14  1  0.22749000  0.64699000  0.36479000  1.0 -0.5070779799
O  O15  1  0.64699000  0.36479000  0.22749000  1.0 -0.5070779799
O  O16  1  0.27251000  0.13521000  0.85301000  1.0 -0.5070779799
O  O17  1  0.85301000  0.27251000  0.13521000  1.0 -0.5070779799
O  O18  1  0.13521000  0.85301000  0.27251000  1.0 -0.5070779799
O  O19  1  0.63521000  0.77251000  0.35301000  1.0 -0.5070779799
O  O20  1  0.77251000  0.35301000  0.63521000  1.0 -0.5070779799
O  O21  1  0.35301000  0.63521000  0.77251000  1.0 -0.5070779799
O  O22  1  0.72749000  0.86479000  0.14699000  1.0 -0.5070779799
O  O23  1  0.14699000  0.72749000  0.86479000  1.0 -0.5070779799
O  O24  1  0.86479000  0.14699000  0.72749000  1.0 -0.5070779799
O  O25  1  0.47212000  0.08392000  0.75472000  1.0 -0.5221925122
O  O26  1  0.08392000  0.75472000  0.47212000  1.0 -0.5221925122
O  O27  1  0.75472000  0.47212000  0.08392000  1.0 -0.5221925122
O  O28  1  0.41608000  0.02788000  0.74528000  1.0 -0.5221925122
O  O29  1  0.74528000  0.41608000  0.02788000  1.0 -0.5221925122
O  O30  1  0.02788000  0.74528000  0.41608000  1.0 -0.526028472
O  O31  1  0.52788000  0.91608000  0.24528000  1.0 -0.5221925122
O  O32  1  0.91608000  0.24528000  0.52788000  1.0 -0.5221925122
O  O33  1  0.24528000  0.52788000  0.91608000  1.0 -0.5221925122
O  O34  1  0.58392000  0.97212000  0.25472000  1.0 -0.5221925122
O  O35  1  0.25472000  0.58392000  0.97212000  1.0 -0.5221925122
O  O36  1  0.97212000  0.25472000  0.58392000  1.0 -0.5221925122
O  O37  1  0.57673000  0.08153000  0.72423000  1.0 -0.434131044
O  O38  1  0.08153000  0.72423000  0.57673000  1.0 -0.434131044
O  O39  1  0.72423000  0.57673000  0.08153000  1.0 -0.4392997759
O  O40  1  0.41847000  0.92327000  0.77577000  1.0 -0.434131044
O  O41  1  0.77577000  0.41847000  0.92327000  1.0 -0.4392997759
O  O42  1  0.92327000  0.77577000  0.41847000  1.0 -0.4392997759
O  O43  1  0.42327000  0.91847000  0.27577000  1.0 -0.4392997759
O  O44  1  0.91847000  0.27577000  0.42327000  1.0 -0.434131044
O  O45  1  0.27577000  0.42327000  0.91847000  1.0 -0.434131044
O  O46  1  0.58153000  0.07673000  0.22423000  1.0 -0.434131044
O  O47  1  0.22423000  0.58153000  0.07673000  1.0 -0.4392997759
O  O48  1  0.07673000  0.22423000  0.58153000  1.0 -0.434131044
O  O49  1  0.70800000  0.05870000  0.71080000  1.0 -0.4392997759
O  O50  1  0.05870000  0.71080000  0.70800000  1.0 -0.4392997759
O  O51  1  0.71080000  0.70800000  0.05870000  1.0 -0.434131044
O  O52  1  0.44130000  0.79200000  0.78920000  1.0 -0.434131044
O  O53  1  0.78920000  0.44130000  0.79200000  1.0 -0.434131044
O  O54  1  0.79200000  0.78920000  0.44130000  1.0 -0.434131044
O  O55  1  0.29200000  0.94130000  0.28920000  1.0 -0.434131044
O  O56  1  0.94130000  0.28920000  0.29200000  1.0 -0.4392997759
O  O57  1  0.28920000  0.29200000  0.94130000  1.0 -0.434131044
O  O58  1  0.55870000  0.20800000  0.21080000  1.0 -0.434131044
O  O59  1  0.21080000  0.55870000  0.20800000  1.0 -0.4392997759
O  O60  1  0.20800000  0.21080000  0.55870000  1.0 -0.434131044
O  O61  1  0.70762000  0.02902000  0.81262000  1.0 -0.3388812667
O  O62  1  0.02902000  0.81262000  0.70762000  1.0 -0.332952036
O  O63  1  0.81262000  0.70762000  0.02902000  1.0 -0.332952036
O  O64  1  0.47098000  0.79238000  0.68738000  1.0 -0.332952036
O  O65  1  0.68738000  0.47098000  0.79238000  1.0 -0.3388812667
O  O66  1  0.79238000  0.68738000  0.47098000  1.0 -0.332952036
O  O67  1  0.29238000  0.97098000  0.18738000  1.0 -0.3388812667
O  O68  1  0.97098000  0.18738000  0.29238000  1.0 -0.3388812667
O  O69  1  0.18738000  0.29238000  0.97098000  1.0 -0.332952036
O  O70  1  0.52902000  0.20762000  0.31262000  1.0 -0.332952036
O  O71  1  0.31262000  0.52902000  0.20762000  1.0 -0.3388812667
O  O72  1  0.20762000  0.31262000  0.52902000  1.0 -0.332952036
O  O73  1  0.55947000  0.13377000  0.92667000  1.0 -0.3388812667
O  O74  1  0.13377000  0.92667000  0.55947000  1.0 -0.3388812667
O  O75  1  0.92667000  0.55947000  0.13377000  1.0 -0.3388812667
O  O76  1  0.36623000  0.94053000  0.57333000  1.0 -0.3388812667
O  O77  1  0.57333000  0.36623000  0.94053000  1.0 -0.3388812667
O  O78  1  0.94053000  0.57333000  0.36623000  1.0 -0.3388812667
O  O79  1  0.44053000  0.86623000  0.07333000  1.0 -0.3388812667
O  O80  1  0.86623000  0.07333000  0.44053000  1.0 -0.3388812667
O  O81  1  0.07333000  0.44053000  0.86623000  1.0 -0.3388812667
O  O82  1  0.63377000  0.05947000  0.42667000  1.0 -0.3388812667
O  O83  1  0.42667000  0.63377000  0.05947000  1.0 -0.3388812667
O  O84  1  0.05947000  0.42667000  0.63377000  1.0 -0.3388812667
O  O85  1  0.43420000  0.25860000  0.91850000  1.0 -0.4464860302
O  O86  1  0.25860000  0.91850000  0.43420000  1.0 -0.4464860302
O  O87  1  0.91850000  0.43420000  0.25860000  1.0 -0.4464860302
O  O88  1  0.24140000  0.06580000  0.58150000  1.0 -0.4464860302
O  O89  1  0.58150000  0.24140000  0.06580000  1.0 -0.4392997759
O  O90  1  0.06580000  0.58150000  0.24140000  1.0 -0.4464860302
O  O91  1  0.56580000  0.74140000  0.08150000  1.0 -0.4464860302
O  O92  1  0.74140000  0.08150000  0.56580000  1.0 -0.4464860302
O  O93  1  0.08150000  0.56580000  0.74140000  1.0 -0.4464860302
O  O94  1  0.75860000  0.93420000  0.41850000  1.0 -0.4464860302
O  O95  1  0.41850000  0.75860000  0.93420000  1.0 -0.4464860302
O  O96  1  0.93420000  0.41850000  0.75860000  1.0 -0.4464860302
