# DDEC6 charges by PACMAN v1.1 (https://github.com/mtap-research/PACMAN-charge/)
data_XOMNEU_FSR_pacman
_symmetry_space_group_name_H-M   'P 1'
_cell_length_a   13.91190000
_cell_length_b   13.91190000
_cell_length_c   37.15160000
_cell_angle_alpha   90.00000000
_cell_angle_beta   90.00000000
_cell_angle_gamma   119.18600000
_symmetry_Int_Tables_number   1
_chemical_formula_structural   Zn2H44C61(NO)8
_chemical_formula_sum   'Zn8 H176 C244 N32 O32'
_cell_volume   6277.47778628
_cell_formula_units_Z   4
loop_
 _symmetry_equiv_pos_site_id
 _symmetry_equiv_pos_as_xyz
  1  'x, y, z'
loop_
 _atom_site_type_symbol
 _atom_site_label
 _atom_site_symmetry_multiplicity
 _atom_site_fract_x
 _atom_site_fract_y
 _atom_site_fract_z
 _atom_site_occupancy
 _atom_site_charge
Zn  Zn1  1  0.71230000  0.28770000  0.24814000  1.0 0.7585458874
Zn  Zn2  1  0.78770000  0.21230000  0.74814000  1.0 0.7585458874
Zn  Zn3  1  0.21190000  0.78810000  0.01032000  1.0 0.7745097995
Zn  Zn4  1  0.28810000  0.71190000  0.51032000  1.0 0.7745097995
Zn  Zn5  1  0.28770000  0.71230000  0.75186000  1.0 0.7585458874
Zn  Zn6  1  0.21230000  0.78770000  0.25186000  1.0 0.7585458874
Zn  Zn7  1  0.78810000  0.21190000  0.98968000  1.0 0.7745097995
Zn  Zn8  1  0.71190000  0.28810000  0.48968000  1.0 0.7745097995
H  H1  1  0.50580000  0.49420000  0.19790000  1.0 0.1301748514
H  H2  1  0.99420000  0.00580000  0.69790000  1.0 0.1301748514
H  H3  1  0.64640000  0.35360000  0.13920000  1.0 0.1099992454
H  H4  1  0.85360000  0.14640000  0.63920000  1.0 0.1099992454
H  H5  1  0.59570000  0.40430000  0.08680000  1.0 0.1301748514
H  H6  1  0.90430000  0.09570000  0.58680000  1.0 0.1301748514
H  H7  1  0.34180000  0.65820000  0.08920000  1.0 0.1301748514
H  H8  1  0.15820000  0.84180000  0.58920000  1.0 0.1301748514
H  H9  1  0.31830000  0.50610000  0.18200000  1.0 0.1378058777
H  H10  1  0.18170000  0.99390000  0.68200000  1.0 0.1378058777
H  H11  1  0.49390000  0.68170000  0.18200000  1.0 0.1378058777
H  H12  1  0.00610000  0.81830000  0.68200000  1.0 0.1378058777
H  H13  1  0.27610000  0.43430000  0.14700000  1.0 0.1378058777
H  H14  1  0.22390000  0.06570000  0.64700000  1.0 0.1378058777
H  H15  1  0.56570000  0.72390000  0.14700000  1.0 0.1378058777
H  H16  1  0.93430000  0.77610000  0.64700000  1.0 0.1378058777
H  H17  1  0.27220000  0.54480000  0.14990000  1.0 0.1189116706
H  H18  1  0.22780000  0.95520000  0.64990000  1.0 0.1189116706
H  H19  1  0.45520000  0.72780000  0.14990000  1.0 0.1189116706
H  H20  1  0.04480000  0.77220000  0.64990000  1.0 0.1189116706
H  H21  1  0.93490000  0.06510000  0.25840000  1.0 0.1189116706
H  H22  1  0.56510000  0.43490000  0.75840000  1.0 0.1189116706
H  H23  1  0.01540000  0.98460000  0.22500000  1.0 0.1378058777
H  H24  1  0.48460000  0.51540000  0.72500000  1.0 0.1378058777
H  H25  1  0.84190000  0.15810000  0.16980000  1.0 0.1189116706
H  H26  1  0.65810000  0.34190000  0.66980000  1.0 0.1189116706
H  H27  1  0.09580000  0.90420000  0.17250000  1.0 0.1189116706
H  H28  1  0.40420000  0.59580000  0.67250000  1.0 0.1189116706
H  H29  1  0.14680000  0.85320000  0.11960000  1.0 0.1189116706
H  H30  1  0.35320000  0.64680000  0.61960000  1.0 0.1189116706
H  H31  1  0.00650000  0.99350000  0.06160000  1.0 0.1301748514
H  H32  1  0.49350000  0.50650000  0.56160000  1.0 0.1301748514
H  H33  1  0.56270000  0.12450000  0.78910000  1.0 0.1189116706
H  H34  1  0.93730000  0.37550000  0.28910000  1.0 0.1189116706
H  H35  1  0.87550000  0.43730000  0.78910000  1.0 0.1189116706
H  H36  1  0.62450000  0.06270000  0.28910000  1.0 0.1189116706
H  H37  1  0.73570000  0.97250000  0.78010000  1.0 0.1301748514
H  H38  1  0.76430000  0.52750000  0.28010000  1.0 0.1301748514
H  H39  1  0.02750000  0.26430000  0.78010000  1.0 0.1301748514
H  H40  1  0.47250000  0.23570000  0.28010000  1.0 0.1301748514
H  H41  1  0.57200000  0.85560000  0.81550000  1.0 0.1301748514
H  H42  1  0.92800000  0.64440000  0.31550000  1.0 0.1301748514
H  H43  1  0.14440000  0.42800000  0.81550000  1.0 0.1301748514
H  H44  1  0.35560000  0.07200000  0.31550000  1.0 0.1301748514
H  H45  1  0.37560000  0.86640000  0.82190000  1.0 0.1189116706
H  H46  1  0.12440000  0.63360000  0.32190000  1.0 0.1189116706
H  H47  1  0.13360000  0.62440000  0.82190000  1.0 0.1189116706
H  H48  1  0.36640000  0.87560000  0.32190000  1.0 0.1189116706
H  H49  1  0.39900000  0.98840000  0.82490000  1.0 0.1189116706
H  H50  1  0.10100000  0.51160000  0.32490000  1.0 0.1189116706
H  H51  1  0.01160000  0.60100000  0.82490000  1.0 0.1189116706
H  H52  1  0.48840000  0.89900000  0.32490000  1.0 0.1189116706
H  H53  1  0.38090000  0.91270000  0.88250000  1.0 0.1099992454
H  H54  1  0.11910000  0.58730000  0.38250000  1.0 0.1099992454
H  H55  1  0.08730000  0.61910000  0.88250000  1.0 0.1099992454
H  H56  1  0.41270000  0.88090000  0.38250000  1.0 0.1099992454
H  H57  1  0.47690000  0.88750000  0.87440000  1.0 0.1027134155
H  H58  1  0.02310000  0.61250000  0.37440000  1.0 0.1027134155
H  H59  1  0.11250000  0.52310000  0.87440000  1.0 0.1027134155
H  H60  1  0.38750000  0.97690000  0.37440000  1.0 0.1027134155
H  H61  1  0.50200000  0.09940000  0.88150000  1.0 0.1099992454
H  H62  1  0.99800000  0.40060000  0.38150000  1.0 0.1099992454
H  H63  1  0.90060000  0.49800000  0.88150000  1.0 0.1099992454
H  H64  1  0.59940000  0.00200000  0.38150000  1.0 0.1099992454
H  H65  1  0.59860000  0.07820000  0.87050000  1.0 0.1027134155
H  H66  1  0.90140000  0.42180000  0.37050000  1.0 0.1027134155
H  H67  1  0.92180000  0.40140000  0.87050000  1.0 0.1027134155
H  H68  1  0.57820000  0.09860000  0.37050000  1.0 0.1027134155
H  H69  1  0.58960000  0.99980000  0.92750000  1.0 0.1189116706
H  H70  1  0.91040000  0.50020000  0.42750000  1.0 0.1189116706
H  H71  1  0.00020000  0.41040000  0.92750000  1.0 0.1189116706
H  H72  1  0.49980000  0.08960000  0.42750000  1.0 0.1189116706
H  H73  1  0.61740000  0.12300000  0.93070000  1.0 0.1189116706
H  H74  1  0.88260000  0.37700000  0.43070000  1.0 0.1189116706
H  H75  1  0.87700000  0.38260000  0.93070000  1.0 0.1189116706
H  H76  1  0.62300000  0.11740000  0.43070000  1.0 0.1189116706
H  H77  1  0.42010000  0.86010000  0.96150000  1.0 0.1189116706
H  H78  1  0.07990000  0.63990000  0.46150000  1.0 0.1189116706
H  H79  1  0.13990000  0.57990000  0.96150000  1.0 0.1189116706
H  H80  1  0.36010000  0.92010000  0.46150000  1.0 0.1189116706
H  H81  1  0.28520000  0.04080000  0.98850000  1.0 0.1378058777
H  H82  1  0.21480000  0.45920000  0.48850000  1.0 0.1378058777
H  H83  1  0.95920000  0.71480000  0.98850000  1.0 0.1378058777
H  H84  1  0.54080000  0.78520000  0.48850000  1.0 0.1378058777
H  H85  1  0.44270000  0.15250000  0.95030000  1.0 0.1301748514
H  H86  1  0.05730000  0.34750000  0.45030000  1.0 0.1301748514
H  H87  1  0.84750000  0.55730000  0.95030000  1.0 0.1301748514
H  H88  1  0.65250000  0.94270000  0.45030000  1.0 0.1301748514
H  H89  1  0.49420000  0.50580000  0.80210000  1.0 0.1301748514
H  H90  1  0.00580000  0.99420000  0.30210000  1.0 0.1301748514
H  H91  1  0.35360000  0.64640000  0.86080000  1.0 0.1099992454
H  H92  1  0.14640000  0.85360000  0.36080000  1.0 0.1099992454
H  H93  1  0.40430000  0.59570000  0.91320000  1.0 0.1301748514
H  H94  1  0.09570000  0.90430000  0.41320000  1.0 0.1301748514
H  H95  1  0.65820000  0.34180000  0.91080000  1.0 0.1301748514
H  H96  1  0.84180000  0.15820000  0.41080000  1.0 0.1301748514
H  H97  1  0.50610000  0.31830000  0.81800000  1.0 0.1378058777
H  H98  1  0.99390000  0.18170000  0.31800000  1.0 0.1378058777
H  H99  1  0.68170000  0.49390000  0.81800000  1.0 0.1378058777
H  H100  1  0.81830000  0.00610000  0.31800000  1.0 0.1378058777
H  H101  1  0.43430000  0.27610000  0.85300000  1.0 0.1378058777
H  H102  1  0.06570000  0.22390000  0.35300000  1.0 0.1378058777
H  H103  1  0.72390000  0.56570000  0.85300000  1.0 0.1378058777
H  H104  1  0.77610000  0.93430000  0.35300000  1.0 0.1378058777
H  H105  1  0.54480000  0.27220000  0.85010000  1.0 0.1189116706
H  H106  1  0.95520000  0.22780000  0.35010000  1.0 0.1189116706
H  H107  1  0.72780000  0.45520000  0.85010000  1.0 0.1189116706
H  H108  1  0.77220000  0.04480000  0.35010000  1.0 0.1189116706
H  H109  1  0.06510000  0.93490000  0.74160000  1.0 0.1189116706
H  H110  1  0.43490000  0.56510000  0.24160000  1.0 0.1189116706
H  H111  1  0.98460000  0.01540000  0.77500000  1.0 0.1378058777
H  H112  1  0.51540000  0.48460000  0.27500000  1.0 0.1378058777
H  H113  1  0.15810000  0.84190000  0.83020000  1.0 0.1189116706
H  H114  1  0.34190000  0.65810000  0.33020000  1.0 0.1189116706
H  H115  1  0.90420000  0.09580000  0.82750000  1.0 0.1189116706
H  H116  1  0.59580000  0.40420000  0.32750000  1.0 0.1189116706
H  H117  1  0.85320000  0.14680000  0.88040000  1.0 0.1189116706
H  H118  1  0.64680000  0.35320000  0.38040000  1.0 0.1189116706
H  H119  1  0.99350000  0.00650000  0.93840000  1.0 0.1301748514
H  H120  1  0.50650000  0.49350000  0.43840000  1.0 0.1301748514
H  H121  1  0.12450000  0.56270000  0.21090000  1.0 0.1189116706
H  H122  1  0.37550000  0.93730000  0.71090000  1.0 0.1189116706
H  H123  1  0.43730000  0.87550000  0.21090000  1.0 0.1189116706
H  H124  1  0.06270000  0.62450000  0.71090000  1.0 0.1189116706
H  H125  1  0.97250000  0.73570000  0.21990000  1.0 0.1301748514
H  H126  1  0.52750000  0.76430000  0.71990000  1.0 0.1301748514
H  H127  1  0.26430000  0.02750000  0.21990000  1.0 0.1301748514
H  H128  1  0.23570000  0.47250000  0.71990000  1.0 0.1301748514
H  H129  1  0.85560000  0.57200000  0.18450000  1.0 0.1301748514
H  H130  1  0.64440000  0.92800000  0.68450000  1.0 0.1301748514
H  H131  1  0.42800000  0.14440000  0.18450000  1.0 0.1301748514
H  H132  1  0.07200000  0.35560000  0.68450000  1.0 0.1301748514
H  H133  1  0.86640000  0.37560000  0.17810000  1.0 0.1189116706
H  H134  1  0.63360000  0.12440000  0.67810000  1.0 0.1189116706
H  H135  1  0.62440000  0.13360000  0.17810000  1.0 0.1189116706
H  H136  1  0.87560000  0.36640000  0.67810000  1.0 0.1189116706
H  H137  1  0.98840000  0.39900000  0.17510000  1.0 0.1189116706
H  H138  1  0.51160000  0.10100000  0.67510000  1.0 0.1189116706
H  H139  1  0.60100000  0.01160000  0.17510000  1.0 0.1189116706
H  H140  1  0.89900000  0.48840000  0.67510000  1.0 0.1189116706
H  H141  1  0.91270000  0.38090000  0.11750000  1.0 0.1099992454
H  H142  1  0.58730000  0.11910000  0.61750000  1.0 0.1099992454
H  H143  1  0.61910000  0.08730000  0.11750000  1.0 0.1099992454
H  H144  1  0.88090000  0.41270000  0.61750000  1.0 0.1099992454
H  H145  1  0.88750000  0.47690000  0.12560000  1.0 0.1027134155
H  H146  1  0.61250000  0.02310000  0.62560000  1.0 0.1027134155
H  H147  1  0.52310000  0.11250000  0.12560000  1.0 0.1027134155
H  H148  1  0.97690000  0.38750000  0.62560000  1.0 0.1027134155
H  H149  1  0.09940000  0.50200000  0.11850000  1.0 0.1099992454
H  H150  1  0.40060000  0.99800000  0.61850000  1.0 0.1099992454
H  H151  1  0.49800000  0.90060000  0.11850000  1.0 0.1099992454
H  H152  1  0.00200000  0.59940000  0.61850000  1.0 0.1099992454
H  H153  1  0.07820000  0.59860000  0.12950000  1.0 0.1027134155
H  H154  1  0.42180000  0.90140000  0.62950000  1.0 0.1027134155
H  H155  1  0.40140000  0.92180000  0.12950000  1.0 0.1027134155
H  H156  1  0.09860000  0.57820000  0.62950000  1.0 0.1027134155
H  H157  1  0.99980000  0.58960000  0.07250000  1.0 0.1189116706
H  H158  1  0.50020000  0.91040000  0.57250000  1.0 0.1189116706
H  H159  1  0.41040000  0.00020000  0.07250000  1.0 0.1189116706
H  H160  1  0.08960000  0.49980000  0.57250000  1.0 0.1189116706
H  H161  1  0.12300000  0.61740000  0.06930000  1.0 0.1189116706
H  H162  1  0.37700000  0.88260000  0.56930000  1.0 0.1189116706
H  H163  1  0.38260000  0.87700000  0.06930000  1.0 0.1189116706
H  H164  1  0.11740000  0.62300000  0.56930000  1.0 0.1189116706
H  H165  1  0.86010000  0.42010000  0.03850000  1.0 0.1189116706
H  H166  1  0.63990000  0.07990000  0.53850000  1.0 0.1189116706
H  H167  1  0.57990000  0.13990000  0.03850000  1.0 0.1189116706
H  H168  1  0.92010000  0.36010000  0.53850000  1.0 0.1189116706
H  H169  1  0.04080000  0.28520000  0.01150000  1.0 0.1378058777
H  H170  1  0.45920000  0.21480000  0.51150000  1.0 0.1378058777
H  H171  1  0.71480000  0.95920000  0.01150000  1.0 0.1378058777
H  H172  1  0.78520000  0.54080000  0.51150000  1.0 0.1378058777
H  H173  1  0.15250000  0.44270000  0.04970000  1.0 0.1301748514
H  H174  1  0.34750000  0.05730000  0.54970000  1.0 0.1301748514
H  H175  1  0.55730000  0.84750000  0.04970000  1.0 0.1301748514
H  H176  1  0.94270000  0.65250000  0.54970000  1.0 0.1301748514
C  C1  1  0.52370000  0.47630000  0.17572000  1.0 -0.1368209899
C  C2  1  0.97630000  0.02370000  0.67572000  1.0 -0.1368209899
C  C3  1  0.58180000  0.41820000  0.17433000  1.0 -0.0298291037
C  C4  1  0.91820000  0.08180000  0.67433000  1.0 -0.0298291037
C  C5  1  0.60770000  0.39230000  0.14035000  1.0 -0.1225272712
C  C6  1  0.89230000  0.10770000  0.64035000  1.0 -0.1225272712
C  C7  1  0.57780000  0.42220000  0.10900000  1.0 -0.14641736
C  C8  1  0.92220000  0.07780000  0.60900000  1.0 -0.14641736
C  C9  1  0.48360000  0.51640000  0.04540000  1.0 -0.0165602342
C  C10  1  0.01640000  0.98360000  0.54540000  1.0 -0.0165602342
C  C11  1  0.43380000  0.56620000  0.02540000  1.0 -0.0025070708
C  C12  1  0.06620000  0.93380000  0.52540000  1.0 -0.0025070708
C  C13  1  0.38100000  0.61900000  0.04070000  1.0 0.0217588214
C  C14  1  0.11900000  0.88100000  0.54070000  1.0 0.0217588214
C  C15  1  0.37670000  0.62330000  0.07831000  1.0 -0.2344901033
C  C16  1  0.12330000  0.87670000  0.57831000  1.0 -0.2344901033
C  C17  1  0.42920000  0.57080000  0.14006000  1.0 0.1993818514
C  C18  1  0.07080000  0.92920000  0.64006000  1.0 0.1993818514
C  C19  1  0.49270000  0.50730000  0.14472000  1.0 0.0217588214
C  C20  1  0.00730000  0.99270000  0.64472000  1.0 0.0217588214
C  C21  1  0.51960000  0.48040000  0.11120000  1.0 0.0217588214
C  C22  1  0.98040000  0.01960000  0.61120000  1.0 0.0217588214
C  C23  1  0.47660000  0.52340000  0.08310000  1.0 0.0501099527
C  C24  1  0.02340000  0.97660000  0.58310000  1.0 0.0501099527
C  C25  1  0.42420000  0.57580000  0.09930000  1.0 -0.0165602342
C  C26  1  0.07580000  0.92420000  0.59930000  1.0 -0.0165602342
C  C27  1  0.31310000  0.50810000  0.15627000  1.0 -0.4550528407
C  C28  1  0.18690000  0.99190000  0.65627000  1.0 -0.4544166506
C  C29  1  0.49190000  0.68690000  0.15627000  1.0 -0.4550528407
C  C30  1  0.00810000  0.81310000  0.65627000  1.0 -0.4544166506
C  C31  1  0.61590000  0.38410000  0.20817000  1.0 0.5283172548
C  C32  1  0.88410000  0.11590000  0.70817000  1.0 0.5283172548
C  C33  1  0.33070000  0.66930000  0.01660000  1.0 0.5283172548
C  C34  1  0.16930000  0.83070000  0.51660000  1.0 0.5283172548
C  C35  1  0.82870000  0.17130000  0.23993000  1.0 0.538668406
C  C36  1  0.67130000  0.32870000  0.73993000  1.0 0.538668406
C  C37  1  0.88020000  0.11980000  0.21784000  1.0 -0.0298291037
C  C38  1  0.61980000  0.38020000  0.71784000  1.0 -0.0298291037
C  C39  1  0.93240000  0.06760000  0.23347000  1.0 -0.0930022398
C  C40  1  0.56760000  0.43240000  0.73347000  1.0 -0.0930022398
C  C41  1  0.98080000  0.01920000  0.21368000  1.0 -0.1225272712
C  C42  1  0.51920000  0.48080000  0.71368000  1.0 -0.1225272712
C  C43  1  0.87670000  0.12330000  0.18090000  1.0 -0.1794213497
C  C44  1  0.62330000  0.37670000  0.68090000  1.0 -0.1794213497
C  C45  1  0.92470000  0.07530000  0.15990000  1.0 0.0725273684
C  C46  1  0.57530000  0.42470000  0.65990000  1.0 0.0725273684
C  C47  1  0.97680000  0.02320000  0.17634000  1.0 0.0085669592
C  C48  1  0.52320000  0.47680000  0.67634000  1.0 0.0085669592
C  C49  1  0.02030000  0.97970000  0.14840000  1.0 0.0085669592
C  C50  1  0.47970000  0.52030000  0.64840000  1.0 0.0085669592
C  C51  1  0.07780000  0.92220000  0.15030000  1.0 -0.1340046108
C  C52  1  0.42220000  0.57780000  0.65030000  1.0 -0.1340046108
C  C53  1  0.10810000  0.89190000  0.11857000  1.0 -0.1225272712
C  C54  1  0.39190000  0.60810000  0.61857000  1.0 -0.1225272712
C  C55  1  0.08240000  0.91760000  0.08556000  1.0 -0.0165602342
C  C56  1  0.41760000  0.58240000  0.58556000  1.0 -0.0165602342
C  C57  1  0.02430000  0.97570000  0.08380000  1.0 -0.160265147
C  C58  1  0.47570000  0.52430000  0.58380000  1.0 -0.160265147
C  C59  1  0.99350000  0.00650000  0.11470000  1.0 0.0725273684
C  C60  1  0.50650000  0.49350000  0.61470000  1.0 0.0725273684
C  C61  1  0.90150000  0.04050000  0.11940000  1.0 0.1027134155
C  C62  1  0.59850000  0.45950000  0.61940000  1.0 0.1027134155
C  C63  1  0.95950000  0.09850000  0.11940000  1.0 0.1027134155
C  C64  1  0.54050000  0.40150000  0.61940000  1.0 0.1027134155
C  C65  1  0.11580000  0.88420000  0.05140000  1.0 0.5511742949
C  C66  1  0.38420000  0.61580000  0.55140000  1.0 0.5511742949
C  C67  1  0.85490000  0.06190000  0.09800000  1.0 -0.0744460488
C  C68  1  0.64510000  0.43810000  0.59800000  1.0 -0.0744460488
C  C69  1  0.93810000  0.14510000  0.09800000  1.0 -0.0744460488
C  C70  1  0.56190000  0.35490000  0.59800000  1.0 -0.0744460488
C  C71  1  0.78580000  0.96420000  0.10790000  1.0 -0.1911894355
C  C72  1  0.71420000  0.53580000  0.60790000  1.0 -0.1911894355
C  C73  1  0.03580000  0.21420000  0.10790000  1.0 -0.1911894355
C  C74  1  0.46420000  0.28580000  0.60790000  1.0 -0.1911894355
C  C75  1  0.58600000  0.07240000  0.79114000  1.0 0.0923143558
C  C76  1  0.91400000  0.42760000  0.29114000  1.0 0.0923143558
C  C77  1  0.92760000  0.41400000  0.79114000  1.0 0.0923143558
C  C78  1  0.57240000  0.08600000  0.29114000  1.0 0.0923143558
C  C79  1  0.68060000  0.98900000  0.78628000  1.0 -0.0388122157
C  C80  1  0.81940000  0.51100000  0.28628000  1.0 -0.0388122157
C  C81  1  0.01100000  0.31940000  0.78628000  1.0 -0.0388122157
C  C82  1  0.48900000  0.18060000  0.28628000  1.0 -0.0388122157
C  C83  1  0.59020000  0.92400000  0.80580000  1.0 -0.0959279493
C  C84  1  0.90980000  0.57600000  0.30580000  1.0 -0.0959279493
C  C85  1  0.07600000  0.40980000  0.80580000  1.0 -0.0959279493
C  C86  1  0.42400000  0.09020000  0.30580000  1.0 -0.0959279493
C  C87  1  0.42940000  0.94000000  0.82953000  1.0 -0.1225272712
C  C88  1  0.07060000  0.56000000  0.32953000  1.0 -0.1225272712
C  C89  1  0.06000000  0.57060000  0.82953000  1.0 -0.1225272712
C  C90  1  0.44000000  0.92940000  0.32953000  1.0 -0.1225272712
C  C91  1  0.45010000  0.93890000  0.86978000  1.0 -0.1794213497
C  C92  1  0.04990000  0.56110000  0.36978000  1.0 -0.1794213497
C  C93  1  0.06110000  0.54990000  0.86978000  1.0 -0.1794213497
C  C94  1  0.43890000  0.95010000  0.36978000  1.0 -0.1794213497
C  C95  1  0.53160000  0.04960000  0.88457000  1.0 -0.1911894355
C  C96  1  0.96840000  0.45040000  0.38457000  1.0 -0.1911894355
C  C97  1  0.95040000  0.46840000  0.88457000  1.0 -0.1911894355
C  C98  1  0.54960000  0.03160000  0.38457000  1.0 -0.1911894355
C  C99  1  0.56040000  0.04980000  0.92403000  1.0 -0.1096370362
C  C100  1  0.93960000  0.45020000  0.42403000  1.0 -0.1096370362
C  C101  1  0.95020000  0.43960000  0.92403000  1.0 -0.1096370362
C  C102  1  0.54980000  0.06040000  0.42403000  1.0 -0.1096370362
C  C103  1  0.40540000  0.91840000  0.96336000  1.0 0.0923143558
C  C104  1  0.09460000  0.58160000  0.46336000  1.0 0.0923143558
C  C105  1  0.08160000  0.59460000  0.96336000  1.0 0.0923143558
C  C106  1  0.41840000  0.90540000  0.46336000  1.0 0.0923143558
C  C107  1  0.33170000  0.01810000  0.97817000  1.0 -0.0298291037
C  C108  1  0.16830000  0.48190000  0.47817000  1.0 -0.0298291037
C  C109  1  0.98190000  0.66830000  0.97817000  1.0 -0.0298291037
C  C110  1  0.51810000  0.83170000  0.47817000  1.0 -0.0298291037
C  C111  1  0.41860000  0.08000000  0.95710000  1.0 -0.0930022398
C  C112  1  0.08140000  0.42000000  0.45710000  1.0 -0.0930022398
C  C113  1  0.92000000  0.58140000  0.95710000  1.0 -0.0930022398
C  C114  1  0.58000000  0.91860000  0.45710000  1.0 -0.0930022398
C  C115  1  0.53720000  0.57880000  0.04660000  1.0 -0.0165602342
C  C116  1  0.96280000  0.92120000  0.54660000  1.0 -0.0165602342
C  C117  1  0.42120000  0.46280000  0.04660000  1.0 -0.0165602342
C  C118  1  0.07880000  0.03720000  0.54660000  1.0 -0.0165602342
C  C119  1  0.49010000  0.62190000  0.02450000  1.0 -0.0138387334
C  C120  1  0.00990000  0.87810000  0.52450000  1.0 -0.0138387334
C  C121  1  0.37810000  0.50990000  0.02450000  1.0 -0.0138387334
C  C122  1  0.12190000  0.99010000  0.52450000  1.0 -0.0138387334
C  C123  1  0.47630000  0.52370000  0.82428000  1.0 -0.1368209899
C  C124  1  0.02370000  0.97630000  0.32428000  1.0 -0.1368209899
C  C125  1  0.41820000  0.58180000  0.82567000  1.0 -0.0298291037
C  C126  1  0.08180000  0.91820000  0.32567000  1.0 -0.0298291037
C  C127  1  0.39230000  0.60770000  0.85965000  1.0 -0.1225272712
C  C128  1  0.10770000  0.89230000  0.35965000  1.0 -0.1225272712
C  C129  1  0.42220000  0.57780000  0.89100000  1.0 -0.14641736
C  C130  1  0.07780000  0.92220000  0.39100000  1.0 -0.14641736
C  C131  1  0.51640000  0.48360000  0.95460000  1.0 -0.0165602342
C  C132  1  0.98360000  0.01640000  0.45460000  1.0 -0.0165602342
C  C133  1  0.56620000  0.43380000  0.97460000  1.0 -0.0025070708
C  C134  1  0.93380000  0.06620000  0.47460000  1.0 -0.0025070708
C  C135  1  0.61900000  0.38100000  0.95930000  1.0 0.0217588214
C  C136  1  0.88100000  0.11900000  0.45930000  1.0 0.0217588214
C  C137  1  0.62330000  0.37670000  0.92169000  1.0 -0.2344901033
C  C138  1  0.87670000  0.12330000  0.42169000  1.0 -0.2344901033
C  C139  1  0.57080000  0.42920000  0.85994000  1.0 0.1993818514
C  C140  1  0.92920000  0.07080000  0.35994000  1.0 0.1993818514
C  C141  1  0.50730000  0.49270000  0.85528000  1.0 0.0217588214
C  C142  1  0.99270000  0.00730000  0.35528000  1.0 0.0217588214
C  C143  1  0.48040000  0.51960000  0.88880000  1.0 0.0217588214
C  C144  1  0.01960000  0.98040000  0.38880000  1.0 0.0217588214
C  C145  1  0.52340000  0.47660000  0.91690000  1.0 0.0501099527
C  C146  1  0.97660000  0.02340000  0.41690000  1.0 0.0501099527
C  C147  1  0.57580000  0.42420000  0.90070000  1.0 -0.0165602342
C  C148  1  0.92420000  0.07580000  0.40070000  1.0 -0.0165602342
C  C149  1  0.50810000  0.31310000  0.84373000  1.0 -0.4550528407
C  C150  1  0.99190000  0.18690000  0.34373000  1.0 -0.4550528407
C  C151  1  0.68690000  0.49190000  0.84373000  1.0 -0.4550528407
C  C152  1  0.81310000  0.00810000  0.34373000  1.0 -0.4550528407
C  C153  1  0.38410000  0.61590000  0.79183000  1.0 0.5283172548
C  C154  1  0.11590000  0.88410000  0.29183000  1.0 0.5283172548
C  C155  1  0.66930000  0.33070000  0.98340000  1.0 0.5283172548
C  C156  1  0.83070000  0.16930000  0.48340000  1.0 0.5283172548
C  C157  1  0.17130000  0.82870000  0.76007000  1.0 0.538668406
C  C158  1  0.32870000  0.67130000  0.26007000  1.0 0.538668406
C  C159  1  0.11980000  0.88020000  0.78216000  1.0 -0.0298291037
C  C160  1  0.38020000  0.61980000  0.28216000  1.0 -0.0298291037
C  C161  1  0.06760000  0.93240000  0.76653000  1.0 -0.0930022398
C  C162  1  0.43240000  0.56760000  0.26653000  1.0 -0.0930022398
C  C163  1  0.01920000  0.98080000  0.78632000  1.0 -0.1225272712
C  C164  1  0.48080000  0.51920000  0.28632000  1.0 -0.1225272712
C  C165  1  0.12330000  0.87670000  0.81910000  1.0 -0.1794213497
C  C166  1  0.37670000  0.62330000  0.31910000  1.0 -0.1794213497
C  C167  1  0.07530000  0.92470000  0.84010000  1.0 0.0725273684
C  C168  1  0.42470000  0.57530000  0.34010000  1.0 0.0725273684
C  C169  1  0.02320000  0.97680000  0.82366000  1.0 0.0085669592
C  C170  1  0.47680000  0.52320000  0.32366000  1.0 0.0085669592
C  C171  1  0.97970000  0.02030000  0.85160000  1.0 0.0085669592
C  C172  1  0.52030000  0.47970000  0.35160000  1.0 0.0085669592
C  C173  1  0.92220000  0.07780000  0.84970000  1.0 -0.1340046108
C  C174  1  0.57780000  0.42220000  0.34970000  1.0 -0.1340046108
C  C175  1  0.89190000  0.10810000  0.88143000  1.0 -0.1225272712
C  C176  1  0.60810000  0.39190000  0.38143000  1.0 -0.1225272712
C  C177  1  0.91760000  0.08240000  0.91444000  1.0 -0.0165602342
C  C178  1  0.58240000  0.41760000  0.41444000  1.0 -0.0165602342
C  C179  1  0.97570000  0.02430000  0.91620000  1.0 -0.160265147
C  C180  1  0.52430000  0.47570000  0.41620000  1.0 -0.160265147
C  C181  1  0.00650000  0.99350000  0.88530000  1.0 0.0725273684
C  C182  1  0.49350000  0.50650000  0.38530000  1.0 0.0725273684
C  C183  1  0.04050000  0.90150000  0.88060000  1.0 0.1027134155
C  C184  1  0.45950000  0.59850000  0.38060000  1.0 0.1027134155
C  C185  1  0.09850000  0.95950000  0.88060000  1.0 0.1027134155
C  C186  1  0.40150000  0.54050000  0.38060000  1.0 0.1027134155
C  C187  1  0.88420000  0.11580000  0.94860000  1.0 0.5511742949
C  C188  1  0.61580000  0.38420000  0.44860000  1.0 0.5511742949
C  C189  1  0.06190000  0.85490000  0.90200000  1.0 -0.0744460488
C  C190  1  0.43810000  0.64510000  0.40200000  1.0 -0.0744460488
C  C191  1  0.14510000  0.93810000  0.90200000  1.0 -0.0744460488
C  C192  1  0.35490000  0.56190000  0.40200000  1.0 -0.0744460488
C  C193  1  0.96420000  0.78580000  0.89210000  1.0 -0.1911894355
C  C194  1  0.53580000  0.71420000  0.39210000  1.0 -0.1911894355
C  C195  1  0.21420000  0.03580000  0.89210000  1.0 -0.1911894355
C  C196  1  0.28580000  0.46420000  0.39210000  1.0 -0.1911894355
C  C197  1  0.07240000  0.58600000  0.20886000  1.0 0.0923143558
C  C198  1  0.42760000  0.91400000  0.70886000  1.0 0.0923143558
C  C199  1  0.41400000  0.92760000  0.20886000  1.0 0.0923143558
C  C200  1  0.08600000  0.57240000  0.70886000  1.0 0.0923143558
C  C201  1  0.98900000  0.68060000  0.21372000  1.0 -0.0388122157
C  C202  1  0.51100000  0.81940000  0.71372000  1.0 -0.0388122157
C  C203  1  0.31940000  0.01100000  0.21372000  1.0 -0.0388122157
C  C204  1  0.18060000  0.48900000  0.71372000  1.0 -0.0388122157
C  C205  1  0.92400000  0.59020000  0.19420000  1.0 -0.0959279493
C  C206  1  0.57600000  0.90980000  0.69420000  1.0 -0.0959279493
C  C207  1  0.40980000  0.07600000  0.19420000  1.0 -0.0959279493
C  C208  1  0.09020000  0.42400000  0.69420000  1.0 -0.0959279493
C  C209  1  0.94000000  0.42940000  0.17047000  1.0 -0.1225272712
C  C210  1  0.56000000  0.07060000  0.67047000  1.0 -0.1225272712
C  C211  1  0.57060000  0.06000000  0.17047000  1.0 -0.1225272712
C  C212  1  0.92940000  0.44000000  0.67047000  1.0 -0.1225272712
C  C213  1  0.93890000  0.45010000  0.13022000  1.0 -0.1794213497
C  C214  1  0.56110000  0.04990000  0.63022000  1.0 -0.1794213497
C  C215  1  0.54990000  0.06110000  0.13022000  1.0 -0.1794213497
C  C216  1  0.95010000  0.43890000  0.63022000  1.0 -0.1794213497
C  C217  1  0.04960000  0.53160000  0.11543000  1.0 -0.1911894355
C  C218  1  0.45040000  0.96840000  0.61543000  1.0 -0.1911894355
C  C219  1  0.46840000  0.95040000  0.11543000  1.0 -0.1911894355
C  C220  1  0.03160000  0.54960000  0.61543000  1.0 -0.1911894355
C  C221  1  0.04980000  0.56040000  0.07597000  1.0 -0.1096370362
C  C222  1  0.45020000  0.93960000  0.57597000  1.0 -0.1096370362
C  C223  1  0.43960000  0.95020000  0.07597000  1.0 -0.1096370362
C  C224  1  0.06040000  0.54980000  0.57597000  1.0 -0.1096370362
C  C225  1  0.91840000  0.40540000  0.03664000  1.0 0.0923143558
C  C226  1  0.58160000  0.09460000  0.53664000  1.0 0.0923143558
C  C227  1  0.59460000  0.08160000  0.03664000  1.0 0.0923143558
C  C228  1  0.90540000  0.41840000  0.53664000  1.0 0.0923143558
C  C229  1  0.01810000  0.33170000  0.02183000  1.0 -0.0298291037
C  C230  1  0.48190000  0.16830000  0.52183000  1.0 -0.0298291037
C  C231  1  0.66830000  0.98190000  0.02183000  1.0 -0.0298291037
C  C232  1  0.83170000  0.51810000  0.52183000  1.0 -0.0298291037
C  C233  1  0.08000000  0.41860000  0.04290000  1.0 -0.0930022398
C  C234  1  0.42000000  0.08140000  0.54290000  1.0 -0.0930022398
C  C235  1  0.58140000  0.92000000  0.04290000  1.0 -0.0930022398
C  C236  1  0.91860000  0.58000000  0.54290000  1.0 -0.0930022398
C  C237  1  0.57880000  0.53720000  0.95340000  1.0 -0.0165602342
C  C238  1  0.92120000  0.96280000  0.45340000  1.0 -0.0165602342
C  C239  1  0.46280000  0.42120000  0.95340000  1.0 -0.0165602342
C  C240  1  0.03720000  0.07880000  0.45340000  1.0 -0.0165602342
C  C241  1  0.62190000  0.49010000  0.97550000  1.0 -0.0138387334
C  C242  1  0.87810000  0.00990000  0.47550000  1.0 -0.0138387334
C  C243  1  0.50990000  0.37810000  0.97550000  1.0 -0.0138387334
C  C244  1  0.99010000  0.12190000  0.47550000  1.0 -0.0138387334
N  N1  1  0.67827000  0.08353000  0.77703000  1.0 -0.2924448934
N  N2  1  0.82173000  0.41647000  0.27703000  1.0 -0.2924448934
N  N3  1  0.91647000  0.32173000  0.77703000  1.0 -0.2924448934
N  N4  1  0.58353000  0.17827000  0.27703000  1.0 -0.2924448934
N  N5  1  0.53101000  0.97719000  0.80856000  1.0 0.0501099527
N  N6  1  0.96899000  0.52281000  0.30856000  1.0 0.0501099527
N  N7  1  0.02281000  0.46899000  0.80856000  1.0 0.0501099527
N  N8  1  0.47719000  0.03101000  0.30856000  1.0 0.0501099527
N  N9  1  0.46516000  0.01684000  0.94750000  1.0 0.0501099527
N  N10  1  0.03484000  0.48316000  0.44750000  1.0 0.0501099527
N  N11  1  0.98316000  0.53484000  0.94750000  1.0 0.0501099527
N  N12  1  0.51684000  0.96516000  0.44750000  1.0 0.0501099527
N  N13  1  0.32264000  0.91516000  0.98197000  1.0 -0.2924448934
N  N14  1  0.17736000  0.58484000  0.48197000  1.0 -0.2924448934
N  N15  1  0.08484000  0.67736000  0.98197000  1.0 -0.2924448934
N  N16  1  0.41516000  0.82264000  0.48197000  1.0 -0.2924448934
N  N17  1  0.08353000  0.67827000  0.22297000  1.0 -0.2924448934
N  N18  1  0.41647000  0.82173000  0.72297000  1.0 -0.2924448934
N  N19  1  0.32173000  0.91647000  0.22297000  1.0 -0.2924448934
N  N20  1  0.17827000  0.58353000  0.72297000  1.0 -0.2924448934
N  N21  1  0.97719000  0.53101000  0.19144000  1.0 0.0501099527
N  N22  1  0.52281000  0.96899000  0.69144000  1.0 0.0501099527
N  N23  1  0.46899000  0.02281000  0.19144000  1.0 0.0501099527
N  N24  1  0.03101000  0.47719000  0.69144000  1.0 0.0501099527
N  N25  1  0.01684000  0.46516000  0.05250000  1.0 0.0501099527
N  N26  1  0.48316000  0.03484000  0.55250000  1.0 0.0501099527
N  N27  1  0.53484000  0.98316000  0.05250000  1.0 0.0501099527
N  N28  1  0.96516000  0.51684000  0.55250000  1.0 0.0501099527
N  N29  1  0.91516000  0.32264000  0.01803000  1.0 -0.2924448934
N  N30  1  0.58484000  0.17736000  0.51803000  1.0 -0.2924448934
N  N31  1  0.67736000  0.08484000  0.01803000  1.0 -0.2924448934
N  N32  1  0.82264000  0.41516000  0.51803000  1.0 -0.2924448934
O  O1  1  0.66836000  0.33164000  0.20356000  1.0 -0.5524977326
O  O2  1  0.83164000  0.16836000  0.70356000  1.0 -0.5524977326
O  O3  1  0.59260000  0.40740000  0.23746000  1.0 -0.5425388893
O  O4  1  0.90740000  0.09260000  0.73746000  1.0 -0.5425388893
O  O5  1  0.28444000  0.71556000  0.03406000  1.0 -0.5425388893
O  O6  1  0.21556000  0.78444000  0.53406000  1.0 -0.5425388893
O  O7  1  0.33520000  0.66480000  0.98371000  1.0 -0.5209930047
O  O8  1  0.16480000  0.83520000  0.48371000  1.0 -0.5209930047
O  O9  1  0.78301000  0.21699000  0.22247000  1.0 -0.5604921162
O  O10  1  0.71699000  0.28301000  0.72247000  1.0 -0.5604921162
O  O11  1  0.83190000  0.16810000  0.27267000  1.0 -0.5425388893
O  O12  1  0.66810000  0.33190000  0.77267000  1.0 -0.5425388893
O  O13  1  0.16888000  0.83112000  0.05500000  1.0 -0.5604921162
O  O14  1  0.33112000  0.66888000  0.55500000  1.0 -0.5604921162
O  O15  1  0.09260000  0.90740000  0.02149000  1.0 -0.5209930047
O  O16  1  0.40740000  0.59260000  0.52149000  1.0 -0.5209930047
O  O17  1  0.33164000  0.66836000  0.79644000  1.0 -0.5524977326
O  O18  1  0.16836000  0.83164000  0.29644000  1.0 -0.5524977326
O  O19  1  0.40740000  0.59260000  0.76254000  1.0 -0.5425388893
O  O20  1  0.09260000  0.90740000  0.26254000  1.0 -0.5425388893
O  O21  1  0.71556000  0.28444000  0.96594000  1.0 -0.5425388893
O  O22  1  0.78444000  0.21556000  0.46594000  1.0 -0.5425388893
O  O23  1  0.66480000  0.33520000  0.01629000  1.0 -0.5209930047
O  O24  1  0.83520000  0.16480000  0.51629000  1.0 -0.5209930047
O  O25  1  0.21699000  0.78301000  0.77753000  1.0 -0.5604921162
O  O26  1  0.28301000  0.71699000  0.27753000  1.0 -0.5604921162
O  O27  1  0.16810000  0.83190000  0.72733000  1.0 -0.5425388893
O  O28  1  0.33190000  0.66810000  0.22733000  1.0 -0.5425388893
O  O29  1  0.83112000  0.16888000  0.94500000  1.0 -0.5604921162
O  O30  1  0.66888000  0.33112000  0.44500000  1.0 -0.5604921162
O  O31  1  0.90740000  0.09260000  0.97851000  1.0 -0.5209930047
O  O32  1  0.59260000  0.40740000  0.47851000  1.0 -0.5209930047
