# DDEC6 charges by PACMAN v1.1 (https://github.com/mtap-research/PACMAN-charge/)
data_XOTKIA_ion_pacman
_symmetry_space_group_name_H-M   'P 1'
_cell_length_a   10.48670000
_cell_length_b   23.02600000
_cell_length_c   24.55000000
_cell_angle_alpha   90.00000000
_cell_angle_beta   98.79600000
_cell_angle_gamma   90.00000000
_symmetry_Int_Tables_number   1
_chemical_formula_structural   Ba2EuH30C30S6N6ClO31
_chemical_formula_sum   'Ba8 Eu4 H120 C120 S24 N24 Cl4 O124'
_cell_volume   5858.28985644
_cell_formula_units_Z   4
loop_
 _symmetry_equiv_pos_site_id
 _symmetry_equiv_pos_as_xyz
  1  'x, y, z'
loop_
 _atom_site_type_symbol
 _atom_site_label
 _atom_site_symmetry_multiplicity
 _atom_site_fract_x
 _atom_site_fract_y
 _atom_site_fract_z
 _atom_site_occupancy
 _atom_site_charge
Ba  Ba1  1  0.05595000  0.71209000  0.50140000  1.0 1.4243104012
Ba  Ba2  1  0.55595000  0.78791000  0.50140000  1.0 1.4243104012
Ba  Ba3  1  0.94405000  0.28791000  0.49860000  1.0 1.4243104012
Ba  Ba4  1  0.44405000  0.21209000  0.49860000  1.0 1.4243104012
Ba  Ba5  1  0.23413000  0.74929000  0.97006000  1.0 1.4964102061
Ba  Ba6  1  0.73413000  0.75071000  0.97006000  1.0 1.4964102061
Ba  Ba7  1  0.76587000  0.25071000  0.02994000  1.0 1.4964102061
Ba  Ba8  1  0.26587000  0.24929000  0.02994000  1.0 1.4964102061
Eu  Eu1  1  0.83477000  0.99612000  0.24270000  1.0 1.897982821
Eu  Eu2  1  0.33477000  0.50388000  0.24270000  1.0 1.897982821
Eu  Eu3  1  0.16523000  0.00388000  0.75730000  1.0 1.897982821
Eu  Eu4  1  0.66523000  0.49612000  0.75730000  1.0 1.897982821
H  H1  1  0.64060000  0.91110000  0.25810000  1.0 0.3295084985
H  H2  1  0.14060000  0.58890000  0.25810000  1.0 0.3295084985
H  H3  1  0.35940000  0.08890000  0.74190000  1.0 0.3295084985
H  H4  1  0.85940000  0.41110000  0.74190000  1.0 0.3295084985
H  H5  1  0.57760000  0.95140000  0.20800000  1.0 0.3214288802
H  H6  1  0.07760000  0.54860000  0.20800000  1.0 0.3214288802
H  H7  1  0.42240000  0.04860000  0.79200000  1.0 0.3214288802
H  H8  1  0.92240000  0.45140000  0.79200000  1.0 0.3214288802
H  H9  1  0.79790000  0.87280000  0.25620000  1.0 0.3090796323
H  H10  1  0.29790000  0.62720000  0.25620000  1.0 0.3090796323
H  H11  1  0.20210000  0.12720000  0.74380000  1.0 0.3090796323
H  H12  1  0.70210000  0.37280000  0.74380000  1.0 0.3090796323
H  H13  1  0.94970000  0.88400000  0.27210000  1.0 0.3295084985
H  H14  1  0.44970000  0.61600000  0.27210000  1.0 0.3295084985
H  H15  1  0.05030000  0.11600000  0.72790000  1.0 0.3295084985
H  H16  1  0.55030000  0.38400000  0.72790000  1.0 0.3295084985
H  H17  1  0.26820000  0.87060000  0.91130000  1.0 0.3908564822
H  H18  1  0.76820000  0.62940000  0.91130000  1.0 0.3908564822
H  H19  1  0.73180000  0.12940000  0.08870000  1.0 0.3908564822
H  H20  1  0.23180000  0.37060000  0.08870000  1.0 0.3908564822
H  H21  1  0.23730000  0.82520000  0.86170000  1.0 0.3421384545
H  H22  1  0.73730000  0.67480000  0.86170000  1.0 0.3421384545
H  H23  1  0.76270000  0.17480000  0.13830000  1.0 0.3421384545
H  H24  1  0.26270000  0.32520000  0.13830000  1.0 0.3421384545
H  H25  1  0.24450000  0.68480000  0.08910000  1.0 0.3295084985
H  H26  1  0.74450000  0.81520000  0.08910000  1.0 0.3295084985
H  H27  1  0.75550000  0.31520000  0.91090000  1.0 0.3295084985
H  H28  1  0.25550000  0.18480000  0.91090000  1.0 0.3295084985
H  H29  1  0.14750000  0.73800000  0.09180000  1.0 0.3483979331
H  H30  1  0.64750000  0.76200000  0.09180000  1.0 0.3483979331
H  H31  1  0.85250000  0.26200000  0.90820000  1.0 0.3483979331
H  H32  1  0.35250000  0.23800000  0.90820000  1.0 0.3483979331
H  H33  1  0.13980000  0.90090000  0.44290000  1.0 0.1510713647
H  H34  1  0.63980000  0.59910000  0.44290000  1.0 0.1510713647
H  H35  1  0.86020000  0.09910000  0.55710000  1.0 0.1510713647
H  H36  1  0.36020000  0.40090000  0.55710000  1.0 0.1510713647
H  H37  1  0.24990000  0.82990000  0.30700000  1.0 0.1510713647
H  H38  1  0.74990000  0.67010000  0.30700000  1.0 0.1510713647
H  H39  1  0.75010000  0.17010000  0.69300000  1.0 0.138697166
H  H40  1  0.25010000  0.32990000  0.69300000  1.0 0.1510713647
H  H41  1  0.16420000  0.91170000  0.25540000  1.0 0.138697166
H  H42  1  0.66420000  0.58830000  0.25540000  1.0 0.138697166
H  H43  1  0.83580000  0.08830000  0.74460000  1.0 0.138697166
H  H44  1  0.33580000  0.41170000  0.74460000  1.0 0.138697166
H  H45  1  0.17850000  0.02660000  0.45210000  1.0 0.1510713647
H  H46  1  0.67850000  0.47340000  0.45210000  1.0 0.1510713647
H  H47  1  0.82150000  0.97340000  0.54790000  1.0 0.1510713647
H  H48  1  0.32150000  0.52660000  0.54790000  1.0 0.1510713647
H  H49  1  0.85670000  0.12240000  0.44900000  1.0 0.1510713647
H  H50  1  0.35670000  0.37760000  0.44900000  1.0 0.1510713647
H  H51  1  0.14330000  0.87760000  0.55100000  1.0 0.1510713647
H  H52  1  0.64330000  0.62240000  0.55100000  1.0 0.1510713647
H  H53  1  0.75270000  0.06220000  0.38090000  1.0 0.138697166
H  H54  1  0.25270000  0.43780000  0.38090000  1.0 0.138697166
H  H55  1  0.24730000  0.93780000  0.61910000  1.0 0.138697166
H  H56  1  0.74730000  0.56220000  0.61910000  1.0 0.138697166
H  H57  1  0.73570000  0.93160000  0.01460000  1.0 0.1510713647
H  H58  1  0.23570000  0.56840000  0.01460000  1.0 0.1510713647
H  H59  1  0.26430000  0.06840000  0.98540000  1.0 0.1510713647
H  H60  1  0.76430000  0.43160000  0.98540000  1.0 0.1510713647
H  H61  1  0.40300000  0.91980000  0.07830000  1.0 0.1510713647
H  H62  1  0.90300000  0.58020000  0.07830000  1.0 0.1510713647
H  H63  1  0.59700000  0.08020000  0.92170000  1.0 0.1510713647
H  H64  1  0.09700000  0.41980000  0.92170000  1.0 0.1510713647
H  H65  1  0.48800000  0.98240000  0.14850000  1.0 0.1197225368
H  H66  1  0.98800000  0.51760000  0.14850000  1.0 0.1197225368
H  H67  1  0.51200000  0.01760000  0.85150000  1.0 0.1197225368
H  H68  1  0.01200000  0.48240000  0.85150000  1.0 0.1197225368
H  H69  1  0.79750000  0.05110000  0.00690000  1.0 0.1510713647
H  H70  1  0.29750000  0.44890000  0.00690000  1.0 0.1510713647
H  H71  1  0.20250000  0.94890000  0.99310000  1.0 0.1510713647
H  H72  1  0.70250000  0.55110000  0.99310000  1.0 0.1510713647
H  H73  1  0.15350000  0.09570000  0.08350000  1.0 0.1510713647
H  H74  1  0.65350000  0.40430000  0.08350000  1.0 0.1510713647
H  H75  1  0.84650000  0.90430000  0.91650000  1.0 0.1510713647
H  H76  1  0.34650000  0.59570000  0.91650000  1.0 0.1510713647
H  H77  1  0.12350000  0.03560000  0.15700000  1.0 0.138697166
H  H78  1  0.62350000  0.46440000  0.15700000  1.0 0.138697166
H  H79  1  0.87650000  0.96440000  0.84300000  1.0 0.138697166
H  H80  1  0.37650000  0.53560000  0.84300000  1.0 0.138697166
H  H81  1  0.91740000  0.23070000  0.32700000  1.0 0.1510713647
H  H82  1  0.41740000  0.26930000  0.32700000  1.0 0.1510713647
H  H83  1  0.08260000  0.76930000  0.67300000  1.0 0.1510713647
H  H84  1  0.58260000  0.73070000  0.67300000  1.0 0.1510713647
H  H85  1  0.26680000  0.15590000  0.33250000  1.0 0.138697166
H  H86  1  0.76680000  0.34410000  0.33250000  1.0 0.138697166
H  H87  1  0.73320000  0.84410000  0.66750000  1.0 0.138697166
H  H88  1  0.23320000  0.65590000  0.66750000  1.0 0.138697166
H  H89  1  0.17400000  0.08560000  0.27000000  1.0 0.138697166
H  H90  1  0.67400000  0.41440000  0.27000000  1.0 0.138697166
H  H91  1  0.82600000  0.91440000  0.73000000  1.0 0.138697166
H  H92  1  0.32600000  0.58560000  0.73000000  1.0 0.138697166
H  H93  1  0.81060000  0.24610000  0.21540000  1.0 0.138697166
H  H94  1  0.31060000  0.25390000  0.21540000  1.0 0.138697166
H  H95  1  0.18940000  0.75390000  0.78460000  1.0 0.138697166
H  H96  1  0.68940000  0.74610000  0.78460000  1.0 0.138697166
H  H97  1  0.45960000  0.17530000  0.16620000  1.0 0.1556361319
H  H98  1  0.95960000  0.32470000  0.16620000  1.0 0.1556361319
H  H99  1  0.54040000  0.82470000  0.83380000  1.0 0.1556361319
H  H100  1  0.04040000  0.67530000  0.83380000  1.0 0.1556361319
H  H101  1  0.51880000  0.09640000  0.22290000  1.0 0.138697166
H  H102  1  0.01880000  0.40360000  0.22290000  1.0 0.138697166
H  H103  1  0.48120000  0.90360000  0.77710000  1.0 0.138697166
H  H104  1  0.98120000  0.59640000  0.77710000  1.0 0.138697166
H  H105  1  0.58120000  0.97290000  0.27020000  1.0 0.3908564822
H  H106  1  0.08120000  0.52710000  0.27020000  1.0 0.3908564822
H  H107  1  0.41880000  0.02710000  0.72980000  1.0 0.3908564822
H  H108  1  0.91880000  0.47290000  0.72980000  1.0 0.3908564822
H  H109  1  0.88580000  0.87920000  0.20870000  1.0 0.3295084985
H  H110  1  0.38580000  0.62080000  0.20870000  1.0 0.3295084985
H  H111  1  0.11420000  0.12080000  0.79130000  1.0 0.3295084985
H  H112  1  0.61420000  0.37920000  0.79130000  1.0 0.3295084985
H  H113  1  0.37780000  0.35200000  0.11040000  1.0 0.3805688323
H  H114  1  0.87780000  0.14800000  0.11040000  1.0 0.3805688323
H  H115  1  0.62220000  0.64800000  0.88960000  1.0 0.3805688323
H  H116  1  0.12220000  0.85200000  0.88960000  1.0 0.3805688323
H  H117  1  0.19990000  0.24840000  0.89560000  1.0 0.3483979331
H  H118  1  0.69990000  0.25160000  0.89560000  1.0 0.3483979331
H  H119  1  0.80010000  0.75160000  0.10440000  1.0 0.3483979331
H  H120  1  0.30010000  0.74840000  0.10440000  1.0 0.3483979331
C  C1  1  0.09270000  0.94820000  0.37360000  1.0 0.0895638939
C  C2  1  0.59270000  0.55180000  0.37360000  1.0 0.0895638939
C  C3  1  0.90730000  0.05180000  0.62640000  1.0 0.0895638939
C  C4  1  0.40730000  0.44820000  0.62640000  1.0 0.0895638939
C  C5  1  0.14390000  0.90250000  0.40450000  1.0 -0.1456139087
C  C6  1  0.64390000  0.59750000  0.40450000  1.0 -0.1456139087
C  C7  1  0.85610000  0.09750000  0.59550000  1.0 -0.1456139087
C  C8  1  0.35610000  0.40250000  0.59550000  1.0 -0.1456139087
C  C9  1  0.20220000  0.85810000  0.37900000  1.0 -0.0374096119
C  C10  1  0.70220000  0.64190000  0.37900000  1.0 -0.0374096119
C  C11  1  0.79780000  0.14190000  0.62100000  1.0 -0.0374096119
C  C12  1  0.29780000  0.35810000  0.62100000  1.0 -0.0374096119
C  C13  1  0.21000000  0.86040000  0.32420000  1.0 -0.1296141859
C  C14  1  0.71000000  0.63960000  0.32420000  1.0 -0.1296141859
C  C15  1  0.79000000  0.13960000  0.67580000  1.0 -0.1296141859
C  C16  1  0.29000000  0.36040000  0.67580000  1.0 -0.1296141859
C  C17  1  0.15820000  0.90870000  0.29350000  1.0 -0.0607699953
C  C18  1  0.65820000  0.59130000  0.29350000  1.0 -0.0607699953
C  C19  1  0.84180000  0.09130000  0.70650000  1.0 -0.0607699953
C  C20  1  0.34180000  0.40870000  0.70650000  1.0 -0.0607699953
C  C21  1  0.03050000  0.99860000  0.39650000  1.0 0.0895638939
C  C22  1  0.53050000  0.50140000  0.39650000  1.0 0.0895638939
C  C23  1  0.96950000  0.00140000  0.60350000  1.0 0.0895638939
C  C24  1  0.46950000  0.49860000  0.60350000  1.0 0.0895638939
C  C25  1  0.09120000  0.03410000  0.43690000  1.0 -0.1723830102
C  C26  1  0.59120000  0.46590000  0.43690000  1.0 -0.1723830102
C  C27  1  0.90880000  0.96590000  0.56310000  1.0 -0.1723830102
C  C28  1  0.40880000  0.53410000  0.56310000  1.0 -0.1723830102
C  C29  1  0.02780000  0.08120000  0.45620000  1.0 -0.0607699953
C  C30  1  0.52780000  0.41880000  0.45620000  1.0 -0.0607699953
C  C31  1  0.97220000  0.91880000  0.54380000  1.0 -0.0607699953
C  C32  1  0.47220000  0.58120000  0.54380000  1.0 -0.0607699953
C  C33  1  0.90170000  0.09090000  0.43570000  1.0 -0.1296141859
C  C34  1  0.40170000  0.40910000  0.43570000  1.0 -0.1296141859
C  C35  1  0.09830000  0.90910000  0.56430000  1.0 -0.1296141859
C  C36  1  0.59830000  0.59090000  0.56430000  1.0 -0.1296141859
C  C37  1  0.84030000  0.05490000  0.39570000  1.0 -0.0206220363
C  C38  1  0.34030000  0.44510000  0.39570000  1.0 -0.0206220363
C  C39  1  0.15970000  0.94510000  0.60430000  1.0 -0.0206220363
C  C40  1  0.65970000  0.55490000  0.60430000  1.0 -0.0206220363
C  C41  1  0.72950000  0.98110000  0.08220000  1.0 0.106527084
C  C42  1  0.22950000  0.51890000  0.08220000  1.0 0.106527084
C  C43  1  0.27050000  0.01890000  0.91780000  1.0 0.106527084
C  C44  1  0.77050000  0.48110000  0.91780000  1.0 0.106527084
C  C45  1  0.68370000  0.94260000  0.04140000  1.0 -0.1723830102
C  C46  1  0.18370000  0.55740000  0.04140000  1.0 -0.1723830102
C  C47  1  0.31630000  0.05740000  0.95860000  1.0 -0.1723830102
C  C48  1  0.81630000  0.44260000  0.95860000  1.0 -0.1723830102
C  C49  1  0.56210000  0.91990000  0.03930000  1.0 -0.0607699953
C  C50  1  0.06210000  0.58010000  0.03930000  1.0 -0.0607699953
C  C51  1  0.43790000  0.08010000  0.96070000  1.0 -0.0607699953
C  C52  1  0.93790000  0.41990000  0.96070000  1.0 -0.0607699953
C  C53  1  0.48740000  0.93520000  0.07950000  1.0 -0.1296141859
C  C54  1  0.98740000  0.56480000  0.07950000  1.0 -0.1296141859
C  C55  1  0.51260000  0.06480000  0.92050000  1.0 -0.1296141859
C  C56  1  0.01260000  0.43520000  0.92050000  1.0 -0.1296141859
C  C57  1  0.53740000  0.97240000  0.12060000  1.0 -0.0607699953
C  C58  1  0.03740000  0.52760000  0.12060000  1.0 -0.0607699953
C  C59  1  0.46260000  0.02760000  0.87940000  1.0 -0.0607699953
C  C60  1  0.96260000  0.47240000  0.87940000  1.0 -0.0607699953
C  C61  1  0.84910000  0.01420000  0.08180000  1.0 0.0895638939
C  C62  1  0.34910000  0.48580000  0.08180000  1.0 0.0895638939
C  C63  1  0.15090000  0.98580000  0.91820000  1.0 0.0895638939
C  C64  1  0.65090000  0.51420000  0.91820000  1.0 0.0895638939
C  C65  1  0.86470000  0.04860000  0.03750000  1.0 -0.1781059651
C  C66  1  0.36470000  0.45140000  0.03750000  1.0 -0.1781059651
C  C67  1  0.13530000  0.95140000  0.96250000  1.0 -0.1781059651
C  C68  1  0.63530000  0.54860000  0.96250000  1.0 -0.1781059651
C  C69  1  0.97680000  0.07940000  0.03720000  1.0 -0.0747969546
C  C70  1  0.47680000  0.42060000  0.03720000  1.0 -0.0747969546
C  C71  1  0.02320000  0.92060000  0.96280000  1.0 -0.0790364339
C  C72  1  0.52320000  0.57940000  0.96280000  1.0 -0.0747969546
C  C73  1  0.07530000  0.07470000  0.08260000  1.0 -0.1371420025
C  C74  1  0.57530000  0.42530000  0.08260000  1.0 -0.1371420025
C  C75  1  0.92470000  0.92530000  0.91740000  1.0 -0.1371420025
C  C76  1  0.42470000  0.57470000  0.91740000  1.0 -0.1371420025
C  C77  1  0.05740000  0.03900000  0.12610000  1.0 0.0164599094
C  C78  1  0.55740000  0.46100000  0.12610000  1.0 0.0164599094
C  C79  1  0.94260000  0.96100000  0.87390000  1.0 0.0164599094
C  C80  1  0.44260000  0.53900000  0.87390000  1.0 0.0164599094
C  C81  1  0.91910000  0.16110000  0.27680000  1.0 0.1005005346
C  C82  1  0.41910000  0.33890000  0.27680000  1.0 0.1005005346
C  C83  1  0.08090000  0.83890000  0.72320000  1.0 0.1005005346
C  C84  1  0.58090000  0.66110000  0.72320000  1.0 0.1005005346
C  C85  1  0.97100000  0.20180000  0.31470000  1.0 -0.1629327832
C  C86  1  0.47100000  0.29820000  0.31470000  1.0 -0.1629327832
C  C87  1  0.02900000  0.79820000  0.68530000  1.0 -0.1629327832
C  C88  1  0.52900000  0.70180000  0.68530000  1.0 -0.1629327832
C  C89  1  0.10210000  0.20060000  0.33500000  1.0 -0.0468064396
C  C90  1  0.60210000  0.29940000  0.33500000  1.0 -0.0468064396
C  C91  1  0.89790000  0.79940000  0.66500000  1.0 -0.0468064396
C  C92  1  0.39790000  0.70060000  0.66500000  1.0 -0.0468064396
C  C93  1  0.17720000  0.15740000  0.31860000  1.0 -0.1296141859
C  C94  1  0.67720000  0.34260000  0.31860000  1.0 -0.1296141859
C  C95  1  0.82280000  0.84260000  0.68140000  1.0 -0.1296141859
C  C96  1  0.32280000  0.65740000  0.68140000  1.0 -0.1296141859
C  C97  1  0.12240000  0.11580000  0.28150000  1.0 0.0012681797
C  C98  1  0.62240000  0.38420000  0.28150000  1.0 0.0012681797
C  C99  1  0.87760000  0.88420000  0.71850000  1.0 0.0012681797
C  C100  1  0.37760000  0.61580000  0.71850000  1.0 0.0012681797
C  C101  1  0.78640000  0.16610000  0.24740000  1.0 0.1005005346
C  C102  1  0.28640000  0.33390000  0.24740000  1.0 0.1005005346
C  C103  1  0.21360000  0.83390000  0.75260000  1.0 0.1005005346
C  C104  1  0.71360000  0.66610000  0.75260000  1.0 0.1005005346
C  C105  1  0.75130000  0.21500000  0.21590000  1.0 -0.209052503
C  C106  1  0.25130000  0.28500000  0.21590000  1.0 -0.209052503
C  C107  1  0.24870000  0.78500000  0.78410000  1.0 -0.209052503
C  C108  1  0.74870000  0.71500000  0.78410000  1.0 -0.209052503
C  C109  1  0.62980000  0.21830000  0.18510000  1.0 -0.0790364339
C  C110  1  0.12980000  0.28170000  0.18510000  1.0 -0.0790364339
C  C111  1  0.37020000  0.78170000  0.81490000  1.0 -0.0790364339
C  C112  1  0.87020000  0.71830000  0.81490000  1.0 -0.0790364339
C  C113  1  0.54340000  0.17350000  0.18730000  1.0 -0.1371420025
C  C114  1  0.04340000  0.32650000  0.18730000  1.0 -0.1371420025
C  C115  1  0.45660000  0.82650000  0.81270000  1.0 -0.1371420025
C  C116  1  0.95660000  0.67350000  0.81270000  1.0 -0.1371420025
C  C117  1  0.57910000  0.12660000  0.21990000  1.0 -0.0092456241
C  C118  1  0.07910000  0.37340000  0.21990000  1.0 -0.0092456241
C  C119  1  0.42090000  0.87340000  0.78010000  1.0 -0.0092456241
C  C120  1  0.92090000  0.62660000  0.78010000  1.0 -0.0092456241
S  S1  1  0.25630000  0.79434000  0.41717000  1.0 1.1516744198
S  S2  1  0.75630000  0.70566000  0.41717000  1.0 1.1516744198
S  S3  1  0.74370000  0.20566000  0.58283000  1.0 1.1516744198
S  S4  1  0.24370000  0.29434000  0.58283000  1.0 1.1516744198
S  S5  1  0.11390000  0.12769000  0.50752000  1.0 1.1895965786
S  S6  1  0.61390000  0.37231000  0.50752000  1.0 1.1895965786
S  S7  1  0.88610000  0.87231000  0.49248000  1.0 1.1895965786
S  S8  1  0.38610000  0.62769000  0.49248000  1.0 1.1895965786
S  S9  1  0.49970000  0.87188000  0.98415000  1.0 1.1568642707
S  S10  1  0.99970000  0.62812000  0.98415000  1.0 1.1568642707
S  S11  1  0.50030000  0.12812000  0.01585000  1.0 1.1568642707
S  S12  1  0.00030000  0.37188000  0.01585000  1.0 1.1568642707
S  S13  1  0.98780000  0.12711000  0.98062000  1.0 1.1787020416
S  S14  1  0.48780000  0.37289000  0.98062000  1.0 1.1787020416
S  S15  1  0.01220000  0.87289000  0.01938000  1.0 1.1787020416
S  S16  1  0.51220000  0.62711000  0.01938000  1.0 1.1787020416
S  S17  1  0.16680000  0.25780000  0.38017000  1.0 1.1895965786
S  S18  1  0.66680000  0.24220000  0.38017000  1.0 1.1895965786
S  S19  1  0.83320000  0.74220000  0.61983000  1.0 1.1895965786
S  S20  1  0.33320000  0.75780000  0.61983000  1.0 1.1895965786
S  S21  1  0.59550000  0.27919000  0.14000000  1.0 1.1516744198
S  S22  1  0.09550000  0.22081000  0.14000000  1.0 1.1516744198
S  S23  1  0.40450000  0.72081000  0.86000000  1.0 1.1516744198
S  S24  1  0.90450000  0.77919000  0.86000000  1.0 1.1516744198
N  N1  1  0.09960000  0.95070000  0.31910000  1.0 0.2466778906
N  N2  1  0.59960000  0.54930000  0.31910000  1.0 0.2466778906
N  N3  1  0.90040000  0.04930000  0.68090000  1.0 0.2466778906
N  N4  1  0.40040000  0.45070000  0.68090000  1.0 0.2466778906
N  N5  1  0.90100000  0.00950000  0.37710000  1.0 0.289223637
N  N6  1  0.40100000  0.49050000  0.37710000  1.0 0.289223637
N  N7  1  0.09900000  0.99050000  0.62290000  1.0 0.289223637
N  N8  1  0.59900000  0.50950000  0.62290000  1.0 0.289223637
N  N9  1  0.65720000  0.99520000  0.12180000  1.0 0.2437331678
N  N10  1  0.15720000  0.50480000  0.12180000  1.0 0.2437331678
N  N11  1  0.34280000  0.00480000  0.87820000  1.0 0.2466778906
N  N12  1  0.84280000  0.49520000  0.87820000  1.0 0.2466778906
N  N13  1  0.94730000  0.00920000  0.12500000  1.0 0.289223637
N  N14  1  0.44730000  0.49080000  0.12500000  1.0 0.289223637
N  N15  1  0.05270000  0.99080000  0.87500000  1.0 0.289223637
N  N16  1  0.55270000  0.50920000  0.87500000  1.0 0.289223637
N  N17  1  0.99450000  0.11850000  0.26170000  1.0 0.289223637
N  N18  1  0.49450000  0.38150000  0.26170000  1.0 0.289223637
N  N19  1  0.00550000  0.88150000  0.73830000  1.0 0.289223637
N  N20  1  0.50550000  0.61850000  0.73830000  1.0 0.289223637
N  N21  1  0.70080000  0.12290000  0.24820000  1.0 0.2847354861
N  N22  1  0.20080000  0.37710000  0.24820000  1.0 0.2847354861
N  N23  1  0.29920000  0.87710000  0.75180000  1.0 0.289223637
N  N24  1  0.79920000  0.62290000  0.75180000  1.0 0.289223637
Cl  Cl1  1  0.85710000  0.48921000  0.23489000  1.0 -0.6806669308
Cl  Cl2  1  0.35710000  0.01079000  0.23489000  1.0 -0.6806669308
Cl  Cl3  1  0.14290000  0.51079000  0.76511000  1.0 -0.6806669308
Cl  Cl4  1  0.64290000  0.98921000  0.76511000  1.0 -0.6806669308
O  O1  1  0.05100000  0.99560000  0.28840000  1.0 -0.5916774838
O  O2  1  0.55100000  0.50440000  0.28840000  1.0 -0.5916774838
O  O3  1  0.94900000  0.00440000  0.71160000  1.0 -0.5916774838
O  O4  1  0.44900000  0.49560000  0.71160000  1.0 -0.5916774838
O  O5  1  0.83950000  0.97460000  0.33890000  1.0 -0.5916774838
O  O6  1  0.33950000  0.52540000  0.33890000  1.0 -0.5916774838
O  O7  1  0.16050000  0.02540000  0.66110000  1.0 -0.5916774838
O  O8  1  0.66050000  0.47460000  0.66110000  1.0 -0.5916774838
O  O9  1  0.70090000  0.03260000  0.16170000  1.0 -0.5916774838
O  O10  1  0.20090000  0.46740000  0.16170000  1.0 -0.5916774838
O  O11  1  0.29910000  0.96740000  0.83830000  1.0 -0.5916774838
O  O12  1  0.79910000  0.53260000  0.83830000  1.0 -0.5916774838
O  O13  1  0.93520000  0.97210000  0.16460000  1.0 -0.5683987289
O  O14  1  0.43520000  0.52790000  0.16460000  1.0 -0.5683987289
O  O15  1  0.06480000  0.02790000  0.83540000  1.0 -0.5683987289
O  O16  1  0.56480000  0.47210000  0.83540000  1.0 -0.5683987289
O  O17  1  0.94270000  0.08140000  0.22270000  1.0 -0.5998491018
O  O18  1  0.44270000  0.41860000  0.22270000  1.0 -0.5998491018
O  O19  1  0.05730000  0.91860000  0.77730000  1.0 -0.5998491018
O  O20  1  0.55730000  0.58140000  0.77730000  1.0 -0.5998491018
O  O21  1  0.73150000  0.07600000  0.27870000  1.0 -0.5916774838
O  O22  1  0.23150000  0.42400000  0.27870000  1.0 -0.5998491018
O  O23  1  0.26850000  0.92400000  0.72130000  1.0 -0.5916774838
O  O24  1  0.76850000  0.57600000  0.72130000  1.0 -0.5916774838
O  O25  1  0.15280000  0.75300000  0.40690000  1.0 -0.5998491018
O  O26  1  0.65280000  0.74700000  0.40690000  1.0 -0.5916774838
O  O27  1  0.84720000  0.24700000  0.59310000  1.0 -0.5916774838
O  O28  1  0.34720000  0.25300000  0.59310000  1.0 -0.5916774838
O  O29  1  0.37120000  0.77660000  0.39580000  1.0 -0.5916774838
O  O30  1  0.87120000  0.72340000  0.39580000  1.0 -0.5916774838
O  O31  1  0.62880000  0.22340000  0.60420000  1.0 -0.5916774838
O  O32  1  0.12880000  0.27660000  0.60420000  1.0 -0.5916774838
O  O33  1  0.28300000  0.81170000  0.47450000  1.0 -0.6583046837
O  O34  1  0.78300000  0.68830000  0.47450000  1.0 -0.6583046837
O  O35  1  0.71700000  0.18830000  0.52550000  1.0 -0.6583046837
O  O36  1  0.21700000  0.31170000  0.52550000  1.0 -0.6583046837
O  O37  1  0.14720000  0.09130000  0.55580000  1.0 -0.5760986133
O  O38  1  0.64720000  0.40870000  0.55580000  1.0 -0.5760986133
O  O39  1  0.85280000  0.90870000  0.44420000  1.0 -0.5760986133
O  O40  1  0.35280000  0.59130000  0.44420000  1.0 -0.5760986133
O  O41  1  0.22520000  0.14730000  0.48430000  1.0 -0.6583046837
O  O42  1  0.72520000  0.35270000  0.48430000  1.0 -0.6583046837
O  O43  1  0.77480000  0.85270000  0.51570000  1.0 -0.6583046837
O  O44  1  0.27480000  0.64730000  0.51570000  1.0 -0.6583046837
O  O45  1  0.02340000  0.17280000  0.51520000  1.0 -0.630137508
O  O46  1  0.52340000  0.32720000  0.51520000  1.0 -0.630137508
O  O47  1  0.97660000  0.82720000  0.48480000  1.0 -0.630137508
O  O48  1  0.47660000  0.67280000  0.48480000  1.0 -0.630137508
O  O49  1  0.40660000  0.90730000  0.94930000  1.0 -0.5998491018
O  O50  1  0.90660000  0.59270000  0.94930000  1.0 -0.5998491018
O  O51  1  0.59340000  0.09270000  0.05070000  1.0 -0.5998491018
O  O52  1  0.09340000  0.40730000  0.05070000  1.0 -0.5998491018
O  O53  1  0.44120000  0.82400000  0.00960000  1.0 -0.6806669308
O  O54  1  0.94120000  0.67600000  0.00960000  1.0 -0.6806669308
O  O55  1  0.55880000  0.17600000  0.99040000  1.0 -0.6806669308
O  O56  1  0.05880000  0.32400000  0.99040000  1.0 -0.6806669308
O  O57  1  0.60960000  0.85520000  0.95920000  1.0 -0.630137508
O  O58  1  0.10960000  0.64480000  0.95920000  1.0 -0.630137508
O  O59  1  0.39040000  0.14480000  0.04080000  1.0 -0.630137508
O  O60  1  0.89040000  0.35520000  0.04080000  1.0 -0.630137508
O  O61  1  0.11000000  0.15700000  0.99380000  1.0 -0.6806669308
O  O62  1  0.61000000  0.34300000  0.99380000  1.0 -0.6806669308
O  O63  1  0.89000000  0.84300000  0.00620000  1.0 -0.6806669308
O  O64  1  0.39000000  0.65700000  0.00620000  1.0 -0.6806669308
O  O65  1  0.87680000  0.16390000  0.97750000  1.0 -0.6806669308
O  O66  1  0.37680000  0.33610000  0.97750000  1.0 -0.6806669308
O  O67  1  0.12320000  0.83610000  0.02250000  1.0 -0.6806669308
O  O68  1  0.62320000  0.66390000  0.02250000  1.0 -0.6806669308
O  O69  1  0.98360000  0.08910000  0.93320000  1.0 -0.5916774838
O  O70  1  0.48360000  0.41090000  0.93320000  1.0 -0.5916774838
O  O71  1  0.01640000  0.91090000  0.06680000  1.0 -0.5916774838
O  O72  1  0.51640000  0.58910000  0.06680000  1.0 -0.5916774838
O  O73  1  0.29780000  0.24110000  0.40000000  1.0 -0.6440608649
O  O74  1  0.79780000  0.25890000  0.40000000  1.0 -0.6440608649
O  O75  1  0.70220000  0.75890000  0.60000000  1.0 -0.6440608649
O  O76  1  0.20220000  0.74110000  0.60000000  1.0 -0.6440608649
O  O77  1  0.15540000  0.30940000  0.34710000  1.0 -0.5916774838
O  O78  1  0.65540000  0.19060000  0.34710000  1.0 -0.5916774838
O  O79  1  0.84460000  0.69060000  0.65290000  1.0 -0.5916774838
O  O80  1  0.34460000  0.80940000  0.65290000  1.0 -0.5916774838
O  O81  1  0.08700000  0.25820000  0.42280000  1.0 -0.6481841057
O  O82  1  0.58700000  0.24180000  0.42280000  1.0 -0.6481841057
O  O83  1  0.91300000  0.74180000  0.57720000  1.0 -0.6481841057
O  O84  1  0.41300000  0.75820000  0.57720000  1.0 -0.6481841057
O  O85  1  0.52440000  0.31900000  0.16910000  1.0 -0.5760986133
O  O86  1  0.02440000  0.18100000  0.16910000  1.0 -0.5760986133
O  O87  1  0.47560000  0.68100000  0.83090000  1.0 -0.5760986133
O  O88  1  0.97560000  0.81900000  0.83090000  1.0 -0.5760986133
O  O89  1  0.52250000  0.25610000  0.08960000  1.0 -0.6749974637
O  O90  1  0.02250000  0.24390000  0.08960000  1.0 -0.6749974637
O  O91  1  0.47750000  0.74390000  0.91040000  1.0 -0.6749974637
O  O92  1  0.97750000  0.75610000  0.91040000  1.0 -0.6749974637
O  O93  1  0.72060000  0.30090000  0.13110000  1.0 -0.630137508
O  O94  1  0.22060000  0.19910000  0.13110000  1.0 -0.630137508
O  O95  1  0.27940000  0.69910000  0.86890000  1.0 -0.630137508
O  O96  1  0.77940000  0.80090000  0.86890000  1.0 -0.630137508
O  O97  1  0.62780000  0.95120000  0.24510000  1.0 -0.7386072426
O  O98  1  0.12780000  0.54880000  0.24510000  1.0 -0.7386072426
O  O99  1  0.37220000  0.04880000  0.75490000  1.0 -0.7386072426
O  O100  1  0.87220000  0.45120000  0.75490000  1.0 -0.7386072426
O  O101  1  0.87270000  0.89270000  0.24530000  1.0 -0.7386072426
O  O102  1  0.37270000  0.60730000  0.24530000  1.0 -0.7386072426
O  O103  1  0.12730000  0.10730000  0.75470000  1.0 -0.7386072426
O  O104  1  0.62730000  0.39270000  0.75470000  1.0 -0.7386072426
O  O105  1  0.05740000  0.61100000  0.42240000  1.0 -0.2783691062
O  O106  1  0.55740000  0.88900000  0.42240000  1.0 -0.2783691062
O  O107  1  0.94260000  0.38900000  0.57760000  1.0 -0.2783691062
O  O108  1  0.44260000  0.11100000  0.57760000  1.0 -0.2783691062
O  O109  1  0.99160000  0.62370000  0.58140000  1.0 0.1197225368
O  O110  1  0.49160000  0.87630000  0.58140000  1.0 0.1197225368
O  O111  1  0.00840000  0.37630000  0.41860000  1.0 0.1197225368
O  O112  1  0.50840000  0.12370000  0.41860000  1.0 0.1295389236
O  O113  1  0.21190000  0.83860000  0.89630000  1.0 -0.7069864421
O  O114  1  0.71190000  0.66140000  0.89630000  1.0 -0.7069864421
O  O115  1  0.78810000  0.16140000  0.10370000  1.0 -0.7069864421
O  O116  1  0.28810000  0.33860000  0.10370000  1.0 -0.7069864421
O  O117  1  0.23110000  0.72640000  0.08210000  1.0 -0.692959383
O  O118  1  0.73110000  0.77360000  0.08210000  1.0 -0.692959383
O  O119  1  0.76890000  0.27360000  0.91790000  1.0 -0.692959383
O  O120  1  0.26890000  0.22640000  0.91790000  1.0 -0.692959383
O  O121  1  0.98700000  0.39550000  0.45220000  1.0 0.106527084
O  O122  1  0.48700000  0.10450000  0.45220000  1.0 0.1005005346
O  O123  1  0.01300000  0.60450000  0.54780000  1.0 0.1005005346
O  O124  1  0.51300000  0.89550000  0.54780000  1.0 0.106527084
