# DDEC6 charges by PACMAN v1.1 (https://github.com/mtap-research/PACMAN-charge/)
data_XOTSIK_ASR_pacman
_symmetry_space_group_name_H-M   'P 1'
_cell_length_a   13.96900000
_cell_length_b   33.47000000
_cell_length_c   42.43900000
_cell_angle_alpha   90.00000000
_cell_angle_beta   90.00000000
_cell_angle_gamma   90.00000000
_symmetry_Int_Tables_number   1
_chemical_formula_structural   Cd6H85(C6O)24
_chemical_formula_sum   'Cd24 H340 C576 O96'
_cell_volume   19842.03318677
_cell_formula_units_Z   4
loop_
 _symmetry_equiv_pos_site_id
 _symmetry_equiv_pos_as_xyz
  1  'x, y, z'
loop_
 _atom_site_type_symbol
 _atom_site_label
 _atom_site_symmetry_multiplicity
 _atom_site_fract_x
 _atom_site_fract_y
 _atom_site_fract_z
 _atom_site_occupancy
 _atom_site_charge
Cd  Cd1  1  0.62124000  0.97737000  0.82900000  1.0 1.098117639
Cd  Cd2  1  0.37876000  0.47737000  0.17100000  1.0 1.0926399721
Cd  Cd3  1  0.12124000  0.47737000  0.67100000  1.0 1.0926399721
Cd  Cd4  1  0.87876000  0.97737000  0.32900000  1.0 1.098117639
Cd  Cd5  1  0.85119000  0.01097000  0.86479000  1.0 1.0411372675
Cd  Cd6  1  0.14881000  0.51097000  0.13521000  1.0 1.0411372675
Cd  Cd7  1  0.35119000  0.51097000  0.63521000  1.0 1.0411372675
Cd  Cd8  1  0.64881000  0.01097000  0.36479000  1.0 1.0411372675
Cd  Cd9  1  0.07601000  0.00371000  0.82083000  1.0 0.9835472001
Cd  Cd10  1  0.92399000  0.50371000  0.17917000  1.0 0.9835472001
Cd  Cd11  1  0.57601000  0.50371000  0.67917000  1.0 0.9835472001
Cd  Cd12  1  0.42399000  0.00371000  0.32083000  1.0 0.9835472001
Cd  Cd13  1  0.69399000  0.69966000  0.86256000  1.0 1.0096288813
Cd  Cd14  1  0.30601000  0.19966000  0.13744000  1.0 1.0096288813
Cd  Cd15  1  0.19399000  0.19966000  0.63744000  1.0 1.0096288813
Cd  Cd16  1  0.80601000  0.69966000  0.36256000  1.0 1.0096288813
Cd  Cd17  1  0.91583000  0.74666000  0.83897000  1.0 1.1179285539
Cd  Cd18  1  0.08417000  0.24666000  0.16103000  1.0 1.1179285539
Cd  Cd19  1  0.41583000  0.24666000  0.66103000  1.0 1.1179285539
Cd  Cd20  1  0.58417000  0.74666000  0.33897000  1.0 1.1179285539
Cd  Cd21  1  0.03515000  0.69420000  0.31723000  1.0 1.0469552172
Cd  Cd22  1  0.96485000  0.19420000  0.68277000  1.0 1.0469552172
Cd  Cd23  1  0.53515000  0.19420000  0.18277000  1.0 1.0469552172
Cd  Cd24  1  0.46485000  0.69420000  0.81723000  1.0 1.0469552172
H  H1  1  0.38400000  0.28060000  0.95700000  1.0 0.1314669113
H  H2  1  0.61600000  0.78060000  0.04300000  1.0 0.1314669113
H  H3  1  0.88400000  0.78060000  0.54300000  1.0 0.1314669113
H  H4  1  0.11600000  0.28060000  0.45700000  1.0 0.1314669113
H  H5  1  0.48560000  0.29760000  0.96510000  1.0 0.1388340394
H  H6  1  0.51440000  0.79760000  0.03490000  1.0 0.1388340394
H  H7  1  0.98560000  0.79760000  0.53490000  1.0 0.1388340394
H  H8  1  0.01440000  0.29760000  0.46510000  1.0 0.1388340394
H  H9  1  0.47580000  0.26020000  0.94310000  1.0 0.1314669113
H  H10  1  0.52420000  0.76020000  0.05690000  1.0 0.1314669113
H  H11  1  0.97580000  0.76020000  0.55690000  1.0 0.1314669113
H  H12  1  0.02420000  0.26020000  0.44310000  1.0 0.1388340394
H  H13  1  0.94340000  0.92320000  0.97370000  1.0 0.1195763329
H  H14  1  0.05660000  0.42320000  0.02630000  1.0 0.1195763329
H  H15  1  0.44340000  0.42320000  0.52630000  1.0 0.1195763329
H  H16  1  0.55660000  0.92320000  0.47370000  1.0 0.1195763329
H  H17  1  0.26300000  0.41800000  0.72170000  1.0 0.1195763329
H  H18  1  0.73700000  0.91800000  0.27830000  1.0 0.1195763329
H  H19  1  0.76300000  0.91800000  0.77830000  1.0 0.1195763329
H  H20  1  0.23700000  0.41800000  0.22170000  1.0 0.1195763329
H  H21  1  0.46280000  0.47500000  0.79590000  1.0 0.1195763329
H  H22  1  0.53720000  0.97500000  0.20410000  1.0 0.1195763329
H  H23  1  0.96280000  0.97500000  0.70410000  1.0 0.1195763329
H  H24  1  0.03720000  0.47500000  0.29590000  1.0 0.1195763329
H  H25  1  0.09380000  0.94790000  0.05760000  1.0 0.1314669113
H  H26  1  0.90620000  0.44790000  0.94240000  1.0 0.1314669113
H  H27  1  0.59380000  0.44790000  0.44240000  1.0 0.1314669113
H  H28  1  0.40620000  0.94790000  0.55760000  1.0 0.1314669113
H  H29  1  0.18440000  0.94860000  0.07940000  1.0 0.1314669113
H  H30  1  0.81560000  0.44860000  0.92060000  1.0 0.1314669113
H  H31  1  0.68440000  0.44860000  0.42060000  1.0 0.1314669113
H  H32  1  0.31560000  0.94860000  0.57940000  1.0 0.1314669113
H  H33  1  0.08370000  0.95930000  0.09330000  1.0 0.1314669113
H  H34  1  0.91630000  0.45930000  0.90670000  1.0 0.1314669113
H  H35  1  0.58370000  0.45930000  0.40670000  1.0 0.1314669113
H  H36  1  0.41630000  0.95930000  0.59330000  1.0 0.1314669113
H  H37  1  0.13640000  0.97700000  0.26560000  1.0 0.1195763329
H  H38  1  0.86360000  0.47700000  0.73440000  1.0 0.1195763329
H  H39  1  0.63640000  0.47700000  0.23440000  1.0 0.1195763329
H  H40  1  0.36360000  0.97700000  0.76560000  1.0 0.1195763329
H  H41  1  0.47040000  0.42550000  0.07950000  1.0 0.1314669113
H  H42  1  0.52960000  0.92550000  0.92050000  1.0 0.1314669113
H  H43  1  0.97040000  0.92550000  0.42050000  1.0 0.1314669113
H  H44  1  0.02960000  0.42550000  0.57950000  1.0 0.1314669113
H  H45  1  0.50520000  0.10070000  0.83390000  1.0 0.1195763329
H  H46  1  0.49480000  0.60070000  0.16610000  1.0 0.1195763329
H  H47  1  0.00520000  0.60070000  0.66610000  1.0 0.1195763329
H  H48  1  0.99480000  0.10070000  0.33390000  1.0 0.1195763329
H  H49  1  0.91320000  0.71000000  0.15330000  1.0 0.1314669113
H  H50  1  0.08680000  0.21000000  0.84670000  1.0 0.1314669113
H  H51  1  0.41320000  0.21000000  0.34670000  1.0 0.1314669113
H  H52  1  0.58680000  0.71000000  0.65330000  1.0 0.1314669113
H  H53  1  0.33780000  0.01510000  0.20990000  1.0 0.1128458967
H  H54  1  0.66220000  0.51510000  0.79010000  1.0 0.1195763329
H  H55  1  0.83780000  0.51510000  0.29010000  1.0 0.1195763329
H  H56  1  0.16220000  0.01510000  0.70990000  1.0 0.1128458967
H  H57  1  0.19830000  0.92430000  0.90580000  1.0 0.1195763329
H  H58  1  0.80170000  0.42430000  0.09420000  1.0 0.1195763329
H  H59  1  0.69830000  0.42430000  0.59420000  1.0 0.1195763329
H  H60  1  0.30170000  0.92430000  0.40580000  1.0 0.1195763329
H  H61  1  0.05770000  0.94840000  0.22130000  1.0 0.1195763329
H  H62  1  0.94230000  0.44840000  0.77870000  1.0 0.1195763329
H  H63  1  0.55770000  0.44840000  0.27870000  1.0 0.1195763329
H  H64  1  0.44230000  0.94840000  0.72130000  1.0 0.1195763329
H  H65  1  0.50290000  0.38900000  0.03470000  1.0 0.1195763329
H  H66  1  0.49710000  0.88900000  0.96530000  1.0 0.1195763329
H  H67  1  0.00290000  0.88900000  0.46530000  1.0 0.1195763329
H  H68  1  0.99710000  0.38900000  0.53470000  1.0 0.1195763329
H  H69  1  0.28200000  0.38970000  0.77020000  1.0 0.1128458967
H  H70  1  0.71800000  0.88970000  0.22980000  1.0 0.1128458967
H  H71  1  0.78200000  0.88970000  0.72980000  1.0 0.1128458967
H  H72  1  0.21800000  0.38970000  0.27020000  1.0 0.1128458967
H  H73  1  0.44630000  0.50550000  0.74900000  1.0 0.1314669113
H  H74  1  0.55370000  0.00550000  0.25100000  1.0 0.1314669113
H  H75  1  0.94630000  0.00550000  0.75100000  1.0 0.1314669113
H  H76  1  0.05370000  0.50550000  0.24900000  1.0 0.1314669113
H  H77  1  0.42880000  0.15980000  0.84670000  1.0 0.1314669113
H  H78  1  0.57120000  0.65980000  0.15330000  1.0 0.1314669113
H  H79  1  0.92880000  0.65980000  0.65330000  1.0 0.1314669113
H  H80  1  0.07120000  0.15980000  0.34670000  1.0 0.1314669113
H  H81  1  0.21740000  0.45190000  0.04720000  1.0 0.1128458967
H  H82  1  0.78260000  0.95190000  0.95280000  1.0 0.1128458967
H  H83  1  0.71740000  0.95190000  0.45280000  1.0 0.1128458967
H  H84  1  0.28260000  0.45190000  0.54720000  1.0 0.1128458967
H  H85  1  0.74290000  0.13130000  0.88170000  1.0 0.1128458967
H  H86  1  0.25710000  0.63130000  0.11830000  1.0 0.1128458967
H  H87  1  0.24290000  0.63130000  0.61830000  1.0 0.1128458967
H  H88  1  0.75710000  0.13130000  0.38170000  1.0 0.1128458967
H  H89  1  0.06060000  0.77190000  0.05080000  1.0 0.1388340394
H  H90  1  0.93940000  0.27190000  0.94920000  1.0 0.1388340394
H  H91  1  0.56060000  0.27190000  0.44920000  1.0 0.1388340394
H  H92  1  0.43940000  0.77190000  0.55080000  1.0 0.1388340394
H  H93  1  0.11930000  0.80020000  0.02860000  1.0 0.1388340394
H  H94  1  0.88070000  0.30020000  0.97140000  1.0 0.1388340394
H  H95  1  0.61930000  0.30020000  0.47140000  1.0 0.1388340394
H  H96  1  0.38070000  0.80020000  0.52860000  1.0 0.1388340394
H  H97  1  0.00760000  0.80380000  0.03020000  1.0 0.1314669113
H  H98  1  0.99240000  0.30380000  0.96980000  1.0 0.1314669113
H  H99  1  0.50760000  0.30380000  0.46980000  1.0 0.1314669113
H  H100  1  0.49240000  0.80380000  0.53020000  1.0 0.1314669113
H  H101  1  0.33130000  0.42640000  0.91140000  1.0 0.1314669113
H  H102  1  0.66870000  0.92640000  0.08860000  1.0 0.1314669113
H  H103  1  0.83130000  0.92640000  0.58860000  1.0 0.1314669113
H  H104  1  0.16870000  0.42640000  0.41140000  1.0 0.1314669113
H  H105  1  0.39060000  0.43380000  0.88060000  1.0 0.1314669113
H  H106  1  0.60940000  0.93380000  0.11940000  1.0 0.1314669113
H  H107  1  0.89060000  0.93380000  0.61940000  1.0 0.1314669113
H  H108  1  0.10940000  0.43380000  0.38060000  1.0 0.1314669113
H  H109  1  0.44160000  0.43470000  0.91360000  1.0 0.1388340394
H  H110  1  0.55840000  0.93470000  0.08640000  1.0 0.1388340394
H  H111  1  0.94160000  0.93470000  0.58640000  1.0 0.1388340394
H  H112  1  0.05840000  0.43470000  0.41360000  1.0 0.1388340394
H  H113  1  0.92600000  0.95120000  0.92440000  1.0 0.1195763329
H  H114  1  0.07400000  0.45120000  0.07560000  1.0 0.1195763329
H  H115  1  0.42600000  0.45120000  0.57560000  1.0 0.1195763329
H  H116  1  0.57400000  0.95120000  0.42440000  1.0 0.1195763329
H  H117  1  0.12480000  0.82380000  0.16670000  1.0 0.1388340394
H  H118  1  0.87520000  0.32380000  0.83330000  1.0 0.1388340394
H  H119  1  0.62480000  0.32380000  0.33333333  1.0 0.1388340394
H  H120  1  0.37520000  0.82380000  0.66666667  1.0 0.1388340394
H  H121  1  0.01610000  0.81430000  0.16130000  1.0 0.1388340394
H  H122  1  0.98390000  0.31430000  0.83870000  1.0 0.1388340394
H  H123  1  0.51610000  0.31430000  0.33870000  1.0 0.1388340394
H  H124  1  0.48390000  0.81430000  0.66130000  1.0 0.1388340394
H  H125  1  0.04780000  0.85730000  0.17150000  1.0 0.1388340394
H  H126  1  0.95220000  0.35730000  0.82850000  1.0 0.1388340394
H  H127  1  0.54780000  0.35730000  0.32850000  1.0 0.1388340394
H  H128  1  0.45220000  0.85730000  0.67150000  1.0 0.1388340394
H  H129  1  0.27010000  0.98420000  0.16670000  1.0 0.1128458967
H  H130  1  0.72990000  0.48420000  0.83330000  1.0 0.1128458967
H  H131  1  0.77010000  0.48420000  0.33333333  1.0 0.1128458967
H  H132  1  0.22990000  0.98420000  0.66666667  1.0 0.1128458967
H  H133  1  0.90460000  0.64300000  0.16930000  1.0 0.1314669113
H  H134  1  0.09540000  0.14300000  0.83070000  1.0 0.1314669113
H  H135  1  0.40460000  0.14300000  0.33070000  1.0 0.1314669113
H  H136  1  0.59540000  0.64300000  0.66930000  1.0 0.1314669113
H  H137  1  0.66700000  0.19500000  0.89150000  1.0 0.1128458967
H  H138  1  0.33300000  0.69500000  0.10850000  1.0 0.1128458967
H  H139  1  0.16700000  0.69500000  0.60850000  1.0 0.1128458967
H  H140  1  0.83300000  0.19500000  0.39150000  1.0 0.1128458967
H  H141  1  0.25920000  0.42720000  0.99770000  1.0 0.1195763329
H  H142  1  0.74080000  0.92720000  0.00230000  1.0 0.1195763329
H  H143  1  0.75920000  0.92720000  0.50230000  1.0 0.1195763329
H  H144  1  0.24080000  0.42720000  0.49770000  1.0 0.1195763329
H  H145  1  0.52210000  0.30260000  0.82750000  1.0 0.1388340394
H  H146  1  0.47790000  0.80260000  0.17250000  1.0 0.1388340394
H  H147  1  0.02210000  0.80260000  0.67250000  1.0 0.1388340394
H  H148  1  0.97790000  0.30260000  0.32750000  1.0 0.1388340394
H  H149  1  0.42590000  0.32250000  0.81680000  1.0 0.1314669113
H  H150  1  0.57410000  0.82250000  0.18320000  1.0 0.1314669113
H  H151  1  0.92590000  0.82250000  0.68320000  1.0 0.1314669113
H  H152  1  0.07410000  0.32250000  0.31680000  1.0 0.1314669113
H  H153  1  0.42570000  0.27880000  0.83010000  1.0 0.1388340394
H  H154  1  0.57430000  0.77880000  0.16990000  1.0 0.1388340394
H  H155  1  0.92570000  0.77880000  0.66990000  1.0 0.1388340394
H  H156  1  0.07430000  0.27880000  0.33010000  1.0 0.1388340394
H  H157  1  0.08390000  0.61240000  0.09990000  1.0 0.1314669113
H  H158  1  0.91610000  0.11240000  0.90010000  1.0 0.1314669113
H  H159  1  0.58390000  0.11240000  0.40010000  1.0 0.1314669113
H  H160  1  0.41610000  0.61240000  0.59990000  1.0 0.1314669113
H  H161  1  0.11150000  0.67950000  0.09010000  1.0 0.1195763329
H  H162  1  0.88850000  0.17950000  0.90990000  1.0 0.1195763329
H  H163  1  0.61150000  0.17950000  0.40990000  1.0 0.1195763329
H  H164  1  0.38850000  0.67950000  0.59010000  1.0 0.1195763329
H  H165  1  0.22370000  0.91180000  0.95680000  1.0 0.1388340394
H  H166  1  0.77630000  0.41180000  0.04320000  1.0 0.1388340394
H  H167  1  0.72370000  0.41180000  0.54320000  1.0 0.1388340394
H  H168  1  0.27630000  0.91180000  0.45680000  1.0 0.1388340394
H  H169  1  0.16720000  0.87510000  0.94320000  1.0 0.1314669113
H  H170  1  0.83280000  0.37510000  0.05680000  1.0 0.1314669113
H  H171  1  0.66720000  0.37510000  0.55680000  1.0 0.1314669113
H  H172  1  0.33280000  0.87510000  0.44320000  1.0 0.1314669113
H  H173  1  0.07880000  0.22290000  0.74800000  1.0 0.1314669113
H  H174  1  0.92120000  0.72290000  0.25200000  1.0 0.1314669113
H  H175  1  0.57880000  0.72290000  0.75200000  1.0 0.1314669113
H  H176  1  0.42120000  0.22290000  0.24800000  1.0 0.1314669113
H  H177  1  0.18410000  0.44140000  0.95640000  1.0 0.1314669113
H  H178  1  0.81590000  0.94140000  0.04360000  1.0 0.1314669113
H  H179  1  0.68410000  0.94140000  0.54360000  1.0 0.1314669113
H  H180  1  0.31590000  0.44140000  0.45640000  1.0 0.1314669113
H  H181  1  0.07580000  0.42940000  0.95840000  1.0 0.1388340394
H  H182  1  0.92420000  0.92940000  0.04160000  1.0 0.1388340394
H  H183  1  0.57580000  0.92940000  0.54160000  1.0 0.1314669113
H  H184  1  0.42420000  0.42940000  0.45840000  1.0 0.1388340394
H  H185  1  0.10700000  0.46600000  0.93780000  1.0 0.1388340394
H  H186  1  0.89300000  0.96600000  0.06220000  1.0 0.1388340394
H  H187  1  0.60700000  0.96600000  0.56220000  1.0 0.1388340394
H  H188  1  0.39300000  0.46600000  0.43780000  1.0 0.1388340394
H  H189  1  0.08140000  0.25400000  0.79620000  1.0 0.1195763329
H  H190  1  0.91860000  0.75400000  0.20380000  1.0 0.1195763329
H  H191  1  0.58140000  0.75400000  0.70380000  1.0 0.1195763329
H  H192  1  0.41860000  0.25400000  0.29620000  1.0 0.1195763329
H  H193  1  0.07520000  0.42440000  0.82300000  1.0 0.1388340394
H  H194  1  0.92480000  0.92440000  0.17700000  1.0 0.1388340394
H  H195  1  0.57520000  0.92440000  0.67700000  1.0 0.1388340394
H  H196  1  0.42480000  0.42440000  0.32300000  1.0 0.1388340394
H  H197  1  0.16740000  0.40090000  0.81300000  1.0 0.1314669113
H  H198  1  0.83260000  0.90090000  0.18700000  1.0 0.1314669113
H  H199  1  0.66740000  0.90090000  0.68700000  1.0 0.1314669113
H  H200  1  0.33260000  0.40090000  0.31300000  1.0 0.1314669113
H  H201  1  0.17620000  0.44430000  0.82650000  1.0 0.1388340394
H  H202  1  0.82380000  0.94430000  0.17350000  1.0 0.1388340394
H  H203  1  0.67620000  0.94430000  0.67350000  1.0 0.1388340394
H  H204  1  0.32380000  0.44430000  0.32650000  1.0 0.1388340394
H  H205  1  0.24480000  0.29640000  0.91390000  1.0 0.1314669113
H  H206  1  0.75520000  0.79640000  0.08610000  1.0 0.1314669113
H  H207  1  0.74480000  0.79640000  0.58610000  1.0 0.1314669113
H  H208  1  0.25520000  0.29640000  0.41390000  1.0 0.1314669113
H  H209  1  0.20000000  0.28760000  0.88070000  1.0 0.1388340394
H  H210  1  0.80000000  0.78760000  0.11930000  1.0 0.1388340394
H  H211  1  0.70000000  0.78760000  0.61930000  1.0 0.1388340394
H  H212  1  0.30000000  0.28760000  0.38070000  1.0 0.1388340394
H  H213  1  0.13430000  0.28950000  0.91070000  1.0 0.1388340394
H  H214  1  0.86570000  0.78950000  0.08930000  1.0 0.1388340394
H  H215  1  0.63430000  0.78950000  0.58930000  1.0 0.1388340394
H  H216  1  0.36570000  0.28950000  0.41070000  1.0 0.1388340394
H  H217  1  0.82030000  0.57550000  0.86380000  1.0 0.1195763329
H  H218  1  0.17970000  0.07550000  0.13620000  1.0 0.1195763329
H  H219  1  0.32030000  0.07550000  0.63620000  1.0 0.1195763329
H  H220  1  0.67970000  0.57550000  0.36380000  1.0 0.1195763329
H  H221  1  0.31530000  0.27980000  0.72300000  1.0 0.1128458967
H  H222  1  0.68470000  0.77980000  0.27700000  1.0 0.1128458967
H  H223  1  0.81530000  0.77980000  0.77700000  1.0 0.1128458967
H  H224  1  0.18470000  0.27980000  0.22300000  1.0 0.1128458967
H  H225  1  0.31520000  0.31580000  0.76760000  1.0 0.1195763329
H  H226  1  0.68480000  0.81580000  0.23240000  1.0 0.1195763329
H  H227  1  0.81520000  0.81580000  0.73240000  1.0 0.1195763329
H  H228  1  0.18480000  0.31580000  0.26760000  1.0 0.1195763329
H  H229  1  0.14980000  0.57370000  0.86470000  1.0 0.1314669113
H  H230  1  0.85020000  0.07370000  0.13530000  1.0 0.1314669113
H  H231  1  0.64980000  0.07370000  0.63530000  1.0 0.1314669113
H  H232  1  0.35020000  0.57370000  0.36470000  1.0 0.1314669113
H  H233  1  0.89650000  0.51920000  0.86820000  1.0 0.1195763329
H  H234  1  0.10350000  0.01920000  0.13180000  1.0 0.1195763329
H  H235  1  0.39650000  0.01920000  0.63180000  1.0 0.1195763329
H  H236  1  0.60350000  0.51920000  0.36820000  1.0 0.1195763329
H  H237  1  0.07550000  0.63210000  0.85580000  1.0 0.1314669113
H  H238  1  0.92450000  0.13210000  0.14420000  1.0 0.1314669113
H  H239  1  0.57550000  0.13210000  0.64420000  1.0 0.1314669113
H  H240  1  0.42450000  0.63210000  0.35580000  1.0 0.1314669113
H  H241  1  0.08620000  0.34420000  0.03150000  1.0 0.1195763329
H  H242  1  0.91380000  0.84420000  0.96850000  1.0 0.1195763329
H  H243  1  0.58620000  0.84420000  0.46850000  1.0 0.1195763329
H  H244  1  0.41380000  0.34420000  0.53150000  1.0 0.1195763329
H  H245  1  0.24090000  0.26430000  0.98690000  1.0 0.1314669113
H  H246  1  0.75910000  0.76430000  0.01310000  1.0 0.1314669113
H  H247  1  0.74090000  0.76430000  0.51310000  1.0 0.1314669113
H  H248  1  0.25910000  0.26430000  0.48690000  1.0 0.1314669113
H  H249  1  0.28040000  0.23650000  0.03300000  1.0 0.1314669113
H  H250  1  0.71960000  0.73650000  0.96700000  1.0 0.1314669113
H  H251  1  0.78040000  0.73650000  0.46700000  1.0 0.1314669113
H  H252  1  0.21960000  0.23650000  0.53300000  1.0 0.1314669113
H  H253  1  0.11180000  0.30920000  0.07760000  1.0 0.1314669113
H  H254  1  0.88820000  0.80920000  0.92240000  1.0 0.1314669113
H  H255  1  0.61180000  0.80920000  0.42240000  1.0 0.1314669113
H  H256  1  0.38820000  0.30920000  0.57760000  1.0 0.1314669113
H  H257  1  0.32000000  0.03880000  0.08120000  1.0 0.1195763329
H  H258  1  0.68000000  0.53880000  0.91880000  1.0 0.1195763329
H  H259  1  0.82000000  0.53880000  0.41880000  1.0 0.1195763329
H  H260  1  0.18000000  0.03880000  0.58120000  1.0 0.1195763329
H  H261  1  0.29700000  0.89990000  0.15020000  1.0 0.1388340394
H  H262  1  0.70300000  0.39990000  0.84980000  1.0 0.1388340394
H  H263  1  0.79700000  0.39990000  0.34980000  1.0 0.1388340394
H  H264  1  0.20300000  0.89990000  0.65020000  1.0 0.1388340394
H  H265  1  0.34050000  0.85800000  0.15860000  1.0 0.1388340394
H  H266  1  0.65950000  0.35800000  0.84140000  1.0 0.1388340394
H  H267  1  0.84050000  0.35800000  0.34140000  1.0 0.1388340394
H  H268  1  0.15950000  0.85800000  0.65860000  1.0 0.1388340394
H  H269  1  0.40800000  0.89330000  0.14870000  1.0 0.1314669113
H  H270  1  0.59200000  0.39330000  0.85130000  1.0 0.1314669113
H  H271  1  0.90800000  0.39330000  0.35130000  1.0 0.1314669113
H  H272  1  0.09200000  0.89330000  0.64870000  1.0 0.1314669113
H  H273  1  0.19870000  0.71330000  0.16070000  1.0 0.1128458967
H  H274  1  0.80130000  0.21330000  0.83930000  1.0 0.1128458967
H  H275  1  0.69870000  0.21330000  0.33930000  1.0 0.1128458967
H  H276  1  0.30130000  0.71330000  0.66070000  1.0 0.1128458967
H  H277  1  0.33850000  0.10240000  0.10040000  1.0 0.1314669113
H  H278  1  0.66150000  0.60240000  0.89960000  1.0 0.1314669113
H  H279  1  0.83850000  0.60240000  0.39960000  1.0 0.1314669113
H  H280  1  0.16150000  0.10240000  0.60040000  1.0 0.1314669113
H  H281  1  0.12090000  0.68740000  0.20460000  1.0 0.1128458967
H  H282  1  0.87910000  0.18740000  0.79540000  1.0 0.1128458967
H  H283  1  0.62090000  0.18740000  0.29540000  1.0 0.1128458967
H  H284  1  0.37910000  0.68740000  0.70460000  1.0 0.1128458967
H  H285  1  0.34480000  0.94110000  0.03680000  1.0 0.1388340394
H  H286  1  0.65520000  0.44110000  0.96320000  1.0 0.1388340394
H  H287  1  0.84480000  0.44110000  0.46320000  1.0 0.1388340394
H  H288  1  0.15520000  0.94110000  0.53680000  1.0 0.1388340394
H  H289  1  0.41110000  0.91240000  0.01750000  1.0 0.1388340394
H  H290  1  0.58890000  0.41240000  0.98250000  1.0 0.1388340394
H  H291  1  0.91110000  0.41240000  0.48250000  1.0 0.1388340394
H  H292  1  0.08890000  0.91240000  0.51750000  1.0 0.1314669113
H  H293  1  0.29980000  0.91080000  0.01280000  1.0 0.1388340394
H  H294  1  0.70020000  0.41080000  0.98720000  1.0 0.1388340394
H  H295  1  0.79980000  0.41080000  0.48720000  1.0 0.1388340394
H  H296  1  0.20020000  0.91080000  0.51280000  1.0 0.1388340394
H  H297  1  0.21890000  0.78590000  0.25050000  1.0 0.1128458967
H  H298  1  0.78110000  0.28590000  0.74950000  1.0 0.1195763329
H  H299  1  0.71890000  0.28590000  0.24950000  1.0 0.1195763329
H  H300  1  0.28110000  0.78590000  0.75050000  1.0 0.1128458967
H  H301  1  0.59130000  0.78140000  0.92280000  1.0 0.1195763329
H  H302  1  0.40870000  0.28140000  0.07720000  1.0 0.1128458967
H  H303  1  0.09130000  0.28140000  0.57720000  1.0 0.1128458967
H  H304  1  0.90870000  0.78140000  0.42280000  1.0 0.1128458967
H  H305  1  0.24300000  0.76200000  0.07510000  1.0 0.1314669113
H  H306  1  0.75700000  0.26200000  0.92490000  1.0 0.1314669113
H  H307  1  0.74300000  0.26200000  0.42490000  1.0 0.1314669113
H  H308  1  0.25700000  0.76200000  0.57510000  1.0 0.1314669113
H  H309  1  0.28800000  0.76760000  0.04160000  1.0 0.1388340394
H  H310  1  0.71200000  0.26760000  0.95840000  1.0 0.1388340394
H  H311  1  0.78800000  0.26760000  0.45840000  1.0 0.1388340394
H  H312  1  0.21200000  0.76760000  0.54160000  1.0 0.1388340394
H  H313  1  0.35350000  0.75650000  0.07030000  1.0 0.1388340394
H  H314  1  0.64650000  0.25650000  0.92970000  1.0 0.1388340394
H  H315  1  0.85350000  0.25650000  0.42970000  1.0 0.1388340394
H  H316  1  0.14650000  0.75650000  0.57030000  1.0 0.1388340394
H  H317  1  0.51090000  0.05710000  0.16940000  1.0 0.1314669113
H  H318  1  0.48910000  0.55710000  0.83060000  1.0 0.1314669113
H  H319  1  0.01090000  0.55710000  0.33060000  1.0 0.1314669113
H  H320  1  0.98910000  0.05710000  0.66940000  1.0 0.1314669113
H  H321  1  0.53090000  0.81220000  0.97090000  1.0 0.1128458967
H  H322  1  0.46910000  0.31220000  0.02910000  1.0 0.1128458967
H  H323  1  0.03090000  0.31220000  0.52910000  1.0 0.1128458967
H  H324  1  0.96910000  0.81220000  0.47090000  1.0 0.1128458967
H  H325  1  0.29540000  0.80280000  0.20790000  1.0 0.1314669113
H  H326  1  0.70460000  0.30280000  0.79210000  1.0 0.1314669113
H  H327  1  0.79540000  0.30280000  0.29210000  1.0 0.1314669113
H  H328  1  0.20460000  0.80280000  0.70790000  1.0 0.1314669113
H  H329  1  0.26280000  0.78930000  0.94030000  1.0 0.1195763329
H  H330  1  0.73720000  0.28930000  0.05970000  1.0 0.1195763329
H  H331  1  0.76280000  0.28930000  0.55970000  1.0 0.1195763329
H  H332  1  0.23720000  0.78930000  0.44030000  1.0 0.1195763329
H  H333  1  0.33080000  0.76910000  0.89050000  1.0 0.1314669113
H  H334  1  0.66920000  0.26910000  0.10950000  1.0 0.1314669113
H  H335  1  0.83080000  0.26910000  0.60950000  1.0 0.1314669113
H  H336  1  0.16920000  0.76910000  0.39050000  1.0 0.1314669113
H  H337  1  0.46800000  0.99290000  0.15160000  1.0 0.1195763329
H  H338  1  0.53200000  0.49290000  0.84840000  1.0 0.1195763329
H  H339  1  0.96800000  0.49290000  0.34840000  1.0 0.1195763329
H  H340  1  0.03200000  0.99290000  0.65160000  1.0 0.1195763329
C  C1  1  0.41160000  0.37770000  0.89880000  1.0 0.1128458967
C  C2  1  0.58840000  0.87770000  0.10120000  1.0 0.1128458967
C  C3  1  0.91160000  0.87770000  0.60120000  1.0 0.1128458967
C  C4  1  0.08840000  0.37770000  0.39880000  1.0 0.1128458967
C  C5  1  0.06760000  0.81770000  0.10040000  1.0 -0.0503402153
C  C6  1  0.93240000  0.31770000  0.89960000  1.0 -0.0503402153
C  C7  1  0.56760000  0.31770000  0.39960000  1.0 -0.0503402153
C  C8  1  0.43240000  0.81770000  0.60040000  1.0 -0.0503402153
C  C9  1  0.35010000  0.48340000  0.69750000  1.0 0.5639263658
C  C10  1  0.64990000  0.98340000  0.30250000  1.0 0.5639263658
C  C11  1  0.85010000  0.98340000  0.80250000  1.0 0.5639263658
C  C12  1  0.14990000  0.48340000  0.19750000  1.0 0.5639263658
C  C13  1  0.42140000  0.36060000  0.86750000  1.0 0.0025289238
C  C14  1  0.57860000  0.86060000  0.13250000  1.0 0.0025289238
C  C15  1  0.92140000  0.86060000  0.63250000  1.0 0.0025289238
C  C16  1  0.07860000  0.36060000  0.36750000  1.0 0.0025289238
C  C17  1  0.35290000  0.46380000  0.72730000  1.0 -0.0809255319
C  C18  1  0.64710000  0.96380000  0.27270000  1.0 -0.0809255319
C  C19  1  0.85290000  0.96380000  0.77270000  1.0 -0.0809255319
C  C20  1  0.14710000  0.46380000  0.22730000  1.0 -0.0809255319
C  C21  1  0.07360000  0.82890000  0.06910000  1.0 0.1195763329
C  C22  1  0.92640000  0.32890000  0.93090000  1.0 0.1195763329
C  C23  1  0.57360000  0.32890000  0.43090000  1.0 0.1195763329
C  C24  1  0.42640000  0.82890000  0.56910000  1.0 0.1195763329
C  C25  1  0.41690000  0.35280000  0.92460000  1.0 -0.0291900705
C  C26  1  0.58310000  0.85280000  0.07540000  1.0 -0.0291900705
C  C27  1  0.91690000  0.85280000  0.57540000  1.0 -0.0291900705
C  C28  1  0.08310000  0.35280000  0.42460000  1.0 -0.0291900705
C  C29  1  0.40990000  0.36890000  0.95540000  1.0 -0.0503402153
C  C30  1  0.59010000  0.86890000  0.04460000  1.0 -0.0503402153
C  C31  1  0.90990000  0.86890000  0.54460000  1.0 -0.0503402153
C  C32  1  0.09010000  0.36890000  0.45540000  1.0 -0.0503402153
C  C33  1  0.40560000  0.38630000  0.84010000  1.0 -0.0579693594
C  C34  1  0.59440000  0.88630000  0.15990000  1.0 -0.0579693594
C  C35  1  0.90560000  0.88630000  0.65990000  1.0 -0.0579693594
C  C36  1  0.09440000  0.38630000  0.34010000  1.0 -0.0579693594
C  C37  1  0.09030000  0.87070000  0.06170000  1.0 -0.0194720061
C  C38  1  0.90970000  0.37070000  0.93830000  1.0 -0.0194720061
C  C39  1  0.59030000  0.37070000  0.43830000  1.0 -0.0194720061
C  C40  1  0.40970000  0.87070000  0.56170000  1.0 -0.0194720061
C  C41  1  0.54120000  0.18290000  0.87140000  1.0 0.1489158539
C  C42  1  0.45880000  0.68290000  0.12860000  1.0 0.1489158539
C  C43  1  0.04120000  0.68290000  0.62860000  1.0 0.1489158539
C  C44  1  0.95880000  0.18290000  0.37140000  1.0 0.1489158539
C  C45  1  0.08820000  0.88840000  0.11670000  1.0 -0.0194720061
C  C46  1  0.91180000  0.38840000  0.88330000  1.0 -0.0194720061
C  C47  1  0.58820000  0.38840000  0.38330000  1.0 -0.0194720061
C  C48  1  0.41180000  0.88840000  0.61670000  1.0 -0.0194720061
C  C49  1  0.10150000  0.90040000  0.08640000  1.0 0.1128458967
C  C50  1  0.89850000  0.40040000  0.91360000  1.0 0.1128458967
C  C51  1  0.60150000  0.40040000  0.41360000  1.0 0.1128458967
C  C52  1  0.39850000  0.90040000  0.58640000  1.0 0.1128458967
C  C53  1  0.66940000  0.07070000  0.85080000  1.0 0.5973351988
C  C54  1  0.33060000  0.57070000  0.14920000  1.0 0.5973351988
C  C55  1  0.16940000  0.57070000  0.64920000  1.0 0.5973351988
C  C56  1  0.83060000  0.07070000  0.35080000  1.0 0.5973351988
C  C57  1  0.45170000  0.29650000  0.88920000  1.0 -0.0194720061
C  C58  1  0.54830000  0.79650000  0.11080000  1.0 -0.0194720061
C  C59  1  0.95170000  0.79650000  0.61080000  1.0 -0.0194720061
C  C60  1  0.04830000  0.29650000  0.38920000  1.0 -0.0194720061
C  C61  1  0.05030000  0.77860000  0.10740000  1.0 -0.0579693594
C  C62  1  0.94970000  0.27860000  0.89260000  1.0 -0.0579693594
C  C63  1  0.55030000  0.27860000  0.39260000  1.0 -0.0579693594
C  C64  1  0.44970000  0.77860000  0.60740000  1.0 -0.0579693594
C  C65  1  0.34530000  0.43970000  0.06870000  1.0 -0.0109099723
C  C66  1  0.65470000  0.93970000  0.93130000  1.0 -0.0109099723
C  C67  1  0.84530000  0.93970000  0.43130000  1.0 -0.0109099723
C  C68  1  0.15470000  0.43970000  0.56870000  1.0 -0.0109099723
C  C69  1  0.47480000  0.25440000  0.88580000  1.0 -0.0503402153
C  C70  1  0.52520000  0.75440000  0.11420000  1.0 -0.0503402153
C  C71  1  0.97480000  0.75440000  0.61420000  1.0 -0.0503402153
C  C72  1  0.02520000  0.25440000  0.38580000  1.0 -0.0503402153
C  C73  1  0.44730000  0.28520000  0.94910000  1.0 -0.4421339048
C  C74  1  0.55270000  0.78520000  0.05090000  1.0 -0.4421339048
C  C75  1  0.94730000  0.78520000  0.55090000  1.0 -0.4421339048
C  C76  1  0.05270000  0.28520000  0.44910000  1.0 -0.4421339048
C  C77  1  0.99630000  0.92520000  0.96050000  1.0 -0.1654888349
C  C78  1  0.00370000  0.42520000  0.03950000  1.0 -0.1654888349
C  C79  1  0.49630000  0.42520000  0.53950000  1.0 -0.1654888349
C  C80  1  0.50370000  0.92520000  0.46050000  1.0 -0.1654888349
C  C81  1  0.30520000  0.42970000  0.73590000  1.0 -0.0809255319
C  C82  1  0.69480000  0.92970000  0.26410000  1.0 -0.0809255319
C  C83  1  0.80520000  0.92970000  0.76410000  1.0 -0.0809255319
C  C84  1  0.19480000  0.42970000  0.23590000  1.0 -0.0809255319
C  C85  1  0.38890000  0.40570000  0.81630000  1.0 -0.151130888
C  C86  1  0.61110000  0.90570000  0.18370000  1.0 -0.151130888
C  C87  1  0.88890000  0.90570000  0.68370000  1.0 -0.151130888
C  C88  1  0.11110000  0.40570000  0.31630000  1.0 -0.151130888
C  C89  1  0.07530000  0.84660000  0.12400000  1.0 0.1195763329
C  C90  1  0.92470000  0.34660000  0.87600000  1.0 0.1195763329
C  C91  1  0.57530000  0.34660000  0.37600000  1.0 0.1195763329
C  C92  1  0.42470000  0.84660000  0.62400000  1.0 0.1195763329
C  C93  1  0.38010000  0.42590000  0.78720000  1.0 0.1489158539
C  C94  1  0.61990000  0.92590000  0.21280000  1.0 0.1489158539
C  C95  1  0.88010000  0.92590000  0.71280000  1.0 0.1489158539
C  C96  1  0.11990000  0.42590000  0.28720000  1.0 0.1489158539
C  C97  1  0.42500000  0.46310000  0.78040000  1.0 -0.1411796966
C  C98  1  0.57500000  0.96310000  0.21960000  1.0 -0.1411796966
C  C99  1  0.92500000  0.96310000  0.71960000  1.0 -0.1411796966
C  C100  1  0.07500000  0.46310000  0.28040000  1.0 -0.1411796966
C  C101  1  0.38400000  0.40370000  0.01060000  1.0 0.1388340394
C  C102  1  0.61600000  0.90370000  0.98940000  1.0 0.1388340394
C  C103  1  0.88400000  0.90370000  0.48940000  1.0 0.1388340394
C  C104  1  0.11600000  0.40370000  0.51060000  1.0 0.1388340394
C  C105  1  0.11720000  0.94280000  0.07850000  1.0 -0.4421339048
C  C106  1  0.88280000  0.44280000  0.92150000  1.0 -0.4421339048
C  C107  1  0.61720000  0.44280000  0.42150000  1.0 -0.4421339048
C  C108  1  0.38280000  0.94280000  0.57850000  1.0 -0.4421339048
C  C109  1  0.44190000  0.31300000  0.92000000  1.0 0.1128458967
C  C110  1  0.55810000  0.81300000  0.08000000  1.0 0.1128458967
C  C111  1  0.94190000  0.81300000  0.58000000  1.0 0.1128458967
C  C112  1  0.05810000  0.31300000  0.42000000  1.0 0.1128458967
C  C113  1  0.16540000  0.97770000  0.24580000  1.0 -0.0898064076
C  C114  1  0.83460000  0.47770000  0.75420000  1.0 -0.0898064076
C  C115  1  0.66540000  0.47770000  0.25420000  1.0 -0.0898064076
C  C116  1  0.33460000  0.97770000  0.74580000  1.0 -0.0898064076
C  C117  1  0.42380000  0.42380000  0.06390000  1.0 -0.0809255319
C  C118  1  0.57620000  0.92380000  0.93610000  1.0 -0.0809255319
C  C119  1  0.92380000  0.92380000  0.43610000  1.0 -0.0809255319
C  C120  1  0.07620000  0.42380000  0.56390000  1.0 -0.0809255319
C  C121  1  0.53670000  0.11920000  0.84660000  1.0 -0.0809255319
C  C122  1  0.46330000  0.61920000  0.15340000  1.0 -0.0809255319
C  C123  1  0.03670000  0.61920000  0.65340000  1.0 -0.0809255319
C  C124  1  0.96330000  0.11920000  0.34660000  1.0 -0.0809255319
C  C125  1  0.95070000  0.69040000  0.14390000  1.0 -0.151130888
C  C126  1  0.04930000  0.19040000  0.85610000  1.0 -0.151130888
C  C127  1  0.45070000  0.19040000  0.35610000  1.0 -0.151130888
C  C128  1  0.54930000  0.69040000  0.64390000  1.0 -0.151130888
C  C129  1  0.28380000  0.99930000  0.21280000  1.0 -0.0898064076
C  C130  1  0.71620000  0.49930000  0.78720000  1.0 -0.0898064076
C  C131  1  0.78380000  0.49930000  0.28720000  1.0 -0.0898064076
C  C132  1  0.21620000  0.99930000  0.71280000  1.0 -0.0898064076
C  C133  1  0.40350000  0.38230000  0.98170000  1.0 -0.1326532312
C  C134  1  0.59650000  0.88230000  0.01830000  1.0 -0.1326532312
C  C135  1  0.90350000  0.88230000  0.51830000  1.0 -0.1326532312
C  C136  1  0.09650000  0.38230000  0.48170000  1.0 -0.1326532312
C  C137  1  0.16060000  0.95970000  0.18930000  1.0 0.1314669113
C  C138  1  0.83940000  0.45970000  0.81070000  1.0 0.1314669113
C  C139  1  0.66060000  0.45970000  0.31070000  1.0 0.1314669113
C  C140  1  0.33940000  0.95970000  0.68930000  1.0 0.1314669113
C  C141  1  0.14840000  0.92380000  0.92030000  1.0 -0.0982428024
C  C142  1  0.85160000  0.42380000  0.07970000  1.0 -0.0982428024
C  C143  1  0.64840000  0.42380000  0.57970000  1.0 -0.0982428024
C  C144  1  0.35160000  0.92380000  0.42030000  1.0 -0.0982428024
C  C145  1  0.11780000  0.95990000  0.21880000  1.0 -0.1326532312
C  C146  1  0.88220000  0.45990000  0.78120000  1.0 -0.1326532312
C  C147  1  0.61780000  0.45990000  0.28120000  1.0 -0.1326532312
C  C148  1  0.38220000  0.95990000  0.71880000  1.0 -0.1326532312
C  C149  1  0.08170000  0.91160000  0.97070000  1.0 0.1681724234
C  C150  1  0.91830000  0.41160000  0.02930000  1.0 0.1681724234
C  C151  1  0.58170000  0.41160000  0.52930000  1.0 0.1681724234
C  C152  1  0.41830000  0.91160000  0.47070000  1.0 0.1681724234
C  C153  1  0.06550000  0.94370000  0.91230000  1.0 -0.0194720061
C  C154  1  0.93450000  0.44370000  0.08770000  1.0 -0.0194720061
C  C155  1  0.56550000  0.44370000  0.58770000  1.0 -0.0194720061
C  C156  1  0.43450000  0.94370000  0.41230000  1.0 -0.0194720061
C  C157  1  0.44590000  0.40320000  0.03610000  1.0 -0.1583387039
C  C158  1  0.55410000  0.90320000  0.96390000  1.0 -0.1583387039
C  C159  1  0.94590000  0.90320000  0.46390000  1.0 -0.1583387039
C  C160  1  0.05410000  0.40320000  0.53610000  1.0 -0.1583387039
C  C161  1  0.05650000  0.96450000  0.87750000  1.0 0.5733740224
C  C162  1  0.94350000  0.46450000  0.12250000  1.0 0.5733740224
C  C163  1  0.55650000  0.46450000  0.62250000  1.0 0.5733740224
C  C164  1  0.44350000  0.96450000  0.37750000  1.0 0.5733740224
C  C165  1  0.16340000  0.90350000  0.94760000  1.0 -0.2300706277
C  C166  1  0.83660000  0.40350000  0.05240000  1.0 -0.2300706277
C  C167  1  0.66340000  0.40350000  0.55240000  1.0 -0.2300706277
C  C168  1  0.33660000  0.90350000  0.44760000  1.0 -0.2300706277
C  C169  1  0.31820000  0.41220000  0.76530000  1.0 -0.1411796966
C  C170  1  0.68180000  0.91220000  0.23470000  1.0 -0.1411796966
C  C171  1  0.81820000  0.91220000  0.73470000  1.0 -0.1411796966
C  C172  1  0.18180000  0.41220000  0.26530000  1.0 -0.1411796966
C  C173  1  0.44050000  0.32040000  0.86360000  1.0 0.0909099845
C  C174  1  0.55950000  0.82040000  0.13640000  1.0 0.0909099845
C  C175  1  0.94050000  0.82040000  0.63640000  1.0 0.0909099845
C  C176  1  0.05950000  0.32040000  0.36360000  1.0 0.0909099845
C  C177  1  0.41480000  0.48150000  0.75270000  1.0 -0.0707086282
C  C178  1  0.58520000  0.98150000  0.24730000  1.0 -0.0707086282
C  C179  1  0.91480000  0.98150000  0.74730000  1.0 -0.0707086282
C  C180  1  0.08520000  0.48150000  0.25270000  1.0 -0.0707086282
C  C181  1  0.49090000  0.15480000  0.85360000  1.0 -0.1411796966
C  C182  1  0.50910000  0.65480000  0.14640000  1.0 -0.1411796966
C  C183  1  0.99090000  0.65480000  0.64640000  1.0 -0.1411796966
C  C184  1  0.00910000  0.15480000  0.35360000  1.0 -0.1411796966
C  C185  1  0.08990000  0.88280000  0.02950000  1.0 -0.0809255319
C  C186  1  0.91010000  0.38280000  0.97050000  1.0 -0.0809255319
C  C187  1  0.58990000  0.38280000  0.47050000  1.0 -0.0809255319
C  C188  1  0.41010000  0.88280000  0.52950000  1.0 -0.0809255319
C  C189  1  0.01650000  0.69960000  0.12060000  1.0 0.1388340394
C  C190  1  0.98350000  0.19960000  0.87940000  1.0 0.1388340394
C  C191  1  0.51650000  0.19960000  0.37940000  1.0 0.1388340394
C  C192  1  0.48350000  0.69960000  0.62060000  1.0 0.1388340394
C  C193  1  0.27730000  0.44050000  0.04390000  1.0 -0.1101831937
C  C194  1  0.72270000  0.94050000  0.95610000  1.0 -0.1101831937
C  C195  1  0.77730000  0.94050000  0.45610000  1.0 -0.1101831937
C  C196  1  0.22270000  0.44050000  0.54390000  1.0 -0.1101831937
C  C197  1  0.68120000  0.13680000  0.87470000  1.0 -0.0898064076
C  C198  1  0.31880000  0.63680000  0.12530000  1.0 -0.0898064076
C  C199  1  0.18120000  0.63680000  0.62530000  1.0 -0.0898064076
C  C200  1  0.81880000  0.13680000  0.37470000  1.0 -0.0898064076
C  C201  1  0.06440000  0.79830000  0.04220000  1.0 -0.4473186055
C  C202  1  0.93560000  0.29830000  0.95780000  1.0 -0.4473186055
C  C203  1  0.56440000  0.29830000  0.45780000  1.0 -0.4473186055
C  C204  1  0.43560000  0.79830000  0.54220000  1.0 -0.4473186055
C  C205  1  0.12690000  0.93830000  0.16350000  1.0 -0.151130888
C  C206  1  0.87310000  0.43830000  0.83650000  1.0 -0.151130888
C  C207  1  0.62690000  0.43830000  0.33650000  1.0 -0.151130888
C  C208  1  0.37310000  0.93830000  0.66350000  1.0 -0.151130888
C  C209  1  0.39200000  0.42220000  0.90130000  1.0 -0.4473186055
C  C210  1  0.60800000  0.92220000  0.09870000  1.0 -0.4473186055
C  C211  1  0.89200000  0.92220000  0.59870000  1.0 -0.4473186055
C  C212  1  0.10800000  0.42220000  0.40130000  1.0 -0.4473186055
C  C213  1  0.98510000  0.94170000  0.93120000  1.0 -0.0898064076
C  C214  1  0.01490000  0.44170000  0.06880000  1.0 -0.0898064076
C  C215  1  0.48510000  0.44170000  0.56880000  1.0 -0.0898064076
C  C216  1  0.51490000  0.94170000  0.43120000  1.0 -0.0898064076
C  C217  1  0.06500000  0.83430000  0.15930000  1.0 -0.4473186055
C  C218  1  0.93500000  0.33430000  0.84070000  1.0 -0.4473186055
C  C219  1  0.56500000  0.33430000  0.34070000  1.0 -0.4473186055
C  C220  1  0.43500000  0.83430000  0.65930000  1.0 -0.4473186055
C  C221  1  0.24170000  0.98130000  0.18640000  1.0 -0.1411796966
C  C222  1  0.75830000  0.48130000  0.81360000  1.0 -0.1411796966
C  C223  1  0.74170000  0.48130000  0.31360000  1.0 -0.1411796966
C  C224  1  0.25830000  0.98130000  0.68640000  1.0 -0.1411796966
C  C225  1  0.94340000  0.65030000  0.15250000  1.0 -0.0898064076
C  C226  1  0.05660000  0.15030000  0.84750000  1.0 -0.0898064076
C  C227  1  0.44340000  0.15030000  0.34750000  1.0 -0.0898064076
C  C228  1  0.55660000  0.65030000  0.65250000  1.0 -0.0898064076
C  C229  1  0.03880000  0.74570000  0.11540000  1.0 -0.1188145823
C  C230  1  0.96120000  0.24570000  0.88460000  1.0 -0.1188145823
C  C231  1  0.53880000  0.24570000  0.38460000  1.0 -0.1188145823
C  C232  1  0.46120000  0.74570000  0.61540000  1.0 -0.1188145823
C  C233  1  0.24940000  0.99490000  0.24230000  1.0 -0.0194720061
C  C234  1  0.75060000  0.49490000  0.75770000  1.0 -0.0194720061
C  C235  1  0.74940000  0.49490000  0.25770000  1.0 -0.0194720061
C  C236  1  0.25060000  0.99490000  0.74230000  1.0 -0.0194720061
C  C237  1  0.63340000  0.17520000  0.88080000  1.0 -0.1583387039
C  C238  1  0.36660000  0.67520000  0.11920000  1.0 -0.1583387039
C  C239  1  0.13340000  0.67520000  0.61920000  1.0 -0.1583387039
C  C240  1  0.86660000  0.17520000  0.38080000  1.0 -0.1583387039
C  C241  1  0.50020000  0.22130000  0.87800000  1.0 -0.1188145823
C  C242  1  0.49980000  0.72130000  0.12200000  1.0 -0.1188145823
C  C243  1  0.00020000  0.72130000  0.62200000  1.0 -0.1188145823
C  C244  1  0.99980000  0.22130000  0.37800000  1.0 -0.1188145823
C  C245  1  0.30090000  0.42410000  0.01460000  1.0 -0.151130888
C  C246  1  0.69910000  0.92410000  0.98540000  1.0 -0.151130888
C  C247  1  0.80090000  0.92410000  0.48540000  1.0 -0.151130888
C  C248  1  0.19910000  0.42410000  0.51460000  1.0 -0.151130888
C  C249  1  0.09090000  0.89300000  0.00300000  1.0 -0.1583387039
C  C250  1  0.90910000  0.39300000  0.99700000  1.0 -0.1583387039
C  C251  1  0.59090000  0.39300000  0.49700000  1.0 -0.1583387039
C  C252  1  0.40910000  0.89300000  0.50300000  1.0 -0.1583387039
C  C253  1  0.10900000  0.91480000  0.14180000  1.0 -0.0579693594
C  C254  1  0.89100000  0.41480000  0.85820000  1.0 -0.0579693594
C  C255  1  0.60900000  0.41480000  0.35820000  1.0 -0.0579693594
C  C256  1  0.39100000  0.91480000  0.64180000  1.0 -0.0579693594
C  C257  1  0.62790000  0.10970000  0.85770000  1.0 -0.0579693594
C  C258  1  0.37210000  0.60970000  0.14230000  1.0 -0.0579693594
C  C259  1  0.12790000  0.60970000  0.64230000  1.0 -0.0579693594
C  C260  1  0.87210000  0.10970000  0.35770000  1.0 -0.0579693594
C  C261  1  0.99500000  0.62060000  0.13570000  1.0 0.0025289238
C  C262  1  0.00500000  0.12060000  0.86430000  1.0 0.0025289238
C  C263  1  0.49500000  0.12060000  0.36430000  1.0 0.0025289238
C  C264  1  0.50500000  0.62060000  0.63570000  1.0 0.0025289238
C  C265  1  0.30560000  0.00320000  0.27070000  1.0 0.5400316609
C  C266  1  0.69440000  0.50320000  0.72930000  1.0 0.5400316609
C  C267  1  0.80560000  0.50320000  0.22930000  1.0 0.5400316609
C  C268  1  0.19440000  0.00320000  0.77070000  1.0 0.5400316609
C  C269  1  0.32050000  0.46190000  0.09860000  1.0 0.611302544
C  C270  1  0.67950000  0.96190000  0.90140000  1.0 0.611302544
C  C271  1  0.82050000  0.96190000  0.40140000  1.0 0.611302544
C  C272  1  0.17950000  0.46190000  0.59860000  1.0 0.611302544
C  C273  1  0.45480000  0.30470000  0.83180000  1.0 -0.4233062373
C  C274  1  0.54520000  0.80470000  0.16820000  1.0 -0.4233062373
C  C275  1  0.95480000  0.80470000  0.66820000  1.0 -0.4233062373
C  C276  1  0.04520000  0.30470000  0.33180000  1.0 -0.4233062373
C  C277  1  0.05300000  0.63180000  0.11190000  1.0 -0.0898064076
C  C278  1  0.94700000  0.13180000  0.88810000  1.0 -0.0898064076
C  C279  1  0.55300000  0.13180000  0.38810000  1.0 -0.0898064076
C  C280  1  0.44700000  0.63180000  0.61190000  1.0 -0.0898064076
C  C281  1  0.98720000  0.57320000  0.14480000  1.0 0.5639263658
C  C282  1  0.01280000  0.07320000  0.85520000  1.0 0.5639263658
C  C283  1  0.48720000  0.07320000  0.35520000  1.0 0.5639263658
C  C284  1  0.51280000  0.57320000  0.64480000  1.0 0.5639263658
C  C285  1  0.06700000  0.67190000  0.10520000  1.0 -0.1411796966
C  C286  1  0.93300000  0.17190000  0.89480000  1.0 -0.1411796966
C  C287  1  0.56700000  0.17190000  0.39480000  1.0 -0.1411796966
C  C288  1  0.43300000  0.67190000  0.60520000  1.0 -0.1411796966
C  C289  1  0.12720000  0.24100000  0.75280000  1.0 -0.0809255319
C  C290  1  0.87280000  0.74100000  0.24720000  1.0 -0.0809255319
C  C291  1  0.62720000  0.74100000  0.74720000  1.0 -0.0809255319
C  C292  1  0.37280000  0.24100000  0.25280000  1.0 -0.0809255319
C  C293  1  0.13300000  0.42770000  0.88690000  1.0 -0.0291900705
C  C294  1  0.86700000  0.92770000  0.11310000  1.0 -0.0291900705
C  C295  1  0.63300000  0.92770000  0.61310000  1.0 -0.0291900705
C  C296  1  0.36700000  0.42770000  0.38690000  1.0 -0.0291900705
C  C297  1  0.19840000  0.24830000  0.73160000  1.0 -0.0406426009
C  C298  1  0.80160000  0.74830000  0.26840000  1.0 -0.0406426009
C  C299  1  0.69840000  0.74830000  0.76840000  1.0 -0.0406426009
C  C300  1  0.30160000  0.24830000  0.23160000  1.0 -0.0406426009
C  C301  1  0.15490000  0.37290000  0.92180000  1.0 -0.0291900705
C  C302  1  0.84510000  0.87290000  0.07820000  1.0 -0.0291900705
C  C303  1  0.65490000  0.87290000  0.57820000  1.0 -0.0291900705
C  C304  1  0.34510000  0.37290000  0.42180000  1.0 -0.0291900705
C  C305  1  0.13770000  0.41210000  0.91640000  1.0 0.0974861054
C  C306  1  0.86230000  0.91210000  0.08360000  1.0 0.0974861054
C  C307  1  0.63770000  0.91210000  0.58360000  1.0 0.0974861054
C  C308  1  0.36230000  0.41210000  0.41640000  1.0 0.0974861054
C  C309  1  0.17230000  0.36150000  0.86400000  1.0 -0.0291900705
C  C310  1  0.82770000  0.86150000  0.13600000  1.0 -0.0291900705
C  C311  1  0.67230000  0.86150000  0.63600000  1.0 -0.0291900705
C  C312  1  0.32770000  0.36150000  0.36400000  1.0 -0.0291900705
C  C313  1  0.12490000  0.43990000  0.94500000  1.0 -0.4282045769
C  C314  1  0.87510000  0.93990000  0.05500000  1.0 -0.4282045769
C  C315  1  0.62490000  0.93990000  0.55500000  1.0 -0.4282045769
C  C316  1  0.37510000  0.43990000  0.44500000  1.0 -0.4282045769
C  C317  1  0.16230000  0.35550000  0.95190000  1.0 -0.0579693594
C  C318  1  0.83770000  0.85550000  0.04810000  1.0 -0.0579693594
C  C319  1  0.66230000  0.85550000  0.54810000  1.0 -0.0579693594
C  C320  1  0.33770000  0.35550000  0.45190000  1.0 -0.0579693594
C  C321  1  0.17370000  0.31330000  0.00640000  1.0 0.1388340394
C  C322  1  0.82630000  0.81330000  0.99360000  1.0 0.1388340394
C  C323  1  0.67370000  0.81330000  0.49360000  1.0 0.1388340394
C  C324  1  0.32630000  0.31330000  0.50640000  1.0 0.1388340394
C  C325  1  0.14990000  0.40290000  0.86080000  1.0 0.1128458967
C  C326  1  0.85010000  0.90290000  0.13920000  1.0 0.1128458967
C  C327  1  0.64990000  0.90290000  0.63920000  1.0 0.1128458967
C  C328  1  0.35010000  0.40290000  0.36080000  1.0 0.1128458967
C  C329  1  0.12730000  0.26030000  0.78120000  1.0 -0.1326532312
C  C330  1  0.87270000  0.76030000  0.21880000  1.0 -0.1326532312
C  C331  1  0.62730000  0.76030000  0.71880000  1.0 -0.1326532312
C  C332  1  0.37270000  0.26030000  0.28120000  1.0 -0.1326532312
C  C333  1  0.10780000  0.46970000  0.88050000  1.0 -0.0503402153
C  C334  1  0.89220000  0.96970000  0.11950000  1.0 -0.0503402153
C  C335  1  0.60780000  0.96970000  0.61950000  1.0 -0.0503402153
C  C336  1  0.39220000  0.46970000  0.38050000  1.0 -0.0503402153
C  C337  1  0.14140000  0.41970000  0.82780000  1.0 -0.4473186055
C  C338  1  0.85860000  0.91970000  0.17220000  1.0 -0.4473186055
C  C339  1  0.64140000  0.91970000  0.67220000  1.0 -0.4473186055
C  C340  1  0.35860000  0.41970000  0.32780000  1.0 -0.4473186055
C  C341  1  0.19000000  0.30060000  0.90070000  1.0 -0.4566514002
C  C342  1  0.81000000  0.80060000  0.09930000  1.0 -0.4566514002
C  C343  1  0.69000000  0.80060000  0.59930000  1.0 -0.4566514002
C  C344  1  0.31000000  0.30060000  0.40070000  1.0 -0.4566514002
C  C345  1  0.88680000  0.57520000  0.86300000  1.0 -0.0898064076
C  C346  1  0.11320000  0.07520000  0.13700000  1.0 -0.0898064076
C  C347  1  0.38680000  0.07520000  0.63700000  1.0 -0.0898064076
C  C348  1  0.61320000  0.57520000  0.36300000  1.0 -0.0898064076
C  C349  1  0.17490000  0.34620000  0.89530000  1.0 0.1128458967
C  C350  1  0.82510000  0.84620000  0.10470000  1.0 0.1128458967
C  C351  1  0.67490000  0.84620000  0.60470000  1.0 0.1128458967
C  C352  1  0.32510000  0.34620000  0.39530000  1.0 0.1128458967
C  C353  1  0.19940000  0.29060000  0.78790000  1.0 0.1489158539
C  C354  1  0.80060000  0.79060000  0.21210000  1.0 0.1489158539
C  C355  1  0.69940000  0.79060000  0.71210000  1.0 0.1489158539
C  C356  1  0.30060000  0.29060000  0.28790000  1.0 0.1489158539
C  C357  1  0.94000000  0.61270000  0.85750000  1.0 -0.0041646357
C  C358  1  0.06000000  0.11270000  0.14250000  1.0 -0.0041646357
C  C359  1  0.44000000  0.11270000  0.64250000  1.0 -0.0041646357
C  C360  1  0.56000000  0.61270000  0.35750000  1.0 -0.0041646357
C  C361  1  0.26720000  0.27560000  0.73770000  1.0 -0.0982428024
C  C362  1  0.73280000  0.77560000  0.26230000  1.0 -0.0982428024
C  C363  1  0.76720000  0.77560000  0.76230000  1.0 -0.0982428024
C  C364  1  0.23280000  0.27560000  0.23770000  1.0 -0.0982428024
C  C365  1  0.16760000  0.33870000  0.97570000  1.0 -0.1188145823
C  C366  1  0.83240000  0.83870000  0.02430000  1.0 -0.1188145823
C  C367  1  0.66760000  0.83870000  0.52430000  1.0 -0.1188145823
C  C368  1  0.33240000  0.33870000  0.47570000  1.0 -0.1188145823
C  C369  1  0.26790000  0.29670000  0.76450000  1.0 -0.1411796966
C  C370  1  0.73210000  0.79670000  0.23550000  1.0 -0.1411796966
C  C371  1  0.76790000  0.79670000  0.73550000  1.0 -0.1411796966
C  C372  1  0.23210000  0.29670000  0.26450000  1.0 -0.1411796966
C  C373  1  0.18370000  0.33620000  0.83940000  1.0 -0.0579693594
C  C374  1  0.81630000  0.83620000  0.16060000  1.0 -0.0579693594
C  C375  1  0.68370000  0.83620000  0.66060000  1.0 -0.0579693594
C  C376  1  0.31630000  0.33620000  0.33940000  1.0 -0.0579693594
C  C377  1  0.08320000  0.57430000  0.86410000  1.0 -0.1326532312
C  C378  1  0.91680000  0.07430000  0.13590000  1.0 -0.1326532312
C  C379  1  0.58320000  0.07430000  0.63590000  1.0 -0.1326532312
C  C380  1  0.41680000  0.57430000  0.36410000  1.0 -0.1326532312
C  C381  1  0.89080000  0.65330000  0.85180000  1.0 0.5973351988
C  C382  1  0.10920000  0.15330000  0.14820000  1.0 0.5973351988
C  C383  1  0.39080000  0.15330000  0.64820000  1.0 0.5973351988
C  C384  1  0.60920000  0.65330000  0.35180000  1.0 0.5973351988
C  C385  1  0.03280000  0.53970000  0.86860000  1.0 0.1195763329
C  C386  1  0.96720000  0.03970000  0.13140000  1.0 0.1195763329
C  C387  1  0.53280000  0.03970000  0.63140000  1.0 0.1195763329
C  C388  1  0.46720000  0.53970000  0.36860000  1.0 0.1195763329
C  C389  1  0.08060000  0.50250000  0.87590000  1.0 -0.1188145823
C  C390  1  0.91940000  0.00250000  0.12410000  1.0 -0.1188145823
C  C391  1  0.58060000  0.00250000  0.62410000  1.0 -0.1188145823
C  C392  1  0.41940000  0.50250000  0.37590000  1.0 -0.1188145823
C  C393  1  0.19290000  0.31410000  0.81550000  1.0 -0.1654888349
C  C394  1  0.80710000  0.81410000  0.18450000  1.0 -0.1654888349
C  C395  1  0.69290000  0.81410000  0.68450000  1.0 -0.1654888349
C  C396  1  0.30710000  0.31410000  0.31550000  1.0 -0.1654888349
C  C397  1  0.93200000  0.54260000  0.86670000  1.0 -0.1326532312
C  C398  1  0.06800000  0.04260000  0.13330000  1.0 -0.1326532312
C  C399  1  0.43200000  0.04260000  0.63330000  1.0 -0.1326532312
C  C400  1  0.56800000  0.54260000  0.36670000  1.0 -0.1326532312
C  C401  1  0.03860000  0.60930000  0.85870000  1.0 -0.0809255319
C  C402  1  0.96140000  0.10930000  0.14130000  1.0 -0.0809255319
C  C403  1  0.53860000  0.10930000  0.64130000  1.0 -0.0809255319
C  C404  1  0.46140000  0.60930000  0.35870000  1.0 -0.0809255319
C  C405  1  0.12790000  0.32260000  0.03160000  1.0 -0.1411796966
C  C406  1  0.87210000  0.82260000  0.96840000  1.0 -0.1411796966
C  C407  1  0.62790000  0.82260000  0.46840000  1.0 -0.1411796966
C  C408  1  0.37210000  0.32260000  0.53160000  1.0 -0.1411796966
C  C409  1  0.22130000  0.27560000  0.00580000  1.0 -0.151130888
C  C410  1  0.77870000  0.77560000  0.99420000  1.0 -0.151130888
C  C411  1  0.72130000  0.77560000  0.49420000  1.0 -0.151130888
C  C412  1  0.27870000  0.27560000  0.50580000  1.0 -0.151130888
C  C413  1  0.19030000  0.26760000  0.05980000  1.0 -0.0109099723
C  C414  1  0.80970000  0.76760000  0.94020000  1.0 -0.0109099723
C  C415  1  0.69030000  0.76760000  0.44020000  1.0 -0.0109099723
C  C416  1  0.30970000  0.26760000  0.55980000  1.0 -0.0109099723
C  C417  1  0.23640000  0.25740000  0.03250000  1.0 -0.0982428024
C  C418  1  0.76360000  0.75740000  0.96750000  1.0 -0.0982428024
C  C419  1  0.73640000  0.75740000  0.46750000  1.0 -0.0982428024
C  C420  1  0.26360000  0.25740000  0.53250000  1.0 -0.0982428024
C  C421  1  0.14040000  0.30030000  0.05900000  1.0 -0.0982428024
C  C422  1  0.85960000  0.80030000  0.94100000  1.0 -0.0982428024
C  C423  1  0.64040000  0.80030000  0.44100000  1.0 -0.0982428024
C  C424  1  0.35960000  0.30030000  0.55900000  1.0 -0.0982428024
C  C425  1  0.20520000  0.24190000  0.08830000  1.0 0.5894776179
C  C426  1  0.79480000  0.74190000  0.91170000  1.0 0.5894776179
C  C427  1  0.70520000  0.74190000  0.41170000  1.0 0.5894776179
C  C428  1  0.29480000  0.24190000  0.58830000  1.0 0.5894776179
C  C429  1  0.19440000  0.22910000  0.70090000  1.0 0.5973351988
C  C430  1  0.80560000  0.72910000  0.29910000  1.0 0.5973351988
C  C431  1  0.69440000  0.72910000  0.79910000  1.0 0.5973351988
C  C432  1  0.30560000  0.22910000  0.20090000  1.0 0.5973351988
C  C433  1  0.50810000  0.75020000  0.87470000  1.0 0.5801375402
C  C434  1  0.49190000  0.25020000  0.12530000  1.0 0.5801375402
C  C435  1  0.00810000  0.25020000  0.62530000  1.0 0.5801375402
C  C436  1  0.99190000  0.75020000  0.37470000  1.0 0.5801375402
C  C437  1  0.34500000  0.89620000  0.08660000  1.0 -0.0406426009
C  C438  1  0.65500000  0.39620000  0.91340000  1.0 -0.0406426009
C  C439  1  0.84500000  0.39620000  0.41340000  1.0 -0.0406426009
C  C440  1  0.15500000  0.89620000  0.58660000  1.0 -0.0406426009
C  C441  1  0.10990000  0.72080000  0.26320000  1.0 0.5321440591
C  C442  1  0.89010000  0.22080000  0.73680000  1.0 0.5321440591
C  C443  1  0.60990000  0.22080000  0.23680000  1.0 0.5321440591
C  C444  1  0.39010000  0.72080000  0.76320000  1.0 0.5321440591
C  C445  1  0.31330000  0.81480000  0.07050000  1.0 0.1195763329
C  C446  1  0.68670000  0.31480000  0.92950000  1.0 0.1195763329
C  C447  1  0.81330000  0.31480000  0.42950000  1.0 0.1195763329
C  C448  1  0.18670000  0.81480000  0.57050000  1.0 0.1195763329
C  C449  1  0.31650000  0.82640000  0.10320000  1.0 -0.0194720061
C  C450  1  0.68350000  0.32640000  0.89680000  1.0 -0.0194720061
C  C451  1  0.81650000  0.32640000  0.39680000  1.0 -0.0194720061
C  C452  1  0.18350000  0.82640000  0.60320000  1.0 -0.0194720061
C  C453  1  0.15760000  0.73540000  0.23430000  1.0 -0.0194720061
C  C454  1  0.84240000  0.23540000  0.76570000  1.0 -0.0194720061
C  C455  1  0.65760000  0.23540000  0.26570000  1.0 -0.0194720061
C  C456  1  0.34240000  0.73540000  0.73430000  1.0 -0.0194720061
C  C457  1  0.35700000  0.04270000  0.09920000  1.0 -0.1411796966
C  C458  1  0.64300000  0.54270000  0.90080000  1.0 -0.1411796966
C  C459  1  0.85700000  0.54270000  0.40080000  1.0 -0.1411796966
C  C460  1  0.14300000  0.04270000  0.59920000  1.0 -0.1411796966
C  C461  1  0.34670000  0.88110000  0.14530000  1.0 -0.4421339048
C  C462  1  0.65330000  0.38110000  0.85470000  1.0 -0.4421339048
C  C463  1  0.84670000  0.38110000  0.35470000  1.0 -0.4421339048
C  C464  1  0.15330000  0.88110000  0.64530000  1.0 -0.4421339048
C  C465  1  0.20040000  0.72820000  0.17920000  1.0 -0.1326532312
C  C466  1  0.79960000  0.22820000  0.82080000  1.0 -0.1326532312
C  C467  1  0.70040000  0.22820000  0.32080000  1.0 -0.1326532312
C  C468  1  0.29960000  0.72820000  0.67920000  1.0 -0.1326532312
C  C469  1  0.34200000  0.82940000  0.01430000  1.0 -0.0809255319
C  C470  1  0.65800000  0.32940000  0.98570000  1.0 -0.0809255319
C  C471  1  0.84200000  0.32940000  0.48570000  1.0 -0.0809255319
C  C472  1  0.15800000  0.82940000  0.51430000  1.0 -0.0809255319
C  C473  1  0.33770000  0.86800000  0.10970000  1.0 0.1314669113
C  C474  1  0.66230000  0.36800000  0.89030000  1.0 0.1314669113
C  C475  1  0.83770000  0.36800000  0.39030000  1.0 0.1314669113
C  C476  1  0.16230000  0.86800000  0.60970000  1.0 0.1314669113
C  C477  1  0.36880000  0.08100000  0.11010000  1.0 -0.0898064076
C  C478  1  0.63120000  0.58100000  0.88990000  1.0 -0.0898064076
C  C479  1  0.86880000  0.58100000  0.38990000  1.0 -0.0898064076
C  C480  1  0.13120000  0.08100000  0.61010000  1.0 -0.0898064076
C  C481  1  0.35940000  0.81860000  0.98760000  1.0 -0.1411796966
C  C482  1  0.64060000  0.31860000  0.01240000  1.0 -0.1411796966
C  C483  1  0.85940000  0.31860000  0.51240000  1.0 -0.1411796966
C  C484  1  0.14060000  0.81860000  0.48760000  1.0 -0.1411796966
C  C485  1  0.24390000  0.76030000  0.17810000  1.0 0.1195763329
C  C486  1  0.75610000  0.26030000  0.82190000  1.0 0.1195763329
C  C487  1  0.74390000  0.26030000  0.32190000  1.0 0.1195763329
C  C488  1  0.25610000  0.76030000  0.67810000  1.0 0.1195763329
C  C489  1  0.15300000  0.71170000  0.20550000  1.0 -0.0898064076
C  C490  1  0.84700000  0.21170000  0.79450000  1.0 -0.0898064076
C  C491  1  0.65300000  0.21170000  0.29450000  1.0 -0.0898064076
C  C492  1  0.34700000  0.71170000  0.70550000  1.0 -0.0898064076
C  C493  1  0.33210000  0.84210000  0.04830000  1.0 -0.0291900705
C  C494  1  0.66790000  0.34210000  0.95170000  1.0 -0.0291900705
C  C495  1  0.83210000  0.34210000  0.45170000  1.0 -0.0291900705
C  C496  1  0.16790000  0.84210000  0.54830000  1.0 -0.0291900705
C  C497  1  0.28120000  0.77910000  0.14970000  1.0 -0.1887862714
C  C498  1  0.71880000  0.27910000  0.85030000  1.0 -0.1887862714
C  C499  1  0.78120000  0.27910000  0.35030000  1.0 -0.1887862714
C  C500  1  0.21880000  0.77910000  0.64970000  1.0 -0.1887862714
C  C501  1  0.34260000  0.88280000  0.05470000  1.0 0.1128458967
C  C502  1  0.65740000  0.38280000  0.94530000  1.0 0.1195763329
C  C503  1  0.84260000  0.38280000  0.44530000  1.0 0.1195763329
C  C504  1  0.15740000  0.88280000  0.55470000  1.0 0.1128458967
C  C505  1  0.45160000  0.12760000  0.14880000  1.0 0.5801375402
C  C506  1  0.54840000  0.62760000  0.85120000  1.0 0.5801375402
C  C507  1  0.95160000  0.62760000  0.35120000  1.0 0.5801375402
C  C508  1  0.04840000  0.12760000  0.64880000  1.0 0.5801375402
C  C509  1  0.42780000  0.08650000  0.13630000  1.0 -0.0109099723
C  C510  1  0.57220000  0.58650000  0.86370000  1.0 -0.0109099723
C  C511  1  0.92780000  0.58650000  0.36370000  1.0 -0.0109099723
C  C512  1  0.07220000  0.08650000  0.63630000  1.0 -0.0109099723
C  C513  1  0.35030000  0.91490000  0.02780000  1.0 -0.4421339048
C  C514  1  0.64970000  0.41490000  0.97220000  1.0 -0.4421339048
C  C515  1  0.85030000  0.41490000  0.47220000  1.0 -0.4421339048
C  C516  1  0.14970000  0.91490000  0.52780000  1.0 -0.4421339048
C  C517  1  0.36480000  0.93660000  0.09320000  1.0 -0.0503402153
C  C518  1  0.63520000  0.43660000  0.90680000  1.0 -0.0503402153
C  C519  1  0.86480000  0.43660000  0.40680000  1.0 -0.0503402153
C  C520  1  0.13520000  0.93660000  0.59320000  1.0 -0.0503402153
C  C521  1  0.39620000  0.01050000  0.11300000  1.0 0.1314669113
C  C522  1  0.60380000  0.51050000  0.88700000  1.0 0.1314669113
C  C523  1  0.89620000  0.51050000  0.38700000  1.0 0.1314669113
C  C524  1  0.10380000  0.01050000  0.61300000  1.0 0.1314669113
C  C525  1  0.21280000  0.77000000  0.23260000  1.0 -0.0898064076
C  C526  1  0.78720000  0.27000000  0.76740000  1.0 -0.0898064076
C  C527  1  0.71280000  0.27000000  0.26740000  1.0 -0.0898064076
C  C528  1  0.28720000  0.77000000  0.73260000  1.0 -0.0898064076
C  C529  1  0.52570000  0.78420000  0.92580000  1.0 -0.0982428024
C  C530  1  0.47430000  0.28420000  0.07420000  1.0 -0.0982428024
C  C531  1  0.02570000  0.28420000  0.57420000  1.0 -0.0982428024
C  C532  1  0.97430000  0.78420000  0.42580000  1.0 -0.0982428024
C  C533  1  0.29810000  0.77130000  0.06380000  1.0 -0.4282045769
C  C534  1  0.70190000  0.27130000  0.93620000  1.0 -0.4282045769
C  C535  1  0.79810000  0.27130000  0.43620000  1.0 -0.4282045769
C  C536  1  0.20190000  0.77130000  0.56380000  1.0 -0.4282045769
C  C537  1  0.47040000  0.05350000  0.15220000  1.0 -0.1101831937
C  C538  1  0.52960000  0.55350000  0.84780000  1.0 -0.1101831937
C  C539  1  0.97040000  0.55350000  0.34780000  1.0 -0.1101831937
C  C540  1  0.02960000  0.05350000  0.65220000  1.0 -0.1101831937
C  C541  1  0.48880000  0.80250000  0.95580000  1.0 -0.1411796966
C  C542  1  0.51120000  0.30250000  0.04420000  1.0 -0.1411796966
C  C543  1  0.98880000  0.30250000  0.54420000  1.0 -0.1411796966
C  C544  1  0.01120000  0.80250000  0.45580000  1.0 -0.1411796966
C  C545  1  0.30320000  0.80000000  0.12630000  1.0 -0.0809255319
C  C546  1  0.69680000  0.30000000  0.87370000  1.0 -0.0809255319
C  C547  1  0.80320000  0.30000000  0.37370000  1.0 -0.0809255319
C  C548  1  0.19680000  0.80000000  0.62630000  1.0 -0.0809255319
C  C549  1  0.46400000  0.77140000  0.90260000  1.0 -0.0109099723
C  C550  1  0.53600000  0.27140000  0.09740000  1.0 -0.0109099723
C  C551  1  0.96400000  0.27140000  0.59740000  1.0 -0.0109099723
C  C552  1  0.03600000  0.77140000  0.40260000  1.0 -0.0109099723
C  C553  1  0.39080000  0.80450000  0.96030000  1.0 0.1195763329
C  C554  1  0.60920000  0.30450000  0.03970000  1.0 0.1195763329
C  C555  1  0.89080000  0.30450000  0.53970000  1.0 0.1195763329
C  C556  1  0.10920000  0.80450000  0.46030000  1.0 0.1195763329
C  C557  1  0.25520000  0.78070000  0.20730000  1.0 -0.1326532312
C  C558  1  0.74480000  0.28070000  0.79270000  1.0 -0.1326532312
C  C559  1  0.75520000  0.28070000  0.29270000  1.0 -0.1326532312
C  C560  1  0.24480000  0.78070000  0.70730000  1.0 -0.1326532312
C  C561  1  0.32860000  0.78990000  0.93710000  1.0 -0.1326532312
C  C562  1  0.67140000  0.28990000  0.06290000  1.0 -0.1326532312
C  C563  1  0.82860000  0.28990000  0.56290000  1.0 -0.1326532312
C  C564  1  0.17140000  0.78990000  0.43710000  1.0 -0.1326532312
C  C565  1  0.37170000  0.77550000  0.90700000  1.0 -0.0898064076
C  C566  1  0.62830000  0.27550000  0.09300000  1.0 -0.0898064076
C  C567  1  0.87170000  0.27550000  0.59300000  1.0 -0.0898064076
C  C568  1  0.12830000  0.77550000  0.40700000  1.0 -0.0898064076
C  C569  1  0.44780000  0.01540000  0.14060000  1.0 -0.151130888
C  C570  1  0.55220000  0.51540000  0.85940000  1.0 -0.151130888
C  C571  1  0.94780000  0.51540000  0.35940000  1.0 -0.151130888
C  C572  1  0.05220000  0.01540000  0.64060000  1.0 -0.151130888
C  C573  1  0.37860000  0.97010000  0.10130000  1.0 -0.1326532312
C  C574  1  0.62140000  0.47010000  0.89870000  1.0 -0.1326532312
C  C575  1  0.87860000  0.47010000  0.39870000  1.0 -0.1326532312
C  C576  1  0.12140000  0.97010000  0.60130000  1.0 -0.1326532312
O  O1  1  0.28490000  0.47080000  0.67782000  1.0 -0.6142971366
O  O2  1  0.71510000  0.97080000  0.32218000  1.0 -0.6142971366
O  O3  1  0.78490000  0.97080000  0.82218000  1.0 -0.6158670889
O  O4  1  0.21510000  0.47080000  0.17782000  1.0 -0.6142971366
O  O5  1  0.38490000  0.02120000  0.26620000  1.0 -0.5540805193
O  O6  1  0.61510000  0.52120000  0.73380000  1.0 -0.5540805193
O  O7  1  0.88490000  0.52120000  0.23380000  1.0 -0.5540805193
O  O8  1  0.11510000  0.02120000  0.76620000  1.0 -0.5540805193
O  O9  1  0.97460000  0.96560000  0.86620000  1.0 -0.5696743882
O  O10  1  0.02540000  0.46560000  0.13380000  1.0 -0.5696743882
O  O11  1  0.47460000  0.46560000  0.63380000  1.0 -0.5696743882
O  O12  1  0.52540000  0.96560000  0.36620000  1.0 -0.5696743882
O  O13  1  0.40880000  0.50860000  0.68945000  1.0 -0.5163915065
O  O14  1  0.59120000  0.00860000  0.31055000  1.0 -0.5163915065
O  O15  1  0.90880000  0.00860000  0.81055000  1.0 -0.5163915065
O  O16  1  0.09120000  0.50860000  0.18945000  1.0 -0.5163915065
O  O17  1  0.12930000  0.97450000  0.86450000  1.0 -0.4790099866
O  O18  1  0.87070000  0.47450000  0.13550000  1.0 -0.4790099866
O  O19  1  0.62930000  0.47450000  0.63550000  1.0 -0.4790099866
O  O20  1  0.37070000  0.97450000  0.36450000  1.0 -0.4790099866
O  O21  1  0.26770000  0.00080000  0.29830000  1.0 -0.5403758468
O  O22  1  0.73230000  0.50080000  0.70170000  1.0 -0.5403758468
O  O23  1  0.76770000  0.50080000  0.20170000  1.0 -0.5403758468
O  O24  1  0.23230000  0.00080000  0.79830000  1.0 -0.5403758468
O  O25  1  0.75290000  0.06450000  0.86060000  1.0 -0.5613152789
O  O26  1  0.24710000  0.56450000  0.13940000  1.0 -0.5613152789
O  O27  1  0.25290000  0.56450000  0.63940000  1.0 -0.5613152789
O  O28  1  0.74710000  0.06450000  0.36060000  1.0 -0.5613152789
O  O29  1  0.61900000  0.04410000  0.83620000  1.0 -0.6142971366
O  O30  1  0.38100000  0.54410000  0.16380000  1.0 -0.6142971366
O  O31  1  0.11900000  0.54410000  0.66380000  1.0 -0.6142971366
O  O32  1  0.88100000  0.04410000  0.33620000  1.0 -0.6142971366
O  O33  1  0.37540000  0.45820000  0.12060000  1.0 -0.5290505694
O  O34  1  0.62460000  0.95820000  0.87940000  1.0 -0.5290505694
O  O35  1  0.87540000  0.95820000  0.37940000  1.0 -0.5290505694
O  O36  1  0.12460000  0.45820000  0.62060000  1.0 -0.5290505694
O  O37  1  0.24070000  0.47770000  0.09980000  1.0 -0.5403758468
O  O38  1  0.75930000  0.97770000  0.90020000  1.0 -0.5403758468
O  O39  1  0.74070000  0.97770000  0.40020000  1.0 -0.5403758468
O  O40  1  0.25930000  0.47770000  0.59980000  1.0 -0.5403758468
O  O41  1  0.93260000  0.56670000  0.16410000  1.0 -0.4233062373
O  O42  1  0.06740000  0.06670000  0.83590000  1.0 -0.4233062373
O  O43  1  0.43260000  0.06670000  0.33590000  1.0 -0.4233062373
O  O44  1  0.56740000  0.56670000  0.66410000  1.0 -0.4233062373
O  O45  1  0.02870000  0.55200000  0.12650000  1.0 -0.5163915065
O  O46  1  0.97130000  0.05200000  0.87350000  1.0 -0.513756405
O  O47  1  0.52870000  0.05200000  0.37350000  1.0 -0.513756405
O  O48  1  0.47130000  0.55200000  0.62650000  1.0 -0.5163915065
O  O49  1  0.93990000  0.68220000  0.84710000  1.0 -0.5613152789
O  O50  1  0.06010000  0.18220000  0.15290000  1.0 -0.5613152789
O  O51  1  0.43990000  0.18220000  0.65290000  1.0 -0.5613152789
O  O52  1  0.56010000  0.68220000  0.34710000  1.0 -0.5613152789
O  O53  1  0.80210000  0.65090000  0.85390000  1.0 -0.5540805193
O  O54  1  0.19790000  0.15090000  0.14610000  1.0 -0.5540805193
O  O55  1  0.30210000  0.15090000  0.64610000  1.0 -0.5540805193
O  O56  1  0.69790000  0.65090000  0.35390000  1.0 -0.5540805193
O  O57  1  0.15600000  0.25460000  0.11210000  1.0 -0.6313510643
O  O58  1  0.84400000  0.75460000  0.88790000  1.0 -0.6313510643
O  O59  1  0.65600000  0.75460000  0.38790000  1.0 -0.6313510643
O  O60  1  0.34400000  0.25460000  0.61210000  1.0 -0.6313510643
O  O61  1  0.12990000  0.20310000  0.69393000  1.0 -0.5613152789
O  O62  1  0.87010000  0.70310000  0.30607000  1.0 -0.5613152789
O  O63  1  0.62990000  0.70310000  0.80607000  1.0 -0.5613152789
O  O64  1  0.37010000  0.20310000  0.19393000  1.0 -0.5613152789
O  O65  1  0.25890000  0.21400000  0.08760000  1.0 -0.4691096452
O  O66  1  0.74110000  0.71400000  0.91240000  1.0 -0.4691096452
O  O67  1  0.75890000  0.71400000  0.41240000  1.0 -0.4691096452
O  O68  1  0.24110000  0.21400000  0.58760000  1.0 -0.4691096452
O  O69  1  0.25840000  0.23520000  0.68020000  1.0 -0.5842004524
O  O70  1  0.74160000  0.73520000  0.31980000  1.0 -0.5842004524
O  O71  1  0.75840000  0.73520000  0.81980000  1.0 -0.5842004524
O  O72  1  0.24160000  0.23520000  0.18020000  1.0 -0.5842004524
O  O73  1  0.59230000  0.75180000  0.87020000  1.0 -0.4691096452
O  O74  1  0.40770000  0.25180000  0.12980000  1.0 -0.4790099866
O  O75  1  0.09230000  0.25180000  0.62980000  1.0 -0.4790099866
O  O76  1  0.90770000  0.75180000  0.37020000  1.0 -0.4691096452
O  O77  1  0.42560000  0.15610000  0.13180000  1.0 -0.5696743882
O  O78  1  0.57440000  0.65610000  0.86820000  1.0 -0.5696743882
O  O79  1  0.92560000  0.65610000  0.36820000  1.0 -0.5696743882
O  O80  1  0.07440000  0.15610000  0.63180000  1.0 -0.5696743882
O  O81  1  0.49560000  0.13140000  0.17420000  1.0 -0.5290505694
O  O82  1  0.50440000  0.63140000  0.82580000  1.0 -0.5290505694
O  O83  1  0.99560000  0.63140000  0.32580000  1.0 -0.5290505694
O  O84  1  0.00440000  0.13140000  0.67420000  1.0 -0.5290505694
O  O85  1  0.07590000  0.68560000  0.26455000  1.0 -0.5696743882
O  O86  1  0.92410000  0.18560000  0.73545000  1.0 -0.5696743882
O  O87  1  0.57590000  0.18560000  0.23545000  1.0 -0.5696743882
O  O88  1  0.42410000  0.68560000  0.76455000  1.0 -0.5696743882
O  O89  1  0.10250000  0.74570000  0.28560000  1.0 -0.5613152789
O  O90  1  0.89750000  0.24570000  0.71440000  1.0 -0.5613152789
O  O91  1  0.60250000  0.24570000  0.21440000  1.0 -0.5613152789
O  O92  1  0.39750000  0.74570000  0.78560000  1.0 -0.5613152789
O  O93  1  0.44160000  0.73170000  0.85600000  1.0 -0.6006586658
O  O94  1  0.55840000  0.23170000  0.14400000  1.0 -0.6006586658
O  O95  1  0.94160000  0.23170000  0.64400000  1.0 -0.6006586658
O  O96  1  0.05840000  0.73170000  0.35600000  1.0 -0.6006586658
