# DDEC6 charges by PACMAN v1.1 (https://github.com/mtap-research/PACMAN-charge/)
data_XOTSEG_ASR_pacman
_symmetry_space_group_name_H-M   'P 1'
_cell_length_a   13.87830000
_cell_length_b   20.36740000
_cell_length_c   21.03440000
_cell_angle_alpha   62.57200000
_cell_angle_beta   82.48900000
_cell_angle_gamma   73.85000000
_symmetry_Int_Tables_number   1
_chemical_formula_structural   MnH14(C6O)4
_chemical_formula_sum   'Mn6 H84 C144 O24'
_cell_volume   5069.05003606
_cell_formula_units_Z   6
loop_
 _symmetry_equiv_pos_site_id
 _symmetry_equiv_pos_as_xyz
  1  'x, y, z'
loop_
 _atom_site_type_symbol
 _atom_site_label
 _atom_site_symmetry_multiplicity
 _atom_site_fract_x
 _atom_site_fract_y
 _atom_site_fract_z
 _atom_site_occupancy
 _atom_site_charge
Mn  Mn1  1  0.68576000  0.70810000  0.57671000  1.0 1.0402625415
Mn  Mn2  1  0.91264000  0.68243000  0.66016000  1.0 1.0051613662
Mn  Mn3  1  0.12306000  0.75092000  0.55849000  1.0 1.0265902493
Mn  Mn4  1  0.31424000  0.29190000  0.42329000  1.0 1.0402625415
Mn  Mn5  1  0.08736000  0.31757000  0.33984000  1.0 1.0028512094
Mn  Mn6  1  0.87694000  0.24908000  0.44151000  1.0 1.0265902493
H  H1  1  0.21070000  0.88000000  0.40460000  1.0 0.1206238137
H  H2  1  0.21470000  0.97230000  0.27360000  1.0 0.1206238137
H  H3  1  0.44550000  0.80670000  0.25880000  1.0 0.1206238137
H  H4  1  0.44110000  0.73000000  0.37930000  1.0 0.1307579298
H  H5  1  0.36910000  0.85720000  0.06780000  1.0 0.1381767913
H  H6  1  0.45360000  0.85360000  0.01130000  1.0 0.1381767913
H  H7  1  0.47650000  0.86160000  0.07810000  1.0 0.1381767913
H  H8  1  0.33620000  0.15780000  0.03790000  1.0 0.1464506774
H  H9  1  0.23030000  0.17940000  0.00500000  1.0 0.1381767913
H  H10  1  0.25920000  0.10840000  0.07940000  1.0 0.1307579298
H  H11  1  0.45500000  0.09940000  0.79260000  1.0 0.1307579298
H  H12  1  0.34890000  0.09020000  0.78570000  1.0 0.1381767913
H  H13  1  0.35910000  0.16480000  0.78600000  1.0 0.1381767913
H  H14  1  0.09900000  0.34570000  0.78970000  1.0 0.1206238137
H  H15  1  0.03920000  0.47210000  0.71560000  1.0 0.1206238137
H  H16  1  0.30870000  0.50990000  0.71470000  1.0 0.1307579298
H  H17  1  0.37080000  0.38250000  0.78890000  1.0 0.1206238137
H  H18  1  0.42780000  0.85090000  0.79350000  1.0 0.1206238137
H  H19  1  0.51590000  0.79360000  0.72240000  1.0 0.1307579298
H  H20  1  0.76290000  0.84860000  0.74080000  1.0 0.1206238137
H  H21  1  0.67460000  0.90270000  0.81310000  1.0 0.1206238137
H  H22  1  0.90280000  0.45850000  0.82540000  1.0 0.1307579298
H  H23  1  0.90130000  0.33510000  0.89980000  1.0 0.1307579298
H  H24  1  0.68190000  0.35010000  0.78350000  1.0 0.1307579298
H  H25  1  0.68380000  0.47550000  0.70830000  1.0 0.1307579298
H  H26  1  0.92220000  0.13390000  0.83040000  1.0 0.1381767913
H  H27  1  0.90290000  0.06510000  0.82370000  1.0 0.1307579298
H  H28  1  0.81220000  0.13110000  0.82420000  1.0 0.1381767913
H  H29  1  0.82070000  0.14650000  0.06650000  1.0 0.1381767913
H  H30  1  0.71590000  0.12960000  0.07070000  1.0 0.1464506774
H  H31  1  0.79600000  0.07360000  0.13060000  1.0 0.1307579298
H  H32  1  0.93200000  0.83480000  0.03620000  1.0 0.1381767913
H  H33  1  0.99170000  0.83880000  0.09220000  1.0 0.1381767913
H  H34  1  0.87940000  0.83430000  0.10700000  1.0 0.1307579298
H  H35  1  0.95750000  0.93450000  0.29860000  1.0 0.1206238137
H  H36  1  0.96710000  0.87700000  0.42100000  1.0 0.1206238137
H  H37  1  0.81280000  0.73220000  0.43180000  1.0 0.1206238137
H  H38  1  0.79860000  0.79200000  0.30740000  1.0 0.1307579298
H  H39  1  0.08510000  0.92230000  0.77250000  1.0 0.1206238137
H  H40  1  0.12430000  0.85830000  0.70180000  1.0 0.1206238137
H  H41  1  0.94250000  0.72490000  0.82180000  1.0 0.1307579298
H  H42  1  0.90530000  0.78570000  0.89380000  1.0 0.1206238137
H  H43  1  0.78930000  0.12000000  0.59540000  1.0 0.1206238137
H  H44  1  0.78530000  0.02770000  0.72640000  1.0 0.1206238137
H  H45  1  0.55450000  0.19330000  0.74120000  1.0 0.1206238137
H  H46  1  0.55890000  0.27000000  0.62070000  1.0 0.1307579298
H  H47  1  0.63090000  0.14280000  0.93220000  1.0 0.1381767913
H  H48  1  0.54640000  0.14640000  0.98870000  1.0 0.1381767913
H  H49  1  0.52350000  0.13840000  0.92190000  1.0 0.1381767913
H  H50  1  0.66380000  0.84220000  0.96210000  1.0 0.1464506774
H  H51  1  0.76970000  0.82060000  0.99500000  1.0 0.1381767913
H  H52  1  0.74080000  0.89160000  0.92060000  1.0 0.1307579298
H  H53  1  0.54500000  0.90060000  0.20740000  1.0 0.1307579298
H  H54  1  0.65110000  0.90980000  0.21430000  1.0 0.1381767913
H  H55  1  0.64090000  0.83520000  0.21400000  1.0 0.1381767913
H  H56  1  0.90100000  0.65430000  0.21030000  1.0 0.1206238137
H  H57  1  0.96080000  0.52790000  0.28440000  1.0 0.1206238137
H  H58  1  0.69130000  0.49010000  0.28530000  1.0 0.1307579298
H  H59  1  0.62920000  0.61750000  0.21110000  1.0 0.1206238137
H  H60  1  0.57220000  0.14910000  0.20650000  1.0 0.1206238137
H  H61  1  0.48410000  0.20640000  0.27760000  1.0 0.1307579298
H  H62  1  0.23710000  0.15140000  0.25920000  1.0 0.1206238137
H  H63  1  0.32540000  0.09730000  0.18690000  1.0 0.1110122275
H  H64  1  0.09720000  0.54150000  0.17460000  1.0 0.1307579298
H  H65  1  0.09870000  0.66490000  0.10020000  1.0 0.1307579298
H  H66  1  0.31810000  0.64990000  0.21650000  1.0 0.1307579298
H  H67  1  0.31620000  0.52450000  0.29170000  1.0 0.1307579298
H  H68  1  0.07780000  0.86610000  0.16960000  1.0 0.1381767913
H  H69  1  0.09710000  0.93490000  0.17630000  1.0 0.1307579298
H  H70  1  0.18780000  0.86890000  0.17580000  1.0 0.1381767913
H  H71  1  0.17930000  0.85350000  0.93350000  1.0 0.1381767913
H  H72  1  0.28410000  0.87040000  0.92930000  1.0 0.1464506774
H  H73  1  0.20400000  0.92640000  0.86940000  1.0 0.1307579298
H  H74  1  0.06800000  0.16520000  0.96380000  1.0 0.1381767913
H  H75  1  0.00830000  0.16120000  0.90780000  1.0 0.1381767913
H  H76  1  0.12060000  0.16570000  0.89300000  1.0 0.1307579298
H  H77  1  0.04250000  0.06550000  0.70140000  1.0 0.1206238137
H  H78  1  0.03290000  0.12300000  0.57900000  1.0 0.1206238137
H  H79  1  0.18720000  0.26780000  0.56820000  1.0 0.1206238137
H  H80  1  0.20140000  0.20800000  0.69260000  1.0 0.1307579298
H  H81  1  0.91490000  0.07770000  0.22750000  1.0 0.1110122275
H  H82  1  0.87570000  0.14170000  0.29820000  1.0 0.1206238137
H  H83  1  0.05750000  0.27510000  0.17820000  1.0 0.1307579298
H  H84  1  0.09470000  0.21430000  0.10620000  1.0 0.1206238137
C  C1  1  0.33420000  0.80640000  0.39840000  1.0 -0.0200129373
C  C2  1  0.26050000  0.86940000  0.37420000  1.0 -0.1062897958
C  C3  1  0.26050000  0.92490000  0.29290000  1.0 -0.1408935695
C  C4  1  0.32950000  0.90170000  0.25170000  1.0 0.1307579298
C  C5  1  0.39930000  0.82440000  0.28710000  1.0 -0.1312140685
C  C6  1  0.39850000  0.77860000  0.35880000  1.0 -0.0902968627
C  C7  1  0.33670000  0.94180000  0.17560000  1.0 -0.1408935695
C  C8  1  0.34350000  0.97280000  0.11230000  1.0 -0.0479430245
C  C9  1  0.35510000  0.00770000  0.03610000  1.0 -0.0297846673
C  C10  1  0.32550000  0.08780000  0.99570000  1.0 0.1206238137
C  C11  1  0.33530000  0.12010000  0.92150000  1.0 -0.0200129373
C  C12  1  0.37460000  0.07450000  0.88600000  1.0 0.1110122275
C  C13  1  0.40700000  0.99620000  0.92550000  1.0 -0.0297846673
C  C14  1  0.39590000  0.96110000  0.00190000  1.0 0.1206238137
C  C15  1  0.42650000  0.87570000  0.04350000  1.0 -0.4592451658
C  C16  1  0.28400000  0.13790000  0.03290000  1.0 -0.4501190073
C  C17  1  0.38540000  0.11060000  0.80520000  1.0 -0.4501190073
C  C18  1  0.30460000  0.20170000  0.88010000  1.0 -0.0479430245
C  C19  1  0.27820000  0.27000000  0.84390000  1.0 -0.1505818736
C  C20  1  0.23910000  0.35020000  0.79850000  1.0 0.1381767913
C  C21  1  0.14140000  0.37850000  0.77490000  1.0 -0.1505818736
C  C22  1  0.10590000  0.45400000  0.73010000  1.0 -0.0973536905
C  C23  1  0.16820000  0.50500000  0.70530000  1.0 0.0017775472
C  C24  1  0.26700000  0.47670000  0.72940000  1.0 -0.0846484017
C  C25  1  0.30410000  0.40080000  0.77430000  1.0 -0.1408935695
C  C26  1  0.12700000  0.58890000  0.65370000  1.0 0.5764081392
C  C27  1  0.45100000  0.95080000  0.88990000  1.0 -0.0479430245
C  C28  1  0.49040000  0.91760000  0.85410000  1.0 -0.1312140685
C  C29  1  0.54320000  0.88160000  0.81100000  1.0 0.1381767913
C  C30  1  0.49540000  0.84980000  0.78360000  1.0 -0.1408935695
C  C31  1  0.54860000  0.81550000  0.74050000  1.0 -0.0902968627
C  C32  1  0.64770000  0.81400000  0.72480000  1.0 -0.0138865297
C  C33  1  0.69590000  0.84800000  0.75170000  1.0 -0.0902968627
C  C34  1  0.64230000  0.88070000  0.79480000  1.0 -0.1505818736
C  C35  1  0.70780000  0.77570000  0.67920000  1.0 0.590498717
C  C36  1  0.79320000  0.56200000  0.71020000  1.0 0.5955372665
C  C37  1  0.79360000  0.47960000  0.76020000  1.0 -0.0200129373
C  C38  1  0.85810000  0.43680000  0.81700000  1.0 -0.0902968627
C  C39  1  0.85740000  0.36320000  0.86120000  1.0 -0.1408935695
C  C40  1  0.79110000  0.32850000  0.84960000  1.0 0.1307579298
C  C41  1  0.72650000  0.37180000  0.79210000  1.0 -0.1408935695
C  C42  1  0.72730000  0.44690000  0.74710000  1.0 -0.0902968627
C  C43  1  0.79550000  0.24930000  0.89300000  1.0 -0.1408935695
C  C44  1  0.80820000  0.18100000  0.92740000  1.0 -0.0416294671
C  C45  1  0.83570000  0.09890000  0.96350000  1.0 -0.0200129373
C  C46  1  0.82750000  0.06180000  0.03830000  1.0 0.1110122275
C  C47  1  0.85990000  0.98260000  0.07270000  1.0 -0.0297846673
C  C48  1  0.89400000  0.93960000  0.03400000  1.0 0.1110122275
C  C49  1  0.89870000  0.98000000  0.95880000  1.0 -0.0200129373
C  C50  1  0.87150000  0.05860000  0.92380000  1.0 0.104199237
C  C51  1  0.87780000  0.10100000  0.84320000  1.0 -0.4592451658
C  C52  1  0.78630000  0.10700000  0.08040000  1.0 -0.4501190073
C  C53  1  0.92720000  0.85420000  0.07060000  1.0 -0.4653130856
C  C54  1  0.85990000  0.94280000  0.14950000  1.0 -0.0416294671
C  C55  1  0.86410000  0.91140000  0.21190000  1.0 -0.1408935695
C  C56  1  0.87320000  0.87250000  0.28860000  1.0 0.1464506774
C  C57  1  0.92650000  0.89490000  0.32510000  1.0 -0.1408935695
C  C58  1  0.93380000  0.85980000  0.39840000  1.0 -0.0973536905
C  C59  1  0.89170000  0.79890000  0.43840000  1.0 -0.0297846673
C  C60  1  0.84090000  0.77340000  0.40460000  1.0 -0.1062897958
C  C61  1  0.83180000  0.80960000  0.32970000  1.0 -0.1408935695
C  C62  1  0.93630000  0.93710000  0.91700000  1.0 -0.0416294671
C  C63  1  0.96170000  0.90280000  0.88370000  1.0 -0.1408935695
C  C64  1  0.99080000  0.85980000  0.84120000  1.0 0.1307579298
C  C65  1  0.05670000  0.88230000  0.78250000  1.0 -0.1505818736
C  C66  1  0.07920000  0.84460000  0.73960000  1.0 -0.0902968627
C  C67  1  0.03420000  0.78660000  0.75320000  1.0 -0.0138865297
C  C68  1  0.97090000  0.76500000  0.81160000  1.0 -0.0902968627
C  C69  1  0.94870000  0.80110000  0.85510000  1.0 -0.1505818736
C  C70  1  0.04810000  0.75120000  0.70200000  1.0 0.590498717
C  C71  1  0.33920000  0.75360000  0.48410000  1.0 0.556440017
C  C72  1  0.89940000  0.75990000  0.51810000  1.0 0.590498717
C  C73  1  0.66580000  0.19360000  0.60160000  1.0 -0.0200129373
C  C74  1  0.73950000  0.13060000  0.62580000  1.0 -0.1062897958
C  C75  1  0.73950000  0.07510000  0.70710000  1.0 -0.1408935695
C  C76  1  0.67050000  0.09830000  0.74830000  1.0 0.1307579298
C  C77  1  0.60070000  0.17560000  0.71290000  1.0 -0.1312140685
C  C78  1  0.60150000  0.22140000  0.64120000  1.0 -0.0902968627
C  C79  1  0.66330000  0.05820000  0.82440000  1.0 -0.1408935695
C  C80  1  0.65650000  0.02720000  0.88770000  1.0 -0.0479430245
C  C81  1  0.64490000  0.99230000  0.96390000  1.0 -0.0297846673
C  C82  1  0.67450000  0.91220000  0.00430000  1.0 0.1206238137
C  C83  1  0.66470000  0.87990000  0.07850000  1.0 -0.0200129373
C  C84  1  0.62540000  0.92550000  0.11400000  1.0 0.1110122275
C  C85  1  0.59300000  0.00380000  0.07450000  1.0 -0.0297846673
C  C86  1  0.60410000  0.03890000  0.99810000  1.0 0.1206238137
C  C87  1  0.57350000  0.12430000  0.95650000  1.0 -0.4592451658
C  C88  1  0.71600000  0.86210000  0.96710000  1.0 -0.4501190073
C  C89  1  0.61460000  0.88940000  0.19480000  1.0 -0.4501190073
C  C90  1  0.69540000  0.79830000  0.11990000  1.0 -0.0479430245
C  C91  1  0.72180000  0.73000000  0.15610000  1.0 -0.1505818736
C  C92  1  0.76090000  0.64980000  0.20150000  1.0 0.1381767913
C  C93  1  0.85860000  0.62150000  0.22510000  1.0 -0.1505818736
C  C94  1  0.89410000  0.54600000  0.26990000  1.0 -0.0973536905
C  C95  1  0.83180000  0.49500000  0.29470000  1.0 0.0017775472
C  C96  1  0.73300000  0.52330000  0.27060000  1.0 -0.0902968627
C  C97  1  0.69590000  0.59920000  0.22570000  1.0 -0.1408935695
C  C98  1  0.87300000  0.41110000  0.34630000  1.0 0.5764081392
C  C99  1  0.54900000  0.04920000  0.11010000  1.0 -0.0479430245
C  C100  1  0.50960000  0.08240000  0.14590000  1.0 -0.1312140685
C  C101  1  0.45680000  0.11840000  0.18900000  1.0 0.1381767913
C  C102  1  0.50460000  0.15020000  0.21640000  1.0 -0.1408935695
C  C103  1  0.45140000  0.18450000  0.25950000  1.0 -0.0902968627
C  C104  1  0.35230000  0.18600000  0.27520000  1.0 -0.0138865297
C  C105  1  0.30410000  0.15200000  0.24830000  1.0 -0.0902968627
C  C106  1  0.35770000  0.11930000  0.20520000  1.0 -0.1505818736
C  C107  1  0.29220000  0.22430000  0.32080000  1.0 0.590498717
C  C108  1  0.20680000  0.43800000  0.28980000  1.0 0.5955372665
C  C109  1  0.20640000  0.52040000  0.23980000  1.0 -0.0200129373
C  C110  1  0.14190000  0.56320000  0.18300000  1.0 -0.0902968627
C  C111  1  0.14260000  0.63680000  0.13880000  1.0 -0.1408935695
C  C112  1  0.20890000  0.67150000  0.15040000  1.0 0.1307579298
C  C113  1  0.27350000  0.62820000  0.20790000  1.0 -0.1408935695
C  C114  1  0.27270000  0.55310000  0.25290000  1.0 -0.0902968627
C  C115  1  0.20450000  0.75070000  0.10700000  1.0 -0.1408935695
C  C116  1  0.19180000  0.81900000  0.07260000  1.0 -0.0416294671
C  C117  1  0.16430000  0.90110000  0.03650000  1.0 -0.0200129373
C  C118  1  0.17250000  0.93820000  0.96170000  1.0 0.1110122275
C  C119  1  0.14010000  0.01740000  0.92730000  1.0 -0.0297846673
C  C120  1  0.10600000  0.06040000  0.96600000  1.0 0.1110122275
C  C121  1  0.10130000  0.02000000  0.04120000  1.0 -0.0200129373
C  C122  1  0.12850000  0.94140000  0.07620000  1.0 0.1110122275
C  C123  1  0.12220000  0.89900000  0.15680000  1.0 -0.4592451658
C  C124  1  0.21370000  0.89300000  0.91960000  1.0 -0.4501190073
C  C125  1  0.07280000  0.14580000  0.92940000  1.0 -0.4592451658
C  C126  1  0.14010000  0.05720000  0.85050000  1.0 -0.0416294671
C  C127  1  0.13590000  0.08860000  0.78810000  1.0 -0.1408935695
C  C128  1  0.12680000  0.12750000  0.71140000  1.0 0.1464506774
C  C129  1  0.07350000  0.10510000  0.67490000  1.0 -0.1408935695
C  C130  1  0.06620000  0.14020000  0.60160000  1.0 -0.0973536905
C  C131  1  0.10830000  0.20110000  0.56160000  1.0 -0.0297846673
C  C132  1  0.15910000  0.22660000  0.59540000  1.0 -0.1062897958
C  C133  1  0.16820000  0.19040000  0.67030000  1.0 -0.1408935695
C  C134  1  0.06370000  0.06290000  0.08300000  1.0 -0.0416294671
C  C135  1  0.03830000  0.09720000  0.11630000  1.0 -0.1408935695
C  C136  1  0.00920000  0.14020000  0.15880000  1.0 0.1307579298
C  C137  1  0.94330000  0.11770000  0.21750000  1.0 -0.1505818736
C  C138  1  0.92080000  0.15540000  0.26040000  1.0 -0.0902968627
C  C139  1  0.96580000  0.21340000  0.24680000  1.0 -0.0138865297
C  C140  1  0.02910000  0.23500000  0.18840000  1.0 -0.0902968627
C  C141  1  0.05130000  0.19890000  0.14490000  1.0 -0.1505818736
C  C142  1  0.95190000  0.24880000  0.29800000  1.0 0.590498717
C  C143  1  0.66080000  0.24640000  0.51590000  1.0 0.556440017
C  C144  1  0.10060000  0.24010000  0.48190000  1.0 0.590498717
O  O1  1  0.65770000  0.75580000  0.64960000  1.0 -0.5714011577
O  O2  1  0.79880000  0.76750000  0.67540000  1.0 -0.5301786449
O  O3  1  0.85020000  0.59020000  0.72580000  1.0 -0.5301786449
O  O4  1  0.84430000  0.71330000  0.55420000  1.0 -0.5866609898
O  O5  1  0.95760000  0.77340000  0.54880000  1.0 -0.5602717933
O  O6  1  0.03720000  0.60790000  0.63630000  1.0 -0.5714011577
O  O7  1  0.00970000  0.69580000  0.71980000  1.0 -0.5484939602
O  O8  1  0.09940000  0.77830000  0.64660000  1.0 -0.5484939602
O  O9  1  0.18660000  0.63110000  0.62990000  1.0 -0.5362552788
O  O10  1  0.27420000  0.76940000  0.52130000  1.0 -0.5072989252
O  O11  1  0.41770000  0.69780000  0.50540000  1.0 -0.5229578998
O  O12  1  0.73770000  0.59460000  0.65680000  1.0 -0.5602717933
O  O13  1  0.34230000  0.24420000  0.35040000  1.0 -0.5714011577
O  O14  1  0.20120000  0.23250000  0.32460000  1.0 -0.5301786449
O  O15  1  0.14980000  0.40980000  0.27420000  1.0 -0.5301786449
O  O16  1  0.15570000  0.28670000  0.44580000  1.0 -0.5866609898
O  O17  1  0.04240000  0.22660000  0.45120000  1.0 -0.5602717933
O  O18  1  0.96280000  0.39210000  0.36370000  1.0 -0.5714011577
O  O19  1  0.99030000  0.30420000  0.28020000  1.0 -0.5484939602
O  O20  1  0.90060000  0.22170000  0.35340000  1.0 -0.5484939602
O  O21  1  0.81340000  0.36890000  0.37010000  1.0 -0.5362552788
O  O22  1  0.72580000  0.23060000  0.47870000  1.0 -0.5072989252
O  O23  1  0.58230000  0.30220000  0.49460000  1.0 -0.5229578998
O  O24  1  0.26230000  0.40540000  0.34320000  1.0 -0.5602717933
