# DDEC6 charges by PACMAN v1.1 (https://github.com/mtap-research/PACMAN-charge/)
data_XOTXAG_ASR_pacman
_symmetry_space_group_name_H-M   'P 1'
_cell_length_a   6.44670000
_cell_length_b   21.69740000
_cell_length_c   16.64850000
_cell_angle_alpha   90.00000000
_cell_angle_beta   91.28300000
_cell_angle_gamma   90.00000000
_symmetry_Int_Tables_number   1
_chemical_formula_structural   NaLaH4C14O11
_chemical_formula_sum   'Na4 La4 H16 C56 O44'
_cell_volume   2328.15222930
_cell_formula_units_Z   4
loop_
 _symmetry_equiv_pos_site_id
 _symmetry_equiv_pos_as_xyz
  1  'x, y, z'
loop_
 _atom_site_type_symbol
 _atom_site_label
 _atom_site_symmetry_multiplicity
 _atom_site_fract_x
 _atom_site_fract_y
 _atom_site_fract_z
 _atom_site_occupancy
 _atom_site_charge
Na  Na1  1  0.61170000  0.92583000  0.53804000  1.0 0.8662348194
Na  Na2  1  0.38830000  0.42583000  0.96196000  1.0 0.8644062284
Na  Na3  1  0.38830000  0.07417000  0.46196000  1.0 0.8662348194
Na  Na4  1  0.61170000  0.57417000  0.03804000  1.0 0.8662348194
La  La1  1  0.56246000  0.92227000  0.78069000  1.0 1.8462443355
La  La2  1  0.43754000  0.42227000  0.71931000  1.0 1.8462443355
La  La3  1  0.43754000  0.07773000  0.21931000  1.0 1.8462443355
La  La4  1  0.56246000  0.57773000  0.28069000  1.0 1.8462443355
H  H1  1  0.54350000  0.70720000  0.64500000  1.0 0.13031121
H  H2  1  0.45650000  0.20720000  0.85500000  1.0 0.13031121
H  H3  1  0.45650000  0.29280000  0.35500000  1.0 0.13031121
H  H4  1  0.54350000  0.79280000  0.14500000  1.0 0.13031121
H  H5  1  0.59700000  0.60130000  0.64640000  1.0 0.13031121
H  H6  1  0.40300000  0.10130000  0.85360000  1.0 0.13031121
H  H7  1  0.40300000  0.39870000  0.35360000  1.0 0.13031121
H  H8  1  0.59700000  0.89870000  0.14640000  1.0 0.13031121
H  H9  1  0.40340000  0.74540000  0.84670000  1.0 0.13031121
H  H10  1  0.59660000  0.24540000  0.65330000  1.0 0.13031121
H  H11  1  0.59660000  0.25460000  0.15330000  1.0 0.13031121
H  H12  1  0.40340000  0.75460000  0.34670000  1.0 0.13031121
H  H13  1  0.45760000  0.63990000  0.84630000  1.0 0.13031121
H  H14  1  0.54240000  0.13990000  0.65370000  1.0 0.13031121
H  H15  1  0.54240000  0.36010000  0.15370000  1.0 0.13031121
H  H16  1  0.45760000  0.86010000  0.34630000  1.0 0.13031121
C  C1  1  0.79410000  0.72982000  0.71288000  1.0 -0.0305392993
C  C2  1  0.20590000  0.22982000  0.78712000  1.0 -0.0305392993
C  C3  1  0.20590000  0.27018000  0.28712000  1.0 -0.0305392993
C  C4  1  0.79410000  0.77018000  0.21288000  1.0 -0.0305392993
C  C5  1  0.65740000  0.69091000  0.67290000  1.0 -0.0893917825
C  C6  1  0.34260000  0.19091000  0.82710000  1.0 -0.0893917825
C  C7  1  0.34260000  0.30909000  0.32710000  1.0 -0.0893917825
C  C8  1  0.65740000  0.80909000  0.17290000  1.0 -0.0893917825
C  C9  1  0.68940000  0.62699000  0.67400000  1.0 -0.098263554
C  C10  1  0.31060000  0.12699000  0.82600000  1.0 -0.098263554
C  C11  1  0.31060000  0.37301000  0.32600000  1.0 -0.098263554
C  C12  1  0.68940000  0.87301000  0.17400000  1.0 -0.098263554
C  C13  1  0.85460000  0.60207000  0.71516000  1.0 -0.021584557
C  C14  1  0.14540000  0.10207000  0.78484000  1.0 -0.0305392993
C  C15  1  0.14540000  0.39793000  0.28484000  1.0 -0.021584557
C  C16  1  0.85460000  0.89793000  0.21516000  1.0 -0.021584557
C  C17  1  0.01850000  0.64147000  0.74562000  1.0 0.0300189232
C  C18  1  0.98150000  0.14147000  0.75438000  1.0 0.0300189232
C  C19  1  0.98150000  0.35853000  0.25438000  1.0 0.0300189232
C  C20  1  0.01850000  0.85853000  0.24562000  1.0 0.0300189232
C  C21  1  0.98670000  0.70626000  0.74445000  1.0 0.0300189232
C  C22  1  0.01330000  0.20626000  0.75555000  1.0 0.0300189232
C  C23  1  0.01330000  0.29374000  0.25555000  1.0 0.0300189232
C  C24  1  0.98670000  0.79374000  0.24445000  1.0 0.0300189232
C  C25  1  0.14890000  0.74568000  0.77600000  1.0 -0.0305392993
C  C26  1  0.85110000  0.24568000  0.72400000  1.0 -0.0305392993
C  C27  1  0.85110000  0.25432000  0.22400000  1.0 -0.0305392993
C  C28  1  0.14890000  0.75432000  0.27600000  1.0 -0.0305392993
C  C29  1  0.31220000  0.72004000  0.81787000  1.0 -0.098263554
C  C30  1  0.68780000  0.22004000  0.68213000  1.0 -0.098263554
C  C31  1  0.68780000  0.27996000  0.18213000  1.0 -0.098263554
C  C32  1  0.31220000  0.77996000  0.31787000  1.0 -0.098263554
C  C33  1  0.34440000  0.65625000  0.81810000  1.0 -0.0810116116
C  C34  1  0.65560000  0.15625000  0.68190000  1.0 -0.0810116116
C  C35  1  0.65560000  0.34375000  0.18190000  1.0 -0.0810116116
C  C36  1  0.34440000  0.84375000  0.31810000  1.0 -0.0810116116
C  C37  1  0.21130000  0.61763000  0.77719000  1.0 -0.021584557
C  C38  1  0.78870000  0.11763000  0.72281000  1.0 -0.021584557
C  C39  1  0.78870000  0.38237000  0.22281000  1.0 -0.021584557
C  C40  1  0.21130000  0.88237000  0.27719000  1.0 -0.021584557
C  C41  1  0.71450000  0.79249000  0.73425000  1.0 0.5592097643
C  C42  1  0.28550000  0.29249000  0.76575000  1.0 0.5592097643
C  C43  1  0.28550000  0.20751000  0.26575000  1.0 0.5592097643
C  C44  1  0.71450000  0.70751000  0.23425000  1.0 0.5592097643
C  C45  1  0.83570000  0.53582000  0.74082000  1.0 0.5919358436
C  C46  1  0.16430000  0.03582000  0.75918000  1.0 0.5919358436
C  C47  1  0.16430000  0.46418000  0.25918000  1.0 0.5919358436
C  C48  1  0.83570000  0.96418000  0.24082000  1.0 0.5919358436
C  C49  1  0.16680000  0.81252000  0.75214000  1.0 0.5975512865
C  C50  1  0.83320000  0.31252000  0.74786000  1.0 0.5975512865
C  C51  1  0.83320000  0.18748000  0.24786000  1.0 0.5975512865
C  C52  1  0.16680000  0.68748000  0.25214000  1.0 0.5975512865
C  C53  1  0.29020000  0.55443000  0.75670000  1.0 0.5524928573
C  C54  1  0.70980000  0.05443000  0.74330000  1.0 0.5524928573
C  C55  1  0.70980000  0.44557000  0.24330000  1.0 0.5524928573
C  C56  1  0.29020000  0.94557000  0.25670000  1.0 0.5524928573
O  O1  1  0.59450000  0.82068000  0.68579000  1.0 -0.5311422196
O  O2  1  0.40550000  0.32068000  0.81421000  1.0 -0.5311422196
O  O3  1  0.40550000  0.17932000  0.31421000  1.0 -0.5311422196
O  O4  1  0.59450000  0.67932000  0.18579000  1.0 -0.5311422196
O  O5  1  0.75590000  0.81412000  0.80302000  1.0 -0.5618300196
O  O6  1  0.24410000  0.31412000  0.69698000  1.0 -0.5618300196
O  O7  1  0.24410000  0.18588000  0.19698000  1.0 -0.5618300196
O  O8  1  0.75590000  0.68588000  0.30302000  1.0 -0.5618300196
O  O9  1  0.10190000  0.82613000  0.68185000  1.0 -0.3871694279
O  O10  1  0.89810000  0.32613000  0.81815000  1.0 -0.3871694279
O  O11  1  0.89810000  0.17387000  0.31815000  1.0 -0.3871694279
O  O12  1  0.10190000  0.67387000  0.18185000  1.0 -0.3871694279
O  O13  1  0.25690000  0.84943000  0.79956000  1.0 -0.5708993562
O  O14  1  0.74310000  0.34943000  0.70044000  1.0 -0.5708993562
O  O15  1  0.74310000  0.15057000  0.20044000  1.0 -0.5708993562
O  O16  1  0.25690000  0.65057000  0.29956000  1.0 -0.5708993562
O  O17  1  0.40650000  0.52663000  0.80677000  1.0 -0.4802580398
O  O18  1  0.59350000  0.02663000  0.69323000  1.0 -0.4802580398
O  O19  1  0.59350000  0.47337000  0.19323000  1.0 -0.4802580398
O  O20  1  0.40650000  0.97337000  0.30677000  1.0 -0.4802580398
O  O21  1  0.24830000  0.53208000  0.68818000  1.0 -0.5708993562
O  O22  1  0.75170000  0.03208000  0.81182000  1.0 -0.5708993562
O  O23  1  0.75170000  0.46792000  0.31182000  1.0 -0.5618300196
O  O24  1  0.24830000  0.96792000  0.18818000  1.0 -0.5708993562
O  O25  1  0.89850000  0.52214000  0.81076000  1.0 -0.3603329506
O  O26  1  0.10150000  0.02214000  0.68924000  1.0 -0.3603329506
O  O27  1  0.10150000  0.47786000  0.18924000  1.0 -0.3603329506
O  O28  1  0.89850000  0.97786000  0.31076000  1.0 -0.3603329506
O  O29  1  0.74430000  0.49790000  0.69358000  1.0 -0.5866383013
O  O30  1  0.25570000  0.99790000  0.80642000  1.0 -0.5866383013
O  O31  1  0.25570000  0.50210000  0.30642000  1.0 -0.5866383013
O  O32  1  0.74430000  0.00210000  0.19358000  1.0 -0.5866383013
O  O33  1  0.35450000  0.92482000  0.64511000  1.0 -0.249361691
O  O34  1  0.64550000  0.42482000  0.85489000  1.0 -0.249361691
O  O35  1  0.64550000  0.07518000  0.35489000  1.0 -0.249361691
O  O36  1  0.35450000  0.57518000  0.14511000  1.0 -0.249361691
O  O37  1  0.83870000  0.92387000  0.66700000  1.0 -0.2584666309
O  O38  1  0.16130000  0.42387000  0.83300000  1.0 -0.2584666309
O  O39  1  0.16130000  0.07613000  0.33300000  1.0 -0.249361691
O  O40  1  0.83870000  0.57613000  0.16700000  1.0 -0.249361691
O  O41  1  0.31220000  0.96330000  0.46337000  1.0 -0.5708993562
O  O42  1  0.68780000  0.46330000  0.03663000  1.0 -0.5708993562
O  O43  1  0.68780000  0.03670000  0.53663000  1.0 -0.5708993562
O  O44  1  0.31220000  0.53670000  0.96337000  1.0 -0.5708993562
