# DDEC6 charges by PACMAN v1.1 (https://github.com/mtap-research/PACMAN-charge/)
data_XOVQEF_ASR_pacman
_symmetry_space_group_name_H-M   'P 1'
_cell_length_a   28.83300000
_cell_length_b   41.68700000
_cell_length_c   30.56100000
_cell_angle_alpha   90.00000000
_cell_angle_beta   90.00000000
_cell_angle_gamma   90.00000000
_symmetry_Int_Tables_number   1
_chemical_formula_structural   Zn6H68C120O31
_chemical_formula_sum   'Zn24 H272 C480 O124'
_cell_volume   36733.13840303
_cell_formula_units_Z   4
loop_
 _symmetry_equiv_pos_site_id
 _symmetry_equiv_pos_as_xyz
  1  'x, y, z'
loop_
 _atom_site_type_symbol
 _atom_site_label
 _atom_site_symmetry_multiplicity
 _atom_site_fract_x
 _atom_site_fract_y
 _atom_site_fract_z
 _atom_site_occupancy
 _atom_site_charge
Zn  Zn1  1  0.56934000  0.85402000  0.83102000  1.0 1.0614971607
Zn  Zn2  1  0.48159000  0.85205000  0.88989000  1.0 1.0210437268
Zn  Zn3  1  0.51554000  0.63621000  0.32286000  1.0 1.109417656
Zn  Zn4  1  0.50380000  0.91241000  0.83133000  1.0 1.0811147282
Zn  Zn5  1  0.47853000  0.59247000  0.23439000  1.0 1.070875286
Zn  Zn6  1  0.46905000  0.84815000  0.78641000  1.0 1.0210437268
Zn  Zn7  1  0.43066000  0.14598000  0.33102000  1.0 1.0514266878
Zn  Zn8  1  0.51841000  0.14795000  0.38989000  1.0 1.0210437268
Zn  Zn9  1  0.48446000  0.36379000  0.82286000  1.0 1.118537107
Zn  Zn10  1  0.49620000  0.08759000  0.33133000  1.0 1.0811147282
Zn  Zn11  1  0.52147000  0.40753000  0.73439000  1.0 1.0614971607
Zn  Zn12  1  0.53095000  0.15185000  0.28641000  1.0 1.0210437268
Zn  Zn13  1  0.06934000  0.14598000  0.83102000  1.0 1.0614971607
Zn  Zn14  1  0.98159000  0.14795000  0.88989000  1.0 1.0210437268
Zn  Zn15  1  0.01554000  0.36379000  0.32286000  1.0 1.109417656
Zn  Zn16  1  0.00380000  0.08759000  0.83133000  1.0 1.0811147282
Zn  Zn17  1  0.97853000  0.40753000  0.23439000  1.0 1.070875286
Zn  Zn18  1  0.96905000  0.15185000  0.78641000  1.0 1.0210437268
Zn  Zn19  1  0.93066000  0.85402000  0.33102000  1.0 1.0514266878
Zn  Zn20  1  0.01841000  0.85205000  0.38989000  1.0 1.0210437268
Zn  Zn21  1  0.98446000  0.63621000  0.82286000  1.0 1.118537107
Zn  Zn22  1  0.99620000  0.91241000  0.33133000  1.0 1.070875286
Zn  Zn23  1  0.02147000  0.59247000  0.73439000  1.0 1.0614971607
Zn  Zn24  1  0.03095000  0.84815000  0.28641000  1.0 1.0210437268
H  H1  1  0.68560000  0.90270000  0.77410000  1.0 0.1283986814
H  H2  1  0.73860000  0.93630000  0.73990000  1.0 0.1283986814
H  H3  1  0.63410000  0.98130000  0.67830000  1.0 0.1225339871
H  H4  1  0.58110000  0.94780000  0.71250000  1.0 0.1283986814
H  H5  1  0.75770000  0.99990000  0.72840000  1.0 0.1225339871
H  H6  1  0.74430000  0.00340000  0.43710000  1.0 0.1283986814
H  H7  1  0.66750000  0.00710000  0.41860000  1.0 0.1225339871
H  H8  1  0.60750000  0.03440000  0.38420000  1.0 0.1283986814
H  H9  1  0.61260000  0.10260000  0.47690000  1.0 0.1225339871
H  H10  1  0.67250000  0.07540000  0.51130000  1.0 0.1283986814
H  H11  1  0.54750000  0.64750000  0.14760000  1.0 0.1225339871
H  H12  1  0.59540000  0.67230000  0.09690000  1.0 0.1283986814
H  H13  1  0.66960000  0.71120000  0.19480000  1.0 0.1283986814
H  H14  1  0.62160000  0.68640000  0.24550000  1.0 0.1225339871
H  H15  1  0.61080000  0.72830000  0.07600000  1.0 0.1225339871
H  H16  1  0.41700000  0.76550000  0.91560000  1.0 0.1283986814
H  H17  1  0.38430000  0.71500000  0.92400000  1.0 0.1225339871
H  H18  1  0.33830000  0.71820000  0.80000000  1.0 0.1283986814
H  H19  1  0.37100000  0.76870000  0.79160000  1.0 0.1225339871
H  H20  1  0.27450000  0.69010000  0.83950000  1.0 0.1225339871
H  H21  1  0.43620000  0.53180000  0.95960000  1.0 0.1108711628
H  H22  1  0.81740000  0.07640000  0.66070000  1.0 0.1225339871
H  H23  1  0.87390000  0.10550000  0.69750000  1.0 0.1225339871
H  H24  1  0.89580000  0.03060000  0.77770000  1.0 0.1283986814
H  H25  1  0.83930000  0.00150000  0.74090000  1.0 0.1225339871
H  H26  1  0.85470000  0.01400000  0.44150000  1.0 0.1283986814
H  H27  1  0.91240000  0.98940000  0.40050000  1.0 0.1283986814
H  H28  1  0.85630000  0.90320000  0.42640000  1.0 0.1283986814
H  H29  1  0.79870000  0.92780000  0.46740000  1.0 0.1283986814
H  H30  1  0.97460000  0.80340000  0.16450000  1.0 0.1225339871
H  H31  1  0.93540000  0.77530000  0.11040000  1.0 0.1283986814
H  H32  1  0.83700000  0.75100000  0.19740000  1.0 0.1225339871
H  H33  1  0.87620000  0.77910000  0.25150000  1.0 0.1283986814
H  H34  1  0.91490000  0.73430000  0.07690000  1.0 0.1225339871
H  H35  1  0.68920000  0.76080000  0.96130000  1.0 0.1225339871
H  H36  1  0.64830000  0.79070000  0.91020000  1.0 0.1283986814
H  H37  1  0.54730000  0.80560000  0.99850000  1.0 0.1283986814
H  H38  1  0.58820000  0.77570000  0.04960000  1.0 0.1283986814
H  H39  1  0.19540000  0.67830000  0.87150000  1.0 0.1283986814
H  H40  1  0.11980000  0.67100000  0.84750000  1.0 0.1283986814
H  H41  1  0.15890000  0.59150000  0.78300000  1.0 0.1283986814
H  H42  1  0.23450000  0.59880000  0.80710000  1.0 0.1283986814
H  H43  1  0.46530000  0.49750000  0.78370000  1.0 0.1283986814
H  H44  1  0.43690000  0.54190000  0.82090000  1.0 0.1283986814
H  H45  1  0.41240000  0.48690000  0.92630000  1.0 0.1225339871
H  H46  1  0.44080000  0.44250000  0.88920000  1.0 0.1283986814
H  H47  1  0.85800000  0.72150000  0.96330000  1.0 0.1283986814
H  H48  1  0.90640000  0.69760000  0.91210000  1.0 0.1283986814
H  H49  1  0.96710000  0.64640000  0.00770000  1.0 0.1225339871
H  H50  1  0.91870000  0.67030000  0.05880000  1.0 0.1372001111
H  H51  1  0.00950000  0.62060000  0.91150000  1.0 0.4020676254
H  H52  1  0.36510000  0.59410000  0.04480000  1.0 0.1225339871
H  H53  1  0.39640000  0.59080000  0.11560000  1.0 0.1283986814
H  H54  1  0.52020000  0.55170000  0.07500000  1.0 0.1225339871
H  H55  1  0.48870000  0.56000000  0.00470000  1.0 0.1225339871
H  H56  1  0.53170000  0.57800000  0.17430000  1.0 0.4020676254
H  H57  1  0.85377000  0.98210000  0.53959000  1.0 0.3525355025
H  H58  1  0.68028000  0.97737000  0.57816000  1.0 0.3245590492
H  H59  1  0.77192000  0.69431000  0.13987000  1.0 0.3392867535
H  H60  1  0.79934000  0.71317000  0.98050000  1.0 0.3285142272
H  H61  1  0.23681000  0.59396000  0.87056000  1.0 0.2943227231
H  H62  1  0.40188000  0.57554000  0.82085000  1.0 0.3285142272
H  H63  1  0.39930000  0.65867000  0.89607000  1.0 0.0928679976
H  H64  1  0.12802000  0.62155000  0.47463000  1.0 0.0928679976
H  H65  1  0.80716000  0.03516000  0.60837000  1.0 0.0986264536
H  H66  1  0.68820000  0.03151000  0.55804000  1.0 0.0986264536
H  H67  1  0.73711000  0.76054000  0.02346000  1.0 0.0986264536
H  H68  1  0.79109000  0.75549000  0.14340000  1.0 0.0986264536
H  H69  1  0.31440000  0.09730000  0.27410000  1.0 0.1283986814
H  H70  1  0.26140000  0.06370000  0.23990000  1.0 0.1283986814
H  H71  1  0.36590000  0.01870000  0.17830000  1.0 0.1225339871
H  H72  1  0.41890000  0.05220000  0.21250000  1.0 0.1283986814
H  H73  1  0.24230000  0.00010000  0.22840000  1.0 0.1225339871
H  H74  1  0.25570000  0.99660000  0.93710000  1.0 0.1283986814
H  H75  1  0.33250000  0.99290000  0.91860000  1.0 0.1225339871
H  H76  1  0.39250000  0.96560000  0.88420000  1.0 0.1283986814
H  H77  1  0.38740000  0.89740000  0.97690000  1.0 0.1225339871
H  H78  1  0.32750000  0.92460000  0.01130000  1.0 0.1283986814
H  H79  1  0.45250000  0.35250000  0.64760000  1.0 0.1225339871
H  H80  1  0.40460000  0.32770000  0.59690000  1.0 0.1283986814
H  H81  1  0.33040000  0.28880000  0.69480000  1.0 0.1283986814
H  H82  1  0.37840000  0.31360000  0.74550000  1.0 0.1225339871
H  H83  1  0.38920000  0.27170000  0.57600000  1.0 0.1225339871
H  H84  1  0.58300000  0.23450000  0.41560000  1.0 0.1283986814
H  H85  1  0.61570000  0.28500000  0.42400000  1.0 0.1225339871
H  H86  1  0.66170000  0.28180000  0.30000000  1.0 0.1283986814
H  H87  1  0.62900000  0.23130000  0.29160000  1.0 0.1283986814
H  H88  1  0.72550000  0.30990000  0.33950000  1.0 0.1225339871
H  H89  1  0.56380000  0.46820000  0.45960000  1.0 0.1108711628
H  H90  1  0.18260000  0.92360000  0.16070000  1.0 0.1225339871
H  H91  1  0.12610000  0.89450000  0.19750000  1.0 0.1225339871
H  H92  1  0.10420000  0.96940000  0.27770000  1.0 0.1225339871
H  H93  1  0.16070000  0.99850000  0.24090000  1.0 0.1225339871
H  H94  1  0.14530000  0.98600000  0.94150000  1.0 0.1283986814
H  H95  1  0.08760000  0.01060000  0.90050000  1.0 0.1283986814
H  H96  1  0.14370000  0.09680000  0.92640000  1.0 0.1283986814
H  H97  1  0.20130000  0.07220000  0.96740000  1.0 0.1283986814
H  H98  1  0.02540000  0.19660000  0.66450000  1.0 0.1225339871
H  H99  1  0.06460000  0.22470000  0.61040000  1.0 0.1225339871
H  H100  1  0.16300000  0.24900000  0.69740000  1.0 0.1225339871
H  H101  1  0.12380000  0.22090000  0.75150000  1.0 0.1283986814
H  H102  1  0.08510000  0.26570000  0.57690000  1.0 0.1225339871
H  H103  1  0.31080000  0.23920000  0.46130000  1.0 0.1225339871
H  H104  1  0.35170000  0.20930000  0.41020000  1.0 0.1225339871
H  H105  1  0.45270000  0.19440000  0.49850000  1.0 0.1283986814
H  H106  1  0.41180000  0.22430000  0.54960000  1.0 0.1283986814
H  H107  1  0.80460000  0.32170000  0.37150000  1.0 0.1283986814
H  H108  1  0.88020000  0.32900000  0.34750000  1.0 0.1283986814
H  H109  1  0.84110000  0.40850000  0.28300000  1.0 0.1283986814
H  H110  1  0.76550000  0.40120000  0.30710000  1.0 0.1283986814
H  H111  1  0.53470000  0.50250000  0.28370000  1.0 0.1283986814
H  H112  1  0.56310000  0.45810000  0.32090000  1.0 0.1283986814
H  H113  1  0.58760000  0.51310000  0.42630000  1.0 0.1225339871
H  H114  1  0.55920000  0.55750000  0.38920000  1.0 0.1283986814
H  H115  1  0.14200000  0.27850000  0.46330000  1.0 0.1283986814
H  H116  1  0.09360000  0.30240000  0.41210000  1.0 0.1283986814
H  H117  1  0.03290000  0.35360000  0.50770000  1.0 0.1225339871
H  H118  1  0.08130000  0.32970000  0.55880000  1.0 0.1372001111
H  H119  1  0.99050000  0.37940000  0.41150000  1.0 0.4020676254
H  H120  1  0.63490000  0.40590000  0.54480000  1.0 0.1225339871
H  H121  1  0.60360000  0.40920000  0.61560000  1.0 0.1283986814
H  H122  1  0.47980000  0.44830000  0.57500000  1.0 0.1225339871
H  H123  1  0.51130000  0.44000000  0.50470000  1.0 0.1225339871
H  H124  1  0.46830000  0.42200000  0.67430000  1.0 0.4020676254
H  H125  1  0.14623000  0.01790000  0.03959000  1.0 0.3525355025
H  H126  1  0.31972000  0.02263000  0.07816000  1.0 0.3245590492
H  H127  1  0.22808000  0.30569000  0.63987000  1.0 0.3392867535
H  H128  1  0.20066000  0.28683000  0.48050000  1.0 0.3285142272
H  H129  1  0.76319000  0.40604000  0.37056000  1.0 0.2943227231
H  H130  1  0.59812000  0.42446000  0.32085000  1.0 0.3285142272
H  H131  1  0.60070000  0.34133000  0.39607000  1.0 0.0928679976
H  H132  1  0.87198000  0.37845000  0.97463000  1.0 0.0928679976
H  H133  1  0.19284000  0.96484000  0.10837000  1.0 0.0986264536
H  H134  1  0.31180000  0.96849000  0.05804000  1.0 0.0986264536
H  H135  1  0.26289000  0.23946000  0.52346000  1.0 0.0986264536
H  H136  1  0.20891000  0.24451000  0.64340000  1.0 0.0986264536
H  H137  1  0.18560000  0.09730000  0.77410000  1.0 0.1283986814
H  H138  1  0.23860000  0.06370000  0.73990000  1.0 0.1283986814
H  H139  1  0.13410000  0.01870000  0.67830000  1.0 0.1225339871
H  H140  1  0.08110000  0.05220000  0.71250000  1.0 0.1283986814
H  H141  1  0.25770000  0.00010000  0.72840000  1.0 0.1225339871
H  H142  1  0.24430000  0.99660000  0.43710000  1.0 0.1283986814
H  H143  1  0.16750000  0.99290000  0.41860000  1.0 0.1225339871
H  H144  1  0.10750000  0.96560000  0.38420000  1.0 0.1283986814
H  H145  1  0.11260000  0.89740000  0.47690000  1.0 0.1225339871
H  H146  1  0.17250000  0.92460000  0.51130000  1.0 0.1283986814
H  H147  1  0.04750000  0.35250000  0.14760000  1.0 0.1225339871
H  H148  1  0.09540000  0.32770000  0.09690000  1.0 0.1283986814
H  H149  1  0.16960000  0.28880000  0.19480000  1.0 0.1283986814
H  H150  1  0.12160000  0.31360000  0.24550000  1.0 0.1225339871
H  H151  1  0.11080000  0.27170000  0.07600000  1.0 0.1225339871
H  H152  1  0.91700000  0.23450000  0.91560000  1.0 0.1283986814
H  H153  1  0.88430000  0.28500000  0.92400000  1.0 0.1225339871
H  H154  1  0.83830000  0.28180000  0.80000000  1.0 0.1283986814
H  H155  1  0.87100000  0.23130000  0.79160000  1.0 0.1225339871
H  H156  1  0.77450000  0.30990000  0.83950000  1.0 0.1225339871
H  H157  1  0.93620000  0.46820000  0.95960000  1.0 0.1108711628
H  H158  1  0.31740000  0.92360000  0.66070000  1.0 0.1225339871
H  H159  1  0.37390000  0.89450000  0.69750000  1.0 0.1225339871
H  H160  1  0.39580000  0.96940000  0.77770000  1.0 0.1283986814
H  H161  1  0.33930000  0.99850000  0.74090000  1.0 0.1225339871
H  H162  1  0.35470000  0.98600000  0.44150000  1.0 0.1283986814
H  H163  1  0.41240000  0.01060000  0.40050000  1.0 0.1283986814
H  H164  1  0.35630000  0.09680000  0.42640000  1.0 0.1283986814
H  H165  1  0.29870000  0.07220000  0.46740000  1.0 0.1283986814
H  H166  1  0.47460000  0.19660000  0.16450000  1.0 0.1225339871
H  H167  1  0.43540000  0.22470000  0.11040000  1.0 0.1283986814
H  H168  1  0.33700000  0.24900000  0.19740000  1.0 0.1225339871
H  H169  1  0.37620000  0.22090000  0.25150000  1.0 0.1283986814
H  H170  1  0.41490000  0.26570000  0.07690000  1.0 0.1225339871
H  H171  1  0.18920000  0.23920000  0.96130000  1.0 0.1225339871
H  H172  1  0.14830000  0.20930000  0.91020000  1.0 0.1283986814
H  H173  1  0.04730000  0.19440000  0.99850000  1.0 0.1283986814
H  H174  1  0.08820000  0.22430000  0.04960000  1.0 0.1283986814
H  H175  1  0.69540000  0.32170000  0.87150000  1.0 0.1283986814
H  H176  1  0.61980000  0.32900000  0.84750000  1.0 0.1283986814
H  H177  1  0.65890000  0.40850000  0.78300000  1.0 0.1283986814
H  H178  1  0.73450000  0.40120000  0.80710000  1.0 0.1283986814
H  H179  1  0.96530000  0.50250000  0.78370000  1.0 0.1283986814
H  H180  1  0.93690000  0.45810000  0.82090000  1.0 0.1283986814
H  H181  1  0.91240000  0.51310000  0.92630000  1.0 0.1225339871
H  H182  1  0.94080000  0.55750000  0.88920000  1.0 0.1283986814
H  H183  1  0.35800000  0.27850000  0.96330000  1.0 0.1283986814
H  H184  1  0.40640000  0.30240000  0.91210000  1.0 0.1283986814
H  H185  1  0.46710000  0.35360000  0.00770000  1.0 0.1225339871
H  H186  1  0.41870000  0.32970000  0.05880000  1.0 0.1372001111
H  H187  1  0.50950000  0.37940000  0.91150000  1.0 0.4020676254
H  H188  1  0.86510000  0.40590000  0.04480000  1.0 0.1225339871
H  H189  1  0.89640000  0.40920000  0.11560000  1.0 0.1283986814
H  H190  1  0.02020000  0.44830000  0.07500000  1.0 0.1225339871
H  H191  1  0.98870000  0.44000000  0.00470000  1.0 0.1225339871
H  H192  1  0.03170000  0.42200000  0.17430000  1.0 0.4020676254
H  H193  1  0.35377000  0.01790000  0.53959000  1.0 0.3525355025
H  H194  1  0.18028000  0.02263000  0.57816000  1.0 0.3245590492
H  H195  1  0.27192000  0.30569000  0.13987000  1.0 0.3392867535
H  H196  1  0.29934000  0.28683000  0.98050000  1.0 0.3285142272
H  H197  1  0.73681000  0.40604000  0.87056000  1.0 0.2943227231
H  H198  1  0.90188000  0.42446000  0.82085000  1.0 0.3285142272
H  H199  1  0.89930000  0.34133000  0.89607000  1.0 0.0928679976
H  H200  1  0.62802000  0.37845000  0.47463000  1.0 0.0928679976
H  H201  1  0.30716000  0.96484000  0.60837000  1.0 0.0986264536
H  H202  1  0.18820000  0.96849000  0.55804000  1.0 0.0986264536
H  H203  1  0.23711000  0.23946000  0.02346000  1.0 0.0986264536
H  H204  1  0.29109000  0.24451000  0.14340000  1.0 0.0986264536
H  H205  1  0.81440000  0.90270000  0.27410000  1.0 0.1283986814
H  H206  1  0.76140000  0.93630000  0.23990000  1.0 0.1283986814
H  H207  1  0.86590000  0.98130000  0.17830000  1.0 0.1225339871
H  H208  1  0.91890000  0.94780000  0.21250000  1.0 0.1283986814
H  H209  1  0.74230000  0.99990000  0.22840000  1.0 0.1225339871
H  H210  1  0.75570000  0.00340000  0.93710000  1.0 0.1283986814
H  H211  1  0.83250000  0.00710000  0.91860000  1.0 0.1225339871
H  H212  1  0.89250000  0.03440000  0.88420000  1.0 0.1283986814
H  H213  1  0.88740000  0.10260000  0.97690000  1.0 0.1225339871
H  H214  1  0.82750000  0.07540000  0.01130000  1.0 0.1283986814
H  H215  1  0.95250000  0.64750000  0.64760000  1.0 0.1225339871
H  H216  1  0.90460000  0.67230000  0.59690000  1.0 0.1283986814
H  H217  1  0.83040000  0.71120000  0.69480000  1.0 0.1283986814
H  H218  1  0.87840000  0.68640000  0.74550000  1.0 0.1225339871
H  H219  1  0.88920000  0.72830000  0.57600000  1.0 0.1225339871
H  H220  1  0.08300000  0.76550000  0.41560000  1.0 0.1283986814
H  H221  1  0.11570000  0.71500000  0.42400000  1.0 0.1225339871
H  H222  1  0.16170000  0.71820000  0.30000000  1.0 0.1283986814
H  H223  1  0.12900000  0.76870000  0.29160000  1.0 0.1283986814
H  H224  1  0.22550000  0.69010000  0.33950000  1.0 0.1225339871
H  H225  1  0.06380000  0.53180000  0.45960000  1.0 0.1108711628
H  H226  1  0.68260000  0.07640000  0.16070000  1.0 0.1225339871
H  H227  1  0.62610000  0.10550000  0.19750000  1.0 0.1225339871
H  H228  1  0.60420000  0.03060000  0.27770000  1.0 0.1283986814
H  H229  1  0.66070000  0.00150000  0.24090000  1.0 0.1225339871
H  H230  1  0.64530000  0.01400000  0.94150000  1.0 0.1283986814
H  H231  1  0.58760000  0.98940000  0.90050000  1.0 0.1283986814
H  H232  1  0.64370000  0.90320000  0.92640000  1.0 0.1283986814
H  H233  1  0.70130000  0.92780000  0.96740000  1.0 0.1283986814
H  H234  1  0.52540000  0.80340000  0.66450000  1.0 0.1225339871
H  H235  1  0.56460000  0.77530000  0.61040000  1.0 0.1225339871
H  H236  1  0.66300000  0.75100000  0.69740000  1.0 0.1225339871
H  H237  1  0.62380000  0.77910000  0.75150000  1.0 0.1283986814
H  H238  1  0.58510000  0.73430000  0.57690000  1.0 0.1225339871
H  H239  1  0.81080000  0.76080000  0.46130000  1.0 0.1225339871
H  H240  1  0.85170000  0.79070000  0.41020000  1.0 0.1225339871
H  H241  1  0.95270000  0.80560000  0.49850000  1.0 0.1283986814
H  H242  1  0.91180000  0.77570000  0.54960000  1.0 0.1225339871
H  H243  1  0.30460000  0.67830000  0.37150000  1.0 0.1283986814
H  H244  1  0.38020000  0.67100000  0.34750000  1.0 0.1283986814
H  H245  1  0.34110000  0.59150000  0.28300000  1.0 0.1283986814
H  H246  1  0.26550000  0.59880000  0.30710000  1.0 0.1283986814
H  H247  1  0.03470000  0.49750000  0.28370000  1.0 0.1283986814
H  H248  1  0.06310000  0.54190000  0.32090000  1.0 0.1283986814
H  H249  1  0.08760000  0.48690000  0.42630000  1.0 0.1225339871
H  H250  1  0.05920000  0.44250000  0.38920000  1.0 0.1283986814
H  H251  1  0.64200000  0.72150000  0.46330000  1.0 0.1283986814
H  H252  1  0.59360000  0.69760000  0.41210000  1.0 0.1283986814
H  H253  1  0.53290000  0.64640000  0.50770000  1.0 0.1225339871
H  H254  1  0.58130000  0.67030000  0.55880000  1.0 0.1372001111
H  H255  1  0.49050000  0.62060000  0.41150000  1.0 0.4020676254
H  H256  1  0.13490000  0.59410000  0.54480000  1.0 0.1225339871
H  H257  1  0.10360000  0.59080000  0.61560000  1.0 0.1283986814
H  H258  1  0.97980000  0.55170000  0.57500000  1.0 0.1225339871
H  H259  1  0.01130000  0.56000000  0.50470000  1.0 0.1225339871
H  H260  1  0.96830000  0.57800000  0.67430000  1.0 0.4020676254
H  H261  1  0.64623000  0.98210000  0.03959000  1.0 0.3525355025
H  H262  1  0.81972000  0.97737000  0.07816000  1.0 0.3245590492
H  H263  1  0.72808000  0.69431000  0.63987000  1.0 0.3392867535
H  H264  1  0.70066000  0.71317000  0.48050000  1.0 0.3285142272
H  H265  1  0.26319000  0.59396000  0.37056000  1.0 0.2943227231
H  H266  1  0.09812000  0.57554000  0.32085000  1.0 0.3285142272
H  H267  1  0.10070000  0.65867000  0.39607000  1.0 0.0928679976
H  H268  1  0.37198000  0.62155000  0.97463000  1.0 0.0928679976
H  H269  1  0.69284000  0.03516000  0.10837000  1.0 0.0986264536
H  H270  1  0.81180000  0.03151000  0.05804000  1.0 0.0986264536
H  H271  1  0.76289000  0.76054000  0.52346000  1.0 0.0986264536
H  H272  1  0.70891000  0.75549000  0.64340000  1.0 0.0986264536
C  C1  1  0.62810000  0.92190000  0.74670000  1.0 -0.0696795383
C  C2  1  0.67530000  0.91850000  0.75490000  1.0 -0.0696795383
C  C3  1  0.70700000  0.93860000  0.73440000  1.0 -0.1500256452
C  C4  1  0.69160000  0.96220000  0.70570000  1.0 0.1108711628
C  C5  1  0.64440000  0.96560000  0.69750000  1.0 -0.1409782508
C  C6  1  0.61270000  0.94550000  0.71800000  1.0 -0.0696795383
C  C7  1  0.72300000  0.98100000  0.67690000  1.0 -0.0402722363
C  C8  1  0.72010000  0.98120000  0.63150000  1.0 0.2429756201
C  C9  1  0.75000000  0.00040000  0.60720000  1.0 -0.0402722363
C  C10  1  0.78270000  0.01940000  0.62830000  1.0 -0.1409782508
C  C11  1  0.78560000  0.01920000  0.67370000  1.0 0.0639000866
C  C12  1  0.75580000  0.00000000  0.69800000  1.0 -0.1717628003
C  C13  1  0.75120000  0.00190000  0.55830000  1.0 -0.0194239234
C  C14  1  0.78440000  0.98600000  0.53350000  1.0 0.2283689618
C  C15  1  0.78180000  0.98660000  0.48810000  1.0 -0.0402722363
C  C16  1  0.74600000  0.00300000  0.46750000  1.0 -0.1717628003
C  C17  1  0.71280000  0.01890000  0.49230000  1.0 0.0679173155
C  C18  1  0.71540000  0.01840000  0.53770000  1.0 -0.1717628003
C  C19  1  0.67590000  0.03860000  0.46840000  1.0 0.0928679976
C  C20  1  0.65650000  0.02629000  0.43030000  1.0 -0.1500256452
C  C21  1  0.62060000  0.04260000  0.40970000  1.0 -0.0696795383
C  C22  1  0.60410000  0.07120000  0.42710000  1.0 -0.0476873012
C  C23  1  0.62360000  0.08350000  0.46520000  1.0 -0.0696795383
C  C24  1  0.65950000  0.06720000  0.48580000  1.0 -0.1500256452
C  C25  1  0.57980000  0.66450000  0.20160000  1.0 -0.0630323877
C  C26  1  0.57190000  0.66020000  0.15710000  1.0 -0.0771073037
C  C27  1  0.60070000  0.67510000  0.12670000  1.0 -0.1409782508
C  C28  1  0.63720000  0.69420000  0.14080000  1.0 0.1108711628
C  C29  1  0.64510000  0.69842000  0.18530000  1.0 -0.1338618309
C  C30  1  0.61640000  0.68350000  0.21570000  1.0 -0.0696795383
C  C31  1  0.66590000  0.71100000  0.10930000  1.0 -0.0264891872
C  C32  1  0.64300000  0.72840000  0.07710000  1.0 -0.179732438
C  C33  1  0.66830000  0.74600000  0.04670000  1.0 0.0679173155
C  C34  1  0.71640000  0.74610000  0.04840000  1.0 -0.1409782508
C  C35  1  0.73940000  0.72860000  0.08050000  1.0 -0.0264891872
C  C36  1  0.71410000  0.71110000  0.11100000  1.0 0.2429756201
C  C37  1  0.39720000  0.77206000  0.85280000  1.0 -0.0630323877
C  C38  1  0.40120000  0.75600000  0.89240000  1.0 -0.0630323877
C  C39  1  0.38170000  0.72570000  0.89750000  1.0 -0.1500256452
C  C40  1  0.35810000  0.71157000  0.86280000  1.0 0.0928679976
C  C41  1  0.35410000  0.72770000  0.82320000  1.0 -0.1409782508
C  C42  1  0.37360000  0.75790000  0.81810000  1.0 -0.0630323877
C  C43  1  0.33670000  0.67898000  0.86600000  1.0 0.0679173155
C  C44  1  0.36220000  0.65420000  0.88470000  1.0 -0.1500256452
C  C45  1  0.34240000  0.62400000  0.88950000  1.0 -0.0194239234
C  C46  1  0.29720000  0.61854000  0.87550000  1.0 0.2203287571
C  C47  1  0.27180000  0.64330000  0.85680000  1.0 -0.0476873012
C  C48  1  0.29150000  0.67353000  0.85200000  1.0 -0.179732438
C  C49  1  0.38200000  0.59989000  0.95390000  1.0 -0.1598134256
C  C50  1  0.40710000  0.57489000  0.97240000  1.0 0.0522310059
C  C51  1  0.41940000  0.54849000  0.94720000  1.0 -0.1717628003
C  C52  1  0.40650000  0.54709000  0.90340000  1.0 -0.0402722363
C  C53  1  0.38140000  0.57210000  0.88490000  1.0 0.2118902295
C  C54  1  0.36910000  0.59849000  0.91010000  1.0 -0.0116066918
C  C55  1  0.82280000  0.03610000  0.69720000  1.0 0.0928679976
C  C56  1  0.83310000  0.06720000  0.68410000  1.0 -0.1500256452
C  C57  1  0.86700000  0.08462000  0.70620000  1.0 -0.0630323877
C  C58  1  0.89040000  0.07090000  0.74120000  1.0 -0.0696795383
C  C59  1  0.88010000  0.03980000  0.75420000  1.0 -0.0696795383
C  C60  1  0.84620000  0.02235000  0.73220000  1.0 -0.1500256452
C  C61  1  0.82100000  0.97330000  0.45850000  1.0 0.0986264536
C  C62  1  0.85500000  0.99180000  0.43850000  1.0 -0.1598134256
C  C63  1  0.88960000  0.97710000  0.41390000  1.0 -0.0771073037
C  C64  1  0.89010000  0.94390000  0.40940000  1.0 -0.0630323877
C  C65  1  0.85600000  0.92545000  0.42940000  1.0 -0.0696795383
C  C66  1  0.82150000  0.94020000  0.45400000  1.0 -0.1500256452
C  C67  1  0.92930000  0.79400000  0.21330000  1.0 -0.0696795383
C  C68  1  0.94700000  0.79290000  0.17110000  1.0 -0.0771073037
C  C69  1  0.92350000  0.77600000  0.13870000  1.0 -0.1500256452
C  C70  1  0.88230000  0.76033000  0.14850000  1.0 0.0805060552
C  C71  1  0.86460000  0.76147000  0.19080000  1.0 -0.1500256452
C  C72  1  0.88810000  0.77830000  0.22320000  1.0 -0.0696795383
C  C73  1  0.78650000  0.72910000  0.08140000  1.0 -0.0194239234
C  C74  1  0.81040000  0.71561000  0.04640000  1.0 0.2203287571
C  C75  1  0.85850000  0.71756000  0.04480000  1.0 -0.0402722363
C  C76  1  0.88270000  0.73300000  0.07800000  1.0 -0.179732438
C  C77  1  0.85880000  0.74643000  0.11300000  1.0 0.0679173155
C  C78  1  0.81070000  0.74448000  0.11470000  1.0 -0.1905198791
C  C79  1  0.64280000  0.76530000  0.01050000  1.0 0.0986264536
C  C80  1  0.66080000  0.76979000  0.96880000  1.0 -0.1598134256
C  C81  1  0.63630000  0.78770000  0.93810000  1.0 -0.0696795383
C  C82  1  0.59370000  0.80110000  0.94930000  1.0 -0.0696795383
C  C83  1  0.57570000  0.79660000  0.99100000  1.0 -0.0696795383
C  C84  1  0.60030000  0.77870000  0.02160000  1.0 -0.1500256452
C  C85  1  0.22240000  0.63930000  0.84170000  1.0 0.1108711628
C  C86  1  0.18810000  0.66090000  0.85380000  1.0 -0.1598134256
C  C87  1  0.14280000  0.65652000  0.83940000  1.0 -0.0696795383
C  C88  1  0.13190000  0.63050000  0.81290000  1.0 -0.0771073037
C  C89  1  0.16620000  0.60886000  0.80080000  1.0 -0.0696795383
C  C90  1  0.21150000  0.61324000  0.81520000  1.0 -0.1598134256
C  C91  1  0.45590000  0.46564000  0.83270000  1.0 -0.0696795383
C  C92  1  0.45470000  0.49540000  0.81227000  1.0 -0.0630323877
C  C93  1  0.43760000  0.52199000  0.83460000  1.0 -0.1598134256
C  C94  1  0.42180000  0.51880000  0.87730000  1.0 0.1225339871
C  C95  1  0.42300000  0.48900000  0.89770000  1.0 -0.1500256452
C  C96  1  0.44000000  0.46245000  0.87550000  1.0 -0.0696795383
C  C97  1  0.88360000  0.69830000  0.01610000  1.0 0.0986264536
C  C98  1  0.87990000  0.70650000  0.97220000  1.0 -0.1598134256
C  C99  1  0.90890000  0.69210000  0.94150000  1.0 -0.0771073037
C  C100  1  0.94160000  0.66970000  0.95480000  1.0 -0.0476873012
C  C101  1  0.94530000  0.66150000  0.99880000  1.0 -0.0696795383
C  C102  1  0.91630000  0.67580000  0.02940000  1.0 -0.1500256452
C  C103  1  0.92170000  0.09030000  0.76640000  1.0 0.5585337328
C  C104  1  0.59430000  0.90350000  0.77050000  1.0 0.5585337328
C  C105  1  0.94750000  0.81860000  0.24190000  1.0 0.5696288361
C  C106  1  0.55320000  0.64880000  0.23430000  1.0 0.5585337328
C  C107  1  0.93150000  0.92870000  0.39230000  1.0 0.5434034556
C  C108  1  0.08450000  0.62520000  0.80030000  1.0 0.5585337328
C  C109  1  0.47250000  0.43850000  0.80860000  1.0 0.5696288361
C  C110  1  0.42070000  0.80200000  0.84730000  1.0 0.5526492982
C  C111  1  0.56510000  0.08870000  0.40700000  1.0 0.5696288361
C  C112  1  0.56400000  0.81510000  0.91670000  1.0 0.5696288361
C  C113  1  0.96370000  0.65290000  0.92050000  1.0 0.4626346915
C  C114  1  0.45910000  0.57110000  0.10290000  1.0 -0.0696795383
C  C115  1  0.42420000  0.57570000  0.01580000  1.0 0.0805060552
C  C116  1  0.39480000  0.58620000  0.04980000  1.0 -0.1500256452
C  C117  1  0.41450000  0.58360000  0.09230000  1.0 -0.0771073037
C  C118  1  0.49090000  0.56030000  0.07010000  1.0 -0.098768855
C  C119  1  0.46950000  0.56490000  0.02820000  1.0 -0.1500256452
C  C120  1  0.47370000  0.57420000  0.14780000  1.0 0.4955379754
C  C121  1  0.37190000  0.07810000  0.24670000  1.0 -0.0696795383
C  C122  1  0.32470000  0.08150000  0.25490000  1.0 -0.0696795383
C  C123  1  0.29300000  0.06140000  0.23440000  1.0 -0.1500256452
C  C124  1  0.30840000  0.03780000  0.20570000  1.0 0.1108711628
C  C125  1  0.35560000  0.03440000  0.19750000  1.0 -0.1409782508
C  C126  1  0.38730000  0.05450000  0.21800000  1.0 -0.0696795383
C  C127  1  0.27700000  0.01900000  0.17690000  1.0 -0.0402722363
C  C128  1  0.27990000  0.01880000  0.13150000  1.0 0.2429756201
C  C129  1  0.25000000  0.99960000  0.10720000  1.0 -0.0402722363
C  C130  1  0.21730000  0.98060000  0.12830000  1.0 -0.1409782508
C  C131  1  0.21440000  0.98080000  0.17370000  1.0 0.0679173155
C  C132  1  0.24420000  0.00000000  0.19800000  1.0 -0.1717628003
C  C133  1  0.24880000  0.99810000  0.05830000  1.0 -0.0194239234
C  C134  1  0.21560000  0.01400000  0.03350000  1.0 0.2283689618
C  C135  1  0.21820000  0.01340000  0.98810000  1.0 -0.0402722363
C  C136  1  0.25400000  0.99700000  0.96750000  1.0 -0.1717628003
C  C137  1  0.28720000  0.98110000  0.99230000  1.0 0.0679173155
C  C138  1  0.28460000  0.98160000  0.03770000  1.0 -0.1717628003
C  C139  1  0.32410000  0.96140000  0.96840000  1.0 0.0986264536
C  C140  1  0.34350000  0.97371000  0.93030000  1.0 -0.1500256452
C  C141  1  0.37940000  0.95740000  0.90970000  1.0 -0.0696795383
C  C142  1  0.39590000  0.92880000  0.92710000  1.0 -0.0476873012
C  C143  1  0.37640000  0.91650000  0.96520000  1.0 -0.0696795383
C  C144  1  0.34050000  0.93280000  0.98580000  1.0 -0.1500256452
C  C145  1  0.42020000  0.33550000  0.70160000  1.0 -0.0630323877
C  C146  1  0.42810000  0.33980000  0.65710000  1.0 -0.0771073037
C  C147  1  0.39930000  0.32490000  0.62670000  1.0 -0.1409782508
C  C148  1  0.36280000  0.30580000  0.64080000  1.0 0.1108711628
C  C149  1  0.35490000  0.30158000  0.68530000  1.0 -0.1338618309
C  C150  1  0.38360000  0.31650000  0.71570000  1.0 -0.0696795383
C  C151  1  0.33410000  0.28900000  0.60930000  1.0 -0.0264891872
C  C152  1  0.35700000  0.27160000  0.57710000  1.0 -0.179732438
C  C153  1  0.33170000  0.25400000  0.54670000  1.0 0.0679173155
C  C154  1  0.28360000  0.25390000  0.54840000  1.0 -0.1409782508
C  C155  1  0.26060000  0.27140000  0.58050000  1.0 -0.0264891872
C  C156  1  0.28590000  0.28890000  0.61100000  1.0 0.2429756201
C  C157  1  0.60280000  0.22794000  0.35280000  1.0 -0.0630323877
C  C158  1  0.59880000  0.24400000  0.39240000  1.0 -0.0630323877
C  C159  1  0.61830000  0.27430000  0.39750000  1.0 -0.1500256452
C  C160  1  0.64190000  0.28843000  0.36280000  1.0 0.0928679976
C  C161  1  0.64590000  0.27230000  0.32320000  1.0 -0.1409782508
C  C162  1  0.62640000  0.24210000  0.31810000  1.0 -0.0630323877
C  C163  1  0.66330000  0.32102000  0.36600000  1.0 0.0679173155
C  C164  1  0.63780000  0.34580000  0.38470000  1.0 -0.1500256452
C  C165  1  0.65760000  0.37600000  0.38950000  1.0 -0.0194239234
C  C166  1  0.70280000  0.38146000  0.37550000  1.0 0.2203287571
C  C167  1  0.72820000  0.35670000  0.35680000  1.0 -0.0476873012
C  C168  1  0.70850000  0.32647000  0.35200000  1.0 -0.179732438
C  C169  1  0.61800000  0.40011000  0.45390000  1.0 -0.1500256452
C  C170  1  0.59290000  0.42511000  0.47240000  1.0 0.0522310059
C  C171  1  0.58060000  0.45151000  0.44720000  1.0 -0.1717628003
C  C172  1  0.59350000  0.45291000  0.40340000  1.0 -0.0402722363
C  C173  1  0.61860000  0.42790000  0.38490000  1.0 0.2118902295
C  C174  1  0.63090000  0.40151000  0.41010000  1.0 -0.0116066918
C  C175  1  0.17720000  0.96390000  0.19720000  1.0 0.0928679976
C  C176  1  0.16690000  0.93280000  0.18410000  1.0 -0.1500256452
C  C177  1  0.13300000  0.91538000  0.20620000  1.0 -0.0630323877
C  C178  1  0.10960000  0.92910000  0.24120000  1.0 -0.0696795383
C  C179  1  0.11990000  0.96020000  0.25420000  1.0 -0.0696795383
C  C180  1  0.15380000  0.97765000  0.23220000  1.0 -0.1500256452
C  C181  1  0.17900000  0.02670000  0.95850000  1.0 0.0986264536
C  C182  1  0.14500000  0.00820000  0.93850000  1.0 -0.1598134256
C  C183  1  0.11040000  0.02290000  0.91390000  1.0 -0.0771073037
C  C184  1  0.10990000  0.05610000  0.90940000  1.0 -0.0630323877
C  C185  1  0.14400000  0.07455000  0.92940000  1.0 -0.0696795383
C  C186  1  0.17850000  0.05980000  0.95400000  1.0 -0.1500256452
C  C187  1  0.07070000  0.20600000  0.71330000  1.0 -0.0630323877
C  C188  1  0.05300000  0.20710000  0.67110000  1.0 -0.0771073037
C  C189  1  0.07650000  0.22400000  0.63870000  1.0 -0.1409782508
C  C190  1  0.11770000  0.23967000  0.64850000  1.0 0.0805060552
C  C191  1  0.13540000  0.23853000  0.69080000  1.0 -0.1500256452
C  C192  1  0.11190000  0.22170000  0.72320000  1.0 -0.0696795383
C  C193  1  0.21350000  0.27090000  0.58140000  1.0 -0.0194239234
C  C194  1  0.18960000  0.28439000  0.54640000  1.0 0.2203287571
C  C195  1  0.14150000  0.28244000  0.54480000  1.0 -0.0402722363
C  C196  1  0.11730000  0.26700000  0.57800000  1.0 -0.179732438
C  C197  1  0.14120000  0.25357000  0.61300000  1.0 0.0679173155
C  C198  1  0.18930000  0.25552000  0.61470000  1.0 -0.1905198791
C  C199  1  0.35720000  0.23470000  0.51050000  1.0 0.0986264536
C  C200  1  0.33920000  0.23021000  0.46880000  1.0 -0.1598134256
C  C201  1  0.36370000  0.21230000  0.43810000  1.0 -0.0630323877
C  C202  1  0.40630000  0.19890000  0.44930000  1.0 -0.0696795383
C  C203  1  0.42430000  0.20340000  0.49100000  1.0 -0.0696795383
C  C204  1  0.39970000  0.22130000  0.52160000  1.0 -0.1500256452
C  C205  1  0.77760000  0.36070000  0.34170000  1.0 0.1108711628
C  C206  1  0.81190000  0.33910000  0.35380000  1.0 -0.1598134256
C  C207  1  0.85720000  0.34348000  0.33940000  1.0 -0.0696795383
C  C208  1  0.86810000  0.36950000  0.31290000  1.0 -0.0771073037
C  C209  1  0.83380000  0.39114000  0.30080000  1.0 -0.0696795383
C  C210  1  0.78850000  0.38676000  0.31520000  1.0 -0.1598134256
C  C211  1  0.54410000  0.53436000  0.33270000  1.0 -0.0696795383
C  C212  1  0.54530000  0.50460000  0.31227000  1.0 -0.0630323877
C  C213  1  0.56240000  0.47801000  0.33460000  1.0 -0.1598134256
C  C214  1  0.57820000  0.48120000  0.37730000  1.0 0.1225339871
C  C215  1  0.57700000  0.51100000  0.39770000  1.0 -0.1500256452
C  C216  1  0.56000000  0.53755000  0.37550000  1.0 -0.0696795383
C  C217  1  0.11640000  0.30170000  0.51610000  1.0 0.0986264536
C  C218  1  0.12010000  0.29350000  0.47220000  1.0 -0.1598134256
C  C219  1  0.09110000  0.30790000  0.44150000  1.0 -0.0771073037
C  C220  1  0.05840000  0.33030000  0.45480000  1.0 -0.0476873012
C  C221  1  0.05470000  0.33850000  0.49880000  1.0 -0.0696795383
C  C222  1  0.08370000  0.32420000  0.52940000  1.0 -0.1500256452
C  C223  1  0.07830000  0.90970000  0.26640000  1.0 0.5585337328
C  C224  1  0.40570000  0.09650000  0.27050000  1.0 0.5585337328
C  C225  1  0.05250000  0.18140000  0.74190000  1.0 0.5696288361
C  C226  1  0.44680000  0.35120000  0.73430000  1.0 0.5585337328
C  C227  1  0.06850000  0.07130000  0.89230000  1.0 0.5434034556
C  C228  1  0.91550000  0.37480000  0.30030000  1.0 0.5696288361
C  C229  1  0.52750000  0.56150000  0.30860000  1.0 0.5765724569
C  C230  1  0.57930000  0.19800000  0.34730000  1.0 0.5526492982
C  C231  1  0.43490000  0.91130000  0.90700000  1.0 0.5696288361
C  C232  1  0.43600000  0.18490000  0.41670000  1.0 0.5696288361
C  C233  1  0.03630000  0.34710000  0.42050000  1.0 0.4626346915
C  C234  1  0.54090000  0.42890000  0.60290000  1.0 -0.0630323877
C  C235  1  0.57580000  0.42430000  0.51580000  1.0 0.0805060552
C  C236  1  0.60520000  0.41380000  0.54980000  1.0 -0.1500256452
C  C237  1  0.58550000  0.41640000  0.59230000  1.0 -0.0696795383
C  C238  1  0.50910000  0.43970000  0.57010000  1.0 -0.098768855
C  C239  1  0.53050000  0.43510000  0.52820000  1.0 -0.1500256452
C  C240  1  0.52630000  0.42580000  0.64780000  1.0 0.4955379754
C  C241  1  0.12810000  0.07810000  0.74670000  1.0 -0.0696795383
C  C242  1  0.17530000  0.08150000  0.75490000  1.0 -0.0696795383
C  C243  1  0.20700000  0.06140000  0.73440000  1.0 -0.1500256452
C  C244  1  0.19160000  0.03780000  0.70570000  1.0 0.1108711628
C  C245  1  0.14440000  0.03440000  0.69750000  1.0 -0.1409782508
C  C246  1  0.11270000  0.05450000  0.71800000  1.0 -0.0696795383
C  C247  1  0.22300000  0.01900000  0.67690000  1.0 -0.0402722363
C  C248  1  0.22010000  0.01880000  0.63150000  1.0 0.2429756201
C  C249  1  0.25000000  0.99960000  0.60720000  1.0 -0.0402722363
C  C250  1  0.28270000  0.98060000  0.62830000  1.0 -0.1409782508
C  C251  1  0.28560000  0.98080000  0.67370000  1.0 0.0639000866
C  C252  1  0.25580000  0.00000000  0.69800000  1.0 -0.1717628003
C  C253  1  0.25120000  0.99810000  0.55830000  1.0 -0.0194239234
C  C254  1  0.28440000  0.01400000  0.53350000  1.0 0.2283689618
C  C255  1  0.28180000  0.01340000  0.48810000  1.0 -0.0402722363
C  C256  1  0.24600000  0.99700000  0.46750000  1.0 -0.1717628003
C  C257  1  0.21280000  0.98110000  0.49230000  1.0 0.0679173155
C  C258  1  0.21540000  0.98160000  0.53770000  1.0 -0.1717628003
C  C259  1  0.17590000  0.96140000  0.46840000  1.0 0.0928679976
C  C260  1  0.15650000  0.97371000  0.43030000  1.0 -0.1500256452
C  C261  1  0.12060000  0.95740000  0.40970000  1.0 -0.0696795383
C  C262  1  0.10410000  0.92880000  0.42710000  1.0 -0.0476873012
C  C263  1  0.12360000  0.91650000  0.46520000  1.0 -0.0696795383
C  C264  1  0.15950000  0.93280000  0.48580000  1.0 -0.1500256452
C  C265  1  0.07980000  0.33550000  0.20160000  1.0 -0.0630323877
C  C266  1  0.07190000  0.33980000  0.15710000  1.0 -0.0771073037
C  C267  1  0.10070000  0.32490000  0.12670000  1.0 -0.1409782508
C  C268  1  0.13720000  0.30580000  0.14080000  1.0 0.1108711628
C  C269  1  0.14510000  0.30158000  0.18530000  1.0 -0.1338618309
C  C270  1  0.11640000  0.31650000  0.21570000  1.0 -0.0696795383
C  C271  1  0.16590000  0.28900000  0.10930000  1.0 -0.0264891872
C  C272  1  0.14300000  0.27160000  0.07710000  1.0 -0.179732438
C  C273  1  0.16830000  0.25400000  0.04670000  1.0 0.0679173155
C  C274  1  0.21640000  0.25390000  0.04840000  1.0 -0.1409782508
C  C275  1  0.23940000  0.27140000  0.08050000  1.0 -0.0264891872
C  C276  1  0.21410000  0.28890000  0.11100000  1.0 0.2429756201
C  C277  1  0.89720000  0.22794000  0.85280000  1.0 -0.0630323877
C  C278  1  0.90120000  0.24400000  0.89240000  1.0 -0.0630323877
C  C279  1  0.88170000  0.27430000  0.89750000  1.0 -0.1500256452
C  C280  1  0.85810000  0.28843000  0.86280000  1.0 0.0928679976
C  C281  1  0.85410000  0.27230000  0.82320000  1.0 -0.1409782508
C  C282  1  0.87360000  0.24210000  0.81810000  1.0 -0.0630323877
C  C283  1  0.83670000  0.32102000  0.86600000  1.0 0.0679173155
C  C284  1  0.86220000  0.34580000  0.88470000  1.0 -0.1500256452
C  C285  1  0.84240000  0.37600000  0.88950000  1.0 -0.0194239234
C  C286  1  0.79720000  0.38146000  0.87550000  1.0 0.2203287571
C  C287  1  0.77180000  0.35670000  0.85680000  1.0 -0.0476873012
C  C288  1  0.79150000  0.32647000  0.85200000  1.0 -0.179732438
C  C289  1  0.88200000  0.40011000  0.95390000  1.0 -0.1598134256
C  C290  1  0.90710000  0.42511000  0.97240000  1.0 0.0522310059
C  C291  1  0.91940000  0.45151000  0.94720000  1.0 -0.1717628003
C  C292  1  0.90650000  0.45291000  0.90340000  1.0 -0.0402722363
C  C293  1  0.88140000  0.42790000  0.88490000  1.0 0.2118902295
C  C294  1  0.86910000  0.40151000  0.91010000  1.0 -0.0116066918
C  C295  1  0.32280000  0.96390000  0.69720000  1.0 0.0928679976
C  C296  1  0.33310000  0.93280000  0.68410000  1.0 -0.1500256452
C  C297  1  0.36700000  0.91538000  0.70620000  1.0 -0.0630323877
C  C298  1  0.39040000  0.92910000  0.74120000  1.0 -0.0696795383
C  C299  1  0.38010000  0.96020000  0.75420000  1.0 -0.0696795383
C  C300  1  0.34620000  0.97765000  0.73220000  1.0 -0.1500256452
C  C301  1  0.32100000  0.02670000  0.45850000  1.0 0.0986264536
C  C302  1  0.35500000  0.00820000  0.43850000  1.0 -0.1598134256
C  C303  1  0.38960000  0.02290000  0.41390000  1.0 -0.0771073037
C  C304  1  0.39010000  0.05610000  0.40940000  1.0 -0.0630323877
C  C305  1  0.35600000  0.07455000  0.42940000  1.0 -0.0696795383
C  C306  1  0.32150000  0.05980000  0.45400000  1.0 -0.1500256452
C  C307  1  0.42930000  0.20600000  0.21330000  1.0 -0.0696795383
C  C308  1  0.44700000  0.20710000  0.17110000  1.0 -0.0771073037
C  C309  1  0.42350000  0.22400000  0.13870000  1.0 -0.1500256452
C  C310  1  0.38230000  0.23967000  0.14850000  1.0 0.0805060552
C  C311  1  0.36460000  0.23853000  0.19080000  1.0 -0.1500256452
C  C312  1  0.38810000  0.22170000  0.22320000  1.0 -0.0696795383
C  C313  1  0.28650000  0.27090000  0.08140000  1.0 -0.0194239234
C  C314  1  0.31040000  0.28439000  0.04640000  1.0 0.2203287571
C  C315  1  0.35850000  0.28244000  0.04480000  1.0 -0.0402722363
C  C316  1  0.38270000  0.26700000  0.07800000  1.0 -0.179732438
C  C317  1  0.35880000  0.25357000  0.11300000  1.0 0.0679173155
C  C318  1  0.31070000  0.25552000  0.11470000  1.0 -0.1905198791
C  C319  1  0.14280000  0.23470000  0.01050000  1.0 0.0986264536
C  C320  1  0.16080000  0.23021000  0.96880000  1.0 -0.1598134256
C  C321  1  0.13630000  0.21230000  0.93810000  1.0 -0.0696795383
C  C322  1  0.09370000  0.19890000  0.94930000  1.0 -0.0696795383
C  C323  1  0.07570000  0.20340000  0.99100000  1.0 -0.0696795383
C  C324  1  0.10030000  0.22130000  0.02160000  1.0 -0.1500256452
C  C325  1  0.72240000  0.36070000  0.84170000  1.0 0.1108711628
C  C326  1  0.68810000  0.33910000  0.85380000  1.0 -0.1598134256
C  C327  1  0.64280000  0.34348000  0.83940000  1.0 -0.0696795383
C  C328  1  0.63190000  0.36950000  0.81290000  1.0 -0.0771073037
C  C329  1  0.66620000  0.39114000  0.80080000  1.0 -0.0696795383
C  C330  1  0.71150000  0.38676000  0.81520000  1.0 -0.1598134256
C  C331  1  0.95590000  0.53436000  0.83270000  1.0 -0.0696795383
C  C332  1  0.95470000  0.50460000  0.81227000  1.0 -0.0630323877
C  C333  1  0.93760000  0.47801000  0.83460000  1.0 -0.1598134256
C  C334  1  0.92180000  0.48120000  0.87730000  1.0 0.1225339871
C  C335  1  0.92300000  0.51100000  0.89770000  1.0 -0.1500256452
C  C336  1  0.94000000  0.53755000  0.87550000  1.0 -0.0696795383
C  C337  1  0.38360000  0.30170000  0.01610000  1.0 0.0986264536
C  C338  1  0.37990000  0.29350000  0.97220000  1.0 -0.1598134256
C  C339  1  0.40890000  0.30790000  0.94150000  1.0 -0.0771073037
C  C340  1  0.44160000  0.33030000  0.95480000  1.0 -0.0476873012
C  C341  1  0.44530000  0.33850000  0.99880000  1.0 -0.0696795383
C  C342  1  0.41630000  0.32420000  0.02940000  1.0 -0.1500256452
C  C343  1  0.42170000  0.90970000  0.76640000  1.0 0.5585337328
C  C344  1  0.09430000  0.09650000  0.77050000  1.0 0.5585337328
C  C345  1  0.44750000  0.18140000  0.24190000  1.0 0.5696288361
C  C346  1  0.05320000  0.35120000  0.23430000  1.0 0.5585337328
C  C347  1  0.43150000  0.07130000  0.39230000  1.0 0.5434034556
C  C348  1  0.58450000  0.37480000  0.80030000  1.0 0.5585337328
C  C349  1  0.97250000  0.56150000  0.80860000  1.0 0.5696288361
C  C350  1  0.92070000  0.19800000  0.84730000  1.0 0.5526492982
C  C351  1  0.06510000  0.91130000  0.40700000  1.0 0.5696288361
C  C352  1  0.06400000  0.18490000  0.91670000  1.0 0.5696288361
C  C353  1  0.46370000  0.34710000  0.92050000  1.0 0.4626346915
C  C354  1  0.95910000  0.42890000  0.10290000  1.0 -0.0696795383
C  C355  1  0.92420000  0.42430000  0.01580000  1.0 0.0805060552
C  C356  1  0.89480000  0.41380000  0.04980000  1.0 -0.1500256452
C  C357  1  0.91450000  0.41640000  0.09230000  1.0 -0.0771073037
C  C358  1  0.99090000  0.43970000  0.07010000  1.0 -0.098768855
C  C359  1  0.96950000  0.43510000  0.02820000  1.0 -0.1500256452
C  C360  1  0.97370000  0.42580000  0.14780000  1.0 0.4955379754
C  C361  1  0.87190000  0.92190000  0.24670000  1.0 -0.0696795383
C  C362  1  0.82470000  0.91850000  0.25490000  1.0 -0.0696795383
C  C363  1  0.79300000  0.93860000  0.23440000  1.0 -0.1500256452
C  C364  1  0.80840000  0.96220000  0.20570000  1.0 0.1108711628
C  C365  1  0.85560000  0.96560000  0.19750000  1.0 -0.1409782508
C  C366  1  0.88730000  0.94550000  0.21800000  1.0 -0.0696795383
C  C367  1  0.77700000  0.98100000  0.17690000  1.0 -0.0402722363
C  C368  1  0.77990000  0.98120000  0.13150000  1.0 0.2429756201
C  C369  1  0.75000000  0.00040000  0.10720000  1.0 -0.0402722363
C  C370  1  0.71730000  0.01940000  0.12830000  1.0 -0.1409782508
C  C371  1  0.71440000  0.01920000  0.17370000  1.0 0.0679173155
C  C372  1  0.74420000  0.00000000  0.19800000  1.0 -0.1717628003
C  C373  1  0.74880000  0.00190000  0.05830000  1.0 -0.0194239234
C  C374  1  0.71560000  0.98600000  0.03350000  1.0 0.2283689618
C  C375  1  0.71820000  0.98660000  0.98810000  1.0 -0.0402722363
C  C376  1  0.75400000  0.00300000  0.96750000  1.0 -0.1717628003
C  C377  1  0.78720000  0.01890000  0.99230000  1.0 0.0679173155
C  C378  1  0.78460000  0.01840000  0.03770000  1.0 -0.1717628003
C  C379  1  0.82410000  0.03860000  0.96840000  1.0 0.0986264536
C  C380  1  0.84350000  0.02629000  0.93030000  1.0 -0.1500256452
C  C381  1  0.87940000  0.04260000  0.90970000  1.0 -0.0696795383
C  C382  1  0.89590000  0.07120000  0.92710000  1.0 -0.0476873012
C  C383  1  0.87640000  0.08350000  0.96520000  1.0 -0.0696795383
C  C384  1  0.84050000  0.06720000  0.98580000  1.0 -0.1500256452
C  C385  1  0.92020000  0.66450000  0.70160000  1.0 -0.0630323877
C  C386  1  0.92810000  0.66020000  0.65710000  1.0 -0.0771073037
C  C387  1  0.89930000  0.67510000  0.62670000  1.0 -0.1409782508
C  C388  1  0.86280000  0.69420000  0.64080000  1.0 0.1108711628
C  C389  1  0.85490000  0.69842000  0.68530000  1.0 -0.1338618309
C  C390  1  0.88360000  0.68350000  0.71570000  1.0 -0.0696795383
C  C391  1  0.83410000  0.71100000  0.60930000  1.0 -0.0264891872
C  C392  1  0.85700000  0.72840000  0.57710000  1.0 -0.179732438
C  C393  1  0.83170000  0.74600000  0.54670000  1.0 0.0679173155
C  C394  1  0.78360000  0.74610000  0.54840000  1.0 -0.1409782508
C  C395  1  0.76060000  0.72860000  0.58050000  1.0 -0.0264891872
C  C396  1  0.78590000  0.71110000  0.61100000  1.0 0.2429756201
C  C397  1  0.10280000  0.77206000  0.35280000  1.0 -0.0630323877
C  C398  1  0.09880000  0.75600000  0.39240000  1.0 -0.0696795383
C  C399  1  0.11830000  0.72570000  0.39750000  1.0 -0.1500256452
C  C400  1  0.14190000  0.71157000  0.36280000  1.0 0.0928679976
C  C401  1  0.14590000  0.72770000  0.32320000  1.0 -0.1409782508
C  C402  1  0.12640000  0.75790000  0.31810000  1.0 -0.0630323877
C  C403  1  0.16330000  0.67898000  0.36600000  1.0 0.0679173155
C  C404  1  0.13780000  0.65420000  0.38470000  1.0 -0.1500256452
C  C405  1  0.15760000  0.62400000  0.38950000  1.0 -0.0194239234
C  C406  1  0.20280000  0.61854000  0.37550000  1.0 0.2203287571
C  C407  1  0.22820000  0.64330000  0.35680000  1.0 -0.0476873012
C  C408  1  0.20850000  0.67353000  0.35200000  1.0 -0.179732438
C  C409  1  0.11800000  0.59989000  0.45390000  1.0 -0.1500256452
C  C410  1  0.09290000  0.57489000  0.47240000  1.0 0.0522310059
C  C411  1  0.08060000  0.54849000  0.44720000  1.0 -0.1717628003
C  C412  1  0.09350000  0.54709000  0.40340000  1.0 -0.0402722363
C  C413  1  0.11860000  0.57210000  0.38490000  1.0 0.2118902295
C  C414  1  0.13090000  0.59849000  0.41010000  1.0 -0.0116066918
C  C415  1  0.67720000  0.03610000  0.19720000  1.0 0.0928679976
C  C416  1  0.66690000  0.06720000  0.18410000  1.0 -0.1500256452
C  C417  1  0.63300000  0.08462000  0.20620000  1.0 -0.0630323877
C  C418  1  0.60960000  0.07090000  0.24120000  1.0 -0.0630323877
C  C419  1  0.61990000  0.03980000  0.25420000  1.0 -0.0696795383
C  C420  1  0.65380000  0.02235000  0.23220000  1.0 -0.1500256452
C  C421  1  0.67900000  0.97330000  0.95850000  1.0 0.0986264536
C  C422  1  0.64500000  0.99180000  0.93850000  1.0 -0.1598134256
C  C423  1  0.61040000  0.97710000  0.91390000  1.0 -0.0771073037
C  C424  1  0.60990000  0.94390000  0.90940000  1.0 -0.0630323877
C  C425  1  0.64400000  0.92545000  0.92940000  1.0 -0.0696795383
C  C426  1  0.67850000  0.94020000  0.95400000  1.0 -0.1500256452
C  C427  1  0.57070000  0.79400000  0.71330000  1.0 -0.0696795383
C  C428  1  0.55300000  0.79290000  0.67110000  1.0 -0.0771073037
C  C429  1  0.57650000  0.77600000  0.63870000  1.0 -0.1500256452
C  C430  1  0.61770000  0.76033000  0.64850000  1.0 0.0805060552
C  C431  1  0.63540000  0.76147000  0.69080000  1.0 -0.1500256452
C  C432  1  0.61190000  0.77830000  0.72320000  1.0 -0.0696795383
C  C433  1  0.71350000  0.72910000  0.58140000  1.0 -0.0194239234
C  C434  1  0.68960000  0.71561000  0.54640000  1.0 0.2203287571
C  C435  1  0.64150000  0.71756000  0.54480000  1.0 -0.0402722363
C  C436  1  0.61730000  0.73300000  0.57800000  1.0 -0.179732438
C  C437  1  0.64120000  0.74643000  0.61300000  1.0 0.0679173155
C  C438  1  0.68930000  0.74448000  0.61470000  1.0 -0.1905198791
C  C439  1  0.85720000  0.76530000  0.51050000  1.0 0.0986264536
C  C440  1  0.83920000  0.76979000  0.46880000  1.0 -0.1598134256
C  C441  1  0.86370000  0.78770000  0.43810000  1.0 -0.0630323877
C  C442  1  0.90630000  0.80110000  0.44930000  1.0 -0.0696795383
C  C443  1  0.92430000  0.79660000  0.49100000  1.0 -0.0696795383
C  C444  1  0.89970000  0.77870000  0.52160000  1.0 -0.1500256452
C  C445  1  0.27760000  0.63930000  0.34170000  1.0 0.1108711628
C  C446  1  0.31190000  0.66090000  0.35380000  1.0 -0.1598134256
C  C447  1  0.35720000  0.65652000  0.33940000  1.0 -0.0696795383
C  C448  1  0.36810000  0.63050000  0.31290000  1.0 -0.0771073037
C  C449  1  0.33380000  0.60886000  0.30080000  1.0 -0.0696795383
C  C450  1  0.28850000  0.61324000  0.31520000  1.0 -0.1598134256
C  C451  1  0.04410000  0.46564000  0.33270000  1.0 -0.0696795383
C  C452  1  0.04530000  0.49540000  0.31227000  1.0 -0.0630323877
C  C453  1  0.06240000  0.52199000  0.33460000  1.0 -0.1598134256
C  C454  1  0.07820000  0.51880000  0.37730000  1.0 0.1225339871
C  C455  1  0.07700000  0.48900000  0.39770000  1.0 -0.1500256452
C  C456  1  0.06000000  0.46245000  0.37550000  1.0 -0.0696795383
C  C457  1  0.61640000  0.69830000  0.51610000  1.0 0.0986264536
C  C458  1  0.62010000  0.70650000  0.47220000  1.0 -0.1598134256
C  C459  1  0.59110000  0.69210000  0.44150000  1.0 -0.0771073037
C  C460  1  0.55840000  0.66970000  0.45480000  1.0 -0.0476873012
C  C461  1  0.55470000  0.66150000  0.49880000  1.0 -0.0696795383
C  C462  1  0.58370000  0.67580000  0.52940000  1.0 -0.1500256452
C  C463  1  0.57830000  0.09030000  0.26640000  1.0 0.5585337328
C  C464  1  0.90570000  0.90350000  0.27050000  1.0 0.5585337328
C  C465  1  0.55250000  0.81860000  0.74190000  1.0 0.5696288361
C  C466  1  0.94680000  0.64880000  0.73430000  1.0 0.5585337328
C  C467  1  0.56850000  0.92870000  0.89230000  1.0 0.5434034556
C  C468  1  0.41550000  0.62520000  0.30030000  1.0 0.5696288361
C  C469  1  0.02750000  0.43850000  0.30860000  1.0 0.5765724569
C  C470  1  0.07930000  0.80200000  0.34730000  1.0 0.5526492982
C  C471  1  0.93490000  0.08870000  0.90700000  1.0 0.5696288361
C  C472  1  0.93600000  0.81510000  0.41670000  1.0 0.5696288361
C  C473  1  0.53630000  0.65290000  0.42050000  1.0 0.4626346915
C  C474  1  0.04090000  0.57110000  0.60290000  1.0 -0.0630323877
C  C475  1  0.07580000  0.57570000  0.51580000  1.0 0.0805060552
C  C476  1  0.10520000  0.58620000  0.54980000  1.0 -0.1500256452
C  C477  1  0.08550000  0.58360000  0.59230000  1.0 -0.0771073037
C  C478  1  0.00910000  0.56030000  0.57010000  1.0 -0.098768855
C  C479  1  0.03050000  0.56490000  0.52820000  1.0 -0.1500256452
C  C480  1  0.02630000  0.57420000  0.64780000  1.0 0.4955379754
O  O1  1  0.50840000  0.86523000  0.83460000  1.0 -0.9832028062
O  O2  1  0.82120000  0.97200000  0.55320000  1.0 -0.4057924559
O  O3  1  0.93400000  0.81720000  0.28660000  1.0 -0.5923198124
O  O4  1  0.68910000  0.96430000  0.60870000  1.0 -0.4009723895
O  O5  1  0.99520000  0.82490000  0.24210000  1.0 -0.5797876577
O  O6  1  0.73360000  0.69210000  0.14160000  1.0 -0.4057924559
O  O7  1  0.58620000  0.82340000  0.87700000  1.0 -0.5797876577
O  O8  1  0.78830000  0.70130000  0.01130000  1.0 -0.4282957524
O  O9  1  0.52490000  0.83336000  0.92890000  1.0 -0.5923198124
O  O10  1  0.27280000  0.59100000  0.88280000  1.0 -0.4207697496
O  O11  1  0.51870000  0.62520000  0.22200000  1.0 -0.7220786423
O  O12  1  0.37050000  0.57020000  0.84060000  1.0 -0.4630805836
O  O13  1  0.55250000  0.65740000  0.27900000  1.0 -0.5984646713
O  O14  1  0.47550000  0.40818000  0.82960000  1.0 -0.7041756422
O  O15  1  0.49050000  0.44126000  0.76570000  1.0 -0.6441375226
O  O16  1  0.44040000  0.81470000  0.88560000  1.0 -0.5923198124
O  O17  1  0.42710000  0.81379000  0.80420000  1.0 -0.5984646713
O  O18  1  0.04880000  0.64327000  0.81990000  1.0 -0.6686616004
O  O19  1  0.07350000  0.60224000  0.76930000  1.0 -0.5984646713
O  O20  1  0.95520000  0.94210000  0.35640000  1.0 -0.549428667
O  O21  1  0.92660000  0.89550000  0.38610000  1.0 -0.5797876577
O  O22  1  0.54810000  0.07610000  0.36670000  1.0 -0.6110839159
O  O23  1  0.55760000  0.12010000  0.42310000  1.0 -0.5984646713
O  O24  1  0.55130000  0.91750000  0.78040000  1.0 -0.549428667
O  O25  1  0.61350000  0.87980000  0.79840000  1.0 -0.5923198124
O  O26  1  0.95950000  0.07286000  0.78400000  1.0 -0.549428667
O  O27  1  0.92900000  0.12252000  0.75530000  1.0 -0.5984646713
O  O28  1  0.96060000  0.65440000  0.87600000  1.0 -0.5654403776
O  O29  1  0.99860000  0.62910000  0.93340000  1.0 -0.4282957524
O  O30  1  0.44570000  0.58400000  0.18120000  1.0 -0.549428667
O  O31  1  0.52070000  0.56570000  0.15610000  1.0 -0.4009723895
O  O32  1  0.49160000  0.13477000  0.33460000  1.0 -0.9832028062
O  O33  1  0.17880000  0.02800000  0.05320000  1.0 -0.4009723895
O  O34  1  0.06600000  0.18280000  0.78660000  1.0 -0.5984646713
O  O35  1  0.31090000  0.03570000  0.10870000  1.0 -0.4009723895
O  O36  1  0.00480000  0.17510000  0.74210000  1.0 -0.5797876577
O  O37  1  0.26640000  0.30790000  0.64160000  1.0 -0.4009723895
O  O38  1  0.41380000  0.17660000  0.37700000  1.0 -0.5797876577
O  O39  1  0.21170000  0.29870000  0.51130000  1.0 -0.4282957524
O  O40  1  0.47510000  0.16664000  0.42890000  1.0 -0.5923198124
O  O41  1  0.72720000  0.40900000  0.38280000  1.0 -0.4207697496
O  O42  1  0.48130000  0.37480000  0.72200000  1.0 -0.7220786423
O  O43  1  0.62950000  0.42980000  0.34060000  1.0 -0.4630805836
O  O44  1  0.44750000  0.34260000  0.77900000  1.0 -0.5984646713
O  O45  1  0.52450000  0.59182000  0.32960000  1.0 -0.7041756422
O  O46  1  0.50950000  0.55874000  0.26570000  1.0 -0.6441375226
O  O47  1  0.55960000  0.18530000  0.38560000  1.0 -0.5923198124
O  O48  1  0.57290000  0.18621000  0.30420000  1.0 -0.5984646713
O  O49  1  0.95120000  0.35673000  0.31990000  1.0 -0.6686616004
O  O50  1  0.92650000  0.39776000  0.26930000  1.0 -0.5984646713
O  O51  1  0.04480000  0.05790000  0.85640000  1.0 -0.549428667
O  O52  1  0.07340000  0.10450000  0.88610000  1.0 -0.5797876577
O  O53  1  0.45190000  0.92390000  0.86670000  1.0 -0.6110839159
O  O54  1  0.44240000  0.87990000  0.92310000  1.0 -0.5984646713
O  O55  1  0.44870000  0.08250000  0.28040000  1.0 -0.5604801387
O  O56  1  0.38650000  0.12020000  0.29840000  1.0 -0.5984646713
O  O57  1  0.04050000  0.92714000  0.28400000  1.0 -0.549428667
O  O58  1  0.07100000  0.87748000  0.25530000  1.0 -0.5984646713
O  O59  1  0.03940000  0.34560000  0.37600000  1.0 -0.5604801387
O  O60  1  0.00140000  0.37090000  0.43340000  1.0 -0.4282957524
O  O61  1  0.55430000  0.41600000  0.68120000  1.0 -0.549428667
O  O62  1  0.47930000  0.43430000  0.65610000  1.0 -0.4009723895
O  O63  1  0.00840000  0.13477000  0.83460000  1.0 -0.9832028062
O  O64  1  0.32120000  0.02800000  0.55320000  1.0 -0.4057924559
O  O65  1  0.43400000  0.18280000  0.28660000  1.0 -0.5923198124
O  O66  1  0.18910000  0.03570000  0.60870000  1.0 -0.4009723895
O  O67  1  0.49520000  0.17510000  0.24210000  1.0 -0.5797876577
O  O68  1  0.23360000  0.30790000  0.14160000  1.0 -0.4009723895
O  O69  1  0.08620000  0.17660000  0.87700000  1.0 -0.5797876577
O  O70  1  0.28830000  0.29870000  0.01130000  1.0 -0.4282957524
O  O71  1  0.02490000  0.16664000  0.92890000  1.0 -0.5923198124
O  O72  1  0.77280000  0.40900000  0.88280000  1.0 -0.4207697496
O  O73  1  0.01870000  0.37480000  0.22200000  1.0 -0.7220786423
O  O74  1  0.87050000  0.42980000  0.84060000  1.0 -0.4630805836
O  O75  1  0.05250000  0.34260000  0.27900000  1.0 -0.5984646713
O  O76  1  0.97550000  0.59182000  0.82960000  1.0 -0.7041756422
O  O77  1  0.99050000  0.55874000  0.76570000  1.0 -0.6441375226
O  O78  1  0.94040000  0.18530000  0.88560000  1.0 -0.5923198124
O  O79  1  0.92710000  0.18621000  0.80420000  1.0 -0.5984646713
O  O80  1  0.54880000  0.35673000  0.81990000  1.0 -0.6686616004
O  O81  1  0.57350000  0.39776000  0.76930000  1.0 -0.5984646713
O  O82  1  0.45520000  0.05790000  0.35640000  1.0 -0.549428667
O  O83  1  0.42660000  0.10450000  0.38610000  1.0 -0.5797876577
O  O84  1  0.04810000  0.92390000  0.36670000  1.0 -0.6110839159
O  O85  1  0.05760000  0.87990000  0.42310000  1.0 -0.5984646713
O  O86  1  0.05130000  0.08250000  0.78040000  1.0 -0.549428667
O  O87  1  0.11350000  0.12020000  0.79840000  1.0 -0.5923198124
O  O88  1  0.45950000  0.92714000  0.78400000  1.0 -0.549428667
O  O89  1  0.42900000  0.87748000  0.75530000  1.0 -0.5984646713
O  O90  1  0.46060000  0.34560000  0.87600000  1.0 -0.5654403776
O  O91  1  0.49860000  0.37090000  0.93340000  1.0 -0.4282957524
O  O92  1  0.94570000  0.41600000  0.18120000  1.0 -0.549428667
O  O93  1  0.02070000  0.43430000  0.15610000  1.0 -0.4009723895
O  O94  1  0.99160000  0.86523000  0.33460000  1.0 -0.9832028062
O  O95  1  0.67880000  0.97200000  0.05320000  1.0 -0.4009723895
O  O96  1  0.56600000  0.81720000  0.78660000  1.0 -0.5984646713
O  O97  1  0.81090000  0.96430000  0.10870000  1.0 -0.4009723895
O  O98  1  0.50480000  0.82490000  0.74210000  1.0 -0.5797876577
O  O99  1  0.76640000  0.69210000  0.64160000  1.0 -0.4009723895
O  O100  1  0.91380000  0.82340000  0.37700000  1.0 -0.5797876577
O  O101  1  0.71170000  0.70130000  0.51130000  1.0 -0.4282957524
O  O102  1  0.97510000  0.83336000  0.42890000  1.0 -0.5923198124
O  O103  1  0.22720000  0.59100000  0.38280000  1.0 -0.4207697496
O  O104  1  0.98130000  0.62520000  0.72200000  1.0 -0.7220786423
O  O105  1  0.12950000  0.57020000  0.34060000  1.0 -0.4630805836
O  O106  1  0.94750000  0.65740000  0.77900000  1.0 -0.5984646713
O  O107  1  0.02450000  0.40818000  0.32960000  1.0 -0.7041756422
O  O108  1  0.00950000  0.44126000  0.26570000  1.0 -0.6441375226
O  O109  1  0.05960000  0.81470000  0.38560000  1.0 -0.5923198124
O  O110  1  0.07290000  0.81379000  0.30420000  1.0 -0.5984646713
O  O111  1  0.45120000  0.64327000  0.31990000  1.0 -0.6686616004
O  O112  1  0.42650000  0.60224000  0.26930000  1.0 -0.5984646713
O  O113  1  0.54480000  0.94210000  0.85640000  1.0 -0.549428667
O  O114  1  0.57340000  0.89550000  0.88610000  1.0 -0.5797876577
O  O115  1  0.95190000  0.07610000  0.86670000  1.0 -0.6110839159
O  O116  1  0.94240000  0.12010000  0.92310000  1.0 -0.5984646713
O  O117  1  0.94870000  0.91750000  0.28040000  1.0 -0.5604801387
O  O118  1  0.88650000  0.87980000  0.29840000  1.0 -0.5984646713
O  O119  1  0.54050000  0.07286000  0.28400000  1.0 -0.549428667
O  O120  1  0.57100000  0.12252000  0.25530000  1.0 -0.5984646713
O  O121  1  0.53940000  0.65440000  0.37600000  1.0 -0.5604801387
O  O122  1  0.50140000  0.62910000  0.43340000  1.0 -0.4282957524
O  O123  1  0.05430000  0.58400000  0.68120000  1.0 -0.549428667
O  O124  1  0.97930000  0.56570000  0.65610000  1.0 -0.4009723895
