# DDEC6 charges by PACMAN v1.1 (https://github.com/mtap-research/PACMAN-charge/)
data_XOVQIJ_ASR_pacman
_symmetry_space_group_name_H-M   'P 1'
_cell_length_a   17.07500000
_cell_length_b   20.51900000
_cell_length_c   26.42640000
_cell_angle_alpha   90.00000000
_cell_angle_beta   130.13100000
_cell_angle_gamma   90.00000000
_symmetry_Int_Tables_number   1
_chemical_formula_structural   Na2Zn3H80(C25O7)4
_chemical_formula_sum   'Na4 Zn6 H160 C200 O56'
_cell_volume   7079.02984249
_cell_formula_units_Z   2
loop_
 _symmetry_equiv_pos_site_id
 _symmetry_equiv_pos_as_xyz
  1  'x, y, z'
loop_
 _atom_site_type_symbol
 _atom_site_label
 _atom_site_symmetry_multiplicity
 _atom_site_fract_x
 _atom_site_fract_y
 _atom_site_fract_z
 _atom_site_occupancy
 _atom_site_charge
Na  Na1  1  0.84250000  0.35550000  0.23300000  1.0 0.8181316212
Na  Na2  1  0.15750000  0.85550000  0.26700000  1.0 0.8181316212
Na  Na3  1  0.15750000  0.64450000  0.76700000  1.0 0.8181316212
Na  Na4  1  0.84250000  0.14450000  0.73300000  1.0 0.8181316212
Zn  Zn1  1  0.00000000  0.00000000  0.50000000  1.0 1.170503433
Zn  Zn2  1  0.00000000  0.50000000  0.00000000  1.0 1.170503433
Zn  Zn3  1  0.72368000  0.99443000  0.37481000  1.0 1.0127362564
Zn  Zn4  1  0.27632000  0.49443000  0.12519000  1.0 1.0127362564
Zn  Zn5  1  0.27632000  0.00557000  0.62519000  1.0 1.0127362564
Zn  Zn6  1  0.72368000  0.50557000  0.87481000  1.0 1.0127362564
H  H1  1  0.74050000  0.82460000  0.27930000  1.0 0.1207112889
H  H2  1  0.25950000  0.32460000  0.22070000  1.0 0.1207112889
H  H3  1  0.25950000  0.17540000  0.72070000  1.0 0.1207112889
H  H4  1  0.74050000  0.67540000  0.77930000  1.0 0.1207112889
H  H5  1  0.75960000  0.72160000  0.25120000  1.0 0.1207112889
H  H6  1  0.24040000  0.22160000  0.24880000  1.0 0.1207112889
H  H7  1  0.24040000  0.27840000  0.74880000  1.0 0.1207112889
H  H8  1  0.75960000  0.77840000  0.75120000  1.0 0.1207112889
H  H9  1  0.02370000  0.69680000  0.43820000  1.0 0.1207112889
H  H10  1  0.97630000  0.19680000  0.06180000  1.0 0.1207112889
H  H11  1  0.97630000  0.30320000  0.56180000  1.0 0.1207112889
H  H12  1  0.02370000  0.80320000  0.93820000  1.0 0.1207112889
H  H13  1  0.00450000  0.79970000  0.46620000  1.0 0.1207112889
H  H14  1  0.99550000  0.29970000  0.03380000  1.0 0.1207112889
H  H15  1  0.99550000  0.20030000  0.53380000  1.0 0.1207112889
H  H16  1  0.00450000  0.70030000  0.96620000  1.0 0.1207112889
H  H17  1  0.99560000  0.50710000  0.13480000  1.0 0.1276179553
H  H18  1  0.00440000  0.00710000  0.36520000  1.0 0.1276179553
H  H19  1  0.00440000  0.49290000  0.86520000  1.0 0.1276179553
H  H20  1  0.99560000  0.99290000  0.63480000  1.0 0.1276179553
H  H21  1  0.02810000  0.52540000  0.23390000  1.0 0.1093898403
H  H22  1  0.97190000  0.02540000  0.26610000  1.0 0.1093898403
H  H23  1  0.97190000  0.47460000  0.76610000  1.0 0.1093898403
H  H24  1  0.02810000  0.97460000  0.73390000  1.0 0.1093898403
H  H25  1  0.73210000  0.57530000  0.13160000  1.0 0.1207112889
H  H26  1  0.26790000  0.07530000  0.36840000  1.0 0.1207112889
H  H27  1  0.26790000  0.42470000  0.86840000  1.0 0.1207112889
H  H28  1  0.73210000  0.92470000  0.63160000  1.0 0.1207112889
H  H29  1  0.69960000  0.55700000  0.03250000  1.0 0.1207112889
H  H30  1  0.30040000  0.05700000  0.46750000  1.0 0.1207112889
H  H31  1  0.30040000  0.44300000  0.96750000  1.0 0.1207112889
H  H32  1  0.69960000  0.94300000  0.53250000  1.0 0.1207112889
H  H33  1  0.75730000  0.21010000  0.37420000  1.0 0.1276179553
H  H34  1  0.24270000  0.71010000  0.12580000  1.0 0.1276179553
H  H35  1  0.24270000  0.78990000  0.62580000  1.0 0.1276179553
H  H36  1  0.75730000  0.28990000  0.87420000  1.0 0.1276179553
H  H37  1  0.81770000  0.31650000  0.39220000  1.0 0.1207112889
H  H38  1  0.18230000  0.81650000  0.10780000  1.0 0.1207112889
H  H39  1  0.18230000  0.68350000  0.60780000  1.0 0.1207112889
H  H40  1  0.81770000  0.18350000  0.89220000  1.0 0.1207112889
H  H41  1  0.08180000  0.24920000  0.44250000  1.0 0.1276179553
H  H42  1  0.91820000  0.74920000  0.05750000  1.0 0.1276179553
H  H43  1  0.91820000  0.75080000  0.55750000  1.0 0.1276179553
H  H44  1  0.08180000  0.25080000  0.94250000  1.0 0.1276179553
H  H45  1  0.02130000  0.14270000  0.42440000  1.0 0.1276179553
H  H46  1  0.97870000  0.64270000  0.07560000  1.0 0.1276179553
H  H47  1  0.97870000  0.85730000  0.57560000  1.0 0.1276179553
H  H48  1  0.02130000  0.35730000  0.92440000  1.0 0.1276179553
H  H49  1  0.36790000  0.38060000  0.73350000  1.0 0.1207112889
H  H50  1  0.63210000  0.88060000  0.76650000  1.0 0.1207112889
H  H51  1  0.63210000  0.61940000  0.26650000  1.0 0.1207112889
H  H52  1  0.36790000  0.11940000  0.23350000  1.0 0.1207112889
H  H53  1  0.21380000  0.36550000  0.62630000  1.0 0.1093898403
H  H54  1  0.78620000  0.86550000  0.87370000  1.0 0.1093898403
H  H55  1  0.78620000  0.63450000  0.37370000  1.0 0.1093898403
H  H56  1  0.21380000  0.13450000  0.12630000  1.0 0.1093898403
H  H57  1  0.28750000  0.51180000  0.56160000  1.0 0.1207112889
H  H58  1  0.71250000  0.01180000  0.93840000  1.0 0.1207112889
H  H59  1  0.71250000  0.48820000  0.43840000  1.0 0.1207112889
H  H60  1  0.28750000  0.98820000  0.06160000  1.0 0.1207112889
H  H61  1  0.44160000  0.52690000  0.66880000  1.0 0.1276179553
H  H62  1  0.55840000  0.02690000  0.83120000  1.0 0.1276179553
H  H63  1  0.55840000  0.47310000  0.33120000  1.0 0.1276179553
H  H64  1  0.44160000  0.97310000  0.16880000  1.0 0.1276179553
H  H65  1  0.96100000  0.59210000  0.41370000  1.0 0.1276179553
H  H66  1  0.03900000  0.09210000  0.08630000  1.0 0.1207112889
H  H67  1  0.03900000  0.40790000  0.58630000  1.0 0.1207112889
H  H68  1  0.96100000  0.90790000  0.91370000  1.0 0.1276179553
H  H69  1  0.85610000  0.65640000  0.23530000  1.0 0.1093898403
H  H70  1  0.14390000  0.15640000  0.26470000  1.0 0.1093898403
H  H71  1  0.14390000  0.34360000  0.76470000  1.0 0.1093898403
H  H72  1  0.85610000  0.84360000  0.73530000  1.0 0.1093898403
H  H73  1  0.12240000  0.33400000  0.52990000  1.0 0.1207112889
H  H74  1  0.87760000  0.83400000  0.97010000  1.0 0.1207112889
H  H75  1  0.87760000  0.66600000  0.47010000  1.0 0.1207112889
H  H76  1  0.12240000  0.16600000  0.02990000  1.0 0.1207112889
H  H77  1  0.12840000  0.52030000  0.48350000  1.0 0.1207112889
H  H78  1  0.87160000  0.02030000  0.01650000  1.0 0.1207112889
H  H79  1  0.87160000  0.47970000  0.51650000  1.0 0.1207112889
H  H80  1  0.12840000  0.97970000  0.98350000  1.0 0.1207112889
H  H81  1  0.11260000  0.47330000  0.33000000  1.0 0.1033791989
H  H82  1  0.88740000  0.97330000  0.17000000  1.0 0.1033791989
H  H83  1  0.88740000  0.52670000  0.67000000  1.0 0.1033791989
H  H84  1  0.11260000  0.02670000  0.83000000  1.0 0.1033791989
H  H85  1  0.09990000  0.42670000  0.37220000  1.0 0.1093898403
H  H86  1  0.90010000  0.92670000  0.12780000  1.0 0.1093898403
H  H87  1  0.90010000  0.57330000  0.62780000  1.0 0.1093898403
H  H88  1  0.09990000  0.07330000  0.87220000  1.0 0.1093898403
H  H89  1  0.73460000  0.40370000  0.31900000  1.0 0.1033791989
H  H90  1  0.26540000  0.90370000  0.18100000  1.0 0.1033791989
H  H91  1  0.26540000  0.59630000  0.68100000  1.0 0.1033791989
H  H92  1  0.73460000  0.09630000  0.81900000  1.0 0.1033791989
H  H93  1  0.79840000  0.46970000  0.34500000  1.0 0.1093898403
H  H94  1  0.20160000  0.96970000  0.15500000  1.0 0.1093898403
H  H95  1  0.20160000  0.53030000  0.65500000  1.0 0.1093898403
H  H96  1  0.79840000  0.03030000  0.84500000  1.0 0.1093898403
H  H97  1  0.15840000  0.36640000  0.32810000  1.0 0.1093898403
H  H98  1  0.84160000  0.86640000  0.17190000  1.0 0.1093898403
H  H99  1  0.84160000  0.63360000  0.67190000  1.0 0.1093898403
H  H100  1  0.15840000  0.13360000  0.82810000  1.0 0.1093898403
H  H101  1  0.06310000  0.38940000  0.25550000  1.0 0.1207112889
H  H102  1  0.93690000  0.88940000  0.24450000  1.0 0.1207112889
H  H103  1  0.93690000  0.61060000  0.74450000  1.0 0.1207112889
H  H104  1  0.06310000  0.11060000  0.75550000  1.0 0.1207112889
H  H105  1  0.74380000  0.49590000  0.24420000  1.0 0.1207112889
H  H106  1  0.25620000  0.99590000  0.25580000  1.0 0.1207112889
H  H107  1  0.25620000  0.50410000  0.75580000  1.0 0.1207112889
H  H108  1  0.74380000  0.00410000  0.74420000  1.0 0.1207112889
H  H109  1  0.64450000  0.47350000  0.23230000  1.0 0.1093898403
H  H110  1  0.35550000  0.97350000  0.26770000  1.0 0.1093898403
H  H111  1  0.35550000  0.52650000  0.76770000  1.0 0.1093898403
H  H112  1  0.64450000  0.02650000  0.73230000  1.0 0.1093898403
H  H113  1  0.11320000  0.25400000  0.30260000  1.0 0.1033791989
H  H114  1  0.88680000  0.75400000  0.19740000  1.0 0.1033791989
H  H115  1  0.88680000  0.74600000  0.69740000  1.0 0.1033791989
H  H116  1  0.11320000  0.24600000  0.80260000  1.0 0.1033791989
H  H117  1  0.02040000  0.27380000  0.22800000  1.0 0.1093898403
H  H118  1  0.97960000  0.77380000  0.27200000  1.0 0.1093898403
H  H119  1  0.97960000  0.72620000  0.77200000  1.0 0.1093898403
H  H120  1  0.02040000  0.22620000  0.72800000  1.0 0.1093898403
H  H121  1  0.53780000  0.39390000  0.14890000  1.0 0.1276179553
H  H122  1  0.46220000  0.89390000  0.35110000  1.0 0.1276179553
H  H123  1  0.46220000  0.60610000  0.85110000  1.0 0.1276179553
H  H124  1  0.53780000  0.10610000  0.64890000  1.0 0.1276179553
H  H125  1  0.61260000  0.35310000  0.21520000  1.0 0.1093898403
H  H126  1  0.38740000  0.85310000  0.28480000  1.0 0.1093898403
H  H127  1  0.38740000  0.64690000  0.78480000  1.0 0.1093898403
H  H128  1  0.61260000  0.14690000  0.71520000  1.0 0.1093898403
H  H129  1  0.00260000  0.20760000  0.31350000  1.0 0.1207112889
H  H130  1  0.99740000  0.70760000  0.18650000  1.0 0.1093898403
H  H131  1  0.99740000  0.79240000  0.68650000  1.0 0.1207112889
H  H132  1  0.00260000  0.29240000  0.81350000  1.0 0.1207112889
H  H133  1  0.98200000  0.17640000  0.25100000  1.0 0.1093898403
H  H134  1  0.01800000  0.67640000  0.24900000  1.0 0.1093898403
H  H135  1  0.01800000  0.82360000  0.74900000  1.0 0.1093898403
H  H136  1  0.98200000  0.32360000  0.75100000  1.0 0.1093898403
H  H137  1  0.58370000  0.32940000  0.09860000  1.0 0.1093898403
H  H138  1  0.41630000  0.82940000  0.40140000  1.0 0.1093898403
H  H139  1  0.41630000  0.67060000  0.90140000  1.0 0.1093898403
H  H140  1  0.58370000  0.17060000  0.59860000  1.0 0.1093898403
H  H141  1  0.54090000  0.28420000  0.12500000  1.0 0.0921101749
H  H142  1  0.45910000  0.78420000  0.37500000  1.0 0.0921101749
H  H143  1  0.45910000  0.71580000  0.87500000  1.0 0.0921101749
H  H144  1  0.54090000  0.21580000  0.62500000  1.0 0.0921101749
H  H145  1  0.82370000  0.18340000  0.26820000  1.0 0.1093898403
H  H146  1  0.17630000  0.68340000  0.23180000  1.0 0.1093898403
H  H147  1  0.17630000  0.81660000  0.73180000  1.0 0.1093898403
H  H148  1  0.82370000  0.31660000  0.76820000  1.0 0.1093898403
H  H149  1  0.81310000  0.14530000  0.21150000  1.0 0.1093898403
H  H150  1  0.18690000  0.64530000  0.28850000  1.0 0.1093898403
H  H151  1  0.18690000  0.85470000  0.78850000  1.0 0.1093898403
H  H152  1  0.81310000  0.35470000  0.71150000  1.0 0.1093898403
H  H153  1  0.65600000  0.19030000  0.17870000  1.0 0.1093898403
H  H154  1  0.34400000  0.69030000  0.32130000  1.0 0.1093898403
H  H155  1  0.34400000  0.80970000  0.82130000  1.0 0.1093898403
H  H156  1  0.65600000  0.30970000  0.67870000  1.0 0.1093898403
H  H157  1  0.68020000  0.20620000  0.13140000  1.0 0.1033791989
H  H158  1  0.31980000  0.70620000  0.36860000  1.0 0.1033791989
H  H159  1  0.31980000  0.79380000  0.86860000  1.0 0.1033791989
H  H160  1  0.68020000  0.29380000  0.63140000  1.0 0.1033791989
C  C1  1  0.87070000  0.82210000  0.37550000  1.0 -0.079915538
C  C2  1  0.12930000  0.32210000  0.12450000  1.0 -0.079915538
C  C3  1  0.12930000  0.17790000  0.62450000  1.0 -0.079915538
C  C4  1  0.87070000  0.67790000  0.87550000  1.0 -0.079915538
C  C5  1  0.79760000  0.79880000  0.31130000  1.0 -0.079915538
C  C6  1  0.20240000  0.29880000  0.18870000  1.0 -0.079915538
C  C7  1  0.20240000  0.20120000  0.68870000  1.0 -0.079915538
C  C8  1  0.79760000  0.70120000  0.81130000  1.0 -0.079915538
C  C9  1  0.80900000  0.73740000  0.29460000  1.0 -0.1685249403
C  C10  1  0.19100000  0.23740000  0.20540000  1.0 -0.1685249403
C  C11  1  0.19100000  0.26260000  0.70540000  1.0 -0.1685249403
C  C12  1  0.80900000  0.76260000  0.79460000  1.0 -0.1685249403
C  C13  1  0.89350000  0.69930000  0.34200000  1.0 0.0774907387
C  C14  1  0.10650000  0.19930000  0.15800000  1.0 0.0774907387
C  C15  1  0.10650000  0.30070000  0.65800000  1.0 0.0774907387
C  C16  1  0.89350000  0.80070000  0.84200000  1.0 0.0774907387
C  C17  1  0.96650000  0.72260000  0.40610000  1.0 -0.1608008092
C  C18  1  0.03350000  0.22260000  0.09390000  1.0 -0.1608008092
C  C19  1  0.03350000  0.27740000  0.59390000  1.0 -0.1608008092
C  C20  1  0.96650000  0.77740000  0.90610000  1.0 -0.1608008092
C  C21  1  0.95520000  0.78400000  0.42290000  1.0 -0.0682390749
C  C22  1  0.04480000  0.28400000  0.07710000  1.0 -0.0682390749
C  C23  1  0.04480000  0.21600000  0.57710000  1.0 -0.0682390749
C  C24  1  0.95520000  0.71600000  0.92290000  1.0 -0.0682390749
C  C25  1  0.85970000  0.88370000  0.39340000  1.0 0.5556920722
C  C26  1  0.14030000  0.38370000  0.10660000  1.0 0.5556920722
C  C27  1  0.14030000  0.11630000  0.60660000  1.0 0.5556920722
C  C28  1  0.85970000  0.61630000  0.89340000  1.0 0.5556920722
C  C29  1  0.84450000  0.53030000  0.07410000  1.0 -0.0879773971
C  C30  1  0.15550000  0.03030000  0.42590000  1.0 -0.0879773971
C  C31  1  0.15550000  0.46970000  0.92590000  1.0 -0.0879773971
C  C32  1  0.84450000  0.96970000  0.57410000  1.0 -0.0879773971
C  C33  1  0.94250000  0.52090000  0.13420000  1.0 -0.0682390749
C  C34  1  0.05750000  0.02090000  0.36580000  1.0 -0.0682390749
C  C35  1  0.05750000  0.47910000  0.86580000  1.0 -0.0682390749
C  C36  1  0.94250000  0.97910000  0.63420000  1.0 -0.0682390749
C  C37  1  0.96180000  0.53180000  0.19330000  1.0 -0.1608008092
C  C38  1  0.03820000  0.03180000  0.30670000  1.0 -0.1608008092
C  C39  1  0.03820000  0.46820000  0.80670000  1.0 -0.1608008092
C  C40  1  0.96180000  0.96820000  0.69330000  1.0 -0.1608008092
C  C41  1  0.88320000  0.55210000  0.19230000  1.0 0.0921101749
C  C42  1  0.11680000  0.05210000  0.30770000  1.0 0.0921101749
C  C43  1  0.11680000  0.44790000  0.80770000  1.0 0.0921101749
C  C44  1  0.88320000  0.94790000  0.69230000  1.0 0.0921101749
C  C45  1  0.78520000  0.56160000  0.13220000  1.0 -0.1608008092
C  C46  1  0.21480000  0.06160000  0.36780000  1.0 -0.1608008092
C  C47  1  0.21480000  0.43840000  0.86780000  1.0 -0.1608008092
C  C48  1  0.78520000  0.93840000  0.63220000  1.0 -0.1608008092
C  C49  1  0.76590000  0.55070000  0.07320000  1.0 -0.079915538
C  C50  1  0.23410000  0.05070000  0.42680000  1.0 -0.079915538
C  C51  1  0.23410000  0.44930000  0.92680000  1.0 -0.079915538
C  C52  1  0.76590000  0.94930000  0.57320000  1.0 -0.079915538
C  C53  1  0.82710000  0.51620000  0.01660000  1.0 0.5225653305
C  C54  1  0.17290000  0.01620000  0.48340000  1.0 0.5225653305
C  C55  1  0.17290000  0.48380000  0.98340000  1.0 0.5225653305
C  C56  1  0.82710000  0.98380000  0.51660000  1.0 0.5225653305
C  C57  1  0.88350000  0.16610000  0.39760000  1.0 -0.0963371199
C  C58  1  0.11650000  0.66610000  0.10240000  1.0 -0.0963371199
C  C59  1  0.11650000  0.83390000  0.60240000  1.0 -0.0963371199
C  C60  1  0.88350000  0.33390000  0.89760000  1.0 -0.0963371199
C  C61  1  0.82280000  0.21800000  0.38800000  1.0 -0.079915538
C  C62  1  0.17720000  0.71800000  0.11200000  1.0 -0.079915538
C  C63  1  0.17720000  0.78200000  0.61200000  1.0 -0.079915538
C  C64  1  0.82280000  0.28200000  0.88800000  1.0 -0.079915538
C  C65  1  0.85880000  0.28150000  0.39870000  1.0 -0.1608008092
C  C66  1  0.14120000  0.78150000  0.10130000  1.0 -0.1608008092
C  C67  1  0.14120000  0.71850000  0.60130000  1.0 -0.1608008092
C  C68  1  0.85880000  0.21850000  0.89870000  1.0 -0.1608008092
C  C69  1  0.95560000  0.29310000  0.41910000  1.0 0.1033791989
C  C70  1  0.04440000  0.79310000  0.08090000  1.0 0.1033791989
C  C71  1  0.04440000  0.70690000  0.58090000  1.0 0.1033791989
C  C72  1  0.95560000  0.20690000  0.91910000  1.0 0.1033791989
C  C73  1  0.01630000  0.24130000  0.42870000  1.0 -0.1608008092
C  C74  1  0.98370000  0.74130000  0.07130000  1.0 -0.1608008092
C  C75  1  0.98370000  0.75870000  0.57130000  1.0 -0.1608008092
C  C76  1  0.01630000  0.25870000  0.92870000  1.0 -0.1608008092
C  C77  1  0.98020000  0.17780000  0.41790000  1.0 -0.0682390749
C  C78  1  0.01980000  0.67780000  0.08210000  1.0 -0.0682390749
C  C79  1  0.01980000  0.82220000  0.58210000  1.0 -0.0682390749
C  C80  1  0.98020000  0.32220000  0.91790000  1.0 -0.0682390749
C  C81  1  0.51030000  0.46430000  0.77530000  1.0 0.4921812966
C  C82  1  0.48970000  0.96430000  0.72470000  1.0 0.4921812966
C  C83  1  0.48970000  0.53570000  0.22470000  1.0 0.4921812966
C  C84  1  0.51030000  0.03570000  0.27530000  1.0 0.4921812966
C  C85  1  0.41960000  0.45520000  0.71150000  1.0 -0.0879773971
C  C86  1  0.58040000  0.95520000  0.78850000  1.0 -0.0879773971
C  C87  1  0.58040000  0.54480000  0.28850000  1.0 -0.0879773971
C  C88  1  0.41960000  0.04480000  0.21150000  1.0 -0.0879773971
C  C89  1  0.35170000  0.40700000  0.69880000  1.0 -0.0879773971
C  C90  1  0.64830000  0.90700000  0.80120000  1.0 -0.0879773971
C  C91  1  0.64830000  0.59300000  0.30120000  1.0 -0.0879773971
C  C92  1  0.35170000  0.09300000  0.19880000  1.0 -0.0879773971
C  C93  1  0.25980000  0.39800000  0.63490000  1.0 -0.154518415
C  C94  1  0.74020000  0.89800000  0.86510000  1.0 -0.154518415
C  C95  1  0.74020000  0.60200000  0.36510000  1.0 -0.154518415
C  C96  1  0.25980000  0.10200000  0.13490000  1.0 -0.154518415
C  C97  1  0.23580000  0.43720000  0.58360000  1.0 0.0774907387
C  C98  1  0.76420000  0.93720000  0.91640000  1.0 0.0774907387
C  C99  1  0.76420000  0.56280000  0.41640000  1.0 0.0774907387
C  C100  1  0.23580000  0.06280000  0.08360000  1.0 0.0774907387
C  C101  1  0.30380000  0.48530000  0.59630000  1.0 -0.1608008092
C  C102  1  0.69620000  0.98530000  0.90370000  1.0 -0.1608008092
C  C103  1  0.69620000  0.51470000  0.40370000  1.0 -0.1608008092
C  C104  1  0.30380000  0.01470000  0.09630000  1.0 -0.1608008092
C  C105  1  0.39560000  0.49430000  0.66020000  1.0 -0.079915538
C  C106  1  0.60440000  0.99430000  0.83980000  1.0 -0.079915538
C  C107  1  0.60440000  0.50570000  0.33980000  1.0 -0.079915538
C  C108  1  0.39560000  0.00570000  0.16020000  1.0 -0.079915538
C  C109  1  0.85210000  0.10200000  0.39040000  1.0 0.5225653305
C  C110  1  0.14790000  0.60200000  0.10960000  1.0 0.5225653305
C  C111  1  0.14790000  0.89800000  0.60960000  1.0 0.5225653305
C  C112  1  0.85210000  0.39800000  0.89040000  1.0 0.5225653305
C  C113  1  0.96560000  0.52370000  0.36010000  1.0 -0.0045106642
C  C114  1  0.03440000  0.02370000  0.13990000  1.0 -0.0045106642
C  C115  1  0.03440000  0.47630000  0.63990000  1.0 -0.0045106642
C  C116  1  0.96560000  0.97630000  0.86010000  1.0 -0.0045106642
C  C117  1  0.94640000  0.58450000  0.37330000  1.0 -0.1906949028
C  C118  1  0.05360000  0.08450000  0.12670000  1.0 -0.1906949028
C  C119  1  0.05360000  0.41550000  0.62670000  1.0 -0.1906949028
C  C120  1  0.94640000  0.91550000  0.87330000  1.0 -0.1906949028
C  C121  1  0.90540000  0.63410000  0.32660000  1.0 0.0774907387
C  C122  1  0.09460000  0.13410000  0.17340000  1.0 0.0774907387
C  C123  1  0.09460000  0.36590000  0.67340000  1.0 0.0774907387
C  C124  1  0.90540000  0.86590000  0.82660000  1.0 0.0774907387
C  C125  1  0.88390000  0.62290000  0.26690000  1.0 -0.2113635883
C  C126  1  0.11610000  0.12290000  0.23310000  1.0 -0.2113635883
C  C127  1  0.11610000  0.37710000  0.73310000  1.0 -0.2113635883
C  C128  1  0.88390000  0.87710000  0.76690000  1.0 -0.2113635883
C  C129  1  0.90300000  0.56210000  0.25370000  1.0 -0.0266661614
C  C130  1  0.09700000  0.06210000  0.24630000  1.0 -0.0266661614
C  C131  1  0.09700000  0.43790000  0.74630000  1.0 -0.0266661614
C  C132  1  0.90300000  0.93790000  0.75370000  1.0 -0.0266661614
C  C133  1  0.94400000  0.51250000  0.30040000  1.0 0.1434577361
C  C134  1  0.05600000  0.01250000  0.19960000  1.0 0.1434577361
C  C135  1  0.05600000  0.48750000  0.69960000  1.0 0.1434577361
C  C136  1  0.94400000  0.98750000  0.80040000  1.0 0.1434577361
C  C137  1  0.00330000  0.46990000  0.40800000  1.0 -0.014210048
C  C138  1  0.99670000  0.96990000  0.09200000  1.0 -0.014210048
C  C139  1  0.99670000  0.53010000  0.59200000  1.0 -0.014210048
C  C140  1  0.00330000  0.03010000  0.90800000  1.0 -0.014210048
C  C141  1  0.95510000  0.40950000  0.39010000  1.0 0.1543627784
C  C142  1  0.04490000  0.90950000  0.10990000  1.0 0.1543627784
C  C143  1  0.04490000  0.59050000  0.60990000  1.0 0.1543627784
C  C144  1  0.95510000  0.09050000  0.89010000  1.0 0.1543627784
C  C145  1  0.99970000  0.35870000  0.43570000  1.0 -0.0266661614
C  C146  1  0.00030000  0.85870000  0.06430000  1.0 -0.0266661614
C  C147  1  0.00030000  0.64130000  0.56430000  1.0 -0.0266661614
C  C148  1  0.99970000  0.14130000  0.93570000  1.0 -0.0266661614
C  C149  1  0.09230000  0.36830000  0.49910000  1.0 -0.1906949028
C  C150  1  0.90770000  0.86830000  0.00090000  1.0 -0.1906949028
C  C151  1  0.90770000  0.63170000  0.50090000  1.0 -0.1906949028
C  C152  1  0.09230000  0.13170000  0.99910000  1.0 -0.1906949028
C  C153  1  0.14040000  0.42870000  0.51700000  1.0 0.0774907387
C  C154  1  0.85960000  0.92870000  0.98300000  1.0 0.0774907387
C  C155  1  0.85960000  0.57130000  0.48300000  1.0 0.0774907387
C  C156  1  0.14040000  0.07130000  0.01700000  1.0 0.0774907387
C  C157  1  0.09580000  0.47950000  0.47140000  1.0 -0.200816606
C  C158  1  0.90420000  0.97950000  0.02860000  1.0 -0.200816606
C  C159  1  0.90420000  0.52050000  0.52860000  1.0 -0.200816606
C  C160  1  0.09580000  0.02050000  0.97140000  1.0 -0.200816606
C  C161  1  0.07340000  0.43660000  0.32730000  1.0 -0.0682390749
C  C162  1  0.92660000  0.93660000  0.17270000  1.0 -0.0682390749
C  C163  1  0.92660000  0.56340000  0.67270000  1.0 -0.0682390749
C  C164  1  0.07340000  0.06340000  0.82730000  1.0 -0.0682390749
C  C165  1  0.77430000  0.43340000  0.31410000  1.0 -0.079915538
C  C166  1  0.22570000  0.93340000  0.18590000  1.0 -0.079915538
C  C167  1  0.22570000  0.56660000  0.68590000  1.0 -0.079915538
C  C168  1  0.77430000  0.06660000  0.81410000  1.0 -0.079915538
C  C169  1  0.08610000  0.37920000  0.29950000  1.0 -0.0682390749
C  C170  1  0.91390000  0.87920000  0.20050000  1.0 -0.0682390749
C  C171  1  0.91390000  0.62080000  0.70050000  1.0 -0.0682390749
C  C172  1  0.08610000  0.12080000  0.79950000  1.0 -0.0682390749
C  C173  1  0.70950000  0.45820000  0.24520000  1.0 -0.0682390749
C  C174  1  0.29050000  0.95820000  0.25480000  1.0 -0.0682390749
C  C175  1  0.29050000  0.54180000  0.75480000  1.0 -0.0682390749
C  C176  1  0.70950000  0.04180000  0.74520000  1.0 -0.0682390749
C  C177  1  0.04100000  0.26700000  0.27190000  1.0 -0.0879773971
C  C178  1  0.95900000  0.76700000  0.22810000  1.0 -0.0879773971
C  C179  1  0.95900000  0.73300000  0.72810000  1.0 -0.0879773971
C  C180  1  0.04100000  0.23300000  0.77190000  1.0 -0.0879773971
C  C181  1  0.60180000  0.36940000  0.17600000  1.0 -0.0634919301
C  C182  1  0.39820000  0.86940000  0.32400000  1.0 -0.0634919301
C  C183  1  0.39820000  0.63060000  0.82400000  1.0 -0.0634919301
C  C184  1  0.60180000  0.13060000  0.67600000  1.0 -0.0634919301
C  C185  1  0.97700000  0.21670000  0.26870000  1.0 -0.079915538
C  C186  1  0.02300000  0.71670000  0.23130000  1.0 -0.079915538
C  C187  1  0.02300000  0.78330000  0.73130000  1.0 -0.079915538
C  C188  1  0.97700000  0.28330000  0.76870000  1.0 -0.079915538
C  C189  1  0.59640000  0.31400000  0.13840000  1.0 -0.0879773971
C  C190  1  0.40360000  0.81400000  0.36160000  1.0 -0.0879773971
C  C191  1  0.40360000  0.68600000  0.86160000  1.0 -0.0879773971
C  C192  1  0.59640000  0.18600000  0.63840000  1.0 -0.0879773971
C  C193  1  0.80640000  0.18790000  0.22510000  1.0 -0.079915538
C  C194  1  0.19360000  0.68790000  0.27490000  1.0 -0.079915538
C  C195  1  0.19360000  0.81210000  0.77490000  1.0 -0.079915538
C  C196  1  0.80640000  0.31210000  0.72510000  1.0 -0.079915538
C  C197  1  0.70270000  0.21390000  0.17560000  1.0 -0.079915538
C  C198  1  0.29730000  0.71390000  0.32440000  1.0 -0.079915538
C  C199  1  0.29730000  0.78610000  0.82440000  1.0 -0.079915538
C  C200  1  0.70270000  0.28610000  0.67560000  1.0 -0.079915538
O  O1  1  0.93440000  0.91260000  0.45290000  1.0 -0.6074070901
O  O2  1  0.06560000  0.41260000  0.04710000  1.0 -0.6074070901
O  O3  1  0.06560000  0.08740000  0.54710000  1.0 -0.6074070901
O  O4  1  0.93440000  0.58740000  0.95290000  1.0 -0.6074070901
O  O5  1  0.77110000  0.91830000  0.35500000  1.0 -0.5609480188
O  O6  1  0.22890000  0.41830000  0.14500000  1.0 -0.5609480188
O  O7  1  0.22890000  0.08170000  0.64500000  1.0 -0.5609480188
O  O8  1  0.77110000  0.58170000  0.85500000  1.0 -0.5609480188
O  O9  1  0.89100000  0.48480000  0.01020000  1.0 -0.6043615684
O  O10  1  0.10900000  0.98480000  0.48980000  1.0 -0.6043615684
O  O11  1  0.10900000  0.51520000  0.98980000  1.0 -0.6043615684
O  O12  1  0.89100000  0.01520000  0.51020000  1.0 -0.6043615684
O  O13  1  0.73940000  0.53070000  0.95480000  1.0 -0.5398297057
O  O14  1  0.26060000  0.03070000  0.54520000  1.0 -0.5398297057
O  O15  1  0.26060000  0.46930000  0.04520000  1.0 -0.5398297057
O  O16  1  0.73940000  0.96930000  0.45480000  1.0 -0.5398297057
O  O17  1  0.58230000  0.50800000  0.79090000  1.0 -0.5707800135
O  O18  1  0.41770000  0.00800000  0.70910000  1.0 -0.5707800135
O  O19  1  0.41770000  0.49200000  0.20910000  1.0 -0.5707800135
O  O20  1  0.58230000  0.99200000  0.29090000  1.0 -0.5707800135
O  O21  1  0.53980000  0.43260000  0.83070000  1.0 -0.5609480188
O  O22  1  0.46020000  0.93260000  0.66930000  1.0 -0.5609480188
O  O23  1  0.46020000  0.56740000  0.16930000  1.0 -0.5609480188
O  O24  1  0.53980000  0.06740000  0.33070000  1.0 -0.5609480188
O  O25  1  0.90980000  0.04760000  0.40830000  1.0 -0.6074070901
O  O26  1  0.09020000  0.54760000  0.09170000  1.0 -0.6074070901
O  O27  1  0.09020000  0.95240000  0.59170000  1.0 -0.6074070901
O  O28  1  0.90980000  0.45240000  0.90830000  1.0 -0.6074070901
O  O29  1  0.76080000  0.08350000  0.37070000  1.0 -0.5132030294
O  O30  1  0.23920000  0.58350000  0.12930000  1.0 -0.5132030294
O  O31  1  0.23920000  0.91650000  0.62930000  1.0 -0.5132030294
O  O32  1  0.76080000  0.41650000  0.87070000  1.0 -0.5132030294
O  O33  1  0.96690000  0.45400000  0.28640000  1.0 -0.2480465666
O  O34  1  0.03310000  0.95400000  0.21360000  1.0 -0.2480465666
O  O35  1  0.03310000  0.54600000  0.71360000  1.0 -0.2480465666
O  O36  1  0.96690000  0.04600000  0.78640000  1.0 -0.2480465666
O  O37  1  0.86150000  0.39900000  0.32800000  1.0 -0.2869475231
O  O38  1  0.13850000  0.89900000  0.17200000  1.0 -0.2869475231
O  O39  1  0.13850000  0.60100000  0.67200000  1.0 -0.2869475231
O  O40  1  0.86150000  0.10100000  0.82800000  1.0 -0.2869475231
O  O41  1  0.02560000  0.32710000  0.29520000  1.0 -0.2405287172
O  O42  1  0.97440000  0.82710000  0.20480000  1.0 -0.2405287172
O  O43  1  0.97440000  0.67290000  0.70480000  1.0 -0.2405287172
O  O44  1  0.02560000  0.17290000  0.79520000  1.0 -0.2405287172
O  O45  1  0.68810000  0.41280000  0.19790000  1.0 -0.2405287172
O  O46  1  0.31190000  0.91280000  0.30210000  1.0 -0.2405287172
O  O47  1  0.31190000  0.58720000  0.80210000  1.0 -0.2405287172
O  O48  1  0.68810000  0.08720000  0.69790000  1.0 -0.2405287172
O  O49  1  0.87220000  0.23630000  0.22800000  1.0 -0.2405287172
O  O50  1  0.12780000  0.73630000  0.27200000  1.0 -0.2405287172
O  O51  1  0.12780000  0.76370000  0.77200000  1.0 -0.2405287172
O  O52  1  0.87220000  0.26370000  0.72800000  1.0 -0.2405287172
O  O53  1  0.69630000  0.28120000  0.18350000  1.0 -0.223154892
O  O54  1  0.30370000  0.78120000  0.31650000  1.0 -0.223154892
O  O55  1  0.30370000  0.71880000  0.81650000  1.0 -0.223154892
O  O56  1  0.69630000  0.21880000  0.68350000  1.0 -0.223154892
