# DDEC6 charges by PACMAN v1.1 (https://github.com/mtap-research/PACMAN-charge/)
data_XOVQAB_ASR_pacman
_symmetry_space_group_name_H-M   'P 1'
_cell_length_a   29.33320000
_cell_length_b   29.33320000
_cell_length_c   31.16770000
_cell_angle_alpha   76.40110000
_cell_angle_beta   103.59900000
_cell_angle_gamma   90.07680000
_symmetry_Int_Tables_number   1
_chemical_formula_structural   CuH9(C16O5)2
_chemical_formula_sum   'Cu16 H144 C512 O160'
_cell_volume   25293.91374793
_cell_formula_units_Z   16
loop_
 _symmetry_equiv_pos_site_id
 _symmetry_equiv_pos_as_xyz
  1  'x, y, z'
loop_
 _atom_site_type_symbol
 _atom_site_label
 _atom_site_symmetry_multiplicity
 _atom_site_fract_x
 _atom_site_fract_y
 _atom_site_fract_z
 _atom_site_occupancy
 _atom_site_charge
Cu  Cu1  1  0.02979000  0.00651000  0.47371000  1.0 0.8535535837
Cu  Cu2  1  0.00651000  0.02979000  0.02629000  1.0 0.8535535837
Cu  Cu3  1  0.97021000  0.99349000  0.52629000  1.0 0.8535535837
Cu  Cu4  1  0.99349000  0.97021000  0.97371000  1.0 0.8535535837
Cu  Cu5  1  0.99334000  0.47028000  0.97369000  1.0 0.8569838896
Cu  Cu6  1  0.47028000  0.99334000  0.52631000  1.0 0.8569838896
Cu  Cu7  1  0.00666000  0.52972000  0.02631000  1.0 0.8535535837
Cu  Cu8  1  0.52972000  0.00666000  0.47369000  1.0 0.8569838896
Cu  Cu9  1  0.49336000  0.79300000  0.97363000  1.0 0.8535535837
Cu  Cu10  1  0.79300000  0.49336000  0.52637000  1.0 0.8569838896
Cu  Cu11  1  0.50664000  0.20700000  0.02637000  1.0 0.8535535837
Cu  Cu12  1  0.20700000  0.50664000  0.47363000  1.0 0.8569838896
Cu  Cu13  1  0.50655000  0.70711000  0.02624000  1.0 0.8569838896
Cu  Cu14  1  0.70711000  0.50655000  0.47376000  1.0 0.8569838896
Cu  Cu15  1  0.49345000  0.29289000  0.97376000  1.0 0.8569838896
Cu  Cu16  1  0.29289000  0.49345000  0.52624000  1.0 0.8569838896
H  H1  1  0.14930000  0.22530000  0.59790000  1.0 0.1205069833
H  H2  1  0.22530000  0.14930000  0.90210000  1.0 0.1205069833
H  H3  1  0.85070000  0.77470000  0.40210000  1.0 0.1205069833
H  H4  1  0.77470000  0.85070000  0.09790000  1.0 0.1105570353
H  H5  1  0.25680000  0.29700000  0.66640000  1.0 0.1205069833
H  H6  1  0.29700000  0.25680000  0.83360000  1.0 0.1205069833
H  H7  1  0.74320000  0.70300000  0.33360000  1.0 0.1205069833
H  H8  1  0.70300000  0.74320000  0.16640000  1.0 0.1205069833
H  H9  1  0.27580000  0.36800000  0.62430000  1.0 0.1205069833
H  H10  1  0.36800000  0.27580000  0.87570000  1.0 0.1205069833
H  H11  1  0.72420000  0.63200000  0.37570000  1.0 0.1205069833
H  H12  1  0.63200000  0.72420000  0.12430000  1.0 0.1205069833
H  H13  1  0.14810000  0.38070000  0.53740000  1.0 0.1292590278
H  H14  1  0.38070000  0.14810000  0.96260000  1.0 0.1292590278
H  H15  1  0.85190000  0.61930000  0.46260000  1.0 0.1292590278
H  H16  1  0.61930000  0.85190000  0.03740000  1.0 0.1292590278
H  H17  1  0.12890000  0.30970000  0.57940000  1.0 0.1205069833
H  H18  1  0.30970000  0.12890000  0.92060000  1.0 0.1205069833
H  H19  1  0.87110000  0.69030000  0.42060000  1.0 0.1205069833
H  H20  1  0.69030000  0.87110000  0.07940000  1.0 0.1205069833
H  H21  1  0.07700000  0.12040000  0.66666667  1.0 0.1205069833
H  H22  1  0.12040000  0.07700000  0.83340000  1.0 0.1205069833
H  H23  1  0.92300000  0.87960000  0.33340000  1.0 0.1205069833
H  H24  1  0.87960000  0.92300000  0.16660000  1.0 0.1205069833
H  H25  1  0.03620000  0.07080000  0.62440000  1.0 0.1292590278
H  H26  1  0.07080000  0.03620000  0.87560000  1.0 0.1292590278
H  H27  1  0.96380000  0.92920000  0.37560000  1.0 0.1292590278
H  H28  1  0.92920000  0.96380000  0.12440000  1.0 0.1292590278
H  H29  1  0.12010000  0.10130000  0.53690000  1.0 0.1292590278
H  H30  1  0.10130000  0.12010000  0.96310000  1.0 0.1292590278
H  H31  1  0.87990000  0.89870000  0.46310000  1.0 0.1292590278
H  H32  1  0.89870000  0.87990000  0.03690000  1.0 0.1292590278
H  H33  1  0.16090000  0.15090000  0.57920000  1.0 0.1205069833
H  H34  1  0.15090000  0.16090000  0.92080000  1.0 0.1205069833
H  H35  1  0.83910000  0.84910000  0.42080000  1.0 0.1205069833
H  H36  1  0.84910000  0.83910000  0.07920000  1.0 0.1205069833
H  H37  1  0.22580000  0.64980000  0.90240000  1.0 0.1205069833
H  H38  1  0.64980000  0.22580000  0.59760000  1.0 0.1205069833
H  H39  1  0.77420000  0.35020000  0.09760000  1.0 0.1205069833
H  H40  1  0.35020000  0.77420000  0.40240000  1.0 0.1205069833
H  H41  1  0.15110000  0.65970000  0.92130000  1.0 0.1205069833
H  H42  1  0.65970000  0.15110000  0.57870000  1.0 0.1205069833
H  H43  1  0.84890000  0.34030000  0.07870000  1.0 0.1205069833
H  H44  1  0.34030000  0.84890000  0.42130000  1.0 0.1205069833
H  H45  1  0.10090000  0.61970000  0.96320000  1.0 0.1205069833
H  H46  1  0.61970000  0.10090000  0.53680000  1.0 0.1205069833
H  H47  1  0.89910000  0.38030000  0.03680000  1.0 0.1205069833
H  H48  1  0.38030000  0.89910000  0.46320000  1.0 0.1205069833
H  H49  1  0.06940000  0.53620000  0.87540000  1.0 0.1292590278
H  H50  1  0.53620000  0.06940000  0.62460000  1.0 0.1292590278
H  H51  1  0.93060000  0.46380000  0.12460000  1.0 0.1292590278
H  H52  1  0.46380000  0.93060000  0.37540000  1.0 0.1292590278
H  H53  1  0.11960000  0.57620000  0.83360000  1.0 0.1105570353
H  H54  1  0.57620000  0.11960000  0.66640000  1.0 0.1105570353
H  H55  1  0.88040000  0.42380000  0.16640000  1.0 0.1205069833
H  H56  1  0.42380000  0.88040000  0.33360000  1.0 0.1205069833
H  H57  1  0.30930000  0.62950000  0.92130000  1.0 0.1205069833
H  H58  1  0.62950000  0.30930000  0.57870000  1.0 0.1205069833
H  H59  1  0.69070000  0.37050000  0.07870000  1.0 0.1205069833
H  H60  1  0.37050000  0.69070000  0.42130000  1.0 0.1205069833
H  H61  1  0.38020000  0.64880000  0.96330000  1.0 0.1205069833
H  H62  1  0.64880000  0.38020000  0.53670000  1.0 0.1205069833
H  H63  1  0.61980000  0.35120000  0.03670000  1.0 0.1205069833
H  H64  1  0.35120000  0.61980000  0.46330000  1.0 0.1205069833
H  H65  1  0.36760000  0.77620000  0.87570000  1.0 0.1379160468
H  H66  1  0.77620000  0.36760000  0.62430000  1.0 0.1292590278
H  H67  1  0.63240000  0.22380000  0.12430000  1.0 0.1379160468
H  H68  1  0.22380000  0.63240000  0.37570000  1.0 0.1379160468
H  H69  1  0.29660000  0.75700000  0.83380000  1.0 0.1105570353
H  H70  1  0.75700000  0.29660000  0.66620000  1.0 0.1105570353
H  H71  1  0.70340000  0.24300000  0.16620000  1.0 0.1105570353
H  H72  1  0.24300000  0.70340000  0.33380000  1.0 0.1105570353
H  H73  1  0.15030000  0.72590000  0.59770000  1.0 0.1205069833
H  H74  1  0.72590000  0.15030000  0.90230000  1.0 0.1205069833
H  H75  1  0.84970000  0.27410000  0.40230000  1.0 0.1205069833
H  H76  1  0.27410000  0.84970000  0.09770000  1.0 0.1205069833
H  H77  1  0.16020000  0.80920000  0.57960000  1.0 0.1205069833
H  H78  1  0.80920000  0.16020000  0.92040000  1.0 0.1205069833
H  H79  1  0.83980000  0.19080000  0.42040000  1.0 0.1205069833
H  H80  1  0.19080000  0.83980000  0.07960000  1.0 0.1205069833
H  H81  1  0.12020000  0.88000000  0.53710000  1.0 0.1205069833
H  H82  1  0.88000000  0.12020000  0.96290000  1.0 0.1205069833
H  H83  1  0.87980000  0.12000000  0.46290000  1.0 0.1205069833
H  H84  1  0.12000000  0.87980000  0.03710000  1.0 0.1205069833
H  H85  1  0.03590000  0.86790000  0.62400000  1.0 0.1292590278
H  H86  1  0.86790000  0.03590000  0.87600000  1.0 0.1292590278
H  H87  1  0.96410000  0.13210000  0.37600000  1.0 0.1292590278
H  H88  1  0.13210000  0.96410000  0.12400000  1.0 0.1292590278
H  H89  1  0.07590000  0.79710000  0.66650000  1.0 0.1205069833
H  H90  1  0.79710000  0.07590000  0.83350000  1.0 0.1205069833
H  H91  1  0.92410000  0.20290000  0.33350000  1.0 0.1205069833
H  H92  1  0.20290000  0.92410000  0.16650000  1.0 0.1205069833
H  H93  1  0.18990000  0.33990000  0.07850000  1.0 0.1205069833
H  H94  1  0.33990000  0.18990000  0.42150000  1.0 0.1205069833
H  H95  1  0.81010000  0.66010000  0.92150000  1.0 0.1205069833
H  H96  1  0.66010000  0.81010000  0.57850000  1.0 0.1205069833
H  H97  1  0.11910000  0.38030000  0.03660000  1.0 0.1292590278
H  H98  1  0.38030000  0.11910000  0.46340000  1.0 0.1292590278
H  H99  1  0.88090000  0.61970000  0.96340000  1.0 0.1292590278
H  H100  1  0.61970000  0.88090000  0.53660000  1.0 0.1292590278
H  H101  1  0.13220000  0.46380000  0.12430000  1.0 0.1292590278
H  H102  1  0.46380000  0.13220000  0.37570000  1.0 0.1292590278
H  H103  1  0.86780000  0.53620000  0.87570000  1.0 0.1292590278
H  H104  1  0.53620000  0.86780000  0.62430000  1.0 0.1292590278
H  H105  1  0.20310000  0.42350000  0.16620000  1.0 0.1292590278
H  H106  1  0.42350000  0.20310000  0.33380000  1.0 0.1292590278
H  H107  1  0.79690000  0.57650000  0.83380000  1.0 0.1292590278
H  H108  1  0.57650000  0.79690000  0.66620000  1.0 0.1292590278
H  H109  1  0.27470000  0.35070000  0.09770000  1.0 0.1205069833
H  H110  1  0.35070000  0.27470000  0.40230000  1.0 0.1205069833
H  H111  1  0.72530000  0.64930000  0.90230000  1.0 0.1205069833
H  H112  1  0.64930000  0.72530000  0.59770000  1.0 0.1205069833
H  H113  1  0.12940000  0.65100000  0.57910000  1.0 0.1205069833
H  H114  1  0.65100000  0.12940000  0.92090000  1.0 0.1205069833
H  H115  1  0.87060000  0.34900000  0.42090000  1.0 0.1205069833
H  H116  1  0.34900000  0.87060000  0.07910000  1.0 0.1205069833
H  H117  1  0.14870000  0.60150000  0.53680000  1.0 0.1205069833
H  H118  1  0.60150000  0.14870000  0.96320000  1.0 0.1205069833
H  H119  1  0.85130000  0.39850000  0.46320000  1.0 0.1205069833
H  H120  1  0.39850000  0.85130000  0.03680000  1.0 0.1205069833
H  H121  1  0.27620000  0.57040000  0.62440000  1.0 0.1292590278
H  H122  1  0.57040000  0.27620000  0.87560000  1.0 0.1292590278
H  H123  1  0.72380000  0.42960000  0.37560000  1.0 0.1292590278
H  H124  1  0.42960000  0.72380000  0.12440000  1.0 0.1292590278
H  H125  1  0.25690000  0.61990000  0.66666667  1.0 0.1001760048
H  H126  1  0.61990000  0.25690000  0.83333000  1.0 0.1001760048
H  H127  1  0.74310000  0.38010000  0.33333333  1.0 0.1001760048
H  H128  1  0.38010000  0.74310000  0.16667000  1.0 0.1001760048
H  H129  1  0.38000000  0.24280000  0.16630000  1.0 0.1292590278
H  H130  1  0.24280000  0.38000000  0.33370000  1.0 0.1292590278
H  H131  1  0.62000000  0.75720000  0.83370000  1.0 0.1292590278
H  H132  1  0.75720000  0.62000000  0.66630000  1.0 0.1292590278
H  H133  1  0.42970000  0.22370000  0.12400000  1.0 0.1292590278
H  H134  1  0.22370000  0.42970000  0.37600000  1.0 0.1292590278
H  H135  1  0.57030000  0.77630000  0.87600000  1.0 0.1292590278
H  H136  1  0.77630000  0.57030000  0.62400000  1.0 0.1292590278
H  H137  1  0.39920000  0.35160000  0.03720000  1.0 0.1205069833
H  H138  1  0.35160000  0.39920000  0.46280000  1.0 0.1205069833
H  H139  1  0.60080000  0.64840000  0.96280000  1.0 0.1205069833
H  H140  1  0.64840000  0.60080000  0.53720000  1.0 0.1205069833
H  H141  1  0.34950000  0.37070000  0.07950000  1.0 0.1205069833
H  H142  1  0.37070000  0.34950000  0.42050000  1.0 0.1205069833
H  H143  1  0.65050000  0.62930000  0.92050000  1.0 0.1205069833
H  H144  1  0.62930000  0.65050000  0.57950000  1.0 0.1205069833
C  C1  1  0.18072000  0.19426000  0.72441000  1.0 -0.0700460552
C  C2  1  0.19426000  0.18072000  0.77559000  1.0 -0.0700460552
C  C3  1  0.81928000  0.80574000  0.27559000  1.0 -0.0700460552
C  C4  1  0.80574000  0.81928000  0.22441000  1.0 -0.0700460552
C  C5  1  0.16043000  0.16161000  0.70090000  1.0 0.1737274564
C  C6  1  0.16161000  0.16043000  0.79910000  1.0 0.1737274564
C  C7  1  0.83957000  0.83839000  0.29910000  1.0 0.1737274564
C  C8  1  0.83839000  0.83957000  0.20090000  1.0 0.1737274564
C  C9  1  0.14867000  0.17321000  0.65362000  1.0 -0.0201116716
C  C10  1  0.17321000  0.14867000  0.84638000  1.0 -0.0201116716
C  C11  1  0.85133000  0.82679000  0.34638000  1.0 -0.0201116716
C  C12  1  0.82679000  0.85133000  0.15362000  1.0 -0.0201116716
C  C13  1  0.15720000  0.21748000  0.62984000  1.0 -0.1884570958
C  C14  1  0.21748000  0.15720000  0.87016000  1.0 -0.1884570958
C  C15  1  0.84280000  0.78252000  0.37016000  1.0 -0.1884570958
C  C16  1  0.78252000  0.84280000  0.12984000  1.0 -0.1884570958
C  C17  1  0.17750000  0.25014000  0.65334000  1.0 -0.0286114957
C  C18  1  0.25014000  0.17750000  0.84666000  1.0 -0.0286114957
C  C19  1  0.82250000  0.74986000  0.34666000  1.0 -0.0286114957
C  C20  1  0.74986000  0.82250000  0.15334000  1.0 -0.0286114957
C  C21  1  0.18927000  0.23853000  0.70063000  1.0 0.1503001678
C  C22  1  0.23853000  0.18927000  0.79937000  1.0 0.1503001678
C  C23  1  0.81073000  0.76147000  0.29937000  1.0 0.1503001678
C  C24  1  0.76147000  0.81073000  0.20063000  1.0 0.1503001678
C  C25  1  0.04760000  0.04960000  0.54770000  1.0 0.5730873123
C  C26  1  0.04960000  0.04760000  0.95230000  1.0 0.5730873123
C  C27  1  0.95240000  0.95040000  0.45230000  1.0 0.5788993135
C  C28  1  0.95040000  0.95240000  0.04770000  1.0 0.5730873123
C  C29  1  0.19102000  0.29646000  0.62700000  1.0 0.0897005725
C  C30  1  0.29646000  0.19102000  0.87300000  1.0 0.0897005725
C  C31  1  0.80898000  0.70354000  0.37300000  1.0 0.0897005725
C  C32  1  0.70354000  0.80898000  0.12700000  1.0 0.0897005725
C  C33  1  0.23483000  0.31385000  0.64038000  1.0 -0.160207339
C  C34  1  0.31385000  0.23483000  0.85962000  1.0 -0.160207339
C  C35  1  0.76517000  0.68615000  0.35962000  1.0 -0.160207339
C  C36  1  0.68615000  0.76517000  0.14038000  1.0 -0.160207339
C  C37  1  0.24622000  0.35620000  0.61530000  1.0 -0.0994796939
C  C38  1  0.35620000  0.24622000  0.88470000  1.0 -0.0994796939
C  C39  1  0.75378000  0.64380000  0.38470000  1.0 -0.0994796939
C  C40  1  0.64380000  0.75378000  0.11530000  1.0 -0.0994796939
C  C41  1  0.21380000  0.38118000  0.57680000  1.0 -0.0286114957
C  C42  1  0.38118000  0.21380000  0.92320000  1.0 -0.0286114957
C  C43  1  0.78620000  0.61882000  0.42320000  1.0 -0.0286114957
C  C44  1  0.61882000  0.78620000  0.07680000  1.0 -0.0286114957
C  C45  1  0.16998000  0.36380000  0.56341000  1.0 -0.0901913413
C  C46  1  0.36380000  0.16998000  0.93659000  1.0 -0.0901913413
C  C47  1  0.83002000  0.63620000  0.43659000  1.0 -0.0901913413
C  C48  1  0.63620000  0.83002000  0.06341000  1.0 -0.0901913413
C  C49  1  0.15859000  0.32143000  0.58850000  1.0 -0.160207339
C  C50  1  0.32143000  0.15859000  0.91150000  1.0 -0.160207339
C  C51  1  0.84141000  0.67857000  0.41150000  1.0 -0.160207339
C  C52  1  0.67857000  0.84141000  0.08850000  1.0 -0.160207339
C  C53  1  0.22770000  0.42570000  0.54870000  1.0 0.5788993135
C  C54  1  0.42570000  0.22770000  0.95130000  1.0 0.5788993135
C  C55  1  0.77230000  0.57430000  0.45130000  1.0 0.5788993135
C  C56  1  0.57430000  0.77230000  0.04870000  1.0 0.5788993135
C  C57  1  0.12289000  0.14037000  0.62700000  1.0 0.1001760048
C  C58  1  0.14037000  0.12289000  0.87300000  1.0 0.1001760048
C  C59  1  0.87711000  0.85963000  0.37300000  1.0 0.1001760048
C  C60  1  0.85963000  0.87711000  0.12700000  1.0 0.1001760048
C  C61  1  0.08568000  0.11652000  0.64048000  1.0 -0.160207339
C  C62  1  0.11652000  0.08568000  0.85952000  1.0 -0.160207339
C  C63  1  0.91432000  0.88348000  0.35952000  1.0 -0.160207339
C  C64  1  0.88348000  0.91432000  0.14048000  1.0 -0.160207339
C  C65  1  0.06133000  0.08699000  0.61530000  1.0 -0.1089448893
C  C66  1  0.08699000  0.06133000  0.88470000  1.0 -0.1089448893
C  C67  1  0.93867000  0.91301000  0.38470000  1.0 -0.1089448893
C  C68  1  0.91301000  0.93867000  0.11530000  1.0 -0.1089448893
C  C69  1  0.07419000  0.08131000  0.57660000  1.0 -0.0201116716
C  C70  1  0.08131000  0.07419000  0.92340000  1.0 -0.0201116716
C  C71  1  0.92581000  0.91869000  0.42340000  1.0 -0.0201116716
C  C72  1  0.91869000  0.92581000  0.07660000  1.0 -0.0201116716
C  C73  1  0.11140000  0.10516000  0.56311000  1.0 -0.0901913413
C  C74  1  0.10516000  0.11140000  0.93689000  1.0 -0.0901913413
C  C75  1  0.88860000  0.89484000  0.43689000  1.0 -0.0901913413
C  C76  1  0.89484000  0.88860000  0.06311000  1.0 -0.0901913413
C  C77  1  0.13575000  0.13469000  0.58830000  1.0 -0.160207339
C  C78  1  0.13469000  0.13575000  0.91170000  1.0 -0.160207339
C  C79  1  0.86425000  0.86531000  0.41170000  1.0 -0.160207339
C  C80  1  0.86531000  0.86425000  0.08830000  1.0 -0.160207339
C  C81  1  0.42680000  0.72780000  0.95190000  1.0 0.5730873123
C  C82  1  0.72780000  0.42680000  0.54810000  1.0 0.5730873123
C  C83  1  0.57320000  0.27220000  0.04810000  1.0 0.5730873123
C  C84  1  0.27220000  0.57320000  0.45190000  1.0 0.5730873123
C  C85  1  0.17386000  0.64776000  0.84700000  1.0 -0.0110903177
C  C86  1  0.64776000  0.17386000  0.65300000  1.0 -0.0110903177
C  C87  1  0.82614000  0.35224000  0.15300000  1.0 -0.0110903177
C  C88  1  0.35224000  0.82614000  0.34700000  1.0 -0.0110903177
C  C89  1  0.21772000  0.65772000  0.87043000  1.0 -0.1884570958
C  C90  1  0.65772000  0.21772000  0.62957000  1.0 -0.1884570958
C  C91  1  0.78228000  0.34228000  0.12957000  1.0 -0.1884570958
C  C92  1  0.34228000  0.78228000  0.37043000  1.0 -0.1884570958
C  C93  1  0.24957000  0.67945000  0.84660000  1.0 0.0089424739
C  C94  1  0.67945000  0.24957000  0.65340000  1.0 0.0089424739
C  C95  1  0.75043000  0.32055000  0.15340000  1.0 0.0089424739
C  C96  1  0.32055000  0.75043000  0.34660000  1.0 0.0089424739
C  C97  1  0.23756000  0.69120000  0.79930000  1.0 0.1001760048
C  C98  1  0.69120000  0.23756000  0.70070000  1.0 0.1001760048
C  C99  1  0.76244000  0.30880000  0.20070000  1.0 0.1001760048
C  C100  1  0.30880000  0.76244000  0.29930000  1.0 0.1105570353
C  C101  1  0.19370000  0.68124000  0.77586000  1.0 -0.059591829
C  C102  1  0.68124000  0.19370000  0.72414000  1.0 -0.059591829
C  C103  1  0.80630000  0.31876000  0.22414000  1.0 -0.059591829
C  C104  1  0.31876000  0.80630000  0.27586000  1.0 -0.059591829
C  C105  1  0.16184000  0.65952000  0.79970000  1.0 0.1105570353
C  C106  1  0.65952000  0.16184000  0.70030000  1.0 0.1105570353
C  C107  1  0.83816000  0.34048000  0.20030000  1.0 0.1105570353
C  C108  1  0.34048000  0.83816000  0.29970000  1.0 0.1105570353
C  C109  1  0.05000000  0.54800000  0.95220000  1.0 0.5788993135
C  C110  1  0.54800000  0.05000000  0.54780000  1.0 0.5788993135
C  C111  1  0.95000000  0.45200000  0.04780000  1.0 0.5730873123
C  C112  1  0.45200000  0.95000000  0.45220000  1.0 0.5788993135
C  C113  1  0.14025000  0.62179000  0.87342000  1.0 0.0897005725
C  C114  1  0.62179000  0.14025000  0.62658000  1.0 0.0897005725
C  C115  1  0.85975000  0.37821000  0.12658000  1.0 0.0897005725
C  C116  1  0.37821000  0.85975000  0.37342000  1.0 0.0897005725
C  C117  1  0.13465000  0.63477000  0.91210000  1.0 -0.1678007397
C  C118  1  0.63477000  0.13465000  0.58790000  1.0 -0.1678007397
C  C119  1  0.86535000  0.36523000  0.08790000  1.0 -0.1678007397
C  C120  1  0.36523000  0.86535000  0.41210000  1.0 -0.1678007397
C  C121  1  0.10468000  0.61090000  0.93703000  1.0 -0.0901913413
C  C122  1  0.61090000  0.10468000  0.56297000  1.0 -0.0901913413
C  C123  1  0.89532000  0.38910000  0.06297000  1.0 -0.0901913413
C  C124  1  0.38910000  0.89532000  0.43703000  1.0 -0.0901913413
C  C125  1  0.08030000  0.57406000  0.92330000  1.0 -0.0379708684
C  C126  1  0.57406000  0.08030000  0.57670000  1.0 -0.0379708684
C  C127  1  0.91970000  0.42594000  0.07670000  1.0 -0.0379708684
C  C128  1  0.42594000  0.91970000  0.42330000  1.0 -0.0379708684
C  C129  1  0.08591000  0.56109000  0.88470000  1.0 -0.0791931496
C  C130  1  0.56109000  0.08591000  0.61530000  1.0 -0.0791931496
C  C131  1  0.91409000  0.43891000  0.11530000  1.0 -0.0791931496
C  C132  1  0.43891000  0.91409000  0.38470000  1.0 -0.0791931496
C  C133  1  0.11588000  0.58496000  0.85972000  1.0 -0.1504339664
C  C134  1  0.58496000  0.11588000  0.64028000  1.0 -0.1504339664
C  C135  1  0.88412000  0.41504000  0.14028000  1.0 -0.1381960881
C  C136  1  0.41504000  0.88412000  0.35972000  1.0 -0.1504339664
C  C137  1  0.22780000  0.54980000  0.54870000  1.0 0.5788993135
C  C138  1  0.54980000  0.22780000  0.95130000  1.0 0.5788993135
C  C139  1  0.77220000  0.45020000  0.45130000  1.0 0.5788993135
C  C140  1  0.45020000  0.77220000  0.04870000  1.0 0.5788993135
C  C141  1  0.29607000  0.69139000  0.87350000  1.0 0.0897005725
C  C142  1  0.69139000  0.29607000  0.62650000  1.0 0.0897005725
C  C143  1  0.70393000  0.30861000  0.12650000  1.0 0.0897005725
C  C144  1  0.30861000  0.70393000  0.37350000  1.0 0.0897005725
C  C145  1  0.32100000  0.65912000  0.91210000  1.0 -0.1678007397
C  C146  1  0.65912000  0.32100000  0.58790000  1.0 -0.1678007397
C  C147  1  0.67900000  0.34088000  0.08790000  1.0 -0.1678007397
C  C148  1  0.34088000  0.67900000  0.41210000  1.0 -0.1678007397
C  C149  1  0.36335000  0.67061000  0.93714000  1.0 -0.0994796939
C  C150  1  0.67061000  0.36335000  0.56286000  1.0 -0.0901913413
C  C151  1  0.63665000  0.32939000  0.06286000  1.0 -0.0994796939
C  C152  1  0.32939000  0.63665000  0.43714000  1.0 -0.0994796939
C  C153  1  0.38076000  0.71438000  0.92360000  1.0 -0.0201116716
C  C154  1  0.71438000  0.38076000  0.57640000  1.0 -0.0201116716
C  C155  1  0.61924000  0.28562000  0.07640000  1.0 -0.0201116716
C  C156  1  0.28562000  0.61924000  0.42360000  1.0 -0.0201116716
C  C157  1  0.35581000  0.74665000  0.88490000  1.0 -0.0994796939
C  C158  1  0.74665000  0.35581000  0.61510000  1.0 -0.0901913413
C  C159  1  0.64419000  0.25335000  0.11510000  1.0 -0.0901913413
C  C160  1  0.25335000  0.64419000  0.38490000  1.0 -0.0994796939
C  C161  1  0.31346000  0.73516000  0.85991000  1.0 -0.1504339664
C  C162  1  0.73516000  0.31346000  0.64009000  1.0 -0.1504339664
C  C163  1  0.68654000  0.26484000  0.14009000  1.0 -0.1504339664
C  C164  1  0.26484000  0.68654000  0.35991000  1.0 -0.1504339664
C  C165  1  0.45060000  0.27340000  0.04910000  1.0 0.5788993135
C  C166  1  0.27340000  0.45060000  0.45090000  1.0 0.5788993135
C  C167  1  0.54940000  0.72660000  0.95090000  1.0 0.5730873123
C  C168  1  0.72660000  0.54940000  0.54910000  1.0 0.5730873123
C  C169  1  0.18065000  0.69355000  0.72420000  1.0 -0.059591829
C  C170  1  0.69355000  0.18065000  0.77580000  1.0 -0.059591829
C  C171  1  0.81935000  0.30645000  0.27580000  1.0 -0.059591829
C  C172  1  0.30645000  0.81935000  0.22420000  1.0 -0.059591829
C  C173  1  0.19026000  0.66154000  0.70048000  1.0 0.1205069833
C  C174  1  0.66154000  0.19026000  0.79952000  1.0 0.1205069833
C  C175  1  0.80974000  0.33846000  0.29952000  1.0 0.1205069833
C  C176  1  0.33846000  0.80974000  0.20048000  1.0 0.1205069833
C  C177  1  0.17895000  0.67363000  0.65320000  1.0 -0.0023209101
C  C178  1  0.67363000  0.17895000  0.84680000  1.0 -0.0023209101
C  C179  1  0.82105000  0.32637000  0.34680000  1.0 -0.0023209101
C  C180  1  0.32637000  0.82105000  0.15320000  1.0 -0.0023209101
C  C181  1  0.15802000  0.71772000  0.62964000  1.0 -0.1884570958
C  C182  1  0.71772000  0.15802000  0.87036000  1.0 -0.1884570958
C  C183  1  0.84198000  0.28228000  0.37036000  1.0 -0.1884570958
C  C184  1  0.28228000  0.84198000  0.12964000  1.0 -0.1884570958
C  C185  1  0.14842000  0.74972000  0.65336000  1.0 -0.0110903177
C  C186  1  0.74972000  0.14842000  0.84664000  1.0 -0.0110903177
C  C187  1  0.85158000  0.25028000  0.34664000  1.0 -0.0110903177
C  C188  1  0.25028000  0.85158000  0.15336000  1.0 -0.0110903177
C  C189  1  0.15974000  0.73764000  0.70064000  1.0 0.1001760048
C  C190  1  0.73764000  0.15974000  0.79936000  1.0 0.1001760048
C  C191  1  0.84026000  0.26236000  0.29936000  1.0 0.1001760048
C  C192  1  0.26236000  0.84026000  0.20064000  1.0 0.1001760048
C  C193  1  0.04720000  0.92660000  0.54820000  1.0 0.5788993135
C  C194  1  0.92660000  0.04720000  0.95180000  1.0 0.5788993135
C  C195  1  0.95280000  0.07340000  0.45180000  1.0 0.5788993135
C  C196  1  0.07340000  0.95280000  0.04820000  1.0 0.5788993135
C  C197  1  0.12195000  0.79635000  0.62715000  1.0 0.0897005725
C  C198  1  0.79635000  0.12195000  0.87285000  1.0 0.0897005725
C  C199  1  0.87805000  0.20365000  0.37285000  1.0 0.0897005725
C  C200  1  0.20365000  0.87805000  0.12715000  1.0 0.0897005725
C  C201  1  0.13515000  0.82107000  0.58850000  1.0 -0.1678007397
C  C202  1  0.82107000  0.13515000  0.91150000  1.0 -0.1678007397
C  C203  1  0.86485000  0.17893000  0.41150000  1.0 -0.1678007397
C  C204  1  0.17893000  0.86485000  0.08850000  1.0 -0.1678007397
C  C205  1  0.11123000  0.86329000  0.56317000  1.0 -0.0901913413
C  C206  1  0.86329000  0.11123000  0.93683000  1.0 -0.0901913413
C  C207  1  0.88877000  0.13671000  0.43683000  1.0 -0.0901913413
C  C208  1  0.13671000  0.88877000  0.06317000  1.0 -0.0901913413
C  C209  1  0.07411000  0.88079000  0.57643000  1.0 -0.0286114957
C  C210  1  0.88079000  0.07411000  0.92357000  1.0 -0.0286114957
C  C211  1  0.92589000  0.11921000  0.42357000  1.0 -0.0201116716
C  C212  1  0.11921000  0.92589000  0.07643000  1.0 -0.0286114957
C  C213  1  0.06091000  0.85607000  0.61500000  1.0 -0.0901913413
C  C214  1  0.85607000  0.06091000  0.88500000  1.0 -0.0901913413
C  C215  1  0.93909000  0.14393000  0.38500000  1.0 -0.0994796939
C  C216  1  0.14393000  0.93909000  0.11500000  1.0 -0.0901913413
C  C217  1  0.08483000  0.81385000  0.64040000  1.0 -0.1678007397
C  C218  1  0.81385000  0.08483000  0.85960000  1.0 -0.1678007397
C  C219  1  0.91517000  0.18615000  0.35960000  1.0 -0.1678007397
C  C220  1  0.18615000  0.91517000  0.14040000  1.0 -0.1678007397
C  C221  1  0.07420000  0.45240000  0.04830000  1.0 0.5730873123
C  C222  1  0.45240000  0.07420000  0.45170000  1.0 0.5730873123
C  C223  1  0.92580000  0.54760000  0.95170000  1.0 0.5730873123
C  C224  1  0.54760000  0.92580000  0.54830000  1.0 0.5730873123
C  C225  1  0.20338000  0.37780000  0.12640000  1.0 0.0897005725
C  C226  1  0.37780000  0.20338000  0.37360000  1.0 0.0897005725
C  C227  1  0.79662000  0.62220000  0.87360000  1.0 0.0897005725
C  C228  1  0.62220000  0.79662000  0.62640000  1.0 0.0897005725
C  C229  1  0.17834000  0.36490000  0.08770000  1.0 -0.160207339
C  C230  1  0.36490000  0.17834000  0.41230000  1.0 -0.160207339
C  C231  1  0.82166000  0.63510000  0.91230000  1.0 -0.160207339
C  C232  1  0.63510000  0.82166000  0.58770000  1.0 -0.160207339
C  C233  1  0.13606000  0.38896000  0.06275000  1.0 -0.0901913413
C  C234  1  0.38896000  0.13606000  0.43725000  1.0 -0.0901913413
C  C235  1  0.86394000  0.61104000  0.93725000  1.0 -0.0901913413
C  C236  1  0.61104000  0.86394000  0.56275000  1.0 -0.0901913413
C  C237  1  0.11884000  0.42592000  0.07640000  1.0 -0.0379708684
C  C238  1  0.42592000  0.11884000  0.42360000  1.0 -0.0379708684
C  C239  1  0.88116000  0.57408000  0.92360000  1.0 -0.0379708684
C  C240  1  0.57408000  0.88116000  0.57640000  1.0 -0.0379708684
C  C241  1  0.14388000  0.43882000  0.11510000  1.0 -0.0901913413
C  C242  1  0.43882000  0.14388000  0.38490000  1.0 -0.0901913413
C  C243  1  0.85612000  0.56118000  0.88490000  1.0 -0.0901913413
C  C244  1  0.56118000  0.85612000  0.61510000  1.0 -0.0901913413
C  C245  1  0.18615000  0.41477000  0.14006000  1.0 -0.1504339664
C  C246  1  0.41477000  0.18615000  0.35994000  1.0 -0.1504339664
C  C247  1  0.81385000  0.58523000  0.85994000  1.0 -0.1504339664
C  C248  1  0.58523000  0.81385000  0.64006000  1.0 -0.1504339664
C  C249  1  0.30581000  0.31865000  0.22426000  1.0 -0.0791931496
C  C250  1  0.31865000  0.30581000  0.27574000  1.0 -0.0791931496
C  C251  1  0.69419000  0.68135000  0.77574000  1.0 -0.0791931496
C  C252  1  0.68135000  0.69419000  0.72426000  1.0 -0.0791931496
C  C253  1  0.33853000  0.31047000  0.20070000  1.0 0.1737274564
C  C254  1  0.31047000  0.33853000  0.29930000  1.0 0.1737274564
C  C255  1  0.66147000  0.68953000  0.79930000  1.0 0.1737274564
C  C256  1  0.68953000  0.66147000  0.70070000  1.0 0.1737274564
C  C257  1  0.32690000  0.32242000  0.15340000  1.0 -0.0201116716
C  C258  1  0.32242000  0.32690000  0.34660000  1.0 -0.0201116716
C  C259  1  0.67310000  0.67758000  0.84660000  1.0 -0.0201116716
C  C260  1  0.67758000  0.67310000  0.65340000  1.0 -0.0201116716
C  C261  1  0.28256000  0.34256000  0.12969000  1.0 -0.1884570958
C  C262  1  0.34256000  0.28256000  0.37031000  1.0 -0.1884570958
C  C263  1  0.71744000  0.65744000  0.87031000  1.0 -0.1884570958
C  C264  1  0.65744000  0.71744000  0.62969000  1.0 -0.1884570958
C  C265  1  0.24984000  0.35074000  0.15320000  1.0 -0.0201116716
C  C266  1  0.35074000  0.24984000  0.34680000  1.0 -0.0201116716
C  C267  1  0.75016000  0.64926000  0.84680000  1.0 -0.0201116716
C  C268  1  0.64926000  0.75016000  0.65320000  1.0 -0.0201116716
C  C269  1  0.26147000  0.33879000  0.20050000  1.0 0.1795620855
C  C270  1  0.33879000  0.26147000  0.29950000  1.0 0.1795620855
C  C271  1  0.73853000  0.66121000  0.79950000  1.0 0.1795620855
C  C272  1  0.66121000  0.73853000  0.70050000  1.0 0.1795620855
C  C273  1  0.19126000  0.64026000  0.62699000  1.0 0.0791272576
C  C274  1  0.64026000  0.19126000  0.87301000  1.0 0.0791272576
C  C275  1  0.80874000  0.35974000  0.37301000  1.0 0.0791272576
C  C276  1  0.35974000  0.80874000  0.12699000  1.0 0.0791272576
C  C277  1  0.15903000  0.63477000  0.58830000  1.0 -0.160207339
C  C278  1  0.63477000  0.15903000  0.91170000  1.0 -0.160207339
C  C279  1  0.84097000  0.36523000  0.41170000  1.0 -0.160207339
C  C280  1  0.36523000  0.84097000  0.08830000  1.0 -0.160207339
C  C281  1  0.17056000  0.60522000  0.56300000  1.0 -0.0901913413
C  C282  1  0.60522000  0.17056000  0.93700000  1.0 -0.0901913413
C  C283  1  0.82944000  0.39478000  0.43700000  1.0 -0.0901913413
C  C284  1  0.39478000  0.82944000  0.06300000  1.0 -0.0901913413
C  C285  1  0.21432000  0.58116000  0.57649000  1.0 -0.0201116716
C  C286  1  0.58116000  0.21432000  0.92351000  1.0 -0.0201116716
C  C287  1  0.78568000  0.41884000  0.42351000  1.0 -0.0201116716
C  C288  1  0.41884000  0.78568000  0.07649000  1.0 -0.0201116716
C  C289  1  0.24656000  0.58664000  0.61520000  1.0 -0.0994796939
C  C290  1  0.58664000  0.24656000  0.88480000  1.0 -0.0994796939
C  C291  1  0.75344000  0.41336000  0.38480000  1.0 -0.0994796939
C  C292  1  0.41336000  0.75344000  0.11520000  1.0 -0.0994796939
C  C293  1  0.23502000  0.61620000  0.64048000  1.0 -0.1381960881
C  C294  1  0.61620000  0.23502000  0.85952000  1.0 -0.1381960881
C  C295  1  0.76498000  0.38380000  0.35952000  1.0 -0.1381960881
C  C296  1  0.38380000  0.76498000  0.14048000  1.0 -0.1381960881
C  C297  1  0.35995000  0.30863000  0.12698000  1.0 0.0897005725
C  C298  1  0.30863000  0.35995000  0.37302000  1.0 0.1001760048
C  C299  1  0.64005000  0.69137000  0.87302000  1.0 0.1001760048
C  C300  1  0.69137000  0.64005000  0.62698000  1.0 0.0897005725
C  C301  1  0.38388000  0.26480000  0.14026000  1.0 -0.160207339
C  C302  1  0.26480000  0.38388000  0.35974000  1.0 -0.160207339
C  C303  1  0.61612000  0.73520000  0.85974000  1.0 -0.160207339
C  C304  1  0.73520000  0.61612000  0.64026000  1.0 -0.160207339
C  C305  1  0.41351000  0.25341000  0.11500000  1.0 -0.0901913413
C  C306  1  0.25341000  0.41351000  0.38500000  1.0 -0.0901913413
C  C307  1  0.58649000  0.74659000  0.88500000  1.0 -0.0901913413
C  C308  1  0.74659000  0.58649000  0.61500000  1.0 -0.0901913413
C  C309  1  0.41923000  0.28585000  0.07649000  1.0 -0.0379708684
C  C310  1  0.28585000  0.41923000  0.42351000  1.0 -0.0379708684
C  C311  1  0.58077000  0.71415000  0.92351000  1.0 -0.0379708684
C  C312  1  0.71415000  0.58077000  0.57649000  1.0 -0.0379708684
C  C313  1  0.39530000  0.32968000  0.06321000  1.0 -0.0901913413
C  C314  1  0.32968000  0.39530000  0.43679000  1.0 -0.0901913413
C  C315  1  0.60470000  0.67032000  0.93679000  1.0 -0.0901913413
C  C316  1  0.67032000  0.60470000  0.56321000  1.0 -0.0901913413
C  C317  1  0.36567000  0.34107000  0.08840000  1.0 -0.160207339
C  C318  1  0.34107000  0.36567000  0.41160000  1.0 -0.160207339
C  C319  1  0.63433000  0.65893000  0.91160000  1.0 -0.160207339
C  C320  1  0.65893000  0.63433000  0.58840000  1.0 -0.160207339
C  C321  1  0.18620000  0.80400000  0.72080000  1.0 -0.1089448893
C  C322  1  0.80400000  0.18620000  0.77920000  1.0 -0.1089448893
C  C323  1  0.81380000  0.19600000  0.27920000  1.0 -0.0994796939
C  C324  1  0.19600000  0.81380000  0.22080000  1.0 -0.0994796939
C  C325  1  0.18930000  0.08690000  0.72530000  1.0 -0.160207339
C  C326  1  0.08690000  0.18930000  0.77470000  1.0 -0.160207339
C  C327  1  0.81070000  0.91310000  0.27470000  1.0 -0.160207339
C  C328  1  0.91310000  0.81070000  0.22530000  1.0 -0.160207339
C  C329  1  0.19670000  0.31530000  0.23520000  1.0 -0.0791931496
C  C330  1  0.31530000  0.19670000  0.26480000  1.0 -0.0791931496
C  C331  1  0.80330000  0.68470000  0.76480000  1.0 -0.0791931496
C  C332  1  0.68470000  0.80330000  0.73520000  1.0 -0.0791931496
C  C333  1  0.18930000  0.30010000  0.28030000  1.0 0.0604836915
C  C334  1  0.30010000  0.18930000  0.21970000  1.0 0.0604836915
C  C335  1  0.81070000  0.69990000  0.71970000  1.0 0.0604836915
C  C336  1  0.69990000  0.81070000  0.78030000  1.0 0.0488077432
C  C337  1  0.12680000  0.23880000  0.26640000  1.0 0.1205069833
C  C338  1  0.23880000  0.12680000  0.23360000  1.0 0.1205069833
C  C339  1  0.87320000  0.76120000  0.73360000  1.0 0.1205069833
C  C340  1  0.76120000  0.87320000  0.76640000  1.0 0.1205069833
C  C341  1  0.11880000  0.18720000  0.27970000  1.0 0.0393522787
C  C342  1  0.18720000  0.11880000  0.22030000  1.0 0.0393522787
C  C343  1  0.88120000  0.81280000  0.72030000  1.0 0.0393522787
C  C344  1  0.81280000  0.88120000  0.77970000  1.0 0.0393522787
C  C345  1  0.08920000  0.12380000  0.25280000  1.0 0.067932
C  C346  1  0.12380000  0.08920000  0.24720000  1.0 0.067932
C  C347  1  0.91080000  0.87620000  0.74720000  1.0 0.0604836915
C  C348  1  0.87620000  0.91080000  0.75280000  1.0 0.067932
C  C349  1  0.17670000  0.04010000  0.73300000  1.0 0.1503001678
C  C350  1  0.04010000  0.17670000  0.76700000  1.0 0.1611640524
C  C351  1  0.82330000  0.95990000  0.26700000  1.0 0.1503001678
C  C352  1  0.95990000  0.82330000  0.23300000  1.0 0.1503001678
C  C353  1  0.09310000  0.04830000  0.73470000  1.0 0.0791272576
C  C354  1  0.04830000  0.09310000  0.76530000  1.0 0.0604836915
C  C355  1  0.90690000  0.95170000  0.26530000  1.0 0.067932
C  C356  1  0.95170000  0.90690000  0.23470000  1.0 0.067932
C  C357  1  0.06550000  0.04590000  0.68860000  1.0 0.1503001678
C  C358  1  0.04590000  0.06550000  0.81140000  1.0 0.1503001678
C  C359  1  0.93450000  0.95410000  0.31140000  1.0 0.1379160468
C  C360  1  0.95410000  0.93450000  0.18860000  1.0 0.1379160468
C  C361  1  0.02060000  0.00440000  0.73260000  1.0 0.0089424739
C  C362  1  0.00440000  0.02060000  0.76740000  1.0 0.0178455586
C  C363  1  0.97940000  0.99560000  0.26740000  1.0 0.0089424739
C  C364  1  0.99560000  0.97940000  0.23260000  1.0 0.0089424739
C  C365  1  0.18730000  0.83450000  0.74940000  1.0 0.1379160468
C  C366  1  0.83450000  0.18730000  0.75060000  1.0 0.1379160468
C  C367  1  0.81270000  0.16550000  0.25060000  1.0 0.1379160468
C  C368  1  0.16550000  0.81270000  0.24940000  1.0 0.1379160468
C  C369  1  0.08830000  0.83290000  0.74810000  1.0 0.0295246392
C  C370  1  0.83290000  0.08830000  0.75190000  1.0 0.0393522787
C  C371  1  0.91170000  0.16710000  0.25190000  1.0 0.0295246392
C  C372  1  0.16710000  0.91170000  0.24810000  1.0 0.0295246392
C  C373  1  0.03770000  0.82190000  0.73550000  1.0 0.1105570353
C  C374  1  0.82190000  0.03770000  0.76450000  1.0 0.1105570353
C  C375  1  0.96230000  0.17810000  0.26450000  1.0 0.1105570353
C  C376  1  0.17810000  0.96230000  0.23550000  1.0 0.1001760048
C  C377  1  0.01050000  0.72490000  0.74030000  1.0 -0.0286114957
C  C378  1  0.72490000  0.01050000  0.75970000  1.0 -0.0286114957
C  C379  1  0.98950000  0.27510000  0.25970000  1.0 -0.0286114957
C  C380  1  0.27510000  0.98950000  0.24030000  1.0 -0.0379708684
C  C381  1  0.03450000  0.67610000  0.75720000  1.0 0.1292590278
C  C382  1  0.67610000  0.03450000  0.74280000  1.0 0.1292590278
C  C383  1  0.96550000  0.32390000  0.24280000  1.0 0.1292590278
C  C384  1  0.32390000  0.96550000  0.25720000  1.0 0.1205069833
C  C385  1  0.01450000  0.57010000  0.76170000  1.0 0.1611640524
C  C386  1  0.57010000  0.01450000  0.73830000  1.0 0.1611640524
C  C387  1  0.98550000  0.42990000  0.23830000  1.0 0.1611640524
C  C388  1  0.42990000  0.98550000  0.26170000  1.0 0.1611640524
C  C389  1  0.05140000  0.53300000  0.77110000  1.0 -0.0901913413
C  C390  1  0.53300000  0.05140000  0.72890000  1.0 -0.0901913413
C  C391  1  0.94860000  0.46700000  0.22890000  1.0 -0.1089448893
C  C392  1  0.46700000  0.94860000  0.27110000  1.0 -0.0901913413
C  C393  1  0.09780000  0.61520000  0.75060000  1.0 -0.0506870414
C  C394  1  0.61520000  0.09780000  0.74940000  1.0 -0.0506870414
C  C395  1  0.90220000  0.38480000  0.24940000  1.0 -0.0506870414
C  C396  1  0.38480000  0.90220000  0.25060000  1.0 -0.0506870414
C  C397  1  0.11860000  0.56920000  0.76550000  1.0 -0.0023209101
C  C398  1  0.56920000  0.11860000  0.73450000  1.0 -0.0023209101
C  C399  1  0.88140000  0.43080000  0.23450000  1.0 -0.0110903177
C  C400  1  0.43080000  0.88140000  0.26550000  1.0 -0.0023209101
C  C401  1  0.08170000  0.68430000  0.77250000  1.0 -0.0506870414
C  C402  1  0.68430000  0.08170000  0.72750000  1.0 -0.059591829
C  C403  1  0.91830000  0.31570000  0.22750000  1.0 -0.0506870414
C  C404  1  0.31570000  0.91830000  0.27250000  1.0 -0.059591829
C  C405  1  0.17840000  0.58340000  0.72620000  1.0 -0.1089448893
C  C406  1  0.58340000  0.17840000  0.77380000  1.0 -0.1089448893
C  C407  1  0.82160000  0.41660000  0.27380000  1.0 -0.1089448893
C  C408  1  0.41660000  0.82160000  0.22620000  1.0 -0.1089448893
C  C409  1  0.30370000  0.67690000  0.77200000  1.0 -0.0379708684
C  C410  1  0.67690000  0.30370000  0.72800000  1.0 -0.0379708684
C  C411  1  0.69630000  0.32310000  0.22800000  1.0 -0.0379708684
C  C412  1  0.32310000  0.69630000  0.27200000  1.0 -0.0379708684
C  C413  1  0.18200000  0.30280000  0.72460000  1.0 -0.0286114957
C  C414  1  0.30280000  0.18200000  0.77540000  1.0 -0.0286114957
C  C415  1  0.81800000  0.69720000  0.27540000  1.0 -0.0201116716
C  C416  1  0.69720000  0.81800000  0.22460000  1.0 -0.0286114957
C  C417  1  0.58230000  0.67950000  0.77960000  1.0 -0.0994796939
C  C418  1  0.67950000  0.58230000  0.72040000  1.0 -0.0994796939
C  C419  1  0.41770000  0.32050000  0.22040000  1.0 -0.0994796939
C  C420  1  0.32050000  0.41770000  0.27960000  1.0 -0.1089448893
C  C421  1  0.54040000  0.70080000  0.74910000  1.0 0.0393522787
C  C422  1  0.70080000  0.54040000  0.75090000  1.0 0.0393522787
C  C423  1  0.45960000  0.29920000  0.25090000  1.0 0.0393522787
C  C424  1  0.29920000  0.45960000  0.24910000  1.0 0.0295246392
C  C425  1  0.52890000  0.61650000  0.75180000  1.0 -0.0506870414
C  C426  1  0.61650000  0.52890000  0.74820000  1.0 -0.0379708684
C  C427  1  0.47110000  0.38350000  0.24820000  1.0 -0.0379708684
C  C428  1  0.38350000  0.47110000  0.25180000  1.0 -0.0506870414
C  C429  1  0.51620000  0.58300000  0.79140000  1.0 0.0604836915
C  C430  1  0.58300000  0.51620000  0.70860000  1.0 0.067932
C  C431  1  0.48380000  0.41700000  0.20860000  1.0 0.0604836915
C  C432  1  0.41700000  0.48380000  0.29140000  1.0 0.0488077432
C  C433  1  0.52300000  0.52160000  0.77420000  1.0 -0.0110903177
C  C434  1  0.52160000  0.52300000  0.72580000  1.0 0.0089424739
C  C435  1  0.47700000  0.47840000  0.22580000  1.0 0.0393522787
C  C436  1  0.47840000  0.47700000  0.27420000  1.0 0.0089424739
C  C437  1  0.14030000  0.33010000  0.71870000  1.0 0.1909440512
C  C438  1  0.33010000  0.14030000  0.78130000  1.0 0.1909440512
C  C439  1  0.85970000  0.66990000  0.28130000  1.0 0.1966888767
C  C440  1  0.66990000  0.85970000  0.21870000  1.0 0.1909440512
C  C441  1  0.21700000  0.33260000  0.78890000  1.0 -0.1157829005
C  C442  1  0.33260000  0.21700000  0.71110000  1.0 -0.1089448893
C  C443  1  0.78300000  0.66740000  0.21110000  1.0 -0.1089448893
C  C444  1  0.66740000  0.78300000  0.28890000  1.0 -0.1089448893
C  C445  1  0.25880000  0.35760000  0.77540000  1.0 0.0604836915
C  C446  1  0.35760000  0.25880000  0.72460000  1.0 0.0604836915
C  C447  1  0.74120000  0.64240000  0.22460000  1.0 0.0604836915
C  C448  1  0.64240000  0.74120000  0.27540000  1.0 0.0604836915
C  C449  1  0.33680000  0.35920000  0.76520000  1.0 0.1105570353
C  C450  1  0.35920000  0.33680000  0.73480000  1.0 0.1105570353
C  C451  1  0.66320000  0.64080000  0.23480000  1.0 0.1105570353
C  C452  1  0.64080000  0.66320000  0.26520000  1.0 0.1105570353
C  C453  1  0.15250000  0.50570000  0.75810000  1.0 -0.1504339664
C  C454  1  0.50570000  0.15250000  0.74190000  1.0 -0.1504339664
C  C455  1  0.84750000  0.49430000  0.24190000  1.0 -0.1678007397
C  C456  1  0.49430000  0.84750000  0.25810000  1.0 -0.1504339664
C  C457  1  0.19700000  0.53720000  0.74350000  1.0 0.1909440512
C  C458  1  0.53720000  0.19700000  0.75650000  1.0 0.1909440512
C  C459  1  0.80300000  0.46280000  0.25650000  1.0 0.1909440512
C  C460  1  0.46280000  0.80300000  0.24350000  1.0 0.1909440512
C  C461  1  0.28600000  0.53940000  0.72650000  1.0 -0.0994796939
C  C462  1  0.53940000  0.28600000  0.77350000  1.0 -0.0994796939
C  C463  1  0.71400000  0.46060000  0.27350000  1.0 -0.0994796939
C  C464  1  0.46060000  0.71400000  0.22650000  1.0 -0.0994796939
C  C465  1  0.30350000  0.58930000  0.71610000  1.0 0.1292590278
C  C466  1  0.58930000  0.30350000  0.78390000  1.0 0.1292590278
C  C467  1  0.69650000  0.41070000  0.28390000  1.0 0.1292590278
C  C468  1  0.41070000  0.69650000  0.21610000  1.0 0.1292590278
C  C469  1  0.35580000  0.66220000  0.73800000  1.0 -0.0286114957
C  C470  1  0.66220000  0.35580000  0.76200000  1.0 -0.0201116716
C  C471  1  0.64420000  0.33780000  0.26200000  1.0 -0.0286114957
C  C472  1  0.33780000  0.64420000  0.23800000  1.0 -0.0286114957
C  C473  1  0.34290000  0.69890000  0.75920000  1.0 0.1737274564
C  C474  1  0.69890000  0.34290000  0.74080000  1.0 0.1737274564
C  C475  1  0.65710000  0.30110000  0.24080000  1.0 0.1737274564
C  C476  1  0.30110000  0.65710000  0.25920000  1.0 0.1737274564
C  C477  1  0.34480000  0.79800000  0.74930000  1.0 -0.1089448893
C  C478  1  0.79800000  0.34480000  0.75070000  1.0 -0.1089448893
C  C479  1  0.65520000  0.20200000  0.25070000  1.0 -0.1089448893
C  C480  1  0.20200000  0.65520000  0.24930000  1.0 -0.1157829005
C  C481  1  0.31580000  0.82720000  0.74210000  1.0 0.0791272576
C  C482  1  0.82720000  0.31580000  0.75790000  1.0 0.0791272576
C  C483  1  0.68420000  0.17280000  0.25790000  1.0 0.0897005725
C  C484  1  0.17280000  0.68420000  0.24210000  1.0 0.0791272576
C  C485  1  0.23640000  0.84440000  0.77060000  1.0 0.0897005725
C  C486  1  0.84440000  0.23640000  0.72940000  1.0 0.0897005725
C  C487  1  0.76360000  0.15560000  0.22940000  1.0 0.0897005725
C  C488  1  0.15560000  0.76360000  0.27060000  1.0 0.0791272576
C  C489  1  0.26290000  0.61550000  0.74100000  1.0 -0.059591829
C  C490  1  0.61550000  0.26290000  0.75900000  1.0 -0.059591829
C  C491  1  0.73710000  0.38450000  0.25900000  1.0 -0.059591829
C  C492  1  0.38450000  0.73710000  0.24100000  1.0 -0.059591829
C  C493  1  0.30000000  0.63980000  0.72470000  1.0 0.067932
C  C494  1  0.63980000  0.30000000  0.77530000  1.0 0.067932
C  C495  1  0.70000000  0.36020000  0.27530000  1.0 0.067932
C  C496  1  0.36020000  0.70000000  0.22470000  1.0 0.067932
C  C497  1  0.26820000  0.80000000  0.76000000  1.0 0.1379160468
C  C498  1  0.80000000  0.26820000  0.74000000  1.0 0.1379160468
C  C499  1  0.73180000  0.20000000  0.24000000  1.0 0.1379160468
C  C500  1  0.20000000  0.73180000  0.26000000  1.0 0.1379160468
C  C501  1  0.28160000  0.75680000  0.75010000  1.0 -0.059591829
C  C502  1  0.75680000  0.28160000  0.74990000  1.0 -0.059591829
C  C503  1  0.71840000  0.24320000  0.24990000  1.0 -0.059591829
C  C504  1  0.24320000  0.71840000  0.25010000  1.0 -0.0700460552
C  C505  1  0.10900000  0.77480000  0.73930000  1.0 -0.0110903177
C  C506  1  0.77480000  0.10900000  0.76070000  1.0 -0.0110903177
C  C507  1  0.89100000  0.22520000  0.26070000  1.0 -0.0110903177
C  C508  1  0.22520000  0.89100000  0.23930000  1.0 -0.0110903177
C  C509  1  0.05960000  0.76600000  0.72720000  1.0 0.0178455586
C  C510  1  0.76600000  0.05960000  0.77280000  1.0 0.0178455586
C  C511  1  0.94040000  0.23400000  0.27280000  1.0 0.0178455586
C  C512  1  0.23400000  0.94040000  0.22720000  1.0 0.0178455586
O  O1  1  0.43814000  0.76854000  0.94000000  1.0 -0.5071944315
O  O2  1  0.76854000  0.43814000  0.56000000  1.0 -0.5192245193
O  O3  1  0.56186000  0.23146000  0.06000000  1.0 -0.5192245193
O  O4  1  0.23146000  0.56186000  0.44000000  1.0 -0.5192245193
O  O5  1  0.44880000  0.69590000  0.98500000  1.0 -0.5395642806
O  O6  1  0.69590000  0.44880000  0.51500000  1.0 -0.5395642806
O  O7  1  0.55120000  0.30410000  0.01500000  1.0 -0.5395642806
O  O8  1  0.30410000  0.55120000  0.48500000  1.0 -0.5395642806
O  O9  1  0.26914000  0.43782000  0.56000000  1.0 -0.5310317378
O  O10  1  0.43782000  0.26914000  0.94000000  1.0 -0.5310317378
O  O11  1  0.73086000  0.56218000  0.44000000  1.0 -0.5310317378
O  O12  1  0.56218000  0.73086000  0.06000000  1.0 -0.5310317378
O  O13  1  0.19583000  0.44893000  0.51600000  1.0 -0.5310317378
O  O14  1  0.44893000  0.19583000  0.98400000  1.0 -0.5310317378
O  O15  1  0.80417000  0.55107000  0.48400000  1.0 -0.5310317378
O  O16  1  0.55107000  0.80417000  0.01600000  1.0 -0.5310317378
O  O17  1  0.26941000  0.53105000  0.56060000  1.0 -0.5395642806
O  O18  1  0.53105000  0.26941000  0.93940000  1.0 -0.5395642806
O  O19  1  0.73059000  0.46895000  0.43940000  1.0 -0.5395642806
O  O20  1  0.46895000  0.73059000  0.06060000  1.0 -0.5395642806
O  O21  1  0.19567000  0.54345000  0.51540000  1.0 -0.5395642806
O  O22  1  0.54345000  0.19567000  0.98460000  1.0 -0.5395642806
O  O23  1  0.80433000  0.45655000  0.48460000  1.0 -0.5395642806
O  O24  1  0.45655000  0.80433000  0.01540000  1.0 -0.5395642806
O  O25  1  0.45693000  0.30415000  0.01600000  1.0 -0.5192245193
O  O26  1  0.30415000  0.45693000  0.48400000  1.0 -0.5192245193
O  O27  1  0.54307000  0.69585000  0.98400000  1.0 -0.5192245193
O  O28  1  0.69585000  0.54307000  0.51600000  1.0 -0.5192245193
O  O29  1  0.46792000  0.23202000  0.05990000  1.0 -0.5310317378
O  O30  1  0.23202000  0.46792000  0.44010000  1.0 -0.5310317378
O  O31  1  0.53208000  0.76798000  0.94010000  1.0 -0.5310317378
O  O32  1  0.76798000  0.53208000  0.55990000  1.0 -0.5310317378
O  O33  1  0.05107000  0.43775000  0.01570000  1.0 -0.5192245193
O  O34  1  0.43775000  0.05107000  0.48430000  1.0 -0.5192245193
O  O35  1  0.94893000  0.56225000  0.98430000  1.0 -0.5192245193
O  O36  1  0.56225000  0.94893000  0.51570000  1.0 -0.5192245193
O  O37  1  0.06200000  0.48880000  0.06030000  1.0 -0.5469808617
O  O38  1  0.48880000  0.06200000  0.43970000  1.0 -0.5469808617
O  O39  1  0.93800000  0.51120000  0.93970000  1.0 -0.5469808617
O  O40  1  0.51120000  0.93800000  0.56030000  1.0 -0.5469808617
O  O41  1  0.03169000  0.51195000  0.93960000  1.0 -0.5469808617
O  O42  1  0.51195000  0.03169000  0.56040000  1.0 -0.5469808617
O  O43  1  0.96831000  0.48805000  0.06040000  1.0 -0.5469808617
O  O44  1  0.48805000  0.96831000  0.43960000  1.0 -0.5469808617
O  O45  1  0.04305000  0.56201000  0.98430000  1.0 -0.4971595172
O  O46  1  0.56201000  0.04305000  0.51570000  1.0 -0.4971595172
O  O47  1  0.95695000  0.43799000  0.01570000  1.0 -0.4971595172
O  O48  1  0.43799000  0.95695000  0.48430000  1.0 -0.4971595172
O  O49  1  0.06192000  0.94902000  0.51500000  1.0 -0.5310317378
O  O50  1  0.94902000  0.06192000  0.98500000  1.0 -0.5310317378
O  O51  1  0.93808000  0.05098000  0.48500000  1.0 -0.5310317378
O  O52  1  0.05098000  0.93808000  0.01500000  1.0 -0.5310317378
O  O53  1  0.01095000  0.93883000  0.56060000  1.0 -0.5601438422
O  O54  1  0.93883000  0.01095000  0.93940000  1.0 -0.5601438422
O  O55  1  0.98905000  0.06117000  0.43940000  1.0 -0.5601438422
O  O56  1  0.06117000  0.98905000  0.06060000  1.0 -0.5601438422
O  O57  1  0.06238000  0.04310000  0.51570000  1.0 -0.5071944315
O  O58  1  0.04310000  0.06238000  0.98430000  1.0 -0.5071944315
O  O59  1  0.93762000  0.95690000  0.48430000  1.0 -0.5071944315
O  O60  1  0.95690000  0.93762000  0.01570000  1.0 -0.5071944315
O  O61  1  0.01152000  0.03180000  0.56069000  1.0 -0.5469808617
O  O62  1  0.03180000  0.01152000  0.93931000  1.0 -0.5469808617
O  O63  1  0.98848000  0.96820000  0.43931000  1.0 -0.5469808617
O  O64  1  0.96820000  0.98848000  0.06069000  1.0 -0.5469808617
O  O65  1  0.15280000  0.77100000  0.72380000  1.0 -0.0791931496
O  O66  1  0.77100000  0.15280000  0.77620000  1.0 -0.0791931496
O  O67  1  0.84720000  0.22900000  0.27620000  1.0 -0.0791931496
O  O68  1  0.22900000  0.84720000  0.22380000  1.0 -0.0791931496
O  O69  1  0.11700000  0.65180000  0.77480000  1.0 -0.0700460552
O  O70  1  0.65180000  0.11700000  0.72520000  1.0 -0.0700460552
O  O71  1  0.88300000  0.34820000  0.22520000  1.0 -0.0700460552
O  O72  1  0.34820000  0.88300000  0.27480000  1.0 -0.0700460552
O  O73  1  0.15110000  0.11690000  0.72380000  1.0 -0.160207339
O  O74  1  0.11690000  0.15110000  0.77620000  1.0 -0.160207339
O  O75  1  0.84890000  0.88310000  0.27620000  1.0 -0.160207339
O  O76  1  0.88310000  0.84890000  0.22380000  1.0 -0.160207339
O  O77  1  0.22940000  0.34940000  0.22430000  1.0 -0.1504339664
O  O78  1  0.34940000  0.22940000  0.27570000  1.0 -0.1504339664
O  O79  1  0.77060000  0.65060000  0.77570000  1.0 -0.1504339664
O  O80  1  0.65060000  0.77060000  0.72430000  1.0 -0.1504339664
O  O81  1  0.15130000  0.26990000  0.29490000  1.0 0.0178455586
O  O82  1  0.26990000  0.15130000  0.20510000  1.0 0.0178455586
O  O83  1  0.84870000  0.73010000  0.70510000  1.0 0.0178455586
O  O84  1  0.73010000  0.84870000  0.79490000  1.0 0.0295246392
O  O85  1  0.07740000  0.17540000  0.24470000  1.0 0.0295246392
O  O86  1  0.17540000  0.07740000  0.25530000  1.0 0.0295246392
O  O87  1  0.92260000  0.82460000  0.75530000  1.0 0.0393522787
O  O88  1  0.82460000  0.92260000  0.74470000  1.0 0.0295246392
O  O89  1  0.14640000  0.02320000  0.76100000  1.0 -0.0700460552
O  O90  1  0.02320000  0.14640000  0.73900000  1.0 -0.0700460552
O  O91  1  0.85360000  0.97680000  0.23900000  1.0 -0.0700460552
O  O92  1  0.97680000  0.85360000  0.26100000  1.0 -0.0700460552
O  O93  1  0.01540000  0.03700000  0.68750000  1.0 -0.0901913413
O  O94  1  0.03700000  0.01540000  0.81250000  1.0 -0.0901913413
O  O95  1  0.98460000  0.96300000  0.31250000  1.0 -0.0901913413
O  O96  1  0.96300000  0.98460000  0.18750000  1.0 -0.0901913413
O  O97  1  0.14300000  0.83980000  0.76410000  1.0 -0.0901913413
O  O98  1  0.83980000  0.14300000  0.73590000  1.0 -0.0901913413
O  O99  1  0.85700000  0.16020000  0.23590000  1.0 -0.0901913413
O  O100  1  0.16020000  0.85700000  0.26410000  1.0 -0.0791931496
O  O101  1  0.02160000  0.77220000  0.74840000  1.0 -0.0286114957
O  O102  1  0.77220000  0.02160000  0.75160000  1.0 -0.0286114957
O  O103  1  0.97840000  0.22780000  0.25160000  1.0 -0.0286114957
O  O104  1  0.22780000  0.97840000  0.24840000  1.0 -0.0201116716
O  O105  1  0.02970000  0.61970000  0.77850000  1.0 -0.1381960881
O  O106  1  0.61970000  0.02970000  0.72150000  1.0 -0.1381960881
O  O107  1  0.97030000  0.38030000  0.22150000  1.0 -0.1381960881
O  O108  1  0.38030000  0.97030000  0.27850000  1.0 -0.1381960881
O  O109  1  0.10140000  0.53060000  0.75530000  1.0 0.0791272576
O  O110  1  0.53060000  0.10140000  0.74470000  1.0 0.0791272576
O  O111  1  0.89860000  0.46940000  0.24470000  1.0 0.0897005725
O  O112  1  0.46940000  0.89860000  0.25530000  1.0 0.0791272576
O  O113  1  0.21080000  0.61780000  0.72470000  1.0 -0.0791931496
O  O114  1  0.61780000  0.21080000  0.77530000  1.0 -0.0791931496
O  O115  1  0.78920000  0.38220000  0.27530000  1.0 -0.0791931496
O  O116  1  0.38220000  0.78920000  0.22470000  1.0 -0.0791931496
O  O117  1  0.27100000  0.70980000  0.77580000  1.0 -0.0700460552
O  O118  1  0.70980000  0.27100000  0.72420000  1.0 -0.0700460552
O  O119  1  0.72900000  0.29020000  0.22420000  1.0 -0.0700460552
O  O120  1  0.29020000  0.72900000  0.27580000  1.0 -0.0700460552
O  O121  1  0.21510000  0.26830000  0.72520000  1.0 -0.1678007397
O  O122  1  0.26830000  0.21510000  0.77480000  1.0 -0.1678007397
O  O123  1  0.78490000  0.73170000  0.27480000  1.0 -0.1678007397
O  O124  1  0.73170000  0.78490000  0.22520000  1.0 -0.1678007397
O  O125  1  0.61750000  0.71130000  0.77590000  1.0 -0.129125878
O  O126  1  0.71130000  0.61750000  0.72410000  1.0 -0.129125878
O  O127  1  0.38250000  0.28870000  0.22410000  1.0 -0.129125878
O  O128  1  0.28870000  0.38250000  0.27590000  1.0 -0.129125878
O  O129  1  0.50870000  0.66070000  0.75800000  1.0 -0.0201116716
O  O130  1  0.66070000  0.50870000  0.74200000  1.0 -0.0286114957
O  O131  1  0.49130000  0.33930000  0.24200000  1.0 -0.0286114957
O  O132  1  0.33930000  0.49130000  0.25800000  1.0 -0.0201116716
O  O133  1  0.48040000  0.55400000  0.76860000  1.0 0.067932
O  O134  1  0.55400000  0.48040000  0.73140000  1.0 0.0393522787
O  O135  1  0.51960000  0.44600000  0.23140000  1.0 0.0393522787
O  O136  1  0.44600000  0.51960000  0.26860000  1.0 0.0604836915
O  O137  1  0.17350000  0.35990000  0.74410000  1.0 0.0393522787
O  O138  1  0.35990000  0.17350000  0.75590000  1.0 0.0393522787
O  O139  1  0.82650000  0.64010000  0.25590000  1.0 0.0295246392
O  O140  1  0.64010000  0.82650000  0.24410000  1.0 0.0295246392
O  O141  1  0.28840000  0.34000000  0.74790000  1.0 -0.0286114957
O  O142  1  0.34000000  0.28840000  0.75210000  1.0 -0.0286114957
O  O143  1  0.71160000  0.66000000  0.25210000  1.0 -0.0286114957
O  O144  1  0.66000000  0.71160000  0.24790000  1.0 -0.0286114957
O  O145  1  0.23150000  0.53210000  0.71810000  1.0 -0.129125878
O  O146  1  0.53210000  0.23150000  0.78190000  1.0 -0.129125878
O  O147  1  0.76850000  0.46790000  0.28190000  1.0 -0.129125878
O  O148  1  0.46790000  0.76850000  0.21810000  1.0 -0.129125878
O  O149  1  0.34430000  0.61370000  0.73830000  1.0 -0.059591829
O  O150  1  0.61370000  0.34430000  0.76170000  1.0 -0.059591829
O  O151  1  0.65570000  0.38630000  0.26170000  1.0 -0.059591829
O  O152  1  0.38630000  0.65570000  0.23830000  1.0 -0.059591829
O  O153  1  0.35520000  0.74600000  0.75940000  1.0 -0.0901913413
O  O154  1  0.74600000  0.35520000  0.74060000  1.0 -0.0901913413
O  O155  1  0.64480000  0.25400000  0.24060000  1.0 -0.0901913413
O  O156  1  0.25400000  0.64480000  0.25940000  1.0 -0.0901913413
O  O157  1  0.28080000  0.84800000  0.75690000  1.0 -0.0201116716
O  O158  1  0.84800000  0.28080000  0.74310000  1.0 -0.0201116716
O  O159  1  0.71920000  0.15200000  0.24310000  1.0 -0.0201116716
O  O160  1  0.15200000  0.71920000  0.25690000  1.0 -0.0110903177
