# DDEC6 charges by PACMAN v1.1 (https://github.com/mtap-research/PACMAN-charge/)
data_XOVRAE_ASR_pacman
_symmetry_space_group_name_H-M   'P 1'
_cell_length_a   15.11730000
_cell_length_b   22.94600000
_cell_length_c   45.09700000
_cell_angle_alpha   90.00000000
_cell_angle_beta   90.00000000
_cell_angle_gamma   90.00000000
_symmetry_Int_Tables_number   1
_chemical_formula_structural   Zn4Mo12PH30C39(N3O14)2
_chemical_formula_sum   'Zn32 Mo96 P8 H240 C312 N48 O224'
_cell_volume   15643.31797288
_cell_formula_units_Z   8
loop_
 _symmetry_equiv_pos_site_id
 _symmetry_equiv_pos_as_xyz
  1  'x, y, z'
loop_
 _atom_site_type_symbol
 _atom_site_label
 _atom_site_symmetry_multiplicity
 _atom_site_fract_x
 _atom_site_fract_y
 _atom_site_fract_z
 _atom_site_occupancy
 _atom_site_charge
Zn  Zn1  1  0.73879000  0.16885000  0.65250000  1.0 0.9132683589
Zn  Zn2  1  0.94227000  0.22682000  0.54308000  1.0 0.9157116237
Zn  Zn3  1  0.10785000  0.19513000  0.66140000  1.0 0.8993452909
Zn  Zn4  1  0.88753000  0.40203000  0.62935000  1.0 0.8993452909
Zn  Zn5  1  0.73879000  0.83115000  0.84750000  1.0 0.9132683589
Zn  Zn6  1  0.94227000  0.77318000  0.95692000  1.0 0.9157116237
Zn  Zn7  1  0.10785000  0.80487000  0.83860000  1.0 0.8993452909
Zn  Zn8  1  0.88753000  0.59797000  0.87065000  1.0 0.8993452909
Zn  Zn9  1  0.26121000  0.83115000  0.34750000  1.0 0.9132683589
Zn  Zn10  1  0.05773000  0.77318000  0.45692000  1.0 0.9132683589
Zn  Zn11  1  0.89215000  0.80487000  0.33860000  1.0 0.8993452909
Zn  Zn12  1  0.11247000  0.59797000  0.37065000  1.0 0.8993452909
Zn  Zn13  1  0.26121000  0.16885000  0.15250000  1.0 0.9132683589
Zn  Zn14  1  0.05773000  0.22682000  0.04308000  1.0 0.9132683589
Zn  Zn15  1  0.89215000  0.19513000  0.16140000  1.0 0.8993452909
Zn  Zn16  1  0.11247000  0.40203000  0.12935000  1.0 0.8993452909
Zn  Zn17  1  0.76121000  0.16885000  0.34750000  1.0 0.9132683589
Zn  Zn18  1  0.55773000  0.22682000  0.45692000  1.0 0.9157116237
Zn  Zn19  1  0.39215000  0.19513000  0.33860000  1.0 0.8993452909
Zn  Zn20  1  0.61247000  0.40203000  0.37065000  1.0 0.8993452909
Zn  Zn21  1  0.76121000  0.83115000  0.15250000  1.0 0.9132683589
Zn  Zn22  1  0.55773000  0.77318000  0.04308000  1.0 0.9157116237
Zn  Zn23  1  0.39215000  0.80487000  0.16140000  1.0 0.8993452909
Zn  Zn24  1  0.61247000  0.59797000  0.12935000  1.0 0.8993452909
Zn  Zn25  1  0.23879000  0.83115000  0.65250000  1.0 0.9132683589
Zn  Zn26  1  0.44227000  0.77318000  0.54308000  1.0 0.9157116237
Zn  Zn27  1  0.60785000  0.80487000  0.66140000  1.0 0.8993452909
Zn  Zn28  1  0.38753000  0.59797000  0.62935000  1.0 0.8993452909
Zn  Zn29  1  0.23879000  0.16885000  0.84750000  1.0 0.9132683589
Zn  Zn30  1  0.44227000  0.22682000  0.95692000  1.0 0.9132683589
Zn  Zn31  1  0.60785000  0.19513000  0.83860000  1.0 0.8993452909
Zn  Zn32  1  0.38753000  0.40203000  0.87065000  1.0 0.8993452909
Mo  Mo1  1  0.73020000  0.20678000  0.57543000  1.0 1.4282277051
Mo  Mo2  1  0.69663000  0.31409000  0.62833000  1.0 1.4413544658
Mo  Mo3  1  0.83095000  0.11627000  0.58696000  1.0 1.4602064612
Mo  Mo4  1  0.01085000  0.32439000  0.68628000  1.0 1.3318290336
Mo  Mo5  1  0.77419000  0.30720000  0.68138000  1.0 1.339004499
Mo  Mo6  1  0.91082000  0.19378000  0.70134000  1.0 1.7180594229
Mo  Mo7  1  0.93847000  0.09515000  0.65289000  1.0 1.8702333841
Mo  Mo8  1  0.10444000  0.34487000  0.63809000  1.0 1.4193720913
Mo  Mo9  1  0.06736000  0.13142000  0.59283000  1.0 1.3802936795
Mo  Mo10  1  0.80678000  0.34497000  0.56343000  1.0 2.0118325475
Mo  Mo11  1  0.13724000  0.23719000  0.58540000  1.0 1.4825981594
Mo  Mo12  1  0.01473000  0.36008000  0.56870000  1.0 2.0611428145
Mo  Mo13  1  0.73020000  0.79322000  0.92457000  1.0 1.4282277051
Mo  Mo14  1  0.69663000  0.68591000  0.87167000  1.0 1.4413544658
Mo  Mo15  1  0.83095000  0.88373000  0.91304000  1.0 1.4602064612
Mo  Mo16  1  0.01085000  0.67561000  0.81372000  1.0 1.3318290336
Mo  Mo17  1  0.77419000  0.69280000  0.81862000  1.0 1.339004499
Mo  Mo18  1  0.91082000  0.80622000  0.79866000  1.0 1.7180594229
Mo  Mo19  1  0.93847000  0.90485000  0.84711000  1.0 1.8702333841
Mo  Mo20  1  0.10444000  0.65513000  0.86191000  1.0 1.4193720913
Mo  Mo21  1  0.06736000  0.86858000  0.90717000  1.0 1.3802936795
Mo  Mo22  1  0.80678000  0.65503000  0.93657000  1.0 2.0118325475
Mo  Mo23  1  0.13724000  0.76281000  0.91460000  1.0 1.4825981594
Mo  Mo24  1  0.01473000  0.63992000  0.93130000  1.0 2.0611428145
Mo  Mo25  1  0.26980000  0.79322000  0.42457000  1.0 1.4193720913
Mo  Mo26  1  0.30337000  0.68591000  0.37167000  1.0 1.4413544658
Mo  Mo27  1  0.16905000  0.88373000  0.41304000  1.0 1.4602064612
Mo  Mo28  1  0.98915000  0.67561000  0.31372000  1.0 1.3318290336
Mo  Mo29  1  0.22581000  0.69280000  0.31862000  1.0 1.3318290336
Mo  Mo30  1  0.08918000  0.80622000  0.29866000  1.0 1.7109277073
Mo  Mo31  1  0.06153000  0.90485000  0.34711000  1.0 1.8702333841
Mo  Mo32  1  0.89556000  0.65513000  0.36191000  1.0 1.4193720913
Mo  Mo33  1  0.93264000  0.86858000  0.40717000  1.0 1.3802936795
Mo  Mo34  1  0.19322000  0.65503000  0.43657000  1.0 2.0118325475
Mo  Mo35  1  0.86276000  0.76281000  0.41460000  1.0 1.4825981594
Mo  Mo36  1  0.98527000  0.63992000  0.43130000  1.0 2.0611428145
Mo  Mo37  1  0.26980000  0.20678000  0.07543000  1.0 1.4193720913
Mo  Mo38  1  0.30337000  0.31409000  0.12833000  1.0 1.4413544658
Mo  Mo39  1  0.16905000  0.11627000  0.08696000  1.0 1.4602064612
Mo  Mo40  1  0.98915000  0.32439000  0.18628000  1.0 1.3318290336
Mo  Mo41  1  0.22581000  0.30720000  0.18138000  1.0 1.339004499
Mo  Mo42  1  0.08918000  0.19378000  0.20134000  1.0 1.7109277073
Mo  Mo43  1  0.06153000  0.09515000  0.15289000  1.0 1.8702333841
Mo  Mo44  1  0.89556000  0.34487000  0.13809000  1.0 1.4193720913
Mo  Mo45  1  0.93264000  0.13142000  0.09283000  1.0 1.3802936795
Mo  Mo46  1  0.19322000  0.34497000  0.06343000  1.0 2.0118325475
Mo  Mo47  1  0.86276000  0.23719000  0.08540000  1.0 1.4854660454
Mo  Mo48  1  0.98527000  0.36008000  0.06870000  1.0 2.0611428145
Mo  Mo49  1  0.76980000  0.20678000  0.42457000  1.0 1.4282277051
Mo  Mo50  1  0.80337000  0.31409000  0.37167000  1.0 1.4413544658
Mo  Mo51  1  0.66905000  0.11627000  0.41304000  1.0 1.4602064612
Mo  Mo52  1  0.48915000  0.32439000  0.31372000  1.0 1.3318290336
Mo  Mo53  1  0.72581000  0.30720000  0.31862000  1.0 1.3318290336
Mo  Mo54  1  0.58918000  0.19378000  0.29866000  1.0 1.7180594229
Mo  Mo55  1  0.56153000  0.09515000  0.34711000  1.0 1.8702333841
Mo  Mo56  1  0.39556000  0.34487000  0.36191000  1.0 1.4193720913
Mo  Mo57  1  0.43264000  0.13142000  0.40717000  1.0 1.3802936795
Mo  Mo58  1  0.69322000  0.34497000  0.43657000  1.0 2.0118325475
Mo  Mo59  1  0.36276000  0.23719000  0.41460000  1.0 1.4825981594
Mo  Mo60  1  0.48527000  0.36008000  0.43130000  1.0 2.0611428145
Mo  Mo61  1  0.76980000  0.79322000  0.07543000  1.0 1.4282277051
Mo  Mo62  1  0.80337000  0.68591000  0.12833000  1.0 1.4413544658
Mo  Mo63  1  0.66905000  0.88373000  0.08696000  1.0 1.4602064612
Mo  Mo64  1  0.48915000  0.67561000  0.18628000  1.0 1.3318290336
Mo  Mo65  1  0.72581000  0.69280000  0.18138000  1.0 1.339004499
Mo  Mo66  1  0.58918000  0.80622000  0.20134000  1.0 1.7180594229
Mo  Mo67  1  0.56153000  0.90485000  0.15289000  1.0 1.8702333841
Mo  Mo68  1  0.39556000  0.65513000  0.13809000  1.0 1.4193720913
Mo  Mo69  1  0.43264000  0.86858000  0.09283000  1.0 1.3802936795
Mo  Mo70  1  0.69322000  0.65503000  0.06343000  1.0 2.0118325475
Mo  Mo71  1  0.36276000  0.76281000  0.08540000  1.0 1.4825981594
Mo  Mo72  1  0.48527000  0.63992000  0.06870000  1.0 2.0611428145
Mo  Mo73  1  0.23020000  0.79322000  0.57543000  1.0 1.4193720913
Mo  Mo74  1  0.19663000  0.68591000  0.62833000  1.0 1.4413544658
Mo  Mo75  1  0.33095000  0.88373000  0.58696000  1.0 1.4602064612
Mo  Mo76  1  0.51085000  0.67561000  0.68628000  1.0 1.3318290336
Mo  Mo77  1  0.27419000  0.69280000  0.68138000  1.0 1.3318290336
Mo  Mo78  1  0.41082000  0.80622000  0.70134000  1.0 1.7180594229
Mo  Mo79  1  0.43847000  0.90485000  0.65289000  1.0 1.8702333841
Mo  Mo80  1  0.60444000  0.65513000  0.63809000  1.0 1.4193720913
Mo  Mo81  1  0.56736000  0.86858000  0.59283000  1.0 1.3802936795
Mo  Mo82  1  0.30678000  0.65503000  0.56343000  1.0 2.0118325475
Mo  Mo83  1  0.63724000  0.76281000  0.58540000  1.0 1.4825981594
Mo  Mo84  1  0.51473000  0.63992000  0.56870000  1.0 2.0611428145
Mo  Mo85  1  0.23020000  0.20678000  0.92457000  1.0 1.4282277051
Mo  Mo86  1  0.19663000  0.31409000  0.87167000  1.0 1.4413544658
Mo  Mo87  1  0.33095000  0.11627000  0.91304000  1.0 1.4602064612
Mo  Mo88  1  0.51085000  0.32439000  0.81372000  1.0 1.3318290336
Mo  Mo89  1  0.27419000  0.30720000  0.81862000  1.0 1.3318290336
Mo  Mo90  1  0.41082000  0.19378000  0.79866000  1.0 1.7180594229
Mo  Mo91  1  0.43847000  0.09515000  0.84711000  1.0 1.8702333841
Mo  Mo92  1  0.60444000  0.34487000  0.86191000  1.0 1.4193720913
Mo  Mo93  1  0.56736000  0.13142000  0.90717000  1.0 1.3802936795
Mo  Mo94  1  0.30678000  0.34497000  0.93657000  1.0 2.0118325475
Mo  Mo95  1  0.63724000  0.23719000  0.91460000  1.0 1.4825981594
Mo  Mo96  1  0.51473000  0.36008000  0.93130000  1.0 2.0611428145
P  P1  1  0.91825000  0.24717000  0.62229000  1.0 1.3969294849
P  P2  1  0.91825000  0.75283000  0.87771000  1.0 1.3969294849
P  P3  1  0.08175000  0.75283000  0.37771000  1.0 1.3939895454
P  P4  1  0.08175000  0.24717000  0.12229000  1.0 1.3939895454
P  P5  1  0.58175000  0.24717000  0.37771000  1.0 1.3969294849
P  P6  1  0.58175000  0.75283000  0.12229000  1.0 1.3939895454
P  P7  1  0.41825000  0.75283000  0.62229000  1.0 1.3939895454
P  P8  1  0.41825000  0.24717000  0.87771000  1.0 1.3969294849
H  H1  1  0.95638000  0.25536000  0.66415000  1.0 0.177660239
H  H2  1  0.10049000  0.70680000  0.50976000  1.0 0.1210764864
H  H3  1  0.47498000  0.15151000  0.71641000  1.0 0.1210764864
H  H4  1  0.91846000  0.66143000  0.58196000  1.0 0.1095530101
H  H5  1  0.97389000  0.59728000  0.66383000  1.0 0.1095530101
H  H6  1  0.90740000  0.80186000  0.65398000  1.0 0.0994824796
H  H7  1  0.96154000  0.49679000  0.66519000  1.0 0.1095530101
H  H8  1  0.57657000  0.19669000  0.68607000  1.0 0.0994824796
H  H9  1  0.05447000  0.69302000  0.55719000  1.0 0.1381450175
H  H10  1  0.59058000  0.99968000  0.69570000  1.0 0.1210764864
H  H11  1  0.06763000  0.86013000  0.61029000  1.0 0.1210764864
H  H12  1  0.35574000  0.05749000  0.67248000  1.0 0.1210764864
H  H13  1  0.88392000  0.82467000  0.54572000  1.0 0.1210764864
H  H14  1  0.25864000  0.11867000  0.64854000  1.0 0.0994824796
H  H15  1  0.25662000  0.11477000  0.74909000  1.0 0.1210764864
H  H16  1  0.93192000  0.83101000  0.49777000  1.0 0.1095530101
H  H17  1  0.16318000  0.17341000  0.72309000  1.0 0.1095530101
H  H18  1  0.78827000  0.49934000  0.60191000  1.0 0.1095530101
H  H19  1  0.08085000  0.95699000  0.59711000  1.0 0.0994824796
H  H20  1  0.76024000  0.70287000  0.68426000  1.0 0.1210764864
H  H21  1  0.68945000  0.04880000  0.66698000  1.0 0.1095530101
H  H22  1  0.82782000  0.96837000  0.58617000  1.0 0.0926899425
H  H23  1  0.80884000  0.87081000  0.59612000  1.0 0.1095530101
H  H24  1  0.75674000  0.68239000  0.73394000  1.0 0.0994824796
H  H25  1  0.79267000  0.59862000  0.59964000  1.0 0.1321081939
H  H26  1  0.01103000  0.67629000  0.73805000  1.0 0.0926899425
H  H27  1  0.02273000  0.69705000  0.68833000  1.0 0.1095530101
H  H28  1  0.96100000  0.05600000  0.57880000  1.0 0.3230133254
H  H29  1  0.88400000  0.34100000  0.71750000  1.0 0.3230133254
H  H30  1  0.95638000  0.74464000  0.83585000  1.0 0.177660239
H  H31  1  0.10049000  0.29320000  0.99024000  1.0 0.1210764864
H  H32  1  0.47498000  0.84849000  0.78359000  1.0 0.1210764864
H  H33  1  0.91846000  0.33857000  0.91804000  1.0 0.1095530101
H  H34  1  0.97389000  0.40272000  0.83617000  1.0 0.1095530101
H  H35  1  0.90740000  0.19814000  0.84602000  1.0 0.0994824796
H  H36  1  0.96154000  0.50321000  0.83481000  1.0 0.1095530101
H  H37  1  0.57657000  0.80331000  0.81393000  1.0 0.0994824796
H  H38  1  0.05447000  0.30698000  0.94281000  1.0 0.1381450175
H  H39  1  0.59058000  0.00032000  0.80430000  1.0 0.1210764864
H  H40  1  0.06763000  0.13987000  0.88971000  1.0 0.1210764864
H  H41  1  0.35574000  0.94251000  0.82752000  1.0 0.1210764864
H  H42  1  0.88392000  0.17533000  0.95428000  1.0 0.1210764864
H  H43  1  0.25864000  0.88133000  0.85146000  1.0 0.0994824796
H  H44  1  0.25662000  0.88523000  0.75091000  1.0 0.1210764864
H  H45  1  0.93192000  0.16899000  0.00223000  1.0 0.1095530101
H  H46  1  0.16318000  0.82659000  0.77691000  1.0 0.1095530101
H  H47  1  0.78827000  0.50066000  0.89809000  1.0 0.1095530101
H  H48  1  0.08085000  0.04301000  0.90289000  1.0 0.0994824796
H  H49  1  0.76024000  0.29713000  0.81574000  1.0 0.1210764864
H  H50  1  0.68945000  0.95120000  0.83302000  1.0 0.1095530101
H  H51  1  0.82782000  0.03163000  0.91383000  1.0 0.0926899425
H  H52  1  0.80884000  0.12919000  0.90388000  1.0 0.1095530101
H  H53  1  0.75674000  0.31761000  0.76606000  1.0 0.0994824796
H  H54  1  0.79267000  0.40138000  0.90036000  1.0 0.1321081939
H  H55  1  0.01103000  0.32371000  0.76195000  1.0 0.0926899425
H  H56  1  0.02273000  0.30295000  0.81167000  1.0 0.1095530101
H  H57  1  0.96100000  0.94400000  0.92120000  1.0 0.3230133254
H  H58  1  0.88400000  0.65900000  0.78250000  1.0 0.3230133254
H  H59  1  0.04362000  0.74464000  0.33585000  1.0 0.177660239
H  H60  1  0.89951000  0.29320000  0.49024000  1.0 0.1210764864
H  H61  1  0.52502000  0.84849000  0.28359000  1.0 0.1210764864
H  H62  1  0.08154000  0.33857000  0.41804000  1.0 0.1095530101
H  H63  1  0.02611000  0.40272000  0.33617000  1.0 0.1095530101
H  H64  1  0.09260000  0.19814000  0.34602000  1.0 0.0994824796
H  H65  1  0.03846000  0.50321000  0.33481000  1.0 0.1095530101
H  H66  1  0.42343000  0.80331000  0.31393000  1.0 0.0994824796
H  H67  1  0.94553000  0.30698000  0.44281000  1.0 0.1381450175
H  H68  1  0.40942000  0.00032000  0.30430000  1.0 0.1210764864
H  H69  1  0.93237000  0.13987000  0.38971000  1.0 0.1210764864
H  H70  1  0.64426000  0.94251000  0.32752000  1.0 0.1210764864
H  H71  1  0.11608000  0.17533000  0.45428000  1.0 0.1210764864
H  H72  1  0.74136000  0.88133000  0.35146000  1.0 0.0994824796
H  H73  1  0.74338000  0.88523000  0.25091000  1.0 0.1210764864
H  H74  1  0.06808000  0.16899000  0.50223000  1.0 0.1095530101
H  H75  1  0.83682000  0.82659000  0.27691000  1.0 0.1095530101
H  H76  1  0.21173000  0.50066000  0.39809000  1.0 0.1095530101
H  H77  1  0.91915000  0.04301000  0.40289000  1.0 0.0994824796
H  H78  1  0.23976000  0.29713000  0.31574000  1.0 0.1210764864
H  H79  1  0.31055000  0.95120000  0.33302000  1.0 0.1095530101
H  H80  1  0.17218000  0.03163000  0.41383000  1.0 0.0926899425
H  H81  1  0.19116000  0.12919000  0.40388000  1.0 0.1095530101
H  H82  1  0.24326000  0.31761000  0.26606000  1.0 0.0994824796
H  H83  1  0.20733000  0.40138000  0.40036000  1.0 0.1321081939
H  H84  1  0.98897000  0.32371000  0.26195000  1.0 0.0926899425
H  H85  1  0.97727000  0.30295000  0.31167000  1.0 0.1095530101
H  H86  1  0.03900000  0.94400000  0.42120000  1.0 0.3230133254
H  H87  1  0.11600000  0.65900000  0.28250000  1.0 0.3230133254
H  H88  1  0.04362000  0.25536000  0.16415000  1.0 0.177660239
H  H89  1  0.89951000  0.70680000  0.00976000  1.0 0.1210764864
H  H90  1  0.52502000  0.15151000  0.21641000  1.0 0.1210764864
H  H91  1  0.08154000  0.66143000  0.08196000  1.0 0.1095530101
H  H92  1  0.02611000  0.59728000  0.16383000  1.0 0.1095530101
H  H93  1  0.09260000  0.80186000  0.15398000  1.0 0.0994824796
H  H94  1  0.03846000  0.49679000  0.16519000  1.0 0.1095530101
H  H95  1  0.42343000  0.19669000  0.18607000  1.0 0.0994824796
H  H96  1  0.94553000  0.69302000  0.05719000  1.0 0.1381450175
H  H97  1  0.40942000  0.99968000  0.19570000  1.0 0.1210764864
H  H98  1  0.93237000  0.86013000  0.11029000  1.0 0.1210764864
H  H99  1  0.64426000  0.05749000  0.17248000  1.0 0.1210764864
H  H100  1  0.11608000  0.82467000  0.04572000  1.0 0.1210764864
H  H101  1  0.74136000  0.11867000  0.14854000  1.0 0.0994824796
H  H102  1  0.74338000  0.11477000  0.24909000  1.0 0.1210764864
H  H103  1  0.06808000  0.83101000  0.99777000  1.0 0.1095530101
H  H104  1  0.83682000  0.17341000  0.22309000  1.0 0.1095530101
H  H105  1  0.21173000  0.49934000  0.10191000  1.0 0.1095530101
H  H106  1  0.91915000  0.95699000  0.09711000  1.0 0.0994824796
H  H107  1  0.23976000  0.70287000  0.18426000  1.0 0.1210764864
H  H108  1  0.31055000  0.04880000  0.16698000  1.0 0.1095530101
H  H109  1  0.17218000  0.96837000  0.08617000  1.0 0.0926899425
H  H110  1  0.19116000  0.87081000  0.09612000  1.0 0.1095530101
H  H111  1  0.24326000  0.68239000  0.23394000  1.0 0.0994824796
H  H112  1  0.20733000  0.59862000  0.09964000  1.0 0.1321081939
H  H113  1  0.98897000  0.67629000  0.23805000  1.0 0.0926899425
H  H114  1  0.97727000  0.69705000  0.18833000  1.0 0.1095530101
H  H115  1  0.03900000  0.05600000  0.07880000  1.0 0.3230133254
H  H116  1  0.11600000  0.34100000  0.21750000  1.0 0.3230133254
H  H117  1  0.26769000  0.00000000  0.75000000  1.0 0.1095530101
H  H118  1  0.56966000  0.00000000  0.75000000  1.0 0.0994824796
H  H119  1  0.73231000  0.00000000  0.25000000  1.0 0.1095530101
H  H120  1  0.43034000  0.00000000  0.25000000  1.0 0.0994824796
H  H121  1  0.54362000  0.25536000  0.33585000  1.0 0.177660239
H  H122  1  0.39951000  0.70680000  0.49024000  1.0 0.1210764864
H  H123  1  0.02502000  0.15151000  0.28359000  1.0 0.1210764864
H  H124  1  0.58154000  0.66143000  0.41804000  1.0 0.1095530101
H  H125  1  0.52611000  0.59728000  0.33617000  1.0 0.1095530101
H  H126  1  0.59260000  0.80186000  0.34602000  1.0 0.0994824796
H  H127  1  0.53846000  0.49679000  0.33481000  1.0 0.1095530101
H  H128  1  0.92343000  0.19669000  0.31393000  1.0 0.0994824796
H  H129  1  0.44553000  0.69302000  0.44281000  1.0 0.1381450175
H  H130  1  0.90942000  0.99968000  0.30430000  1.0 0.1210764864
H  H131  1  0.43237000  0.86013000  0.38971000  1.0 0.1210764864
H  H132  1  0.14426000  0.05749000  0.32752000  1.0 0.1210764864
H  H133  1  0.61608000  0.82467000  0.45428000  1.0 0.1210764864
H  H134  1  0.24136000  0.11867000  0.35146000  1.0 0.0994824796
H  H135  1  0.24338000  0.11477000  0.25091000  1.0 0.1210764864
H  H136  1  0.56808000  0.83101000  0.50223000  1.0 0.1095530101
H  H137  1  0.33682000  0.17341000  0.27691000  1.0 0.1095530101
H  H138  1  0.71173000  0.49934000  0.39809000  1.0 0.1095530101
H  H139  1  0.41915000  0.95699000  0.40289000  1.0 0.0994824796
H  H140  1  0.73976000  0.70287000  0.31574000  1.0 0.1210764864
H  H141  1  0.81055000  0.04880000  0.33302000  1.0 0.1095530101
H  H142  1  0.67218000  0.96837000  0.41383000  1.0 0.0926899425
H  H143  1  0.69116000  0.87081000  0.40388000  1.0 0.1095530101
H  H144  1  0.74326000  0.68239000  0.26606000  1.0 0.0994824796
H  H145  1  0.70733000  0.59862000  0.40036000  1.0 0.1321081939
H  H146  1  0.48897000  0.67629000  0.26195000  1.0 0.0926899425
H  H147  1  0.47727000  0.69705000  0.31167000  1.0 0.1095530101
H  H148  1  0.53900000  0.05600000  0.42120000  1.0 0.3230133254
H  H149  1  0.61600000  0.34100000  0.28250000  1.0 0.3230133254
H  H150  1  0.54362000  0.74464000  0.16415000  1.0 0.177660239
H  H151  1  0.39951000  0.29320000  0.00976000  1.0 0.1210764864
H  H152  1  0.02502000  0.84849000  0.21641000  1.0 0.1210764864
H  H153  1  0.58154000  0.33857000  0.08196000  1.0 0.1095530101
H  H154  1  0.52611000  0.40272000  0.16383000  1.0 0.1095530101
H  H155  1  0.59260000  0.19814000  0.15398000  1.0 0.0994824796
H  H156  1  0.53846000  0.50321000  0.16519000  1.0 0.1095530101
H  H157  1  0.92343000  0.80331000  0.18607000  1.0 0.0994824796
H  H158  1  0.44553000  0.30698000  0.05719000  1.0 0.1381450175
H  H159  1  0.90942000  0.00032000  0.19570000  1.0 0.1210764864
H  H160  1  0.43237000  0.13987000  0.11029000  1.0 0.1210764864
H  H161  1  0.14426000  0.94251000  0.17248000  1.0 0.1210764864
H  H162  1  0.61608000  0.17533000  0.04572000  1.0 0.1210764864
H  H163  1  0.24136000  0.88133000  0.14854000  1.0 0.0994824796
H  H164  1  0.24338000  0.88523000  0.24909000  1.0 0.1210764864
H  H165  1  0.56808000  0.16899000  0.99777000  1.0 0.1095530101
H  H166  1  0.33682000  0.82659000  0.22309000  1.0 0.1095530101
H  H167  1  0.71173000  0.50066000  0.10191000  1.0 0.1095530101
H  H168  1  0.41915000  0.04301000  0.09711000  1.0 0.0994824796
H  H169  1  0.73976000  0.29713000  0.18426000  1.0 0.1210764864
H  H170  1  0.81055000  0.95120000  0.16698000  1.0 0.1095530101
H  H171  1  0.67218000  0.03163000  0.08617000  1.0 0.0926899425
H  H172  1  0.69116000  0.12919000  0.09612000  1.0 0.1095530101
H  H173  1  0.74326000  0.31761000  0.23394000  1.0 0.0994824796
H  H174  1  0.70733000  0.40138000  0.09964000  1.0 0.1321081939
H  H175  1  0.48897000  0.32371000  0.23805000  1.0 0.0926899425
H  H176  1  0.47727000  0.30295000  0.18833000  1.0 0.1095530101
H  H177  1  0.53900000  0.94400000  0.07880000  1.0 0.3230133254
H  H178  1  0.61600000  0.65900000  0.21750000  1.0 0.3230133254
H  H179  1  0.45638000  0.74464000  0.66415000  1.0 0.177660239
H  H180  1  0.60049000  0.29320000  0.50976000  1.0 0.1210764864
H  H181  1  0.97498000  0.84849000  0.71641000  1.0 0.1210764864
H  H182  1  0.41846000  0.33857000  0.58196000  1.0 0.1095530101
H  H183  1  0.47389000  0.40272000  0.66383000  1.0 0.1095530101
H  H184  1  0.40740000  0.19814000  0.65398000  1.0 0.0994824796
H  H185  1  0.46154000  0.50321000  0.66519000  1.0 0.1095530101
H  H186  1  0.07657000  0.80331000  0.68607000  1.0 0.0994824796
H  H187  1  0.55447000  0.30698000  0.55719000  1.0 0.1381450175
H  H188  1  0.09058000  0.00032000  0.69570000  1.0 0.1210764864
H  H189  1  0.56763000  0.13987000  0.61029000  1.0 0.1210764864
H  H190  1  0.85574000  0.94251000  0.67248000  1.0 0.1210764864
H  H191  1  0.38392000  0.17533000  0.54572000  1.0 0.1210764864
H  H192  1  0.75864000  0.88133000  0.64854000  1.0 0.0994824796
H  H193  1  0.75662000  0.88523000  0.74909000  1.0 0.1210764864
H  H194  1  0.43192000  0.16899000  0.49777000  1.0 0.1095530101
H  H195  1  0.66318000  0.82659000  0.72309000  1.0 0.1095530101
H  H196  1  0.28827000  0.50066000  0.60191000  1.0 0.1095530101
H  H197  1  0.58085000  0.04301000  0.59711000  1.0 0.0994824796
H  H198  1  0.26024000  0.29713000  0.68426000  1.0 0.1210764864
H  H199  1  0.18945000  0.95120000  0.66698000  1.0 0.1095530101
H  H200  1  0.32782000  0.03163000  0.58617000  1.0 0.0926899425
H  H201  1  0.30884000  0.12919000  0.59612000  1.0 0.1095530101
H  H202  1  0.25674000  0.31761000  0.73394000  1.0 0.0994824796
H  H203  1  0.29267000  0.40138000  0.59964000  1.0 0.1321081939
H  H204  1  0.51103000  0.32371000  0.73805000  1.0 0.0926899425
H  H205  1  0.52273000  0.30295000  0.68833000  1.0 0.1095530101
H  H206  1  0.46100000  0.94400000  0.57880000  1.0 0.3230133254
H  H207  1  0.38400000  0.65900000  0.71750000  1.0 0.3230133254
H  H208  1  0.45638000  0.25536000  0.83585000  1.0 0.177660239
H  H209  1  0.60049000  0.70680000  0.99024000  1.0 0.1210764864
H  H210  1  0.97498000  0.15151000  0.78359000  1.0 0.1210764864
H  H211  1  0.41846000  0.66143000  0.91804000  1.0 0.1095530101
H  H212  1  0.47389000  0.59728000  0.83617000  1.0 0.1095530101
H  H213  1  0.40740000  0.80186000  0.84602000  1.0 0.0994824796
H  H214  1  0.46154000  0.49679000  0.83481000  1.0 0.1095530101
H  H215  1  0.07657000  0.19669000  0.81393000  1.0 0.0994824796
H  H216  1  0.55447000  0.69302000  0.94281000  1.0 0.1381450175
H  H217  1  0.09058000  0.99968000  0.80430000  1.0 0.1210764864
H  H218  1  0.56763000  0.86013000  0.88971000  1.0 0.1210764864
H  H219  1  0.85574000  0.05749000  0.82752000  1.0 0.1210764864
H  H220  1  0.38392000  0.82467000  0.95428000  1.0 0.1210764864
H  H221  1  0.75864000  0.11867000  0.85146000  1.0 0.0994824796
H  H222  1  0.75662000  0.11477000  0.75091000  1.0 0.1210764864
H  H223  1  0.43192000  0.83101000  0.00223000  1.0 0.1095530101
H  H224  1  0.66318000  0.17341000  0.77691000  1.0 0.1095530101
H  H225  1  0.28827000  0.49934000  0.89809000  1.0 0.1095530101
H  H226  1  0.58085000  0.95699000  0.90289000  1.0 0.0994824796
H  H227  1  0.26024000  0.70287000  0.81574000  1.0 0.1210764864
H  H228  1  0.18945000  0.04880000  0.83302000  1.0 0.1095530101
H  H229  1  0.32782000  0.96837000  0.91383000  1.0 0.0926899425
H  H230  1  0.30884000  0.87081000  0.90388000  1.0 0.1095530101
H  H231  1  0.25674000  0.68239000  0.76606000  1.0 0.0994824796
H  H232  1  0.29267000  0.59862000  0.90036000  1.0 0.1321081939
H  H233  1  0.51103000  0.67629000  0.76195000  1.0 0.0926899425
H  H234  1  0.52273000  0.69705000  0.81167000  1.0 0.1095530101
H  H235  1  0.46100000  0.05600000  0.92120000  1.0 0.3230133254
H  H236  1  0.38400000  0.34100000  0.78250000  1.0 0.3230133254
H  H237  1  0.23231000  0.00000000  0.25000000  1.0 0.1095530101
H  H238  1  0.93034000  0.00000000  0.25000000  1.0 0.0994824796
H  H239  1  0.76769000  0.00000000  0.75000000  1.0 0.1095530101
H  H240  1  0.06966000  0.00000000  0.75000000  1.0 0.0994824796
C  C1  1  0.90090000  0.67240000  0.62575000  1.0 0.0102424047
C  C2  1  0.37220000  0.03830000  0.73141000  1.0 0.0024016517
C  C3  1  0.96230000  0.75730000  0.55720000  1.0 0.0994824796
C  C4  1  0.92640000  0.79040000  0.61032000  1.0 -0.0053732431
C  C5  1  0.31710000  0.07920000  0.71372000  1.0 0.0926899425
C  C6  1  0.52190000  0.06950000  0.70974000  1.0 0.0994824796
C  C7  1  0.05590000  0.73050000  0.51722000  1.0 0.0694525383
C  C8  1  0.93760000  0.85410000  0.60332000  1.0 0.0994824796
C  C9  1  0.51790000  0.12980000  0.70658000  1.0 -0.2189076633
C  C10  1  0.91760000  0.68980000  0.59669000  1.0 -0.2024917113
C  C11  1  0.46480000  0.03650000  0.73031000  1.0 0.0102424047
C  C12  1  0.89270000  0.70160000  0.68018000  1.0 0.0926899425
C  C13  1  0.93640000  0.57840000  0.65060000  1.0 -0.2024917113
C  C14  1  0.91110000  0.77330000  0.63941000  1.0 -0.2106801902
C  C15  1  0.93300000  0.74730000  0.58858000  1.0 0.0102424047
C  C16  1  0.90090000  0.71500000  0.64778000  1.0 -0.002712889
C  C17  1  0.88890000  0.60960000  0.63072000  1.0 0.0994824796
C  C18  1  0.92910000  0.51750000  0.65118000  1.0 0.0624908338
C  C19  1  0.57940000  0.15650000  0.68843000  1.0 0.0403756752
C  C20  1  0.02890000  0.72200000  0.54563000  1.0 -0.2106801902
C  C21  1  0.58700000  0.04000000  0.69429000  1.0 -0.2189076633
C  C22  1  0.01770000  0.88100000  0.60458000  1.0 -0.2106801902
C  C23  1  0.31720000  0.08080000  0.68333000  1.0 -0.2189076633
C  C24  1  0.92750000  0.79940000  0.53884000  1.0 -0.2024917113
C  C25  1  0.25860000  0.11780000  0.66916000  1.0 0.0403756752
C  C26  1  0.25840000  0.11470000  0.72848000  1.0 -0.2189076633
C  C27  1  0.95790000  0.80360000  0.51025000  1.0 0.0525612064
C  C28  1  0.20270000  0.14990000  0.71278000  1.0 0.0314631859
C  C29  1  0.82730000  0.51920000  0.61425000  1.0 0.0624908338
C  C30  1  0.02510000  0.93980000  0.59734000  1.0 0.0403756752
C  C31  1  0.81280000  0.69740000  0.69459000  1.0 -0.2189076633
C  C32  1  0.64590000  0.06950000  0.67704000  1.0 0.0403756752
C  C33  1  0.87760000  0.94620000  0.59058000  1.0 0.0624908338
C  C34  1  0.86510000  0.88720000  0.59662000  1.0 -0.2396584155
C  C35  1  0.81140000  0.68510000  0.72458000  1.0 0.0314631859
C  C36  1  0.82980000  0.57880000  0.61263000  1.0 -0.2106801902
C  C37  1  0.95940000  0.68150000  0.72713000  1.0 0.0624908338
C  C38  1  0.96710000  0.69390000  0.69699000  1.0 -0.2396584155
C  C39  1  0.90090000  0.32760000  0.87425000  1.0 0.0102424047
C  C40  1  0.37220000  0.96170000  0.76859000  1.0 0.0024016517
C  C41  1  0.96230000  0.24270000  0.94280000  1.0 0.0994824796
C  C42  1  0.92640000  0.20960000  0.88968000  1.0 -0.0053732431
C  C43  1  0.31710000  0.92080000  0.78628000  1.0 0.0926899425
C  C44  1  0.52190000  0.93050000  0.79026000  1.0 0.0994824796
C  C45  1  0.05590000  0.26950000  0.98278000  1.0 0.0694525383
C  C46  1  0.93760000  0.14590000  0.89668000  1.0 0.0994824796
C  C47  1  0.51790000  0.87020000  0.79342000  1.0 -0.2189076633
C  C48  1  0.91760000  0.31020000  0.90331000  1.0 -0.2024917113
C  C49  1  0.46480000  0.96350000  0.76969000  1.0 0.0102424047
C  C50  1  0.89270000  0.29840000  0.81982000  1.0 0.0926899425
C  C51  1  0.93640000  0.42160000  0.84940000  1.0 -0.2024917113
C  C52  1  0.91110000  0.22670000  0.86059000  1.0 -0.2106801902
C  C53  1  0.93300000  0.25270000  0.91142000  1.0 0.0102424047
C  C54  1  0.90090000  0.28500000  0.85222000  1.0 -0.002712889
C  C55  1  0.88890000  0.39040000  0.86928000  1.0 0.0994824796
C  C56  1  0.92910000  0.48250000  0.84882000  1.0 0.0624908338
C  C57  1  0.57940000  0.84350000  0.81157000  1.0 0.0403756752
C  C58  1  0.02890000  0.27800000  0.95437000  1.0 -0.2106801902
C  C59  1  0.58700000  0.96000000  0.80571000  1.0 -0.2189076633
C  C60  1  0.01770000  0.11900000  0.89542000  1.0 -0.2106801902
C  C61  1  0.31720000  0.91920000  0.81667000  1.0 -0.2189076633
C  C62  1  0.92750000  0.20060000  0.96116000  1.0 -0.2024917113
C  C63  1  0.25860000  0.88220000  0.83084000  1.0 0.0403756752
C  C64  1  0.25840000  0.88530000  0.77152000  1.0 -0.2189076633
C  C65  1  0.95790000  0.19640000  0.98975000  1.0 0.0525612064
C  C66  1  0.20270000  0.85010000  0.78722000  1.0 0.0314631859
C  C67  1  0.82730000  0.48080000  0.88575000  1.0 0.0624908338
C  C68  1  0.02510000  0.06020000  0.90266000  1.0 0.0403756752
C  C69  1  0.81280000  0.30260000  0.80541000  1.0 -0.2189076633
C  C70  1  0.64590000  0.93050000  0.82296000  1.0 0.0403756752
C  C71  1  0.87760000  0.05380000  0.90942000  1.0 0.0624908338
C  C72  1  0.86510000  0.11280000  0.90338000  1.0 -0.2396584155
C  C73  1  0.81140000  0.31490000  0.77542000  1.0 0.0314631859
C  C74  1  0.82980000  0.42120000  0.88737000  1.0 -0.2106801902
C  C75  1  0.95940000  0.31850000  0.77287000  1.0 0.0624908338
C  C76  1  0.96710000  0.30610000  0.80301000  1.0 -0.2396584155
C  C77  1  0.09910000  0.32760000  0.37425000  1.0 0.0102424047
C  C78  1  0.62780000  0.96170000  0.26859000  1.0 0.0024016517
C  C79  1  0.03770000  0.24270000  0.44280000  1.0 0.0994824796
C  C80  1  0.07360000  0.20960000  0.38968000  1.0 -0.0053732431
C  C81  1  0.68290000  0.92080000  0.28628000  1.0 0.0926899425
C  C82  1  0.47810000  0.93050000  0.29026000  1.0 0.0994824796
C  C83  1  0.94410000  0.26950000  0.48278000  1.0 0.0694525383
C  C84  1  0.06240000  0.14590000  0.39668000  1.0 0.0994824796
C  C85  1  0.48210000  0.87020000  0.29342000  1.0 -0.2189076633
C  C86  1  0.08240000  0.31020000  0.40331000  1.0 -0.2024917113
C  C87  1  0.53520000  0.96350000  0.26969000  1.0 0.0102424047
C  C88  1  0.10730000  0.29840000  0.31982000  1.0 0.0926899425
C  C89  1  0.06360000  0.42160000  0.34940000  1.0 -0.2024917113
C  C90  1  0.08890000  0.22670000  0.36059000  1.0 -0.2106801902
C  C91  1  0.06700000  0.25270000  0.41142000  1.0 0.0102424047
C  C92  1  0.09910000  0.28500000  0.35222000  1.0 -0.002712889
C  C93  1  0.11110000  0.39040000  0.36928000  1.0 0.0994824796
C  C94  1  0.07090000  0.48250000  0.34882000  1.0 0.0624908338
C  C95  1  0.42060000  0.84350000  0.31157000  1.0 0.0403756752
C  C96  1  0.97110000  0.27800000  0.45437000  1.0 -0.2106801902
C  C97  1  0.41300000  0.96000000  0.30571000  1.0 -0.2189076633
C  C98  1  0.98230000  0.11900000  0.39542000  1.0 -0.2106801902
C  C99  1  0.68280000  0.91920000  0.31667000  1.0 -0.2189076633
C  C100  1  0.07250000  0.20060000  0.46116000  1.0 -0.2024917113
C  C101  1  0.74140000  0.88220000  0.33084000  1.0 0.0403756752
C  C102  1  0.74160000  0.88530000  0.27152000  1.0 -0.2189076633
C  C103  1  0.04210000  0.19640000  0.48975000  1.0 0.0525612064
C  C104  1  0.79730000  0.85010000  0.28722000  1.0 0.0314631859
C  C105  1  0.17270000  0.48080000  0.38575000  1.0 0.0624908338
C  C106  1  0.97490000  0.06020000  0.40266000  1.0 0.0403756752
C  C107  1  0.18720000  0.30260000  0.30541000  1.0 -0.2189076633
C  C108  1  0.35410000  0.93050000  0.32296000  1.0 0.0403756752
C  C109  1  0.12240000  0.05380000  0.40942000  1.0 0.0624908338
C  C110  1  0.13490000  0.11280000  0.40338000  1.0 -0.2396584155
C  C111  1  0.18860000  0.31490000  0.27542000  1.0 0.0314631859
C  C112  1  0.17020000  0.42120000  0.38737000  1.0 -0.2106801902
C  C113  1  0.04060000  0.31850000  0.27287000  1.0 0.0624908338
C  C114  1  0.03290000  0.30610000  0.30301000  1.0 -0.2396584155
C  C115  1  0.09910000  0.67240000  0.12575000  1.0 0.0102424047
C  C116  1  0.62780000  0.03830000  0.23141000  1.0 0.0024016517
C  C117  1  0.03770000  0.75730000  0.05720000  1.0 0.0994824796
C  C118  1  0.07360000  0.79040000  0.11032000  1.0 -0.0053732431
C  C119  1  0.68290000  0.07920000  0.21372000  1.0 0.0926899425
C  C120  1  0.47810000  0.06950000  0.20974000  1.0 0.0994824796
C  C121  1  0.94410000  0.73050000  0.01722000  1.0 0.0694525383
C  C122  1  0.06240000  0.85410000  0.10332000  1.0 0.0994824796
C  C123  1  0.48210000  0.12980000  0.20658000  1.0 -0.2189076633
C  C124  1  0.08240000  0.68980000  0.09669000  1.0 -0.2024917113
C  C125  1  0.53520000  0.03650000  0.23031000  1.0 0.0102424047
C  C126  1  0.10730000  0.70160000  0.18018000  1.0 0.0926899425
C  C127  1  0.06360000  0.57840000  0.15060000  1.0 -0.2024917113
C  C128  1  0.08890000  0.77330000  0.13941000  1.0 -0.2106801902
C  C129  1  0.06700000  0.74730000  0.08858000  1.0 0.0102424047
C  C130  1  0.09910000  0.71500000  0.14778000  1.0 -0.002712889
C  C131  1  0.11110000  0.60960000  0.13072000  1.0 0.0994824796
C  C132  1  0.07090000  0.51750000  0.15118000  1.0 0.0624908338
C  C133  1  0.42060000  0.15650000  0.18843000  1.0 0.0403756752
C  C134  1  0.97110000  0.72200000  0.04563000  1.0 -0.2106801902
C  C135  1  0.41300000  0.04000000  0.19429000  1.0 -0.2189076633
C  C136  1  0.98230000  0.88100000  0.10458000  1.0 -0.2106801902
C  C137  1  0.68280000  0.08080000  0.18333000  1.0 -0.2189076633
C  C138  1  0.07250000  0.79940000  0.03884000  1.0 -0.2024917113
C  C139  1  0.74140000  0.11780000  0.16916000  1.0 0.0403756752
C  C140  1  0.74160000  0.11470000  0.22848000  1.0 -0.2189076633
C  C141  1  0.04210000  0.80360000  0.01025000  1.0 0.0525612064
C  C142  1  0.79730000  0.14990000  0.21278000  1.0 0.0314631859
C  C143  1  0.17270000  0.51920000  0.11425000  1.0 0.0624908338
C  C144  1  0.97490000  0.93980000  0.09734000  1.0 0.0403756752
C  C145  1  0.18720000  0.69740000  0.19459000  1.0 -0.2189076633
C  C146  1  0.35410000  0.06950000  0.17704000  1.0 0.0403756752
C  C147  1  0.12240000  0.94620000  0.09058000  1.0 0.0624908338
C  C148  1  0.13490000  0.88720000  0.09662000  1.0 -0.2396584155
C  C149  1  0.18860000  0.68510000  0.22458000  1.0 0.0314631859
C  C150  1  0.17020000  0.57880000  0.11263000  1.0 -0.2106801902
C  C151  1  0.04060000  0.68150000  0.22713000  1.0 0.0624908338
C  C152  1  0.03290000  0.69390000  0.19699000  1.0 -0.2396584155
C  C153  1  0.32920000  0.00000000  0.75000000  1.0 -0.2024917113
C  C154  1  0.50810000  0.00000000  0.75000000  1.0 -0.2189076633
C  C155  1  0.67080000  0.00000000  0.25000000  1.0 -0.2024917113
C  C156  1  0.49190000  0.00000000  0.25000000  1.0 -0.2189076633
C  C157  1  0.59910000  0.67240000  0.37425000  1.0 0.0102424047
C  C158  1  0.12780000  0.03830000  0.26859000  1.0 0.0024016517
C  C159  1  0.53770000  0.75730000  0.44280000  1.0 0.0994824796
C  C160  1  0.57360000  0.79040000  0.38968000  1.0 -0.0053732431
C  C161  1  0.18290000  0.07920000  0.28628000  1.0 0.0926899425
C  C162  1  0.97810000  0.06950000  0.29026000  1.0 0.0994824796
C  C163  1  0.44410000  0.73050000  0.48278000  1.0 0.0694525383
C  C164  1  0.56240000  0.85410000  0.39668000  1.0 0.0994824796
C  C165  1  0.98210000  0.12980000  0.29342000  1.0 -0.2189076633
C  C166  1  0.58240000  0.68980000  0.40331000  1.0 -0.2024917113
C  C167  1  0.03520000  0.03650000  0.26969000  1.0 0.0102424047
C  C168  1  0.60730000  0.70160000  0.31982000  1.0 0.0926899425
C  C169  1  0.56360000  0.57840000  0.34940000  1.0 -0.2024917113
C  C170  1  0.58890000  0.77330000  0.36059000  1.0 -0.2106801902
C  C171  1  0.56700000  0.74730000  0.41142000  1.0 0.0102424047
C  C172  1  0.59910000  0.71500000  0.35222000  1.0 -0.002712889
C  C173  1  0.61110000  0.60960000  0.36928000  1.0 0.0994824796
C  C174  1  0.57090000  0.51750000  0.34882000  1.0 0.0624908338
C  C175  1  0.92060000  0.15650000  0.31157000  1.0 0.0403756752
C  C176  1  0.47110000  0.72200000  0.45437000  1.0 -0.2106801902
C  C177  1  0.91300000  0.04000000  0.30571000  1.0 -0.2189076633
C  C178  1  0.48230000  0.88100000  0.39542000  1.0 -0.2106801902
C  C179  1  0.18280000  0.08080000  0.31667000  1.0 -0.2189076633
C  C180  1  0.57250000  0.79940000  0.46116000  1.0 -0.2024917113
C  C181  1  0.24140000  0.11780000  0.33084000  1.0 0.0403756752
C  C182  1  0.24160000  0.11470000  0.27152000  1.0 -0.2189076633
C  C183  1  0.54210000  0.80360000  0.48975000  1.0 0.0525612064
C  C184  1  0.29730000  0.14990000  0.28722000  1.0 0.0314631859
C  C185  1  0.67270000  0.51920000  0.38575000  1.0 0.0624908338
C  C186  1  0.47490000  0.93980000  0.40266000  1.0 0.0403756752
C  C187  1  0.68720000  0.69740000  0.30541000  1.0 -0.2189076633
C  C188  1  0.85410000  0.06950000  0.32296000  1.0 0.0403756752
C  C189  1  0.62240000  0.94620000  0.40942000  1.0 0.0624908338
C  C190  1  0.63490000  0.88720000  0.40338000  1.0 -0.2396584155
C  C191  1  0.68860000  0.68510000  0.27542000  1.0 0.0314631859
C  C192  1  0.67020000  0.57880000  0.38737000  1.0 -0.2106801902
C  C193  1  0.54060000  0.68150000  0.27287000  1.0 0.0624908338
C  C194  1  0.53290000  0.69390000  0.30301000  1.0 -0.2396584155
C  C195  1  0.59910000  0.32760000  0.12575000  1.0 0.0102424047
C  C196  1  0.12780000  0.96170000  0.23141000  1.0 0.0024016517
C  C197  1  0.53770000  0.24270000  0.05720000  1.0 0.0994824796
C  C198  1  0.57360000  0.20960000  0.11032000  1.0 -0.0053732431
C  C199  1  0.18290000  0.92080000  0.21372000  1.0 0.0926899425
C  C200  1  0.97810000  0.93050000  0.20974000  1.0 0.0994824796
C  C201  1  0.44410000  0.26950000  0.01722000  1.0 0.0694525383
C  C202  1  0.56240000  0.14590000  0.10332000  1.0 0.0994824796
C  C203  1  0.98210000  0.87020000  0.20658000  1.0 -0.2189076633
C  C204  1  0.58240000  0.31020000  0.09669000  1.0 -0.2024917113
C  C205  1  0.03520000  0.96350000  0.23031000  1.0 0.0102424047
C  C206  1  0.60730000  0.29840000  0.18018000  1.0 0.0926899425
C  C207  1  0.56360000  0.42160000  0.15060000  1.0 -0.2024917113
C  C208  1  0.58890000  0.22670000  0.13941000  1.0 -0.2106801902
C  C209  1  0.56700000  0.25270000  0.08858000  1.0 0.0102424047
C  C210  1  0.59910000  0.28500000  0.14778000  1.0 -0.002712889
C  C211  1  0.61110000  0.39040000  0.13072000  1.0 0.0994824796
C  C212  1  0.57090000  0.48250000  0.15118000  1.0 0.0624908338
C  C213  1  0.92060000  0.84350000  0.18843000  1.0 0.0403756752
C  C214  1  0.47110000  0.27800000  0.04563000  1.0 -0.2106801902
C  C215  1  0.91300000  0.96000000  0.19429000  1.0 -0.2189076633
C  C216  1  0.48230000  0.11900000  0.10458000  1.0 -0.2106801902
C  C217  1  0.18280000  0.91920000  0.18333000  1.0 -0.2189076633
C  C218  1  0.57250000  0.20060000  0.03884000  1.0 -0.2024917113
C  C219  1  0.24140000  0.88220000  0.16916000  1.0 0.0403756752
C  C220  1  0.24160000  0.88530000  0.22848000  1.0 -0.2189076633
C  C221  1  0.54210000  0.19640000  0.01025000  1.0 0.0525612064
C  C222  1  0.29730000  0.85010000  0.21278000  1.0 0.0314631859
C  C223  1  0.67270000  0.48080000  0.11425000  1.0 0.0624908338
C  C224  1  0.47490000  0.06020000  0.09734000  1.0 0.0403756752
C  C225  1  0.68720000  0.30260000  0.19459000  1.0 -0.2189076633
C  C226  1  0.85410000  0.93050000  0.17704000  1.0 0.0403756752
C  C227  1  0.62240000  0.05380000  0.09058000  1.0 0.0624908338
C  C228  1  0.63490000  0.11280000  0.09662000  1.0 -0.2396584155
C  C229  1  0.68860000  0.31490000  0.22458000  1.0 0.0314631859
C  C230  1  0.67020000  0.42120000  0.11263000  1.0 -0.2106801902
C  C231  1  0.54060000  0.31850000  0.22713000  1.0 0.0624908338
C  C232  1  0.53290000  0.30610000  0.19699000  1.0 -0.2396584155
C  C233  1  0.40090000  0.32760000  0.62575000  1.0 0.0102424047
C  C234  1  0.87220000  0.96170000  0.73141000  1.0 0.0024016517
C  C235  1  0.46230000  0.24270000  0.55720000  1.0 0.0994824796
C  C236  1  0.42640000  0.20960000  0.61032000  1.0 -0.0053732431
C  C237  1  0.81710000  0.92080000  0.71372000  1.0 0.0926899425
C  C238  1  0.02190000  0.93050000  0.70974000  1.0 0.0994824796
C  C239  1  0.55590000  0.26950000  0.51722000  1.0 0.0694525383
C  C240  1  0.43760000  0.14590000  0.60332000  1.0 0.0994824796
C  C241  1  0.01790000  0.87020000  0.70658000  1.0 -0.2189076633
C  C242  1  0.41760000  0.31020000  0.59669000  1.0 -0.2024917113
C  C243  1  0.96480000  0.96350000  0.73031000  1.0 0.0102424047
C  C244  1  0.39270000  0.29840000  0.68018000  1.0 0.0926899425
C  C245  1  0.43640000  0.42160000  0.65060000  1.0 -0.2024917113
C  C246  1  0.41110000  0.22670000  0.63941000  1.0 -0.2106801902
C  C247  1  0.43300000  0.25270000  0.58858000  1.0 0.0102424047
C  C248  1  0.40090000  0.28500000  0.64778000  1.0 -0.002712889
C  C249  1  0.38890000  0.39040000  0.63072000  1.0 0.0994824796
C  C250  1  0.42910000  0.48250000  0.65118000  1.0 0.0624908338
C  C251  1  0.07940000  0.84350000  0.68843000  1.0 0.0403756752
C  C252  1  0.52890000  0.27800000  0.54563000  1.0 -0.2106801902
C  C253  1  0.08700000  0.96000000  0.69429000  1.0 -0.2189076633
C  C254  1  0.51770000  0.11900000  0.60458000  1.0 -0.2106801902
C  C255  1  0.81720000  0.91920000  0.68333000  1.0 -0.2189076633
C  C256  1  0.42750000  0.20060000  0.53884000  1.0 -0.2024917113
C  C257  1  0.75860000  0.88220000  0.66916000  1.0 0.0403756752
C  C258  1  0.75840000  0.88530000  0.72848000  1.0 -0.2189076633
C  C259  1  0.45790000  0.19640000  0.51025000  1.0 0.0525612064
C  C260  1  0.70270000  0.85010000  0.71278000  1.0 0.0314631859
C  C261  1  0.32730000  0.48080000  0.61425000  1.0 0.0624908338
C  C262  1  0.52510000  0.06020000  0.59734000  1.0 0.0403756752
C  C263  1  0.31280000  0.30260000  0.69459000  1.0 -0.2189076633
C  C264  1  0.14590000  0.93050000  0.67704000  1.0 0.0403756752
C  C265  1  0.37760000  0.05380000  0.59058000  1.0 0.0624908338
C  C266  1  0.36510000  0.11280000  0.59662000  1.0 -0.2396584155
C  C267  1  0.31140000  0.31490000  0.72458000  1.0 0.0314631859
C  C268  1  0.32980000  0.42120000  0.61263000  1.0 -0.2106801902
C  C269  1  0.45940000  0.31850000  0.72713000  1.0 0.0624908338
C  C270  1  0.46710000  0.30610000  0.69699000  1.0 -0.2396584155
C  C271  1  0.40090000  0.67240000  0.87425000  1.0 0.0102424047
C  C272  1  0.87220000  0.03830000  0.76859000  1.0 0.0024016517
C  C273  1  0.46230000  0.75730000  0.94280000  1.0 0.0994824796
C  C274  1  0.42640000  0.79040000  0.88968000  1.0 -0.0053732431
C  C275  1  0.81710000  0.07920000  0.78628000  1.0 0.0926899425
C  C276  1  0.02190000  0.06950000  0.79026000  1.0 0.0994824796
C  C277  1  0.55590000  0.73050000  0.98278000  1.0 0.0694525383
C  C278  1  0.43760000  0.85410000  0.89668000  1.0 0.0994824796
C  C279  1  0.01790000  0.12980000  0.79342000  1.0 -0.2189076633
C  C280  1  0.41760000  0.68980000  0.90331000  1.0 -0.2024917113
C  C281  1  0.96480000  0.03650000  0.76969000  1.0 0.0102424047
C  C282  1  0.39270000  0.70160000  0.81982000  1.0 0.0926899425
C  C283  1  0.43640000  0.57840000  0.84940000  1.0 -0.2024917113
C  C284  1  0.41110000  0.77330000  0.86059000  1.0 -0.2106801902
C  C285  1  0.43300000  0.74730000  0.91142000  1.0 0.0102424047
C  C286  1  0.40090000  0.71500000  0.85222000  1.0 -0.002712889
C  C287  1  0.38890000  0.60960000  0.86928000  1.0 0.0994824796
C  C288  1  0.42910000  0.51750000  0.84882000  1.0 0.0624908338
C  C289  1  0.07940000  0.15650000  0.81157000  1.0 0.0403756752
C  C290  1  0.52890000  0.72200000  0.95437000  1.0 -0.2106801902
C  C291  1  0.08700000  0.04000000  0.80571000  1.0 -0.2189076633
C  C292  1  0.51770000  0.88100000  0.89542000  1.0 -0.2106801902
C  C293  1  0.81720000  0.08080000  0.81667000  1.0 -0.2189076633
C  C294  1  0.42750000  0.79940000  0.96116000  1.0 -0.2024917113
C  C295  1  0.75860000  0.11780000  0.83084000  1.0 0.0403756752
C  C296  1  0.75840000  0.11470000  0.77152000  1.0 -0.2189076633
C  C297  1  0.45790000  0.80360000  0.98975000  1.0 0.0525612064
C  C298  1  0.70270000  0.14990000  0.78722000  1.0 0.0314631859
C  C299  1  0.32730000  0.51920000  0.88575000  1.0 0.0624908338
C  C300  1  0.52510000  0.93980000  0.90266000  1.0 0.0403756752
C  C301  1  0.31280000  0.69740000  0.80541000  1.0 -0.2189076633
C  C302  1  0.14590000  0.06950000  0.82296000  1.0 0.0403756752
C  C303  1  0.37760000  0.94620000  0.90942000  1.0 0.0624908338
C  C304  1  0.36510000  0.88720000  0.90338000  1.0 -0.2396584155
C  C305  1  0.31140000  0.68510000  0.77542000  1.0 0.0314631859
C  C306  1  0.32980000  0.57880000  0.88737000  1.0 -0.2106801902
C  C307  1  0.45940000  0.68150000  0.77287000  1.0 0.0624908338
C  C308  1  0.46710000  0.69390000  0.80301000  1.0 -0.2396584155
C  C309  1  0.17080000  0.00000000  0.25000000  1.0 -0.2024917113
C  C310  1  0.99190000  0.00000000  0.25000000  1.0 -0.2189076633
C  C311  1  0.82920000  0.00000000  0.75000000  1.0 -0.2024917113
C  C312  1  0.00810000  0.00000000  0.75000000  1.0 -0.2189076633
N  N1  1  0.87780000  0.48820000  0.63260000  1.0 -0.2487851645
N  N2  1  0.64230000  0.12750000  0.67424000  1.0 -0.2578522888
N  N3  1  0.02190000  0.77090000  0.49960000  1.0 -0.2487851645
N  N4  1  0.20280000  0.15180000  0.68342000  1.0 -0.2487851645
N  N5  1  0.95430000  0.97250000  0.59068000  1.0 -0.2189076633
N  N6  1  0.88380000  0.67680000  0.74085000  1.0 -0.2106801902
N  N7  1  0.87780000  0.51180000  0.86740000  1.0 -0.2487851645
N  N8  1  0.64230000  0.87250000  0.82576000  1.0 -0.2578522888
N  N9  1  0.02190000  0.22910000  0.00040000  1.0 -0.2487851645
N  N10  1  0.20280000  0.84820000  0.81658000  1.0 -0.2487851645
N  N11  1  0.95430000  0.02750000  0.90932000  1.0 -0.2189076633
N  N12  1  0.88380000  0.32320000  0.75915000  1.0 -0.2106801902
N  N13  1  0.12220000  0.51180000  0.36740000  1.0 -0.2487851645
N  N14  1  0.35770000  0.87250000  0.32576000  1.0 -0.2578522888
N  N15  1  0.97810000  0.22910000  0.50040000  1.0 -0.2396584155
N  N16  1  0.79720000  0.84820000  0.31658000  1.0 -0.2487851645
N  N17  1  0.04570000  0.02750000  0.40932000  1.0 -0.2189076633
N  N18  1  0.11620000  0.32320000  0.25915000  1.0 -0.2106801902
N  N19  1  0.12220000  0.48820000  0.13260000  1.0 -0.2487851645
N  N20  1  0.35770000  0.12750000  0.17424000  1.0 -0.2578522888
N  N21  1  0.97810000  0.77090000  0.99960000  1.0 -0.2487851645
N  N22  1  0.79720000  0.15180000  0.18342000  1.0 -0.2487851645
N  N23  1  0.04570000  0.97250000  0.09068000  1.0 -0.2189076633
N  N24  1  0.11620000  0.67680000  0.24085000  1.0 -0.2106801902
N  N25  1  0.62220000  0.48820000  0.36740000  1.0 -0.2487851645
N  N26  1  0.85770000  0.12750000  0.32576000  1.0 -0.2578522888
N  N27  1  0.47810000  0.77090000  0.50040000  1.0 -0.2396584155
N  N28  1  0.29720000  0.15180000  0.31658000  1.0 -0.2487851645
N  N29  1  0.54570000  0.97250000  0.40932000  1.0 -0.2189076633
N  N30  1  0.61620000  0.67680000  0.25915000  1.0 -0.2106801902
N  N31  1  0.62220000  0.51180000  0.13260000  1.0 -0.2487851645
N  N32  1  0.85770000  0.87250000  0.17424000  1.0 -0.2578522888
N  N33  1  0.47810000  0.22910000  0.99960000  1.0 -0.2487851645
N  N34  1  0.29720000  0.84820000  0.18342000  1.0 -0.2487851645
N  N35  1  0.54570000  0.02750000  0.09068000  1.0 -0.2189076633
N  N36  1  0.61620000  0.32320000  0.24085000  1.0 -0.2106801902
N  N37  1  0.37780000  0.51180000  0.63260000  1.0 -0.2487851645
N  N38  1  0.14230000  0.87250000  0.67424000  1.0 -0.2578522888
N  N39  1  0.52190000  0.22910000  0.49960000  1.0 -0.2487851645
N  N40  1  0.70280000  0.84820000  0.68342000  1.0 -0.2487851645
N  N41  1  0.45430000  0.02750000  0.59068000  1.0 -0.2189076633
N  N42  1  0.38380000  0.32320000  0.74085000  1.0 -0.2106801902
N  N43  1  0.37780000  0.48820000  0.86740000  1.0 -0.2487851645
N  N44  1  0.14230000  0.12750000  0.82576000  1.0 -0.2578522888
N  N45  1  0.52190000  0.77090000  0.00040000  1.0 -0.2487851645
N  N46  1  0.70280000  0.15180000  0.81658000  1.0 -0.2487851645
N  N47  1  0.45430000  0.97250000  0.90932000  1.0 -0.2189076633
N  N48  1  0.38380000  0.67680000  0.75915000  1.0 -0.2106801902
O  O1  1  0.93170000  0.18051000  0.61687000  1.0 -0.8695040753
O  O2  1  0.90870000  0.26061000  0.65588000  1.0 -0.7575646069
O  O3  1  0.00050000  0.28030000  0.61021000  1.0 -0.8695040753
O  O4  1  0.83350000  0.26677000  0.60629000  1.0 -0.8566186902
O  O5  1  0.70980000  0.24988000  0.65689000  1.0 -0.889862401
O  O6  1  0.79010000  0.36028000  0.64804000  1.0 -0.8797387614
O  O7  1  0.04260000  0.19370000  0.56433000  1.0 -0.9067274806
O  O8  1  0.73890000  0.15544000  0.61021000  1.0 -0.8974050012
O  O9  1  0.90040000  0.38429000  0.58757000  1.0 -1.0054132688
O  O10  1  0.10280000  0.27880000  0.66593000  1.0 -0.889862401
O  O11  1  0.84550000  0.18051000  0.55890000  1.0 -0.889862401
O  O12  1  0.98900000  0.37532000  0.65243000  1.0 -0.8797387614
O  O13  1  0.13250000  0.18450000  0.61942000  1.0 -0.8974050012
O  O14  1  0.84570000  0.14342000  0.67258000  1.0 -0.9721178812
O  O15  1  0.00300000  0.15528000  0.67614000  1.0 -0.9721178812
O  O16  1  0.65840000  0.25676000  0.60007000  1.0 -0.8006384288
O  O17  1  0.95780000  0.09105000  0.57552000  1.0 -0.82170068
O  O18  1  0.88370000  0.34599000  0.69963000  1.0 -0.8006384288
O  O19  1  0.80970000  0.23703000  0.70516000  1.0 -0.8291890574
O  O20  1  0.99200000  0.25079000  0.70951000  1.0 -0.82170068
O  O21  1  0.92190000  0.30915000  0.55108000  1.0 -1.0011975014
O  O22  1  0.85540000  0.07429000  0.62538000  1.0 -0.8488334412
O  O23  1  0.09500000  0.30349000  0.55939000  1.0 -0.8488334412
O  O24  1  0.17540000  0.29731000  0.61218000  1.0 -0.7894246307
O  O25  1  0.72920000  0.36387000  0.59288000  1.0 -0.8488334412
O  O26  1  0.03730000  0.08732000  0.63000000  1.0 -0.841098558
O  O27  1  0.75310000  0.27891000  0.55083000  1.0 -0.82170068
O  O28  1  0.07160000  0.38944000  0.60056000  1.0 -0.8291890574
O  O29  1  0.93170000  0.81949000  0.88313000  1.0 -0.8695040753
O  O30  1  0.90870000  0.73939000  0.84412000  1.0 -0.7575646069
O  O31  1  0.00050000  0.71970000  0.88979000  1.0 -0.8695040753
O  O32  1  0.83350000  0.73323000  0.89371000  1.0 -0.8566186902
O  O33  1  0.70980000  0.75012000  0.84311000  1.0 -0.889862401
O  O34  1  0.79010000  0.63972000  0.85196000  1.0 -0.8797387614
O  O35  1  0.04260000  0.80630000  0.93567000  1.0 -0.9067274806
O  O36  1  0.73890000  0.84456000  0.88979000  1.0 -0.8974050012
O  O37  1  0.90040000  0.61571000  0.91243000  1.0 -1.0054132688
O  O38  1  0.10280000  0.72120000  0.83407000  1.0 -0.889862401
O  O39  1  0.84550000  0.81949000  0.94110000  1.0 -0.889862401
O  O40  1  0.98900000  0.62468000  0.84757000  1.0 -0.8695040753
O  O41  1  0.13250000  0.81550000  0.88058000  1.0 -0.8974050012
O  O42  1  0.84570000  0.85658000  0.82742000  1.0 -0.9721178812
O  O43  1  0.00300000  0.84472000  0.82386000  1.0 -0.9721178812
O  O44  1  0.65840000  0.74324000  0.89993000  1.0 -0.8006384288
O  O45  1  0.95780000  0.90895000  0.92448000  1.0 -0.82170068
O  O46  1  0.88370000  0.65401000  0.80037000  1.0 -0.8006384288
O  O47  1  0.80970000  0.76297000  0.79484000  1.0 -0.8291890574
O  O48  1  0.99200000  0.74921000  0.79049000  1.0 -0.82170068
O  O49  1  0.92190000  0.69085000  0.94892000  1.0 -1.0011975014
O  O50  1  0.85540000  0.92571000  0.87462000  1.0 -0.8488334412
O  O51  1  0.09500000  0.69651000  0.94061000  1.0 -0.841098558
O  O52  1  0.17540000  0.70269000  0.88782000  1.0 -0.7894246307
O  O53  1  0.72920000  0.63613000  0.90712000  1.0 -0.8488334412
O  O54  1  0.03730000  0.91268000  0.87000000  1.0 -0.841098558
O  O55  1  0.75310000  0.72109000  0.94917000  1.0 -0.82170068
O  O56  1  0.07160000  0.61056000  0.89944000  1.0 -0.8291890574
O  O57  1  0.06830000  0.81949000  0.38313000  1.0 -0.8695040753
O  O58  1  0.09130000  0.73939000  0.34412000  1.0 -0.7575646069
O  O59  1  0.99950000  0.71970000  0.38979000  1.0 -0.8695040753
O  O60  1  0.16650000  0.73323000  0.39371000  1.0 -0.8566186902
O  O61  1  0.29020000  0.75012000  0.34311000  1.0 -0.889862401
O  O62  1  0.20990000  0.63972000  0.35196000  1.0 -0.8797387614
O  O63  1  0.95740000  0.80630000  0.43567000  1.0 -0.9067274806
O  O64  1  0.26110000  0.84456000  0.38979000  1.0 -0.8974050012
O  O65  1  0.09960000  0.61571000  0.41243000  1.0 -1.0011975014
O  O66  1  0.89720000  0.72120000  0.33407000  1.0 -0.889862401
O  O67  1  0.15450000  0.81949000  0.44110000  1.0 -0.889862401
O  O68  1  0.01100000  0.62468000  0.34757000  1.0 -0.8797387614
O  O69  1  0.86750000  0.81550000  0.38058000  1.0 -0.8974050012
O  O70  1  0.15430000  0.85658000  0.32742000  1.0 -0.9721178812
O  O71  1  0.99700000  0.84472000  0.32386000  1.0 -0.9721178812
O  O72  1  0.34160000  0.74324000  0.39993000  1.0 -0.8006384288
O  O73  1  0.04220000  0.90895000  0.42448000  1.0 -0.82170068
O  O74  1  0.11630000  0.65401000  0.30037000  1.0 -0.8006384288
O  O75  1  0.19030000  0.76297000  0.29484000  1.0 -0.8291890574
O  O76  1  0.00800000  0.74921000  0.29049000  1.0 -0.82170068
O  O77  1  0.07810000  0.69085000  0.44892000  1.0 -1.0011975014
O  O78  1  0.14460000  0.92571000  0.37462000  1.0 -0.8488334412
O  O79  1  0.90500000  0.69651000  0.44061000  1.0 -0.8488334412
O  O80  1  0.82460000  0.70269000  0.38782000  1.0 -0.7894246307
O  O81  1  0.27080000  0.63613000  0.40712000  1.0 -0.8488334412
O  O82  1  0.96270000  0.91268000  0.37000000  1.0 -0.841098558
O  O83  1  0.24690000  0.72109000  0.44917000  1.0 -0.82170068
O  O84  1  0.92840000  0.61056000  0.39944000  1.0 -0.8291890574
O  O85  1  0.06830000  0.18051000  0.11687000  1.0 -0.8695040753
O  O86  1  0.09130000  0.26061000  0.15588000  1.0 -0.7575646069
O  O87  1  0.99950000  0.28030000  0.11021000  1.0 -0.8695040753
O  O88  1  0.16650000  0.26677000  0.10629000  1.0 -0.8566186902
O  O89  1  0.29020000  0.24988000  0.15689000  1.0 -0.889862401
O  O90  1  0.20990000  0.36028000  0.14804000  1.0 -0.8797387614
O  O91  1  0.95740000  0.19370000  0.06433000  1.0 -0.9067274806
O  O92  1  0.26110000  0.15544000  0.11021000  1.0 -0.8974050012
O  O93  1  0.09960000  0.38429000  0.08757000  1.0 -1.0054132688
O  O94  1  0.89720000  0.27880000  0.16593000  1.0 -0.889862401
O  O95  1  0.15450000  0.18051000  0.05890000  1.0 -0.889862401
O  O96  1  0.01100000  0.37532000  0.15243000  1.0 -0.8797387614
O  O97  1  0.86750000  0.18450000  0.11942000  1.0 -0.8974050012
O  O98  1  0.15430000  0.14342000  0.17258000  1.0 -0.9721178812
O  O99  1  0.99700000  0.15528000  0.17614000  1.0 -0.9721178812
O  O100  1  0.34160000  0.25676000  0.10007000  1.0 -0.8006384288
O  O101  1  0.04220000  0.09105000  0.07552000  1.0 -0.82170068
O  O102  1  0.11630000  0.34599000  0.19963000  1.0 -0.8006384288
O  O103  1  0.19030000  0.23703000  0.20516000  1.0 -0.8291890574
O  O104  1  0.00800000  0.25079000  0.20951000  1.0 -0.82170068
O  O105  1  0.07810000  0.30915000  0.05108000  1.0 -1.0011975014
O  O106  1  0.14460000  0.07429000  0.12538000  1.0 -0.8488334412
O  O107  1  0.90500000  0.30349000  0.05939000  1.0 -0.8488334412
O  O108  1  0.82460000  0.29731000  0.11218000  1.0 -0.7894246307
O  O109  1  0.27080000  0.36387000  0.09288000  1.0 -0.8488334412
O  O110  1  0.96270000  0.08732000  0.13000000  1.0 -0.841098558
O  O111  1  0.24690000  0.27891000  0.05083000  1.0 -0.82170068
O  O112  1  0.92840000  0.38944000  0.10056000  1.0 -0.8291890574
O  O113  1  0.56830000  0.18051000  0.38313000  1.0 -0.8695040753
O  O114  1  0.59130000  0.26061000  0.34412000  1.0 -0.7575646069
O  O115  1  0.49950000  0.28030000  0.38979000  1.0 -0.8695040753
O  O116  1  0.66650000  0.26677000  0.39371000  1.0 -0.8566186902
O  O117  1  0.79020000  0.24988000  0.34311000  1.0 -0.889862401
O  O118  1  0.70990000  0.36028000  0.35196000  1.0 -0.8797387614
O  O119  1  0.45740000  0.19370000  0.43567000  1.0 -0.9067274806
O  O120  1  0.76110000  0.15544000  0.38979000  1.0 -0.8974050012
O  O121  1  0.59960000  0.38429000  0.41243000  1.0 -1.0054132688
O  O122  1  0.39720000  0.27880000  0.33407000  1.0 -0.889862401
O  O123  1  0.65450000  0.18051000  0.44110000  1.0 -0.889862401
O  O124  1  0.51100000  0.37532000  0.34757000  1.0 -0.8797387614
O  O125  1  0.36750000  0.18450000  0.38058000  1.0 -0.8974050012
O  O126  1  0.65430000  0.14342000  0.32742000  1.0 -0.9721178812
O  O127  1  0.49700000  0.15528000  0.32386000  1.0 -0.9721178812
O  O128  1  0.84160000  0.25676000  0.39993000  1.0 -0.8006384288
O  O129  1  0.54220000  0.09105000  0.42448000  1.0 -0.82170068
O  O130  1  0.61630000  0.34599000  0.30037000  1.0 -0.8006384288
O  O131  1  0.69030000  0.23703000  0.29484000  1.0 -0.8291890574
O  O132  1  0.50800000  0.25079000  0.29049000  1.0 -0.82170068
O  O133  1  0.57810000  0.30915000  0.44892000  1.0 -1.0011975014
O  O134  1  0.64460000  0.07429000  0.37462000  1.0 -0.8488334412
O  O135  1  0.40500000  0.30349000  0.44061000  1.0 -0.8488334412
O  O136  1  0.32460000  0.29731000  0.38782000  1.0 -0.7894246307
O  O137  1  0.77080000  0.36387000  0.40712000  1.0 -0.8488334412
O  O138  1  0.46270000  0.08732000  0.37000000  1.0 -0.841098558
O  O139  1  0.74690000  0.27891000  0.44917000  1.0 -0.82170068
O  O140  1  0.42840000  0.38944000  0.39944000  1.0 -0.8291890574
O  O141  1  0.56830000  0.81949000  0.11687000  1.0 -0.8695040753
O  O142  1  0.59130000  0.73939000  0.15588000  1.0 -0.7575646069
O  O143  1  0.49950000  0.71970000  0.11021000  1.0 -0.8695040753
O  O144  1  0.66650000  0.73323000  0.10629000  1.0 -0.8566186902
O  O145  1  0.79020000  0.75012000  0.15689000  1.0 -0.889862401
O  O146  1  0.70990000  0.63972000  0.14804000  1.0 -0.8797387614
O  O147  1  0.45740000  0.80630000  0.06433000  1.0 -0.9067274806
O  O148  1  0.76110000  0.84456000  0.11021000  1.0 -0.8974050012
O  O149  1  0.59960000  0.61571000  0.08757000  1.0 -1.0054132688
O  O150  1  0.39720000  0.72120000  0.16593000  1.0 -0.889862401
O  O151  1  0.65450000  0.81949000  0.05890000  1.0 -0.889862401
O  O152  1  0.51100000  0.62468000  0.15243000  1.0 -0.8797387614
O  O153  1  0.36750000  0.81550000  0.11942000  1.0 -0.8974050012
O  O154  1  0.65430000  0.85658000  0.17258000  1.0 -0.9721178812
O  O155  1  0.49700000  0.84472000  0.17614000  1.0 -0.9721178812
O  O156  1  0.84160000  0.74324000  0.10007000  1.0 -0.8006384288
O  O157  1  0.54220000  0.90895000  0.07552000  1.0 -0.82170068
O  O158  1  0.61630000  0.65401000  0.19963000  1.0 -0.8006384288
O  O159  1  0.69030000  0.76297000  0.20516000  1.0 -0.8291890574
O  O160  1  0.50800000  0.74921000  0.20951000  1.0 -0.82170068
O  O161  1  0.57810000  0.69085000  0.05108000  1.0 -1.0011975014
O  O162  1  0.64460000  0.92571000  0.12538000  1.0 -0.8488334412
O  O163  1  0.40500000  0.69651000  0.05939000  1.0 -0.8488334412
O  O164  1  0.32460000  0.70269000  0.11218000  1.0 -0.7894246307
O  O165  1  0.77080000  0.63613000  0.09288000  1.0 -0.8488334412
O  O166  1  0.46270000  0.91268000  0.13000000  1.0 -0.841098558
O  O167  1  0.74690000  0.72109000  0.05083000  1.0 -0.82170068
O  O168  1  0.42840000  0.61056000  0.10056000  1.0 -0.8291890574
O  O169  1  0.43170000  0.81949000  0.61687000  1.0 -0.8695040753
O  O170  1  0.40870000  0.73939000  0.65588000  1.0 -0.7575646069
O  O171  1  0.50050000  0.71970000  0.61021000  1.0 -0.8695040753
O  O172  1  0.33350000  0.73323000  0.60629000  1.0 -0.8566186902
O  O173  1  0.20980000  0.75012000  0.65689000  1.0 -0.889862401
O  O174  1  0.29010000  0.63972000  0.64804000  1.0 -0.8797387614
O  O175  1  0.54260000  0.80630000  0.56433000  1.0 -0.9067274806
O  O176  1  0.23890000  0.84456000  0.61021000  1.0 -0.8974050012
O  O177  1  0.40040000  0.61571000  0.58757000  1.0 -1.0054132688
O  O178  1  0.60280000  0.72120000  0.66593000  1.0 -0.889862401
O  O179  1  0.34550000  0.81949000  0.55890000  1.0 -0.889862401
O  O180  1  0.48900000  0.62468000  0.65243000  1.0 -0.8695040753
O  O181  1  0.63250000  0.81550000  0.61942000  1.0 -0.8974050012
O  O182  1  0.34570000  0.85658000  0.67258000  1.0 -0.9721178812
O  O183  1  0.50300000  0.84472000  0.67614000  1.0 -0.9721178812
O  O184  1  0.15840000  0.74324000  0.60007000  1.0 -0.8006384288
O  O185  1  0.45780000  0.90895000  0.57552000  1.0 -0.82170068
O  O186  1  0.38370000  0.65401000  0.69963000  1.0 -0.8006384288
O  O187  1  0.30970000  0.76297000  0.70516000  1.0 -0.8291890574
O  O188  1  0.49200000  0.74921000  0.70951000  1.0 -0.82170068
O  O189  1  0.42190000  0.69085000  0.55108000  1.0 -1.0011975014
O  O190  1  0.35540000  0.92571000  0.62538000  1.0 -0.8488334412
O  O191  1  0.59500000  0.69651000  0.55939000  1.0 -0.8488334412
O  O192  1  0.67540000  0.70269000  0.61218000  1.0 -0.7894246307
O  O193  1  0.22920000  0.63613000  0.59288000  1.0 -0.8488334412
O  O194  1  0.53730000  0.91268000  0.63000000  1.0 -0.841098558
O  O195  1  0.25310000  0.72109000  0.55083000  1.0 -0.82170068
O  O196  1  0.57160000  0.61056000  0.60056000  1.0 -0.8291890574
O  O197  1  0.43170000  0.18051000  0.88313000  1.0 -0.8695040753
O  O198  1  0.40870000  0.26061000  0.84412000  1.0 -0.7575646069
O  O199  1  0.50050000  0.28030000  0.88979000  1.0 -0.8695040753
O  O200  1  0.33350000  0.26677000  0.89371000  1.0 -0.8566186902
O  O201  1  0.20980000  0.24988000  0.84311000  1.0 -0.889862401
O  O202  1  0.29010000  0.36028000  0.85196000  1.0 -0.8797387614
O  O203  1  0.54260000  0.19370000  0.93567000  1.0 -0.9067274806
O  O204  1  0.23890000  0.15544000  0.88979000  1.0 -0.8974050012
O  O205  1  0.40040000  0.38429000  0.91243000  1.0 -1.0054132688
O  O206  1  0.60280000  0.27880000  0.83407000  1.0 -0.889862401
O  O207  1  0.34550000  0.18051000  0.94110000  1.0 -0.889862401
O  O208  1  0.48900000  0.37532000  0.84757000  1.0 -0.8797387614
O  O209  1  0.63250000  0.18450000  0.88058000  1.0 -0.8974050012
O  O210  1  0.34570000  0.14342000  0.82742000  1.0 -0.9721178812
O  O211  1  0.50300000  0.15528000  0.82386000  1.0 -0.9721178812
O  O212  1  0.15840000  0.25676000  0.89993000  1.0 -0.8006384288
O  O213  1  0.45780000  0.09105000  0.92448000  1.0 -0.82170068
O  O214  1  0.38370000  0.34599000  0.80037000  1.0 -0.8006384288
O  O215  1  0.30970000  0.23703000  0.79484000  1.0 -0.8291890574
O  O216  1  0.49200000  0.25079000  0.79049000  1.0 -0.82170068
O  O217  1  0.42190000  0.30915000  0.94892000  1.0 -1.0011975014
O  O218  1  0.35540000  0.07429000  0.87462000  1.0 -0.8488334412
O  O219  1  0.59500000  0.30349000  0.94061000  1.0 -0.8488334412
O  O220  1  0.67540000  0.29731000  0.88782000  1.0 -0.7894246307
O  O221  1  0.22920000  0.36387000  0.90712000  1.0 -0.8488334412
O  O222  1  0.53730000  0.08732000  0.87000000  1.0 -0.841098558
O  O223  1  0.25310000  0.27891000  0.94917000  1.0 -0.82170068
O  O224  1  0.57160000  0.38944000  0.89944000  1.0 -0.8291890574
