# DDEC6 charges by PACMAN v1.1 (https://github.com/mtap-research/PACMAN-charge/)
data_XOVXAI_ASR_pacman
_symmetry_space_group_name_H-M   'P 1'
_cell_length_a   11.09800000
_cell_length_b   11.19400000
_cell_length_c   16.58700000
_cell_angle_alpha   99.08500000
_cell_angle_beta   109.29600000
_cell_angle_gamma   91.09800000
_symmetry_Int_Tables_number   1
_chemical_formula_structural   Co5H14C28(N2O11)2
_chemical_formula_sum   'Co10 H28 C56 N8 O44'
_cell_volume   1914.82987877
_cell_formula_units_Z   2
loop_
 _symmetry_equiv_pos_site_id
 _symmetry_equiv_pos_as_xyz
  1  'x, y, z'
loop_
 _atom_site_type_symbol
 _atom_site_label
 _atom_site_symmetry_multiplicity
 _atom_site_fract_x
 _atom_site_fract_y
 _atom_site_fract_z
 _atom_site_occupancy
 _atom_site_charge
Co  Co1  1  0.82226000  0.13341000  0.74904000  1.0 1.1386949469
Co  Co2  1  0.17774000  0.86659000  0.25096000  1.0 1.1386949469
Co  Co3  1  0.79881000  0.29184000  0.95126000  1.0 0.9968065669
Co  Co4  1  0.20119000  0.70816000  0.04874000  1.0 0.9968065669
Co  Co5  1  0.07936000  0.23274000  0.96403000  1.0 1.0219225635
Co  Co6  1  0.92064000  0.76726000  0.03597000  1.0 1.0219225635
Co  Co7  1  0.75854000  0.91885000  0.54368000  1.0 1.0219225635
Co  Co8  1  0.24146000  0.08115000  0.45632000  1.0 1.0219225635
Co  Co9  1  0.82751000  0.19057000  0.53943000  1.0 0.9968065669
Co  Co10  1  0.17249000  0.80943000  0.46057000  1.0 0.9968065669
H  H1  1  0.43140000  0.94490000  0.64160000  1.0 0.1512229939
H  H2  1  0.56860000  0.05510000  0.35840000  1.0 0.1512229939
H  H3  1  0.50390000  0.97300000  0.79530000  1.0 0.1577172329
H  H4  1  0.49610000  0.02700000  0.20470000  1.0 0.1577172329
H  H5  1  0.36490000  0.02760000  0.86270000  1.0 0.1512229939
H  H6  1  0.63510000  0.97240000  0.13730000  1.0 0.1512229939
H  H7  1  0.10920000  0.33920000  0.63390000  1.0 0.1400690501
H  H8  1  0.89080000  0.66080000  0.36610000  1.0 0.1400690501
H  H9  1  0.19680000  0.38070000  0.78170000  1.0 0.1512229939
H  H10  1  0.80320000  0.61930000  0.21830000  1.0 0.1512229939
H  H11  1  0.40630000  0.32890000  0.84600000  1.0 0.1400690501
H  H12  1  0.59370000  0.67110000  0.15400000  1.0 0.1400690501
H  H13  1  0.02270000  0.82590000  0.85790000  1.0 0.1512229939
H  H14  1  0.97730000  0.17410000  0.14210000  1.0 0.1512229939
H  H15  1  0.99630000  0.78290000  0.71050000  1.0 0.1577172329
H  H16  1  0.00370000  0.21710000  0.28950000  1.0 0.1577172329
H  H17  1  0.93300000  0.58460000  0.63500000  1.0 0.1512229939
H  H18  1  0.06700000  0.41540000  0.36500000  1.0 0.1512229939
H  H19  1  0.63480000  0.49950000  0.84880000  1.0 0.1400690501
H  H20  1  0.36520000  0.50050000  0.15120000  1.0 0.1400690501
H  H21  1  0.56840000  0.47710000  0.69730000  1.0 0.1400690501
H  H22  1  0.43160000  0.52290000  0.30270000  1.0 0.1400690501
H  H23  1  0.61790000  0.63960000  0.63930000  1.0 0.1512229939
H  H24  1  0.38210000  0.36040000  0.36070000  1.0 0.1512229939
H  H25  1  0.67310000  0.10450000  0.59540000  1.0 0.3897476916
H  H26  1  0.32690000  0.89550000  0.40460000  1.0 0.3897476916
H  H27  1  0.87740000  0.10200000  0.90430000  1.0 0.3897476916
H  H28  1  0.12260000  0.89800000  0.09570000  1.0 0.3897476916
C  C1  1  0.37730000  0.96750000  0.67290000  1.0 -0.0403205421
C  C2  1  0.62270000  0.03250000  0.32710000  1.0 -0.0403205421
C  C3  1  0.41980000  0.98430000  0.76350000  1.0 -0.1099161549
C  C4  1  0.58020000  0.01570000  0.23650000  1.0 -0.1099161549
C  C5  1  0.33550000  0.01700000  0.80240000  1.0 -0.0704429483
C  C6  1  0.66450000  0.98300000  0.19760000  1.0 -0.0825834091
C  C7  1  0.21110000  0.03660000  0.76380000  1.0 -0.0704429483
C  C8  1  0.78890000  0.96340000  0.23620000  1.0 -0.0704429483
C  C9  1  0.16350000  0.01300000  0.67530000  1.0 -0.0403205421
C  C10  1  0.83650000  0.98700000  0.32470000  1.0 -0.0403205421
C  C11  1  0.03250000  0.02640000  0.62010000  1.0 0.6075689991
C  C12  1  0.96750000  0.97360000  0.37990000  1.0 0.6075689991
C  C13  1  0.12090000  0.08700000  0.80920000  1.0 0.6005664294
C  C14  1  0.87910000  0.91300000  0.19080000  1.0 0.6005664294
C  C15  1  0.19410000  0.32370000  0.65990000  1.0 -0.0403205421
C  C16  1  0.80590000  0.67630000  0.34010000  1.0 -0.0403205421
C  C17  1  0.24410000  0.34680000  0.74800000  1.0 -0.1164050947
C  C18  1  0.75590000  0.65320000  0.25200000  1.0 -0.1164050947
C  C19  1  0.37040000  0.31730000  0.78590000  1.0 -0.0825834091
C  C20  1  0.62960000  0.68270000  0.21410000  1.0 -0.0825834091
C  C21  1  0.44230000  0.27180000  0.73670000  1.0 -0.1030333887
C  C22  1  0.55770000  0.72820000  0.26330000  1.0 -0.1030333887
C  C23  1  0.38760000  0.25840000  0.64660000  1.0 -0.0097551376
C  C24  1  0.61240000  0.74160000  0.35340000  1.0 -0.0097551376
C  C25  1  0.45450000  0.22280000  0.58130000  1.0 0.5608754804
C  C26  1  0.54550000  0.77720000  0.41870000  1.0 0.5608754804
C  C27  1  0.57840000  0.24440000  0.77940000  1.0 0.6075689991
C  C28  1  0.42160000  0.75560000  0.22060000  1.0 0.6075689991
C  C29  1  0.00530000  0.74640000  0.82800000  1.0 -0.0403205421
C  C30  1  0.99470000  0.25360000  0.17200000  1.0 -0.0297500032
C  C31  1  0.98600000  0.72120000  0.73970000  1.0 -0.1099161549
C  C32  1  0.01400000  0.27880000  0.26030000  1.0 -0.1099161549
C  C33  1  0.95060000  0.60070000  0.69470000  1.0 -0.0704429483
C  C34  1  0.04940000  0.39930000  0.30530000  1.0 -0.0704429483
C  C35  1  0.94210000  0.51150000  0.73490000  1.0 -0.0825834091
C  C36  1  0.05790000  0.48850000  0.26510000  1.0 -0.0825834091
C  C37  1  0.96530000  0.53780000  0.82870000  1.0 0.014747023
C  C38  1  0.03470000  0.46220000  0.17130000  1.0 0.014747023
C  C39  1  0.95870000  0.44470000  0.88440000  1.0 0.6005664294
C  C40  1  0.04130000  0.55530000  0.11560000  1.0 0.6005664294
C  C41  1  0.89770000  0.38290000  0.69480000  1.0 0.6005664294
C  C42  1  0.10230000  0.61710000  0.30520000  1.0 0.6005664294
C  C43  1  0.64420000  0.56500000  0.82260000  1.0 -0.0297500032
C  C44  1  0.35580000  0.43500000  0.17740000  1.0 -0.0297500032
C  C45  1  0.60880000  0.54940000  0.73280000  1.0 -0.1164050947
C  C46  1  0.39120000  0.45060000  0.26720000  1.0 -0.1164050947
C  C47  1  0.63730000  0.64870000  0.69910000  1.0 -0.0704429483
C  C48  1  0.36270000  0.35130000  0.30090000  1.0 -0.0704429483
C  C49  1  0.69190000  0.75790000  0.74800000  1.0 -0.1164050947
C  C50  1  0.30810000  0.24210000  0.25200000  1.0 -0.1164050947
C  C51  1  0.71740000  0.77380000  0.84020000  1.0 -0.0403205421
C  C52  1  0.28260000  0.22620000  0.15980000  1.0 -0.0403205421
C  C53  1  0.76020000  0.88370000  0.90510000  1.0 0.5512178292
C  C54  1  0.23980000  0.11630000  0.09490000  1.0 0.5512178292
C  C55  1  0.72490000  0.85850000  0.71030000  1.0 0.6005664294
C  C56  1  0.27510000  0.14150000  0.28970000  1.0 0.6005664294
N  N1  1  0.25240000  0.98610000  0.63310000  1.0 0.29965957
N  N2  1  0.74760000  0.01390000  0.36690000  1.0 0.29965957
N  N3  1  0.26220000  0.27840000  0.60660000  1.0 0.3135489275
N  N4  1  0.73780000  0.72160000  0.39340000  1.0 0.3135489275
N  N5  1  0.99830000  0.65480000  0.86930000  1.0 0.2894474317
N  N6  1  0.00170000  0.34520000  0.13070000  1.0 0.2894474317
N  N7  1  0.69310000  0.67620000  0.87290000  1.0 0.29965957
N  N8  1  0.30690000  0.32380000  0.12710000  1.0 0.29965957
O  O1  1  0.20770000  0.97270000  0.54650000  1.0 -0.5108109862
O  O2  1  0.79230000  0.02730000  0.45350000  1.0 -0.5108109862
O  O3  1  0.95990000  0.93100000  0.59830000  1.0 -0.5201853464
O  O4  1  0.04010000  0.06900000  0.40170000  1.0 -0.5201853464
O  O5  1  0.00400000  0.12760000  0.60030000  1.0 -0.5392333021
O  O6  1  0.99600000  0.87240000  0.39970000  1.0 -0.5392333021
O  O7  1  0.00150000  0.06900000  0.76500000  1.0 -0.5663478027
O  O8  1  0.99850000  0.93100000  0.23500000  1.0 -0.5663478027
O  O9  1  0.16810000  0.14440000  0.88590000  1.0 -0.5201853464
O  O10  1  0.83190000  0.85560000  0.11410000  1.0 -0.5201853464
O  O11  1  0.21420000  0.25610000  0.52280000  1.0 -0.4157610635
O  O12  1  0.78580000  0.74390000  0.47720000  1.0 -0.4157610635
O  O13  1  0.52630000  0.30620000  0.57490000  1.0 -0.5108109862
O  O14  1  0.47370000  0.69380000  0.42510000  1.0 -0.5108109862
O  O15  1  0.43490000  0.11250000  0.54130000  1.0 -0.5775974343
O  O16  1  0.56510000  0.88750000  0.45870000  1.0 -0.5775974343
O  O17  1  0.63680000  0.19200000  0.73440000  1.0 -0.5108109862
O  O18  1  0.36320000  0.80800000  0.26560000  1.0 -0.5108109862
O  O19  1  0.62210000  0.27880000  0.86290000  1.0 -0.5934714625
O  O20  1  0.37790000  0.72120000  0.13710000  1.0 -0.5934714625
O  O21  1  0.02650000  0.67930000  0.95600000  1.0 -0.5285896312
O  O22  1  0.97350000  0.32070000  0.04400000  1.0 -0.5285896312
O  O23  1  0.85860000  0.43260000  0.89750000  1.0 -0.500488552
O  O24  1  0.14140000  0.56740000  0.10250000  1.0 -0.500488552
O  O25  1  0.06040000  0.38830000  0.90840000  1.0 -0.5285896312
O  O26  1  0.93960000  0.61170000  0.09160000  1.0 -0.5392333021
O  O27  1  0.88280000  0.30890000  0.74050000  1.0 -0.5285896312
O  O28  1  0.11720000  0.69110000  0.25950000  1.0 -0.5201853464
O  O29  1  0.87930000  0.35870000  0.61430000  1.0 -0.5663478027
O  O30  1  0.12070000  0.64130000  0.38570000  1.0 -0.5663478027
O  O31  1  0.72810000  0.68220000  0.95850000  1.0 -0.4606627028
O  O32  1  0.27190000  0.31780000  0.04150000  1.0 -0.4606627028
O  O33  1  0.87860000  0.89810000  0.95210000  1.0 -0.5608998487
O  O34  1  0.12140000  0.10190000  0.04790000  1.0 -0.5608998487
O  O35  1  0.67690000  0.95350000  0.91370000  1.0 -0.500488552
O  O36  1  0.32310000  0.04650000  0.08630000  1.0 -0.500488552
O  O37  1  0.75660000  0.96080000  0.75810000  1.0 -0.5501837532
O  O38  1  0.24340000  0.03920000  0.24190000  1.0 -0.5501837532
O  O39  1  0.72460000  0.83360000  0.63220000  1.0 -0.5501837532
O  O40  1  0.27540000  0.16640000  0.36780000  1.0 -0.5501837532
O  O41  1  0.75200000  0.09150000  0.61030000  1.0 -0.8914930473
O  O42  1  0.24800000  0.90850000  0.38970000  1.0 -0.8914930473
O  O43  1  0.88930000  0.16930000  0.88940000  1.0 -0.8914930473
O  O44  1  0.11070000  0.83070000  0.11060000  1.0 -0.8914930473
