# DDEC6 charges by PACMAN v1.1 (https://github.com/mtap-research/PACMAN-charge/)
data_XOWRUZ_FSR_pacman
_symmetry_space_group_name_H-M   'P 1'
_cell_length_a   12.17030000
_cell_length_b   12.62940000
_cell_length_c   20.99310000
_cell_angle_alpha   84.22600000
_cell_angle_beta   104.96000000
_cell_angle_gamma   116.67100000
_symmetry_Int_Tables_number   1
_chemical_formula_structural   DyP10H38Ru5C7(NO5)7
_chemical_formula_sum   'Dy2 P20 H76 Ru10 C14 N14 O70'
_cell_volume   2785.22369994
_cell_formula_units_Z   2
loop_
 _symmetry_equiv_pos_site_id
 _symmetry_equiv_pos_as_xyz
  1  'x, y, z'
loop_
 _atom_site_type_symbol
 _atom_site_label
 _atom_site_symmetry_multiplicity
 _atom_site_fract_x
 _atom_site_fract_y
 _atom_site_fract_z
 _atom_site_occupancy
 _atom_site_charge
Dy  Dy1  1  0.20229000  0.32298000  0.25350000  1.0 2.157876954
Dy  Dy2  1  0.79771000  0.67702000  0.74650000  1.0 2.157876954
P  P1  1  0.18799000  0.61224000  0.25507000  1.0 1.2356508528
P  P2  1  0.10335000  0.76672000  0.15257000  1.0 1.2042875146
P  P3  1  0.23289000  0.04932000  0.31523000  1.0 1.2259064769
P  P4  1  0.31473000  0.88997000  0.41695000  1.0 1.1769285058
P  P5  1  0.88861000  0.23807000  0.28121000  1.0 1.0286080097
P  P6  1  0.60702000  0.08125000  0.26965000  1.0 0.9412115668
P  P7  1  0.53998000  0.40321000  0.28757000  1.0 0.9876003718
P  P8  1  0.82118000  0.56785000  0.30092000  1.0 0.9876003718
P  P9  1  0.74129000  0.89092000  0.99241000  1.0 1.2356508528
P  P10  1  0.86153000  0.86410000  0.88752000  1.0 1.2460830068
P  P11  1  0.81201000  0.38776000  0.74493000  1.0 1.2356508528
P  P12  1  0.89665000  0.23328000  0.84743000  1.0 1.2042875146
P  P13  1  0.76711000  0.95068000  0.68477000  1.0 1.2259064769
P  P14  1  0.68527000  0.11003000  0.58305000  1.0 1.1769285058
P  P15  1  0.11139000  0.76193000  0.71879000  1.0 1.0212259149
P  P16  1  0.39298000  0.91875000  0.73035000  1.0 0.9412115668
P  P17  1  0.46002000  0.59679000  0.71243000  1.0 0.9876003718
P  P18  1  0.17882000  0.43215000  0.69908000  1.0 0.9876003718
P  P19  1  0.25871000  0.10908000  0.00759000  1.0 1.2356508528
P  P20  1  0.13847000  0.13590000  0.11248000  1.0 1.2460830068
H  H1  1  0.16195000  0.61661000  0.14036000  1.0 0.198380739
H  H2  1  0.26085000  0.04170000  0.43082000  1.0 0.1794699853
H  H3  1  0.66379000  0.74418000  0.91080000  1.0 0.1887361822
H  H4  1  0.94340000  0.53145000  0.11145000  1.0 0.2715997999
H  H5  1  0.98668000  0.45598000  0.16017000  1.0 0.2912067925
H  H6  1  0.93803000  0.53224000  0.18131000  1.0 0.2912067925
H  H7  1  0.43630000  0.19934000  0.40830000  1.0 0.2912067925
H  H8  1  0.47645000  0.12472000  0.45915000  1.0 0.3060290669
H  H9  1  0.48304000  0.11909000  0.38995000  1.0 0.2995264386
H  H10  1  0.78167000  0.03840000  0.31025000  1.0 0.0512758294
H  H11  1  0.77684000  0.08974000  0.17584000  1.0 0.1615123629
H  H12  1  0.66536000  0.98178000  0.18776000  1.0 0.1713175088
H  H13  1  0.79485000  0.99010000  0.21326000  1.0 0.1713175088
H  H14  1  0.66768000  0.58780000  0.33735000  1.0 0.0759867882
H  H15  1  0.56276000  0.59775000  0.20866000  1.0 0.1615123629
H  H16  1  0.70082000  0.67644000  0.22035000  1.0 0.1887361822
H  H17  1  0.62489000  0.69219000  0.26057000  1.0 0.1481525009
H  H18  1  0.67957000  0.96546000  0.86753000  1.0 0.2826520359
H  H19  1  0.56309000  0.85120000  0.85880000  1.0 0.2912067925
H  H20  1  0.65604000  0.87568000  0.81871000  1.0 0.2995264386
H  H21  1  0.31906000  0.35947000  0.39059000  1.0 0.3972962652
H  H22  1  0.27645000  0.44621000  0.37503000  1.0 0.4114896735
H  H23  1  0.96516000  0.28837000  0.15874000  1.0 0.3894864524
H  H24  1  0.04708000  0.30736000  0.11889000  1.0 0.3894864524
H  H25  1  0.37496000  0.48165000  0.17701000  1.0 0.3838754152
H  H26  1  0.27103000  0.50640000  0.15760000  1.0 0.3838754152
H  H27  1  0.72062000  0.35764000  0.10186000  1.0 0.370597974
H  H28  1  0.59056000  0.29480000  0.09795000  1.0 0.3894864524
H  H29  1  0.77952000  0.24371000  0.46661000  1.0 0.4114896735
H  H30  1  0.84151000  0.36659000  0.47042000  1.0 0.3972962652
H  H31  1  0.75475000  0.04926000  0.22886000  1.0 0.0585938175
H  H32  1  0.88014000  0.05400000  0.34987000  1.0 0.1713175088
H  H33  1  0.76669000  0.94389000  0.32182000  1.0 0.1615123629
H  H34  1  0.75700000  0.02359000  0.36533000  1.0 0.1713175088
H  H35  1  0.64292000  0.60049000  0.26041000  1.0 0.0856163507
H  H36  1  0.58833000  0.59971000  0.35834000  1.0 0.1713175088
H  H37  1  0.71802000  0.69198000  0.35751000  1.0 0.1794699853
H  H38  1  0.70048000  0.58292000  0.39638000  1.0 0.1713175088
H  H39  1  0.83805000  0.38339000  0.85964000  1.0 0.198380739
H  H40  1  0.73915000  0.95830000  0.56918000  1.0 0.1794699853
H  H41  1  0.33621000  0.25582000  0.08920000  1.0 0.1887361822
H  H42  1  0.05660000  0.46855000  0.88855000  1.0 0.2715997999
H  H43  1  0.01332000  0.54402000  0.83983000  1.0 0.2912067925
H  H44  1  0.06197000  0.46776000  0.81869000  1.0 0.2912067925
H  H45  1  0.56370000  0.80066000  0.59170000  1.0 0.2912067925
H  H46  1  0.52355000  0.87528000  0.54085000  1.0 0.3060290669
H  H47  1  0.51696000  0.88091000  0.61005000  1.0 0.2995264386
H  H48  1  0.21833000  0.96160000  0.68975000  1.0 0.0512758294
H  H49  1  0.22316000  0.91026000  0.82416000  1.0 0.1615123629
H  H50  1  0.33464000  0.01822000  0.81224000  1.0 0.1713175088
H  H51  1  0.20515000  0.00990000  0.78674000  1.0 0.1713175088
H  H52  1  0.33232000  0.41220000  0.66265000  1.0 0.0759867882
H  H53  1  0.43724000  0.40225000  0.79134000  1.0 0.1615123629
H  H54  1  0.29918000  0.32356000  0.77965000  1.0 0.1887361822
H  H55  1  0.37511000  0.30781000  0.73943000  1.0 0.1481525009
H  H56  1  0.32043000  0.03454000  0.13247000  1.0 0.2826520359
H  H57  1  0.43691000  0.14880000  0.14120000  1.0 0.2912067925
H  H58  1  0.34396000  0.12432000  0.18129000  1.0 0.2995264386
H  H59  1  0.68094000  0.64053000  0.60941000  1.0 0.3972962652
H  H60  1  0.72355000  0.55379000  0.62497000  1.0 0.4114896735
H  H61  1  0.03484000  0.71163000  0.84126000  1.0 0.3894864524
H  H62  1  0.95292000  0.69264000  0.88111000  1.0 0.3894864524
H  H63  1  0.62504000  0.51835000  0.82299000  1.0 0.3838754152
H  H64  1  0.72897000  0.49360000  0.84240000  1.0 0.3838754152
H  H65  1  0.27938000  0.64236000  0.89814000  1.0 0.370597974
H  H66  1  0.40944000  0.70520000  0.90205000  1.0 0.3894864524
H  H67  1  0.22048000  0.75629000  0.53339000  1.0 0.4114896735
H  H68  1  0.15849000  0.63341000  0.52958000  1.0 0.3972962652
H  H69  1  0.24525000  0.95074000  0.77114000  1.0 0.0585938175
H  H70  1  0.11986000  0.94600000  0.65013000  1.0 0.1713175088
H  H71  1  0.23331000  0.05611000  0.67818000  1.0 0.1615123629
H  H72  1  0.24300000  0.97641000  0.63467000  1.0 0.1713175088
H  H73  1  0.35708000  0.39951000  0.73959000  1.0 0.0856163507
H  H74  1  0.41167000  0.40029000  0.64166000  1.0 0.1794699853
H  H75  1  0.28198000  0.30802000  0.64249000  1.0 0.1794699853
H  H76  1  0.29952000  0.41708000  0.60362000  1.0 0.1713175088
Ru  Ru1  1  0.10886000  0.78456000  0.29509000  1.0 1.0353290891
Ru  Ru2  1  0.31216000  0.87680000  0.27412000  1.0 1.0021249508
Ru  Ru3  1  0.69828000  0.33539000  0.22735000  1.0 0.8527840828
Ru  Ru4  1  0.73626000  0.31412000  0.34219000  1.0 0.9188960349
Ru  Ru5  1  0.00861000  0.91667000  0.02708000  1.0 1.0212259149
Ru  Ru6  1  0.89114000  0.21544000  0.70491000  1.0 1.0286080097
Ru  Ru7  1  0.68784000  0.12320000  0.72588000  1.0 1.0021249508
Ru  Ru8  1  0.30172000  0.66461000  0.77265000  1.0 0.8560370659
Ru  Ru9  1  0.26374000  0.68588000  0.65781000  1.0 0.9188960349
Ru  Ru10  1  0.99139000  0.08333000  0.97292000  1.0 1.0131716584
C  C1  1  0.11280000  0.62490000  0.16950000  1.0 -0.4594886074
C  C2  1  0.30830000  0.03240000  0.40110000  1.0 -0.4594886074
C  C3  1  0.71620000  0.83200000  0.91160000  1.0 -0.4731961782
C  C4  1  0.76070000  0.08720000  0.27290000  1.0 -0.1842380236
C  C5  1  0.66360000  0.55550000  0.29500000  1.0 -0.1873344551
C  C6  1  0.75970000  0.08800000  0.26900000  1.0 -0.1842380236
C  C7  1  0.66500000  0.55490000  0.29900000  1.0 -0.1951941396
C  C8  1  0.88720000  0.37510000  0.83050000  1.0 -0.4594886074
C  C9  1  0.69170000  0.96760000  0.59890000  1.0 -0.4594886074
C  C10  1  0.28380000  0.16800000  0.08840000  1.0 -0.4731961782
C  C11  1  0.23930000  0.91280000  0.72710000  1.0 -0.1873344551
C  C12  1  0.33640000  0.44450000  0.70500000  1.0 -0.1873344551
C  C13  1  0.24030000  0.91200000  0.73100000  1.0 -0.1873344551
C  C14  1  0.33500000  0.44510000  0.70100000  1.0 -0.1951941396
N  N1  1  0.98260000  0.52660000  0.15410000  1.0 -0.4201286132
N  N2  1  0.43850000  0.12800000  0.41600000  1.0 -0.409389838
N  N3  1  0.74800000  0.03150000  0.20500000  1.0 -0.2505931216
N  N4  1  0.63480000  0.63830000  0.23990000  1.0 -0.2791783208
N  N5  1  0.64680000  0.88650000  0.85890000  1.0 -0.4201286132
N  N6  1  0.79470000  0.02070000  0.33370000  1.0 -0.2669544662
N  N7  1  0.66840000  0.61270000  0.35880000  1.0 -0.2505931216
N  N8  1  0.01740000  0.47340000  0.84590000  1.0 -0.4201286132
N  N9  1  0.56150000  0.87200000  0.58400000  1.0 -0.409389838
N  N10  1  0.25200000  0.96850000  0.79500000  1.0 -0.2505931216
N  N11  1  0.36520000  0.36170000  0.76010000  1.0 -0.2791783208
N  N12  1  0.35320000  0.11350000  0.14110000  1.0 -0.4201286132
N  N13  1  0.20530000  0.97930000  0.66630000  1.0 -0.2669544662
N  N14  1  0.33160000  0.38730000  0.64120000  1.0 -0.2505931216
O  O1  1  0.10330000  0.62130000  0.29572000  1.0 -0.6186427526
O  O2  1  0.31890000  0.71900000  0.27010000  1.0 -0.6788379694
O  O3  1  0.19390000  0.49630000  0.26420000  1.0 -0.8501558448
O  O4  1  0.02220000  0.76650000  0.19816000  1.0 -0.6277375663
O  O5  1  0.23990000  0.86500000  0.17392000  1.0 -0.6508349026
O  O6  1  0.04140000  0.76630000  0.08080000  1.0 -0.6186427526
O  O7  1  0.10180000  0.94090000  0.29985000  1.0 -0.6508349026
O  O8  1  0.31840000  0.04270000  0.27445000  1.0 -0.6380735332
O  O9  1  0.22480000  0.16440000  0.31260000  1.0 -0.7948728944
O  O10  1  0.17710000  0.79440000  0.39368000  1.0 -0.6568053509
O  O11  1  0.39700000  0.88810000  0.37223000  1.0 -0.6508349026
O  O12  1  0.36770000  0.88240000  0.48830000  1.0 -0.6380735332
O  O13  1  0.84890000  0.30810000  0.22360000  1.0 -0.6508349026
O  O14  1  0.89010000  0.28450000  0.34660000  1.0 -0.6115588311
O  O15  1  0.00870000  0.23090000  0.28150000  1.0 -0.7595914746
O  O16  1  0.58710000  0.16080000  0.21170000  1.0 -0.6115588311
O  O17  1  0.62390000  0.13720000  0.33520000  1.0 -0.6115588311
O  O18  1  0.50830000  0.95540000  0.25850000  1.0 -0.5404217983
O  O19  1  0.54170000  0.35820000  0.22250000  1.0 -0.6115588311
O  O20  1  0.58280000  0.33640000  0.34660000  1.0 -0.6115588311
O  O21  1  0.41830000  0.40440000  0.28710000  1.0 -0.7988396232
O  O22  1  0.80700000  0.51350000  0.23500000  1.0 -0.6186427526
O  O23  1  0.84830000  0.48990000  0.35872000  1.0 -0.6277375663
O  O24  1  0.91140000  0.69620000  0.31110000  1.0 -0.5690702642
O  O25  1  0.83010000  0.84500000  0.04030000  1.0 -0.6508349026
O  O26  1  0.81380000  0.02720000  0.98550000  1.0 -0.6186427526
O  O27  1  0.61720000  0.85230000  0.00910000  1.0 -0.6913279141
O  O28  1  0.93960000  0.81780000  0.94260000  1.0 -0.6508349026
O  O29  1  0.82460000  0.80600000  0.82220000  1.0 -0.8305870438
O  O30  1  0.92680000  0.99970000  0.88390000  1.0 -0.6186427526
O  O31  1  0.25670000  0.37330000  0.37050000  1.0 -0.7502243514
O  O32  1  0.03870000  0.33210000  0.15270000  1.0 -0.7502243514
O  O33  1  0.29460000  0.45140000  0.16470000  1.0 -0.7302241767
O  O34  1  0.65870000  0.35430000  0.11500000  1.0 -0.6115588311
O  O35  1  0.77310000  0.30710000  0.45360000  1.0 -0.6186427526
O  O36  1  0.89670000  0.37870000  0.70428000  1.0 -0.6186427526
O  O37  1  0.68110000  0.28100000  0.72990000  1.0 -0.6788379694
O  O38  1  0.80610000  0.50370000  0.73580000  1.0 -0.8501558448
O  O39  1  0.97780000  0.23350000  0.80184000  1.0 -0.6277375663
O  O40  1  0.76010000  0.13500000  0.82608000  1.0 -0.6508349026
O  O41  1  0.95860000  0.23370000  0.91920000  1.0 -0.6186427526
O  O42  1  0.89820000  0.05910000  0.70015000  1.0 -0.6508349026
O  O43  1  0.68160000  0.95730000  0.72555000  1.0 -0.6380735332
O  O44  1  0.77520000  0.83560000  0.68740000  1.0 -0.7988396232
O  O45  1  0.82290000  0.20560000  0.60632000  1.0 -0.6568053509
O  O46  1  0.60300000  0.11190000  0.62777000  1.0 -0.6508349026
O  O47  1  0.63230000  0.11760000  0.51170000  1.0 -0.6380735332
O  O48  1  0.15110000  0.69190000  0.77640000  1.0 -0.6508349026
O  O49  1  0.10990000  0.71550000  0.65340000  1.0 -0.6115588311
O  O50  1  0.99130000  0.76910000  0.71850000  1.0 -0.7595914746
O  O51  1  0.41290000  0.83920000  0.78830000  1.0 -0.6115588311
O  O52  1  0.37610000  0.86280000  0.66480000  1.0 -0.6115588311
O  O53  1  0.49170000  0.04460000  0.74150000  1.0 -0.5404217983
O  O54  1  0.45830000  0.64180000  0.77750000  1.0 -0.6186427526
O  O55  1  0.41720000  0.66360000  0.65340000  1.0 -0.6115588311
O  O56  1  0.58170000  0.59560000  0.71290000  1.0 -0.7988396232
O  O57  1  0.19300000  0.48650000  0.76500000  1.0 -0.6186427526
O  O58  1  0.15170000  0.51010000  0.64128000  1.0 -0.6277375663
O  O59  1  0.08860000  0.30380000  0.68890000  1.0 -0.5690702642
O  O60  1  0.16990000  0.15500000  0.95970000  1.0 -0.6508349026
O  O61  1  0.18620000  0.97280000  0.01450000  1.0 -0.6186427526
O  O62  1  0.38280000  0.14770000  0.99090000  1.0 -0.6913279141
O  O63  1  0.06040000  0.18220000  0.05740000  1.0 -0.6508349026
O  O64  1  0.17540000  0.19400000  0.17780000  1.0 -0.8305870438
O  O65  1  0.07320000  0.00030000  0.11610000  1.0 -0.6186427526
O  O66  1  0.74330000  0.62670000  0.62950000  1.0 -0.7502243514
O  O67  1  0.96130000  0.66790000  0.84730000  1.0 -0.7502243514
O  O68  1  0.70540000  0.54860000  0.83530000  1.0 -0.7302241767
O  O69  1  0.34130000  0.64570000  0.88500000  1.0 -0.6115588311
O  O70  1  0.22690000  0.69290000  0.54640000  1.0 -0.6186427526
