# DDEC6 charges by PACMAN v1.1 (https://github.com/mtap-research/PACMAN-charge/)
data_XOXMED_ASR_pacman
_symmetry_space_group_name_H-M   'P 1'
_cell_length_a   23.27500000
_cell_length_b   25.48600000
_cell_length_c   49.52100000
_cell_angle_alpha   90.00000000
_cell_angle_beta   117.40900000
_cell_angle_gamma   90.00000000
_symmetry_Int_Tables_number   1
_chemical_formula_structural   Zn4H60C96N6O25
_chemical_formula_sum   'Zn16 H240 C384 N24 O100'
_cell_volume   26077.62723793
_cell_formula_units_Z   4
loop_
 _symmetry_equiv_pos_site_id
 _symmetry_equiv_pos_as_xyz
  1  'x, y, z'
loop_
 _atom_site_type_symbol
 _atom_site_label
 _atom_site_symmetry_multiplicity
 _atom_site_fract_x
 _atom_site_fract_y
 _atom_site_fract_z
 _atom_site_occupancy
 _atom_site_charge
Zn  Zn1  1  0.14907000  0.71585000  0.33557000  1.0 0.9863570956
Zn  Zn2  1  0.14907000  0.78415000  0.83557000  1.0 0.9842144676
Zn  Zn3  1  0.03948000  0.62238000  0.30196000  1.0 0.9964605448
Zn  Zn4  1  0.03948000  0.87762000  0.80196000  1.0 0.9964605448
Zn  Zn5  1  0.01174000  0.72278000  0.33394000  1.0 0.9515317706
Zn  Zn6  1  0.01174000  0.77722000  0.83394000  1.0 0.9515317706
Zn  Zn7  1  0.10521000  0.63471000  0.37242000  1.0 0.938073161
Zn  Zn8  1  0.10521000  0.86529000  0.87242000  1.0 0.938073161
Zn  Zn9  1  0.85093000  0.21585000  0.16443000  1.0 0.9842144676
Zn  Zn10  1  0.85093000  0.28415000  0.66443000  1.0 0.9842144676
Zn  Zn11  1  0.96052000  0.12238000  0.19804000  1.0 0.9964605448
Zn  Zn12  1  0.96052000  0.37762000  0.69804000  1.0 0.9964605448
Zn  Zn13  1  0.98826000  0.22278000  0.16606000  1.0 0.9515317706
Zn  Zn14  1  0.98826000  0.27722000  0.66606000  1.0 0.9515317706
Zn  Zn15  1  0.89479000  0.13471000  0.12758000  1.0 0.938073161
Zn  Zn16  1  0.89479000  0.36529000  0.62758000  1.0 0.938073161
H  H1  1  0.28440000  0.63760000  0.45380000  1.0 0.131393971
H  H2  1  0.28440000  0.86240000  0.95380000  1.0 0.131393971
H  H3  1  0.29120000  0.78520000  0.42220000  1.0 0.131393971
H  H4  1  0.29120000  0.71480000  0.92220000  1.0 0.131393971
H  H5  1  0.35880000  0.60690000  0.49840000  1.0 0.1393962496
H  H6  1  0.35880000  0.89310000  0.99840000  1.0 0.1393962496
H  H7  1  0.42920000  0.62500000  0.50390000  1.0 0.1393962496
H  H8  1  0.42920000  0.87500000  0.00390000  1.0 0.1393962496
H  H9  1  0.39970000  0.64750000  0.52510000  1.0 0.131393971
H  H10  1  0.39970000  0.85250000  0.02510000  1.0 0.131393971
H  H11  1  0.44070000  0.82340000  0.46740000  1.0 0.1393962496
H  H12  1  0.44070000  0.67660000  0.96740000  1.0 0.1393962496
H  H13  1  0.37160000  0.83960000  0.44050000  1.0 0.1225080945
H  H14  1  0.37160000  0.66040000  0.94050000  1.0 0.1225080945
H  H15  1  0.38770000  0.84990000  0.47510000  1.0 0.131393971
H  H16  1  0.38770000  0.65010000  0.97510000  1.0 0.131393971
H  H17  1  0.62340000  0.71140000  0.54210000  1.0 0.1393962496
H  H18  1  0.62340000  0.78860000  0.04210000  1.0 0.1393962496
H  H19  1  0.70640000  0.72020000  0.59300000  1.0 0.1225080945
H  H20  1  0.70640000  0.77980000  0.09300000  1.0 0.1225080945
H  H21  1  0.50510000  0.82540000  0.63420000  1.0 0.1393962496
H  H22  1  0.50510000  0.67460000  0.13420000  1.0 0.131393971
H  H23  1  0.42370000  0.81470000  0.58020000  1.0 0.131393971
H  H24  1  0.42370000  0.68530000  0.08020000  1.0 0.131393971
H  H25  1  0.83230000  0.73390000  0.75790000  1.0 0.1393962496
H  H26  1  0.83230000  0.76610000  0.25790000  1.0 0.1393962496
H  H27  1  0.86150000  0.87130000  0.72940000  1.0 0.131393971
H  H28  1  0.86150000  0.62870000  0.22940000  1.0 0.131393971
H  H29  1  0.71090000  0.68630000  0.68810000  1.0 0.131393971
H  H30  1  0.71090000  0.81370000  0.18810000  1.0 0.131393971
H  H31  1  0.74830000  0.67370000  0.72380000  1.0 0.1393962496
H  H32  1  0.74830000  0.82630000  0.22380000  1.0 0.1393962496
H  H33  1  0.68180000  0.70580000  0.71010000  1.0 0.1393962496
H  H34  1  0.68180000  0.79420000  0.21010000  1.0 0.1393962496
H  H35  1  0.71060000  0.88940000  0.66830000  1.0 0.1482271969
H  H36  1  0.71060000  0.61060000  0.16830000  1.0 0.1482271969
H  H37  1  0.78390000  0.90930000  0.68210000  1.0 0.1393962496
H  H38  1  0.78390000  0.59070000  0.18210000  1.0 0.1393962496
H  H39  1  0.75670000  0.86780000  0.65480000  1.0 0.1393962496
H  H40  1  0.75670000  0.63220000  0.15480000  1.0 0.1393962496
H  H41  1  0.13740000  0.76380000  0.25160000  1.0 0.1393962496
H  H42  1  0.13740000  0.73620000  0.75160000  1.0 0.1393962496
H  H43  1  0.10240000  0.60770000  0.23200000  1.0 0.1393962496
H  H44  1  0.10240000  0.89230000  0.73200000  1.0 0.1393962496
H  H45  1  0.07690000  0.81530000  0.18600000  1.0 0.1393962496
H  H46  1  0.07690000  0.68470000  0.68600000  1.0 0.1393962496
H  H47  1  0.14540000  0.82400000  0.21520000  1.0 0.1482271969
H  H48  1  0.14540000  0.67600000  0.71520000  1.0 0.1482271969
H  H49  1  0.14240000  0.80350000  0.18400000  1.0 0.131393971
H  H50  1  0.14240000  0.69650000  0.68400000  1.0 0.131393971
H  H51  1  0.12880000  0.59750000  0.17390000  1.0 0.1482271969
H  H52  1  0.12880000  0.90250000  0.67390000  1.0 0.1482271969
H  H53  1  0.07490000  0.57350000  0.18180000  1.0 0.1393962496
H  H54  1  0.07490000  0.92650000  0.68180000  1.0 0.1393962496
H  H55  1  0.05460000  0.61400000  0.15420000  1.0 0.131393971
H  H56  1  0.05460000  0.88600000  0.65420000  1.0 0.131393971
H  H57  1  0.92560000  0.75090000  0.08780000  1.0 0.131393971
H  H58  1  0.92560000  0.74910000  0.58780000  1.0 0.131393971
H  H59  1  0.90440000  0.76310000  0.03740000  1.0 0.1393962496
H  H60  1  0.90440000  0.73690000  0.53740000  1.0 0.1393962496
H  H61  1  0.19660000  0.68220000  0.07150000  1.0 0.131393971
H  H62  1  0.19660000  0.81780000  0.57150000  1.0 0.131393971
H  H63  1  0.22080000  0.68050000  0.12530000  1.0 0.131393971
H  H64  1  0.22080000  0.81950000  0.62530000  1.0 0.131393971
H  H65  1  0.98690000  0.71680000  0.90780000  1.0 0.131393971
H  H66  1  0.98690000  0.78320000  0.40780000  1.0 0.131393971
H  H67  1  0.05830000  0.85750000  0.94400000  1.0 0.1393962496
H  H68  1  0.05830000  0.64250000  0.44400000  1.0 0.1393962496
H  H69  1  0.94970000  0.66770000  0.96310000  1.0 0.131393971
H  H70  1  0.94970000  0.83230000  0.46310000  1.0 0.131393971
H  H71  1  0.95850000  0.65270000  0.93390000  1.0 0.131393971
H  H72  1  0.95850000  0.84730000  0.43390000  1.0 0.131393971
H  H73  1  0.01830000  0.64760000  0.96720000  1.0 0.131393971
H  H74  1  0.01830000  0.85240000  0.46720000  1.0 0.131393971
H  H75  1  0.05190000  0.88760000  0.98840000  1.0 0.1393962496
H  H76  1  0.05190000  0.61240000  0.48840000  1.0 0.1393962496
H  H77  1  0.03410000  0.84770000  0.00840000  1.0 0.131393971
H  H78  1  0.03410000  0.65230000  0.50840000  1.0 0.131393971
H  H79  1  0.10540000  0.84770000  0.01120000  1.0 0.1393962496
H  H80  1  0.10540000  0.65230000  0.51120000  1.0 0.1393962496
H  H81  1  0.16690000  0.87850000  0.33180000  1.0 0.1393962496
H  H82  1  0.16690000  0.62150000  0.83180000  1.0 0.1393962496
H  H83  1  0.02710000  0.88560000  0.35440000  1.0 0.1393962496
H  H84  1  0.02710000  0.61440000  0.85440000  1.0 0.1393962496
H  H85  1  0.22700000  0.95530000  0.33040000  1.0 0.1393962496
H  H86  1  0.22700000  0.54470000  0.83040000  1.0 0.1393962496
H  H87  1  0.17920000  0.00440000  0.31710000  1.0 0.131393971
H  H88  1  0.17920000  0.49560000  0.81710000  1.0 0.131393971
H  H89  1  0.23010000  0.00240000  0.35240000  1.0 0.1393962496
H  H90  1  0.23010000  0.49760000  0.85240000  1.0 0.1393962496
H  H91  1  0.99150000  0.01160000  0.34750000  1.0 0.131393971
H  H92  1  0.99150000  0.48840000  0.84750000  1.0 0.131393971
H  H93  1  0.99510000  0.96360000  0.36910000  1.0 0.1393962496
H  H94  1  0.99510000  0.53640000  0.86910000  1.0 0.1393962496
H  H95  1  0.04660000  0.01040000  0.38210000  1.0 0.1393962496
H  H96  1  0.04660000  0.48960000  0.88210000  1.0 0.1393962496
H  H97  1  0.02300000  0.13160000  0.27660000  1.0 0.131393971
H  H98  1  0.02300000  0.36840000  0.77660000  1.0 0.131393971
H  H99  1  0.02670000  0.22420000  0.27660000  1.0 0.131393971
H  H100  1  0.02670000  0.27580000  0.77660000  1.0 0.131393971
H  H101  1  0.21540000  0.22170000  0.42150000  1.0 0.1225080945
H  H102  1  0.21540000  0.27830000  0.92150000  1.0 0.1225080945
H  H103  1  0.20550000  0.13030000  0.42140000  1.0 0.131393971
H  H104  1  0.20550000  0.36970000  0.92140000  1.0 0.131393971
H  H105  1  0.17140000  0.38930000  0.30230000  1.0 0.1393962496
H  H106  1  0.17140000  0.11070000  0.80230000  1.0 0.1393962496
H  H107  1  0.23040000  0.37690000  0.33500000  1.0 0.1393962496
H  H108  1  0.23040000  0.12310000  0.83500000  1.0 0.1393962496
H  H109  1  0.17230000  0.33570000  0.31940000  1.0 0.1393962496
H  H110  1  0.17230000  0.16430000  0.81940000  1.0 0.1393962496
H  H111  1  0.16180000  0.47470000  0.32690000  1.0 0.131393971
H  H112  1  0.16180000  0.02530000  0.82690000  1.0 0.131393971
H  H113  1  0.07960000  0.34290000  0.39380000  1.0 0.1393962496
H  H114  1  0.07960000  0.15710000  0.89380000  1.0 0.1393962496
H  H115  1  0.02820000  0.38950000  0.38590000  1.0 0.1393962496
H  H116  1  0.02820000  0.11050000  0.88590000  1.0 0.1393962496
H  H117  1  0.01580000  0.34380000  0.36170000  1.0 0.131393971
H  H118  1  0.01580000  0.15620000  0.86170000  1.0 0.131393971
H  H119  1  0.06330000  0.46880000  0.37360000  1.0 0.1393962496
H  H120  1  0.06330000  0.03120000  0.87360000  1.0 0.1393962496
H  H121  1  0.71560000  0.13760000  0.04620000  1.0 0.131393971
H  H122  1  0.71560000  0.36240000  0.54620000  1.0 0.131393971
H  H123  1  0.70880000  0.28520000  0.07780000  1.0 0.131393971
H  H124  1  0.70880000  0.21480000  0.57780000  1.0 0.131393971
H  H125  1  0.64120000  0.10690000  0.00160000  1.0 0.1393962496
H  H126  1  0.64120000  0.39310000  0.50160000  1.0 0.1393962496
H  H127  1  0.57080000  0.12500000  0.99610000  1.0 0.1482271969
H  H128  1  0.57080000  0.37500000  0.49610000  1.0 0.1393962496
H  H129  1  0.60030000  0.14750000  0.97490000  1.0 0.131393971
H  H130  1  0.60030000  0.35250000  0.47490000  1.0 0.131393971
H  H131  1  0.55930000  0.32340000  0.03260000  1.0 0.1393962496
H  H132  1  0.55930000  0.17660000  0.53260000  1.0 0.1393962496
H  H133  1  0.62840000  0.33960000  0.05950000  1.0 0.1225080945
H  H134  1  0.62840000  0.16040000  0.55950000  1.0 0.1225080945
H  H135  1  0.61230000  0.34990000  0.02490000  1.0 0.1393962496
H  H136  1  0.61230000  0.15010000  0.52490000  1.0 0.131393971
H  H137  1  0.37660000  0.21140000  0.95790000  1.0 0.1393962496
H  H138  1  0.37660000  0.28860000  0.45790000  1.0 0.1393962496
H  H139  1  0.29360000  0.22020000  0.90700000  1.0 0.1225080945
H  H140  1  0.29360000  0.27980000  0.40700000  1.0 0.1225080945
H  H141  1  0.49490000  0.32540000  0.86580000  1.0 0.1393962496
H  H142  1  0.49490000  0.17460000  0.36580000  1.0 0.1393962496
H  H143  1  0.57630000  0.31470000  0.91980000  1.0 0.131393971
H  H144  1  0.57630000  0.18530000  0.41980000  1.0 0.131393971
H  H145  1  0.16770000  0.23390000  0.74210000  1.0 0.1393962496
H  H146  1  0.16770000  0.26610000  0.24210000  1.0 0.1393962496
H  H147  1  0.13850000  0.37130000  0.77060000  1.0 0.131393971
H  H148  1  0.13850000  0.12870000  0.27060000  1.0 0.131393971
H  H149  1  0.28910000  0.18630000  0.81190000  1.0 0.131393971
H  H150  1  0.28910000  0.31370000  0.31190000  1.0 0.131393971
H  H151  1  0.25170000  0.17370000  0.77620000  1.0 0.1393962496
H  H152  1  0.25170000  0.32630000  0.27620000  1.0 0.1393962496
H  H153  1  0.31820000  0.20580000  0.78990000  1.0 0.1393962496
H  H154  1  0.31820000  0.29420000  0.28990000  1.0 0.1393962496
H  H155  1  0.28940000  0.38940000  0.83170000  1.0 0.1482271969
H  H156  1  0.28940000  0.11060000  0.33170000  1.0 0.1482271969
H  H157  1  0.21610000  0.40930000  0.81790000  1.0 0.1393962496
H  H158  1  0.21610000  0.09070000  0.31790000  1.0 0.1393962496
H  H159  1  0.24330000  0.36780000  0.84520000  1.0 0.1393962496
H  H160  1  0.24330000  0.13220000  0.34520000  1.0 0.1393962496
H  H161  1  0.86260000  0.26380000  0.24840000  1.0 0.1393962496
H  H162  1  0.86260000  0.23620000  0.74840000  1.0 0.1393962496
H  H163  1  0.89760000  0.10770000  0.26800000  1.0 0.1393962496
H  H164  1  0.89760000  0.39230000  0.76800000  1.0 0.1393962496
H  H165  1  0.92310000  0.31530000  0.31400000  1.0 0.1393962496
H  H166  1  0.92310000  0.18470000  0.81400000  1.0 0.1393962496
H  H167  1  0.85460000  0.32400000  0.28480000  1.0 0.1482271969
H  H168  1  0.85460000  0.17600000  0.78480000  1.0 0.1482271969
H  H169  1  0.85760000  0.30350000  0.31600000  1.0 0.131393971
H  H170  1  0.85760000  0.19650000  0.81600000  1.0 0.131393971
H  H171  1  0.87120000  0.09750000  0.32610000  1.0 0.1482271969
H  H172  1  0.87120000  0.40250000  0.82610000  1.0 0.1482271969
H  H173  1  0.92510000  0.07350000  0.31820000  1.0 0.1393962496
H  H174  1  0.92510000  0.42650000  0.81820000  1.0 0.1393962496
H  H175  1  0.94540000  0.11400000  0.34580000  1.0 0.131393971
H  H176  1  0.94540000  0.38600000  0.84580000  1.0 0.131393971
H  H177  1  0.07440000  0.25090000  0.41220000  1.0 0.131393971
H  H178  1  0.07440000  0.24910000  0.91220000  1.0 0.131393971
H  H179  1  0.09560000  0.26310000  0.46260000  1.0 0.1393962496
H  H180  1  0.09560000  0.23690000  0.96260000  1.0 0.1393962496
H  H181  1  0.80340000  0.18220000  0.42850000  1.0 0.131393971
H  H182  1  0.80340000  0.31780000  0.92850000  1.0 0.131393971
H  H183  1  0.77920000  0.18050000  0.37470000  1.0 0.131393971
H  H184  1  0.77920000  0.31950000  0.87470000  1.0 0.131393971
H  H185  1  0.01310000  0.21680000  0.59220000  1.0 0.131393971
H  H186  1  0.01310000  0.28320000  0.09220000  1.0 0.131393971
H  H187  1  0.94170000  0.35750000  0.55600000  1.0 0.1393962496
H  H188  1  0.94170000  0.14250000  0.05600000  1.0 0.1393962496
H  H189  1  0.05030000  0.16770000  0.53690000  1.0 0.131393971
H  H190  1  0.05030000  0.33230000  0.03690000  1.0 0.131393971
H  H191  1  0.04150000  0.15270000  0.56610000  1.0 0.131393971
H  H192  1  0.04150000  0.34730000  0.06610000  1.0 0.131393971
H  H193  1  0.98170000  0.14760000  0.53280000  1.0 0.131393971
H  H194  1  0.98170000  0.35240000  0.03280000  1.0 0.131393971
H  H195  1  0.94810000  0.38760000  0.51160000  1.0 0.1393962496
H  H196  1  0.94810000  0.11240000  0.01160000  1.0 0.1393962496
H  H197  1  0.96590000  0.34770000  0.49160000  1.0 0.131393971
H  H198  1  0.96590000  0.15230000  0.99160000  1.0 0.131393971
H  H199  1  0.89460000  0.34770000  0.48880000  1.0 0.1393962496
H  H200  1  0.89460000  0.15230000  0.98880000  1.0 0.1393962496
H  H201  1  0.83310000  0.37850000  0.16820000  1.0 0.1393962496
H  H202  1  0.83310000  0.12150000  0.66820000  1.0 0.1393962496
H  H203  1  0.97290000  0.38560000  0.14560000  1.0 0.1393962496
H  H204  1  0.97290000  0.11440000  0.64560000  1.0 0.1393962496
H  H205  1  0.77300000  0.45530000  0.16960000  1.0 0.1393962496
H  H206  1  0.77300000  0.04470000  0.66960000  1.0 0.1393962496
H  H207  1  0.82080000  0.50440000  0.18290000  1.0 0.131393971
H  H208  1  0.82080000  0.99560000  0.68290000  1.0 0.131393971
H  H209  1  0.76990000  0.50240000  0.14760000  1.0 0.1393962496
H  H210  1  0.76990000  0.99760000  0.64760000  1.0 0.1393962496
H  H211  1  0.00850000  0.51160000  0.15250000  1.0 0.131393971
H  H212  1  0.00850000  0.98840000  0.65250000  1.0 0.131393971
H  H213  1  0.00490000  0.46360000  0.13090000  1.0 0.1393962496
H  H214  1  0.00490000  0.03640000  0.63090000  1.0 0.1393962496
H  H215  1  0.95340000  0.51040000  0.11790000  1.0 0.1393962496
H  H216  1  0.95340000  0.98960000  0.61790000  1.0 0.1393962496
H  H217  1  0.97700000  0.63160000  0.22340000  1.0 0.131393971
H  H218  1  0.97700000  0.86840000  0.72340000  1.0 0.131393971
H  H219  1  0.97330000  0.72420000  0.22340000  1.0 0.131393971
H  H220  1  0.97330000  0.77580000  0.72340000  1.0 0.131393971
H  H221  1  0.78460000  0.72170000  0.07850000  1.0 0.1225080945
H  H222  1  0.78460000  0.77830000  0.57850000  1.0 0.1225080945
H  H223  1  0.79450000  0.63030000  0.07860000  1.0 0.131393971
H  H224  1  0.79450000  0.86970000  0.57860000  1.0 0.131393971
H  H225  1  0.82860000  0.88930000  0.19770000  1.0 0.1393962496
H  H226  1  0.82860000  0.61070000  0.69770000  1.0 0.1393962496
H  H227  1  0.76960000  0.87690000  0.16500000  1.0 0.1393962496
H  H228  1  0.76960000  0.62310000  0.66500000  1.0 0.1393962496
H  H229  1  0.82770000  0.83570000  0.18060000  1.0 0.1393962496
H  H230  1  0.82770000  0.66430000  0.68060000  1.0 0.1393962496
H  H231  1  0.83820000  0.97470000  0.17310000  1.0 0.131393971
H  H232  1  0.83820000  0.52530000  0.67310000  1.0 0.131393971
H  H233  1  0.92040000  0.84290000  0.10620000  1.0 0.1393962496
H  H234  1  0.92040000  0.65710000  0.60620000  1.0 0.1393962496
H  H235  1  0.97180000  0.88950000  0.11410000  1.0 0.1393962496
H  H236  1  0.97180000  0.61050000  0.61410000  1.0 0.1393962496
H  H237  1  0.98420000  0.84380000  0.13830000  1.0 0.131393971
H  H238  1  0.98420000  0.65620000  0.63830000  1.0 0.131393971
H  H239  1  0.93670000  0.96880000  0.12640000  1.0 0.131393971
H  H240  1  0.93670000  0.53120000  0.62640000  1.0 0.131393971
C  C1  1  0.22530000  0.69060000  0.40116000  1.0 0.588299605
C  C2  1  0.22530000  0.80940000  0.90116000  1.0 0.588299605
C  C3  1  0.28240000  0.70690000  0.42961000  1.0 -0.0196590013
C  C4  1  0.28240000  0.79310000  0.92961000  1.0 -0.030264605
C  C5  1  0.30570000  0.67010000  0.45545000  1.0 -0.1696329331
C  C6  1  0.30570000  0.82990000  0.95545000  1.0 -0.1696329331
C  C7  1  0.35820000  0.68360000  0.48162000  1.0 0.1019216282
C  C8  1  0.35820000  0.81640000  0.98162000  1.0 0.1019216282
C  C9  1  0.38590000  0.73300000  0.48570000  1.0 0.0401836981
C  C10  1  0.38590000  0.76700000  0.98570000  1.0 0.0401836981
C  C11  1  0.36560000  0.76710000  0.46281000  1.0 0.0822201799
C  C12  1  0.36560000  0.73290000  0.96281000  1.0 0.0822201799
C  C13  1  0.31070000  0.75750000  0.43632000  1.0 -0.1696329331
C  C14  1  0.31070000  0.74250000  0.93632000  1.0 -0.1696329331
C  C15  1  0.38940000  0.63630000  0.50443000  1.0 -0.4102185703
C  C16  1  0.38940000  0.86370000  0.00443000  1.0 -0.4102185703
C  C17  1  0.39430000  0.82610000  0.46127000  1.0 -0.4102185703
C  C18  1  0.39430000  0.67390000  0.96127000  1.0 -0.4177522759
C  C19  1  0.50020000  0.73330000  0.52032000  1.0 0.4194307222
C  C20  1  0.50020000  0.76670000  0.02032000  1.0 0.4194307222
C  C21  1  0.55450000  0.74170000  0.55082000  1.0 -0.0486821851
C  C22  1  0.55450000  0.75830000  0.05082000  1.0 -0.0382285674
C  C23  1  0.53900000  0.76480000  0.57407000  1.0 0.0194534078
C  C24  1  0.53900000  0.73520000  0.07407000  1.0 0.0194534078
C  C25  1  0.47930000  0.77880000  0.56550000  1.0 -0.0486821851
C  C26  1  0.47930000  0.72120000  0.06550000  1.0 -0.0486821851
C  C27  1  0.42100000  0.77030000  0.53440000  1.0 0.428983552
C  C28  1  0.42100000  0.72970000  0.03440000  1.0 0.428983552
C  C29  1  0.61420000  0.72610000  0.55739000  1.0 -0.0717174267
C  C30  1  0.61420000  0.77390000  0.05739000  1.0 -0.0717174267
C  C31  1  0.66370000  0.73180000  0.58773000  1.0 -0.0811520333
C  C32  1  0.66370000  0.76820000  0.08773000  1.0 -0.0811520333
C  C33  1  0.65030000  0.75360000  0.60932000  1.0 -0.0486821851
C  C34  1  0.65030000  0.74640000  0.10932000  1.0 -0.0486821851
C  C35  1  0.58880000  0.77140000  0.60316000  1.0 0.0194534078
C  C36  1  0.58880000  0.72860000  0.10316000  1.0 0.0194534078
C  C37  1  0.57510000  0.79260000  0.62543000  1.0 -0.0486821851
C  C38  1  0.57510000  0.70740000  0.12543000  1.0 -0.0594397
C  C39  1  0.51520000  0.81000000  0.61936000  1.0 -0.0717174267
C  C40  1  0.51520000  0.69000000  0.11936000  1.0 -0.0717174267
C  C41  1  0.46640000  0.80220000  0.58650000  1.0 -0.0871705553
C  C42  1  0.46640000  0.69780000  0.08650000  1.0 -0.0871705553
C  C43  1  0.70150000  0.75850000  0.64091000  1.0 0.4194307222
C  C44  1  0.70150000  0.74150000  0.14091000  1.0 0.4194307222
C  C45  1  0.62980000  0.80060000  0.65758000  1.0 0.4132430998
C  C46  1  0.62980000  0.69940000  0.15758000  1.0 0.4132430998
C  C47  1  0.74420000  0.78892000  0.69275000  1.0 0.0401836981
C  C48  1  0.74420000  0.71108000  0.19275000  1.0 0.0401836981
C  C49  1  0.75830000  0.74960000  0.71382000  1.0 0.1087639055
C  C50  1  0.75830000  0.75040000  0.21382000  1.0 0.1087639055
C  C51  1  0.81910000  0.75884000  0.74194000  1.0 -0.1603940217
C  C52  1  0.81910000  0.74116000  0.24194000  1.0 -0.1603940217
C  C53  1  0.85580000  0.80062000  0.74566000  1.0 -0.0020579862
C  C54  1  0.85580000  0.69938000  0.24566000  1.0 -0.0020579862
C  C55  1  0.83680000  0.84004000  0.72532000  1.0 -0.1603940217
C  C56  1  0.83680000  0.65996000  0.22532000  1.0 -0.1603940217
C  C57  1  0.77670000  0.83372000  0.69661000  1.0 0.1019216282
C  C58  1  0.77670000  0.66628000  0.19661000  1.0 0.1019216282
C  C59  1  0.72170000  0.69960000  0.70849000  1.0 -0.4177522759
C  C60  1  0.72170000  0.80040000  0.20849000  1.0 -0.4177522759
C  C61  1  0.75500000  0.87924000  0.67333000  1.0 -0.4484154717
C  C62  1  0.75500000  0.62076000  0.17333000  1.0 -0.4484154717
C  C63  1  0.11440000  0.67791000  0.27512000  1.0 0.6015222994
C  C64  1  0.11440000  0.82209000  0.77512000  1.0 0.6015222994
C  C65  1  0.11620000  0.68429000  0.24487000  1.0 -0.0196590013
C  C66  1  0.11620000  0.81571000  0.74487000  1.0 -0.0196590013
C  C67  1  0.12660000  0.73597000  0.23734000  1.0 -0.1893647323
C  C68  1  0.12660000  0.76403000  0.73734000  1.0 -0.1893647323
C  C69  1  0.12010000  0.74510000  0.20707000  1.0 0.131393971
C  C70  1  0.12010000  0.75490000  0.70707000  1.0 0.131393971
C  C71  1  0.10590000  0.70092000  0.18780000  1.0 0.0558194881
C  C72  1  0.10590000  0.79908000  0.68780000  1.0 0.0558194881
C  C73  1  0.09850000  0.65145000  0.19688000  1.0 0.1087639055
C  C74  1  0.09850000  0.84855000  0.69688000  1.0 0.1087639055
C  C75  1  0.10530000  0.64235000  0.22563000  1.0 -0.1800532611
C  C76  1  0.10530000  0.85765000  0.72563000  1.0 -0.1800532611
C  C77  1  0.12130000  0.80217000  0.19719000  1.0 -0.4319075787
C  C78  1  0.12130000  0.69783000  0.69719000  1.0 -0.4319075787
C  C79  1  0.08820000  0.60475000  0.17463000  1.0 -0.439752932
C  C80  1  0.08820000  0.89525000  0.67463000  1.0 -0.439752932
C  C81  1  0.03590000  0.72730000  0.13699000  1.0 0.4366409508
C  C82  1  0.03590000  0.77270000  0.63699000  1.0 0.4366409508
C  C83  1  0.02160000  0.73222000  0.10419000  1.0 -0.0486821851
C  C84  1  0.02160000  0.76778000  0.60419000  1.0 -0.0486821851
C  C85  1  0.07040000  0.71950000  0.09638000  1.0 0.0194534078
C  C86  1  0.07040000  0.78050000  0.59638000  1.0 0.0194534078
C  C87  1  0.13220000  0.70520000  0.11771000  1.0 -0.0594397
C  C88  1  0.13220000  0.79480000  0.61771000  1.0 -0.0594397
C  C89  1  0.14520000  0.69950000  0.15095000  1.0 0.4194307222
C  C90  1  0.14520000  0.80050000  0.65095000  1.0 0.4194307222
C  C91  1  0.95910000  0.74620000  0.08215000  1.0 -0.1039113375
C  C92  1  0.95910000  0.75380000  0.58215000  1.0 -0.1039113375
C  C93  1  0.94630000  0.75300000  0.05245000  1.0 -0.0717174267
C  C94  1  0.94630000  0.74700000  0.55245000  1.0 -0.0717174267
C  C95  1  0.99410000  0.74510000  0.04507000  1.0 -0.0382285674
C  C96  1  0.99410000  0.75490000  0.54507000  1.0 -0.0382285674
C  C97  1  0.05810000  0.72660000  0.06550000  1.0 0.0194534078
C  C98  1  0.05810000  0.77340000  0.56550000  1.0 0.0194534078
C  C99  1  0.10750000  0.71560000  0.05803000  1.0 -0.0594397
C  C100  1  0.10750000  0.78440000  0.55803000  1.0 -0.0594397
C  C101  1  0.16640000  0.69440000  0.07799000  1.0 -0.0594397
C  C102  1  0.16640000  0.80560000  0.57799000  1.0 -0.0594397
C  C103  1  0.17960000  0.69160000  0.11003000  1.0 -0.0717174267
C  C104  1  0.17960000  0.80840000  0.61003000  1.0 -0.0717174267
C  C105  1  0.98250000  0.75230000  0.01216000  1.0 0.428983552
C  C106  1  0.98250000  0.74770000  0.51216000  1.0 0.428983552
C  C107  1  0.09330000  0.71960000  0.02596000  1.0 0.4132430998
C  C108  1  0.09330000  0.78040000  0.52596000  1.0 0.4132430998
C  C109  1  0.02460000  0.76300000  0.97562000  1.0 0.0673677167
C  C110  1  0.02460000  0.73700000  0.47562000  1.0 0.0673677167
C  C111  1  0.99930000  0.72480000  0.95230000  1.0 0.131393971
C  C112  1  0.99930000  0.77520000  0.45230000  1.0 0.1225080945
C  C113  1  0.99960000  0.74087000  0.92418000  1.0 -0.1487162595
C  C114  1  0.99960000  0.75913000  0.42418000  1.0 -0.1487162595
C  C115  1  0.01810000  0.79065000  0.92133000  1.0 -0.0196590013
C  C116  1  0.01810000  0.70935000  0.42133000  1.0 -0.0196590013
C  C117  1  0.04080000  0.82472000  0.94573000  1.0 -0.1487162595
C  C118  1  0.04080000  0.67528000  0.44573000  1.0 -0.1487162595
C  C119  1  0.03870000  0.81280000  0.97266000  1.0 0.0822201799
C  C120  1  0.03870000  0.68720000  0.47266000  1.0 0.0822201799
C  C121  1  0.97970000  0.66810000  0.95429000  1.0 -0.4177522759
C  C122  1  0.97970000  0.83190000  0.45429000  1.0 -0.4177522759
C  C123  1  0.05930000  0.85230000  0.99723000  1.0 -0.3976346475
C  C124  1  0.05930000  0.64770000  0.49723000  1.0 -0.3976346475
C  C125  1  0.08490000  0.81625000  0.33723000  1.0 0.6085009652
C  C126  1  0.08490000  0.68375000  0.83723000  1.0 0.6085009652
C  C127  1  0.09610000  0.87343000  0.34241000  1.0 -0.030264605
C  C128  1  0.09610000  0.62657000  0.84241000  1.0 -0.030264605
C  C129  1  0.14070000  0.89896000  0.33787000  1.0 -0.1487162595
C  C130  1  0.14070000  0.60104000  0.83787000  1.0 -0.1487162595
C  C131  1  0.15320000  0.95441000  0.34125000  1.0 0.0943432925
C  C132  1  0.15320000  0.54559000  0.84125000  1.0 0.0943432925
C  C133  1  0.11280000  0.98075000  0.34824000  1.0 0.0488784872
C  C134  1  0.11280000  0.51925000  0.84824000  1.0 0.0488784872
C  C135  1  0.06580000  0.95930000  0.35449000  1.0 0.1225080945
C  C136  1  0.06580000  0.54070000  0.85449000  1.0 0.1225080945
C  C137  1  0.05910000  0.90267000  0.35078000  1.0 -0.1603940217
C  C138  1  0.05910000  0.59733000  0.85078000  1.0 -0.1487162595
C  C139  1  0.20140000  0.98136000  0.33476000  1.0 -0.4177522759
C  C140  1  0.20140000  0.51864000  0.83476000  1.0 -0.4177522759
C  C141  1  0.02060000  0.98890000  0.36420000  1.0 -0.439752932
C  C142  1  0.02060000  0.51110000  0.86420000  1.0 -0.439752932
C  C143  1  0.07660000  0.06448000  0.32103000  1.0 0.428983552
C  C144  1  0.07660000  0.43552000  0.82103000  1.0 0.428983552
C  C145  1  0.07830000  0.12234000  0.32100000  1.0 -0.0594397
C  C146  1  0.07830000  0.37766000  0.82100000  1.0 -0.0594397
C  C147  1  0.11360000  0.14927000  0.34889000  1.0 0.0401836981
C  C148  1  0.11360000  0.35073000  0.84889000  1.0 0.0401836981
C  C149  1  0.14950000  0.12133000  0.37661000  1.0 -0.0811520333
C  C150  1  0.14950000  0.37867000  0.87661000  1.0 -0.0811520333
C  C151  1  0.14890000  0.06385000  0.37695000  1.0 0.4194307222
C  C152  1  0.14890000  0.43615000  0.87695000  1.0 0.4194307222
C  C153  1  0.04690000  0.14979000  0.29519000  1.0 -0.0811520333
C  C154  1  0.04690000  0.35021000  0.79519000  1.0 -0.0811520333
C  C155  1  0.04860000  0.20532000  0.29510000  1.0 -0.0811520333
C  C156  1  0.04860000  0.29468000  0.79510000  1.0 -0.0811520333
C  C157  1  0.08130000  0.23089000  0.32140000  1.0 -0.030264605
C  C158  1  0.08130000  0.26911000  0.82140000  1.0 -0.030264605
C  C159  1  0.11670000  0.20412000  0.34768000  1.0 0.0488784872
C  C160  1  0.11670000  0.29588000  0.84768000  1.0 0.0488784872
C  C161  1  0.15270000  0.23230000  0.37633000  1.0 -0.0486821851
C  C162  1  0.15270000  0.26770000  0.87633000  1.0 -0.0486821851
C  C163  1  0.18830000  0.20390000  0.40313000  1.0 -0.1112949343
C  C164  1  0.18830000  0.29610000  0.90313000  1.0 -0.1112949343
C  C165  1  0.18380000  0.14894000  0.40274000  1.0 -0.0811520333
C  C166  1  0.18380000  0.35106000  0.90274000  1.0 -0.0811520333
C  C167  1  0.07620000  0.28824000  0.32081000  1.0 0.4498287169
C  C168  1  0.07620000  0.21176000  0.82081000  1.0 0.4498287169
C  C169  1  0.15430000  0.28901000  0.37622000  1.0 0.4194307222
C  C170  1  0.15430000  0.21099000  0.87622000  1.0 0.4194307222
C  C171  1  0.11680000  0.37244000  0.35048000  1.0 0.0673677167
C  C172  1  0.11680000  0.12756000  0.85048000  1.0 0.0673677167
C  C173  1  0.18370000  0.37307000  0.32216000  1.0 -0.439752932
C  C174  1  0.18370000  0.12693000  0.82216000  1.0 -0.439752932
C  C175  1  0.14360000  0.45460000  0.33722000  1.0 -0.1487162595
C  C176  1  0.14360000  0.04540000  0.83722000  1.0 -0.1487162595
C  C177  1  0.04890000  0.36554000  0.37756000  1.0 -0.4484154717
C  C178  1  0.04890000  0.13446000  0.87756000  1.0 -0.4484154717
C  C179  1  0.08510000  0.45125000  0.36404000  1.0 -0.1403112384
C  C180  1  0.08510000  0.04875000  0.86404000  1.0 -0.1403112384
C  C181  1  0.08450000  0.39681000  0.36413000  1.0 0.1225080945
C  C182  1  0.08450000  0.10319000  0.86413000  1.0 0.1225080945
C  C183  1  0.14770000  0.40009000  0.33742000  1.0 0.1087639055
C  C184  1  0.14770000  0.09991000  0.83742000  1.0 0.1087639055
C  C185  1  0.11300000  0.47991000  0.35192000  1.0 -0.0196590013
C  C186  1  0.11300000  0.02009000  0.85192000  1.0 -0.0196590013
C  C187  1  0.11590000  0.53814000  0.35437000  1.0 0.5809505013
C  C188  1  0.11590000  0.96186000  0.85437000  1.0 0.5809505013
C  C189  1  0.92000000  0.80585000  0.77401000  1.0 0.6085009652
C  C190  1  0.92000000  0.69415000  0.27401000  1.0 0.6085009652
C  C191  1  0.02540000  0.80520000  0.89297000  1.0 0.6085009652
C  C192  1  0.02540000  0.69480000  0.39297000  1.0 0.6085009652
C  C193  1  0.77470000  0.19060000  0.09884000  1.0 0.588299605
C  C194  1  0.77470000  0.30940000  0.59884000  1.0 0.588299605
C  C195  1  0.71760000  0.20690000  0.07039000  1.0 -0.0196590013
C  C196  1  0.71760000  0.29310000  0.57039000  1.0 -0.0196590013
C  C197  1  0.69430000  0.17010000  0.04455000  1.0 -0.1696329331
C  C198  1  0.69430000  0.32990000  0.54455000  1.0 -0.1696329331
C  C199  1  0.64180000  0.18360000  0.01838000  1.0 0.1019216282
C  C200  1  0.64180000  0.31640000  0.51838000  1.0 0.1019216282
C  C201  1  0.61410000  0.23300000  0.01430000  1.0 0.0401836981
C  C202  1  0.61410000  0.26700000  0.51430000  1.0 0.0401836981
C  C203  1  0.63440000  0.26710000  0.03719000  1.0 0.0822201799
C  C204  1  0.63440000  0.23290000  0.53719000  1.0 0.0822201799
C  C205  1  0.68930000  0.25750000  0.06368000  1.0 -0.1696329331
C  C206  1  0.68930000  0.24250000  0.56368000  1.0 -0.1696329331
C  C207  1  0.61060000  0.13630000  0.99557000  1.0 -0.4102185703
C  C208  1  0.61060000  0.36370000  0.49557000  1.0 -0.4102185703
C  C209  1  0.60570000  0.32610000  0.03873000  1.0 -0.4177522759
C  C210  1  0.60570000  0.17390000  0.53873000  1.0 -0.4102185703
C  C211  1  0.49980000  0.23330000  0.97968000  1.0 0.4132430998
C  C212  1  0.49980000  0.26670000  0.47968000  1.0 0.4132430998
C  C213  1  0.44550000  0.24170000  0.94918000  1.0 -0.0486821851
C  C214  1  0.44550000  0.25830000  0.44918000  1.0 -0.0486821851
C  C215  1  0.46100000  0.26480000  0.92593000  1.0 0.0194534078
C  C216  1  0.46100000  0.23520000  0.42593000  1.0 0.0194534078
C  C217  1  0.52070000  0.27880000  0.93450000  1.0 -0.0382285674
C  C218  1  0.52070000  0.22120000  0.43450000  1.0 -0.0486821851
C  C219  1  0.57900000  0.27030000  0.96560000  1.0 0.428983552
C  C220  1  0.57900000  0.22970000  0.46560000  1.0 0.428983552
C  C221  1  0.38580000  0.22610000  0.94261000  1.0 -0.0717174267
C  C222  1  0.38580000  0.27390000  0.44261000  1.0 -0.0717174267
C  C223  1  0.33630000  0.23180000  0.91227000  1.0 -0.0811520333
C  C224  1  0.33630000  0.26820000  0.41227000  1.0 -0.0811520333
C  C225  1  0.34970000  0.25360000  0.89068000  1.0 -0.0486821851
C  C226  1  0.34970000  0.24640000  0.39068000  1.0 -0.0486821851
C  C227  1  0.41120000  0.27140000  0.89684000  1.0 0.0194534078
C  C228  1  0.41120000  0.22860000  0.39684000  1.0 0.0194534078
C  C229  1  0.42490000  0.29260000  0.87457000  1.0 -0.0594397
C  C230  1  0.42490000  0.20740000  0.37457000  1.0 -0.0594397
C  C231  1  0.48480000  0.31000000  0.88064000  1.0 -0.0717174267
C  C232  1  0.48480000  0.19000000  0.38064000  1.0 -0.0717174267
C  C233  1  0.53360000  0.30220000  0.91350000  1.0 -0.0871705553
C  C234  1  0.53360000  0.19780000  0.41350000  1.0 -0.0871705553
C  C235  1  0.29850000  0.25850000  0.85909000  1.0 0.4194307222
C  C236  1  0.29850000  0.24150000  0.35909000  1.0 0.4194307222
C  C237  1  0.37020000  0.30060000  0.84242000  1.0 0.4132430998
C  C238  1  0.37020000  0.19940000  0.34242000  1.0 0.4132430998
C  C239  1  0.25580000  0.28892000  0.80725000  1.0 0.0401836981
C  C240  1  0.25580000  0.21108000  0.30725000  1.0 0.0401836981
C  C241  1  0.24170000  0.24960000  0.78618000  1.0 0.1087639055
C  C242  1  0.24170000  0.25040000  0.28618000  1.0 0.1087639055
C  C243  1  0.18090000  0.25884000  0.75806000  1.0 -0.1603940217
C  C244  1  0.18090000  0.24116000  0.25806000  1.0 -0.1603940217
C  C245  1  0.14420000  0.30062000  0.75434000  1.0 -0.0020579862
C  C246  1  0.14420000  0.19938000  0.25434000  1.0 -0.0020579862
C  C247  1  0.16320000  0.34004000  0.77468000  1.0 -0.1603940217
C  C248  1  0.16320000  0.15996000  0.27468000  1.0 -0.1603940217
C  C249  1  0.22330000  0.33372000  0.80339000  1.0 0.1019216282
C  C250  1  0.22330000  0.16628000  0.30339000  1.0 0.1019216282
C  C251  1  0.27830000  0.19960000  0.79151000  1.0 -0.4177522759
C  C252  1  0.27830000  0.30040000  0.29151000  1.0 -0.4177522759
C  C253  1  0.24500000  0.37924000  0.82667000  1.0 -0.4484154717
C  C254  1  0.24500000  0.12076000  0.32667000  1.0 -0.4484154717
C  C255  1  0.88560000  0.17791000  0.22488000  1.0 0.6015222994
C  C256  1  0.88560000  0.32209000  0.72488000  1.0 0.6015222994
C  C257  1  0.88380000  0.18429000  0.25513000  1.0 -0.0196590013
C  C258  1  0.88380000  0.31571000  0.75513000  1.0 -0.0196590013
C  C259  1  0.87340000  0.23597000  0.26266000  1.0 -0.1893647323
C  C260  1  0.87340000  0.26403000  0.76266000  1.0 -0.1893647323
C  C261  1  0.87990000  0.24510000  0.29293000  1.0 0.131393971
C  C262  1  0.87990000  0.25490000  0.79293000  1.0 0.131393971
C  C263  1  0.89410000  0.20092000  0.31220000  1.0 0.0558194881
C  C264  1  0.89410000  0.29908000  0.81220000  1.0 0.0558194881
C  C265  1  0.90150000  0.15145000  0.30312000  1.0 0.1087639055
C  C266  1  0.90150000  0.34855000  0.80312000  1.0 0.1087639055
C  C267  1  0.89470000  0.14235000  0.27437000  1.0 -0.1800532611
C  C268  1  0.89470000  0.35765000  0.77437000  1.0 -0.1800532611
C  C269  1  0.87870000  0.30217000  0.30281000  1.0 -0.4319075787
C  C270  1  0.87870000  0.19783000  0.80281000  1.0 -0.4319075787
C  C271  1  0.91180000  0.10475000  0.32537000  1.0 -0.4319075787
C  C272  1  0.91180000  0.39525000  0.82537000  1.0 -0.4319075787
C  C273  1  0.96410000  0.22730000  0.36301000  1.0 0.4366409508
C  C274  1  0.96410000  0.27270000  0.86301000  1.0 0.4366409508
C  C275  1  0.97840000  0.23222000  0.39581000  1.0 -0.0486821851
C  C276  1  0.97840000  0.26778000  0.89581000  1.0 -0.0486821851
C  C277  1  0.92960000  0.21950000  0.40362000  1.0 0.0194534078
C  C278  1  0.92960000  0.28050000  0.90362000  1.0 0.0194534078
C  C279  1  0.86780000  0.20520000  0.38229000  1.0 -0.0594397
C  C280  1  0.86780000  0.29480000  0.88229000  1.0 -0.0486821851
C  C281  1  0.85480000  0.19950000  0.34905000  1.0 0.4194307222
C  C282  1  0.85480000  0.30050000  0.84905000  1.0 0.4194307222
C  C283  1  0.04090000  0.24620000  0.41785000  1.0 -0.1039113375
C  C284  1  0.04090000  0.25380000  0.91785000  1.0 -0.1112949343
C  C285  1  0.05370000  0.25300000  0.44755000  1.0 -0.0717174267
C  C286  1  0.05370000  0.24700000  0.94755000  1.0 -0.0717174267
C  C287  1  0.00590000  0.24510000  0.45493000  1.0 -0.0382285674
C  C288  1  0.00590000  0.25490000  0.95493000  1.0 -0.0382285674
C  C289  1  0.94190000  0.22660000  0.43450000  1.0 0.0194534078
C  C290  1  0.94190000  0.27340000  0.93450000  1.0 0.0194534078
C  C291  1  0.89250000  0.21560000  0.44197000  1.0 -0.0594397
C  C292  1  0.89250000  0.28440000  0.94197000  1.0 -0.0594397
C  C293  1  0.83360000  0.19440000  0.42201000  1.0 -0.0594397
C  C294  1  0.83360000  0.30560000  0.92201000  1.0 -0.0594397
C  C295  1  0.82040000  0.19160000  0.38997000  1.0 -0.0717174267
C  C296  1  0.82040000  0.30840000  0.88997000  1.0 -0.0717174267
C  C297  1  0.01750000  0.25230000  0.48784000  1.0 0.428983552
C  C298  1  0.01750000  0.24770000  0.98784000  1.0 0.428983552
C  C299  1  0.90670000  0.21960000  0.47404000  1.0 0.4132430998
C  C300  1  0.90670000  0.28040000  0.97404000  1.0 0.4132430998
C  C301  1  0.97540000  0.26300000  0.52438000  1.0 0.0673677167
C  C302  1  0.97540000  0.23700000  0.02438000  1.0 0.0673677167
C  C303  1  0.00070000  0.22480000  0.54770000  1.0 0.1225080945
C  C304  1  0.00070000  0.27520000  0.04770000  1.0 0.131393971
C  C305  1  0.00040000  0.24087000  0.57582000  1.0 -0.1487162595
C  C306  1  0.00040000  0.25913000  0.07582000  1.0 -0.1487162595
C  C307  1  0.98190000  0.29065000  0.57867000  1.0 -0.0196590013
C  C308  1  0.98190000  0.20935000  0.07867000  1.0 -0.0196590013
C  C309  1  0.95920000  0.32472000  0.55427000  1.0 -0.1487162595
C  C310  1  0.95920000  0.17528000  0.05427000  1.0 -0.1487162595
C  C311  1  0.96130000  0.31280000  0.52734000  1.0 0.0822201799
C  C312  1  0.96130000  0.18720000  0.02734000  1.0 0.0822201799
C  C313  1  0.02030000  0.16810000  0.54571000  1.0 -0.4102185703
C  C314  1  0.02030000  0.33190000  0.04571000  1.0 -0.4102185703
C  C315  1  0.94070000  0.35230000  0.50277000  1.0 -0.3976346475
C  C316  1  0.94070000  0.14770000  0.00277000  1.0 -0.3976346475
C  C317  1  0.91510000  0.31625000  0.16277000  1.0 0.6085009652
C  C318  1  0.91510000  0.18375000  0.66277000  1.0 0.6085009652
C  C319  1  0.90390000  0.37343000  0.15759000  1.0 -0.030264605
C  C320  1  0.90390000  0.12657000  0.65759000  1.0 -0.030264605
C  C321  1  0.85930000  0.39896000  0.16213000  1.0 -0.1487162595
C  C322  1  0.85930000  0.10104000  0.66213000  1.0 -0.1487162595
C  C323  1  0.84680000  0.45441000  0.15875000  1.0 0.0943432925
C  C324  1  0.84680000  0.04559000  0.65875000  1.0 0.0943432925
C  C325  1  0.88720000  0.48075000  0.15176000  1.0 0.0488784872
C  C326  1  0.88720000  0.01925000  0.65176000  1.0 0.0488784872
C  C327  1  0.93420000  0.45930000  0.14551000  1.0 0.1225080945
C  C328  1  0.93420000  0.04070000  0.64551000  1.0 0.1225080945
C  C329  1  0.94090000  0.40267000  0.14922000  1.0 -0.1487162595
C  C330  1  0.94090000  0.09733000  0.64922000  1.0 -0.1487162595
C  C331  1  0.79860000  0.48136000  0.16524000  1.0 -0.4177522759
C  C332  1  0.79860000  0.01864000  0.66524000  1.0 -0.4177522759
C  C333  1  0.97940000  0.48890000  0.13580000  1.0 -0.439752932
C  C334  1  0.97940000  0.01110000  0.63580000  1.0 -0.439752932
C  C335  1  0.92340000  0.56448000  0.17897000  1.0 0.428983552
C  C336  1  0.92340000  0.93552000  0.67897000  1.0 0.428983552
C  C337  1  0.92170000  0.62234000  0.17900000  1.0 -0.0594397
C  C338  1  0.92170000  0.87766000  0.67900000  1.0 -0.0594397
C  C339  1  0.88640000  0.64927000  0.15111000  1.0 0.0401836981
C  C340  1  0.88640000  0.85073000  0.65111000  1.0 0.0401836981
C  C341  1  0.85050000  0.62133000  0.12339000  1.0 -0.0811520333
C  C342  1  0.85050000  0.87867000  0.62339000  1.0 -0.0811520333
C  C343  1  0.85110000  0.56385000  0.12305000  1.0 0.4194307222
C  C344  1  0.85110000  0.93615000  0.62305000  1.0 0.4194307222
C  C345  1  0.95310000  0.64979000  0.20481000  1.0 -0.0811520333
C  C346  1  0.95310000  0.85021000  0.70481000  1.0 -0.0811520333
C  C347  1  0.95140000  0.70532000  0.20490000  1.0 -0.0811520333
C  C348  1  0.95140000  0.79468000  0.70490000  1.0 -0.0811520333
C  C349  1  0.91870000  0.73089000  0.17860000  1.0 -0.030264605
C  C350  1  0.91870000  0.76911000  0.67860000  1.0 -0.030264605
C  C351  1  0.88330000  0.70412000  0.15232000  1.0 0.0488784872
C  C352  1  0.88330000  0.79588000  0.65232000  1.0 0.0488784872
C  C353  1  0.84730000  0.73230000  0.12367000  1.0 -0.0486821851
C  C354  1  0.84730000  0.76770000  0.62367000  1.0 -0.0486821851
C  C355  1  0.81170000  0.70390000  0.09687000  1.0 -0.1112949343
C  C356  1  0.81170000  0.79610000  0.59687000  1.0 -0.1112949343
C  C357  1  0.81620000  0.64894000  0.09726000  1.0 -0.0811520333
C  C358  1  0.81620000  0.85106000  0.59726000  1.0 -0.0811520333
C  C359  1  0.92380000  0.78824000  0.17919000  1.0 0.4498287169
C  C360  1  0.92380000  0.71176000  0.67919000  1.0 0.4498287169
C  C361  1  0.84570000  0.78901000  0.12378000  1.0 0.4194307222
C  C362  1  0.84570000  0.71099000  0.62378000  1.0 0.4194307222
C  C363  1  0.88320000  0.87244000  0.14952000  1.0 0.0673677167
C  C364  1  0.88320000  0.62756000  0.64952000  1.0 0.0673677167
C  C365  1  0.81630000  0.87307000  0.17784000  1.0 -0.439752932
C  C366  1  0.81630000  0.62693000  0.67784000  1.0 -0.439752932
C  C367  1  0.85640000  0.95460000  0.16278000  1.0 -0.1487162595
C  C368  1  0.85640000  0.54540000  0.66278000  1.0 -0.1487162595
C  C369  1  0.95110000  0.86554000  0.12244000  1.0 -0.4484154717
C  C370  1  0.95110000  0.63446000  0.62244000  1.0 -0.4484154717
C  C371  1  0.91490000  0.95125000  0.13596000  1.0 -0.1403112384
C  C372  1  0.91490000  0.54875000  0.63596000  1.0 -0.1403112384
C  C373  1  0.91550000  0.89681000  0.13587000  1.0 0.1225080945
C  C374  1  0.91550000  0.60319000  0.63587000  1.0 0.1225080945
C  C375  1  0.85230000  0.90009000  0.16258000  1.0 0.1087639055
C  C376  1  0.85230000  0.59991000  0.66258000  1.0 0.1087639055
C  C377  1  0.88700000  0.97991000  0.14808000  1.0 -0.0196590013
C  C378  1  0.88700000  0.52009000  0.64808000  1.0 -0.0196590013
C  C379  1  0.88410000  0.03814000  0.14563000  1.0 0.5809505013
C  C380  1  0.88410000  0.46186000  0.64563000  1.0 0.5809505013
C  C381  1  0.08000000  0.30585000  0.72599000  1.0 0.6085009652
C  C382  1  0.08000000  0.19415000  0.22599000  1.0 0.6085009652
C  C383  1  0.97460000  0.30520000  0.60703000  1.0 0.6085009652
C  C384  1  0.97460000  0.19480000  0.10703000  1.0 0.6085009652
N  N1  1  0.43960000  0.74790000  0.51446000  1.0 -0.2240706506
N  N2  1  0.43960000  0.75210000  0.01446000  1.0 -0.2240706506
N  N3  1  0.68740000  0.78061000  0.66267000  1.0 -0.1893647323
N  N4  1  0.68740000  0.71939000  0.16267000  1.0 -0.1893647323
N  N5  1  0.09540000  0.70970000  0.15730000  1.0 -0.2090139833
N  N6  1  0.09540000  0.79030000  0.65730000  1.0 -0.2090139833
N  N7  1  0.03290000  0.74244000  0.00526000  1.0 -0.2266052338
N  N8  1  0.03290000  0.75756000  0.50526000  1.0 -0.2266052338
N  N9  1  0.11380000  0.03842000  0.34867000  1.0 -0.2090139833
N  N10  1  0.11380000  0.46158000  0.84867000  1.0 -0.2090139833
N  N11  1  0.11772000  0.31487000  0.34922000  1.0 -0.2090139833
N  N12  1  0.11772000  0.18513000  0.84922000  1.0 -0.2090139833
N  N13  1  0.56040000  0.24790000  0.98554000  1.0 -0.2266052338
N  N14  1  0.56040000  0.25210000  0.48554000  1.0 -0.2266052338
N  N15  1  0.31260000  0.28061000  0.83733000  1.0 -0.1893647323
N  N16  1  0.31260000  0.21939000  0.33733000  1.0 -0.1893647323
N  N17  1  0.90460000  0.20970000  0.34270000  1.0 -0.2090139833
N  N18  1  0.90460000  0.29030000  0.84270000  1.0 -0.2090139833
N  N19  1  0.96710000  0.24244000  0.49474000  1.0 -0.2266052338
N  N20  1  0.96710000  0.25756000  0.99474000  1.0 -0.2266052338
N  N21  1  0.88620000  0.53842000  0.15133000  1.0 -0.2090139833
N  N22  1  0.88620000  0.96158000  0.65133000  1.0 -0.2090139833
N  N23  1  0.88228000  0.81487000  0.15078000  1.0 -0.2090139833
N  N24  1  0.88228000  0.68513000  0.65078000  1.0 -0.2090139833
O  O1  1  0.07715000  0.67607000  0.33584000  1.0 -1.0353846224
O  O2  1  0.07715000  0.82393000  0.83584000  1.0 -1.0353846224
O  O3  1  0.21367000  0.72061000  0.37709000  1.0 -0.5909662815
O  O4  1  0.21367000  0.77939000  0.87709000  1.0 -0.5909662815
O  O5  1  0.19324000  0.65160000  0.40052000  1.0 -0.5057398947
O  O6  1  0.19324000  0.84840000  0.90052000  1.0 -0.5057398947
O  O7  1  0.51070000  0.71580000  0.49960000  1.0 -0.4319075787
O  O8  1  0.51070000  0.78420000  0.99960000  1.0 -0.4319075787
O  O9  1  0.36420000  0.78100000  0.52821000  1.0 -0.4319075787
O  O10  1  0.36420000  0.71900000  0.02821000  1.0 -0.4319075787
O  O11  1  0.75850000  0.74262000  0.64867000  1.0 -0.439752932
O  O12  1  0.75850000  0.75738000  0.14867000  1.0 -0.4319075787
O  O13  1  0.61880000  0.82060000  0.67604000  1.0 -0.379720618
O  O14  1  0.61880000  0.67940000  0.17604000  1.0 -0.379720618
O  O15  1  0.14228000  0.71362000  0.29513000  1.0 -0.5601549121
O  O16  1  0.14228000  0.78638000  0.79513000  1.0 -0.5601549121
O  O17  1  0.08949000  0.63587000  0.27848000  1.0 -0.5437049342
O  O18  1  0.08949000  0.86413000  0.77848000  1.0 -0.5501170329
O  O19  1  0.99470000  0.73814000  0.14452000  1.0 -0.3976346475
O  O20  1  0.99470000  0.76186000  0.64452000  1.0 -0.3976346475
O  O21  1  0.19850000  0.68621000  0.16979000  1.0 -0.3881096738
O  O22  1  0.19850000  0.81379000  0.66979000  1.0 -0.3881096738
O  O23  1  0.92860000  0.76879000  0.99225000  1.0 -0.439752932
O  O24  1  0.92860000  0.73121000  0.49225000  1.0 -0.439752932
O  O25  1  0.13100000  0.71560000  0.01744000  1.0 -0.3653625123
O  O26  1  0.13100000  0.78440000  0.51744000  1.0 -0.3642927679
O  O27  1  0.03620000  0.79529000  0.33753000  1.0 -0.519428921
O  O28  1  0.03620000  0.70471000  0.83753000  1.0 -0.519428921
O  O29  1  0.12872000  0.79146000  0.33406000  1.0 -0.5254989686
O  O30  1  0.12872000  0.70854000  0.83406000  1.0 -0.5254989686
O  O31  1  0.18250000  0.03723000  0.39929000  1.0 -0.4102185703
O  O32  1  0.18250000  0.46277000  0.89929000  1.0 -0.4177522759
O  O33  1  0.04164000  0.03894000  0.29768000  1.0 -0.4102185703
O  O34  1  0.04164000  0.46106000  0.79768000  1.0 -0.4102185703
O  O35  1  0.18852000  0.31533000  0.39913000  1.0 -0.439752932
O  O36  1  0.18852000  0.18467000  0.89913000  1.0 -0.439752932
O  O37  1  0.04306000  0.31479000  0.29856000  1.0 -0.3976346475
O  O38  1  0.04306000  0.18521000  0.79856000  1.0 -0.3976346475
O  O39  1  0.99685000  0.77747000  0.87015000  1.0 -0.4996005716
O  O40  1  0.99685000  0.72253000  0.37015000  1.0 -0.4996005716
O  O41  1  0.06110000  0.84547000  0.89561000  1.0 -0.5501170329
O  O42  1  0.06110000  0.65453000  0.39561000  1.0 -0.5501170329
O  O43  1  0.96052000  0.83752000  0.77306000  1.0 -0.5667288127
O  O44  1  0.96052000  0.66248000  0.27306000  1.0 -0.5667288127
O  O45  1  0.92815000  0.77875000  0.79784000  1.0 -0.5437049342
O  O46  1  0.92815000  0.72125000  0.29784000  1.0 -0.5437049342
O  O47  1  0.12051000  0.56428000  0.33308000  1.0 -0.5909662815
O  O48  1  0.12051000  0.93572000  0.83308000  1.0 -0.5909662815
O  O49  1  0.10663000  0.55915000  0.37448000  1.0 -0.4996005716
O  O50  1  0.10663000  0.94085000  0.87448000  1.0 -0.4996005716
O  O51  1  0.92285000  0.17607000  0.16416000  1.0 -1.0353846224
O  O52  1  0.92285000  0.32393000  0.66416000  1.0 -1.0353846224
O  O53  1  0.78633000  0.22061000  0.12291000  1.0 -0.5909662815
O  O54  1  0.78633000  0.27939000  0.62291000  1.0 -0.5909662815
O  O55  1  0.80676000  0.15160000  0.09948000  1.0 -0.5057398947
O  O56  1  0.80676000  0.34840000  0.59948000  1.0 -0.5057398947
O  O57  1  0.48930000  0.21580000  0.00040000  1.0 -0.439752932
O  O58  1  0.48930000  0.28420000  0.50040000  1.0 -0.4319075787
O  O59  1  0.63580000  0.28100000  0.97179000  1.0 -0.4319075787
O  O60  1  0.63580000  0.21900000  0.47179000  1.0 -0.4319075787
O  O61  1  0.24150000  0.24262000  0.85133000  1.0 -0.439752932
O  O62  1  0.24150000  0.25738000  0.35133000  1.0 -0.439752932
O  O63  1  0.38120000  0.32060000  0.82396000  1.0 -0.379720618
O  O64  1  0.38120000  0.17940000  0.32396000  1.0 -0.379720618
O  O65  1  0.85772000  0.21362000  0.20487000  1.0 -0.5601549121
O  O66  1  0.85772000  0.28638000  0.70487000  1.0 -0.5601549121
O  O67  1  0.91051000  0.13587000  0.22152000  1.0 -0.5437049342
O  O68  1  0.91051000  0.36413000  0.72152000  1.0 -0.5501170329
O  O69  1  0.00530000  0.23814000  0.35548000  1.0 -0.3976346475
O  O70  1  0.00530000  0.26186000  0.85548000  1.0 -0.3976346475
O  O71  1  0.80150000  0.18621000  0.33021000  1.0 -0.3881096738
O  O72  1  0.80150000  0.31379000  0.83021000  1.0 -0.3881096738
O  O73  1  0.07140000  0.26879000  0.50775000  1.0 -0.4484154717
O  O74  1  0.07140000  0.23121000  0.00775000  1.0 -0.4484154717
O  O75  1  0.86900000  0.21560000  0.48256000  1.0 -0.3653625123
O  O76  1  0.86900000  0.28440000  0.98256000  1.0 -0.3653625123
O  O77  1  0.96380000  0.29529000  0.16247000  1.0 -0.519428921
O  O78  1  0.96380000  0.20471000  0.66247000  1.0 -0.519428921
O  O79  1  0.87128000  0.29146000  0.16594000  1.0 -0.5254989686
O  O80  1  0.87128000  0.20854000  0.66594000  1.0 -0.5254989686
O  O81  1  0.81750000  0.53723000  0.10071000  1.0 -0.4177522759
O  O82  1  0.81750000  0.96277000  0.60071000  1.0 -0.4102185703
O  O83  1  0.95836000  0.53894000  0.20232000  1.0 -0.4102185703
O  O84  1  0.95836000  0.96106000  0.70232000  1.0 -0.4102185703
O  O85  1  0.81148000  0.81533000  0.10087000  1.0 -0.4484154717
O  O86  1  0.81148000  0.68467000  0.60087000  1.0 -0.439752932
O  O87  1  0.95694000  0.81479000  0.20144000  1.0 -0.3976346475
O  O88  1  0.95694000  0.68521000  0.70144000  1.0 -0.3976346475
O  O89  1  0.00315000  0.27747000  0.62985000  1.0 -0.4996005716
O  O90  1  0.00315000  0.22253000  0.12985000  1.0 -0.4996005716
O  O91  1  0.93890000  0.34547000  0.60439000  1.0 -0.5501170329
O  O92  1  0.93890000  0.15453000  0.10439000  1.0 -0.5501170329
O  O93  1  0.03948000  0.33752000  0.72694000  1.0 -0.5667288127
O  O94  1  0.03948000  0.16248000  0.22694000  1.0 -0.5667288127
O  O95  1  0.07185000  0.27875000  0.70216000  1.0 -0.5437049342
O  O96  1  0.07185000  0.22125000  0.20216000  1.0 -0.5437049342
O  O97  1  0.87949000  0.06428000  0.16692000  1.0 -0.5909662815
O  O98  1  0.87949000  0.43572000  0.66692000  1.0 -0.5909662815
O  O99  1  0.89337000  0.05915000  0.12552000  1.0 -0.4996005716
O  O100  1  0.89337000  0.44085000  0.62552000  1.0 -0.4996005716
