# DDEC6 charges by PACMAN v1.1 (https://github.com/mtap-research/PACMAN-charge/)
data_XUCSOF_ion_pacman
_symmetry_space_group_name_H-M   'P 1'
_cell_length_a   12.00200000
_cell_length_b   15.37200000
_cell_length_c   18.01800000
_cell_angle_alpha   90.15000000
_cell_angle_beta   96.90100000
_cell_angle_gamma   92.01300000
_symmetry_Int_Tables_number   1
_chemical_formula_structural   Y6H12C36N17O55
_chemical_formula_sum   'Y12 H24 C72 N34 O110'
_cell_volume   3298.02817073
_cell_formula_units_Z   2
loop_
 _symmetry_equiv_pos_site_id
 _symmetry_equiv_pos_as_xyz
  1  'x, y, z'
loop_
 _atom_site_type_symbol
 _atom_site_label
 _atom_site_symmetry_multiplicity
 _atom_site_fract_x
 _atom_site_fract_y
 _atom_site_fract_z
 _atom_site_occupancy
 _atom_site_charge
Y  Y1  1  0.30664000  0.41735000  0.77243000  1.0 1.6306297796
Y  Y2  1  0.69336000  0.58265000  0.22757000  1.0 1.6306297796
Y  Y3  1  0.19166000  0.21279000  0.46725000  1.0 1.5967622714
Y  Y4  1  0.80834000  0.78721000  0.53275000  1.0 1.5967622714
Y  Y5  1  0.70413000  0.31185000  0.46855000  1.0 1.6306297796
Y  Y6  1  0.29587000  0.68815000  0.53145000  1.0 1.6306297796
Y  Y7  1  0.40160000  0.22809000  0.07069000  1.0 1.6534869986
Y  Y8  1  0.59840000  0.77191000  0.92931000  1.0 1.6534869986
Y  Y9  1  0.90127000  0.26527000  0.06999000  1.0 1.6378034668
Y  Y10  1  0.09873000  0.73473000  0.93001000  1.0 1.6378034668
Y  Y11  1  0.79283000  0.08837000  0.76312000  1.0 1.6172471957
Y  Y12  1  0.20717000  0.91163000  0.23688000  1.0 1.6172471957
H  H1  1  0.62540000  0.20580000  0.87730000  1.0 0.1386208005
H  H2  1  0.37460000  0.79420000  0.12270000  1.0 0.1386208005
H  H3  1  0.47490000  0.30690000  0.65470000  1.0 0.1217129564
H  H4  1  0.52510000  0.69310000  0.34530000  1.0 0.1217129564
H  H5  1  0.95800000  0.22160000  0.64850000  1.0 0.1386208005
H  H6  1  0.04200000  0.77840000  0.35150000  1.0 0.1386208005
H  H7  1  0.12150000  0.30520000  0.87560000  1.0 0.1386208005
H  H8  1  0.87850000  0.69480000  0.12440000  1.0 0.1386208005
H  H9  1  0.98850000  0.89600000  0.41200000  1.0 0.1293909239
H  H10  1  0.01150000  0.10400000  0.58800000  1.0 0.1293909239
H  H11  1  0.88400000  0.33920000  0.25820000  1.0 0.1293909239
H  H12  1  0.11600000  0.66080000  0.74180000  1.0 0.1293909239
H  H13  1  0.24620000  0.27450000  0.28040000  1.0 0.1217129564
H  H14  1  0.75380000  0.72550000  0.71960000  1.0 0.1217129564
H  H15  1  0.37590000  0.17210000  0.26540000  1.0 0.1293909239
H  H16  1  0.62410000  0.82790000  0.73460000  1.0 0.1293909239
H  H17  1  0.75060000  0.21940000  0.28890000  1.0 0.1293909239
H  H18  1  0.24940000  0.78060000  0.71110000  1.0 0.1293909239
H  H19  1  0.45120000  0.58530000  0.40130000  1.0 0.1217129564
H  H20  1  0.54880000  0.41470000  0.59870000  1.0 0.1217129564
H  H21  1  0.42420000  0.87790000  0.04350000  1.0 0.1217129564
H  H22  1  0.57580000  0.12210000  0.95650000  1.0 0.1217129564
H  H23  1  0.90540000  0.61310000  0.03000000  1.0 0.1293909239
H  H24  1  0.09460000  0.38690000  0.97000000  1.0 0.1293909239
C  C1  1  0.50050000  0.26570000  0.82380000  1.0 0.0590852429
C  C2  1  0.49950000  0.73430000  0.17620000  1.0 0.0590852429
C  C3  1  0.59480000  0.22340000  0.83010000  1.0 0.039473671
C  C4  1  0.40520000  0.77660000  0.16990000  1.0 0.039473671
C  C5  1  0.60890000  0.24010000  0.70470000  1.0 0.0491261365
C  C6  1  0.39110000  0.75990000  0.29530000  1.0 0.0491261365
C  C7  1  0.50530000  0.28500000  0.70050000  1.0 0.0590852429
C  C8  1  0.49470000  0.71500000  0.29950000  1.0 0.0590852429
C  C9  1  0.67460000  0.22910000  0.63860000  1.0 0.5412093567
C  C10  1  0.32540000  0.77090000  0.36140000  1.0 0.5412093567
C  C11  1  0.43060000  0.28550000  0.88890000  1.0 0.5483018177
C  C12  1  0.56940000  0.71450000  0.11110000  1.0 0.5483018177
C  C13  1  0.09820000  0.27540000  0.70540000  1.0 0.039473671
C  C14  1  0.90180000  0.72460000  0.29460000  1.0 0.039473671
C  C15  1  0.99100000  0.23660000  0.69640000  1.0 0.0695915351
C  C16  1  0.00900000  0.76340000  0.30360000  1.0 0.0590852429
C  C17  1  0.98530000  0.24730000  0.82340000  1.0 0.039473671
C  C18  1  0.01470000  0.75270000  0.17660000  1.0 0.039473671
C  C19  1  0.08830000  0.28780000  0.82840000  1.0 0.0491261365
C  C20  1  0.91170000  0.71220000  0.17160000  1.0 0.0491261365
C  C21  1  0.16930000  0.28600000  0.64350000  1.0 0.5483018177
C  C22  1  0.83070000  0.71400000  0.35650000  1.0 0.5483018177
C  C23  1  0.92130000  0.22180000  0.88770000  1.0 0.5483018177
C  C24  1  0.07870000  0.77820000  0.11230000  1.0 0.5483018177
C  C25  1  0.05730000  0.01460000  0.44180000  1.0 0.039473671
C  C26  1  0.94270000  0.98540000  0.55820000  1.0 0.039473671
C  C27  1  0.99190000  0.93830000  0.44940000  1.0 0.0695915351
C  C28  1  0.00810000  0.06170000  0.55060000  1.0 0.0695915351
C  C29  1  0.12310000  0.02790000  0.37760000  1.0 0.5483018177
C  C30  1  0.87690000  0.97210000  0.62240000  1.0 0.5483018177
C  C31  1  0.00810000  0.29460000  0.33240000  1.0 0.0491261365
C  C32  1  0.99190000  0.70540000  0.66760000  1.0 0.0491261365
C  C33  1  0.95570000  0.31730000  0.26160000  1.0 0.0695915351
C  C34  1  0.04430000  0.68270000  0.73840000  1.0 0.0695915351
C  C35  1  0.10860000  0.29360000  0.20700000  1.0 0.0695915351
C  C36  1  0.89140000  0.70640000  0.79300000  1.0 0.0765281456
C  C37  1  0.16900000  0.28110000  0.27690000  1.0 0.0300442635
C  C38  1  0.83100000  0.71890000  0.72310000  1.0 0.0300442635
C  C39  1  0.95260000  0.28220000  0.40090000  1.0 0.5599366592
C  C40  1  0.04740000  0.71780000  0.59910000  1.0 0.5599366592
C  C41  1  0.16520000  0.27060000  0.13960000  1.0 0.5483018177
C  C42  1  0.83480000  0.72940000  0.86040000  1.0 0.5483018177
C  C43  1  0.51020000  0.21440000  0.33630000  1.0 0.0491261365
C  C44  1  0.48980000  0.78560000  0.66370000  1.0 0.0491261365
C  C45  1  0.45070000  0.19130000  0.26800000  1.0 0.0590852429
C  C46  1  0.54930000  0.80870000  0.73200000  1.0 0.0590852429
C  C47  1  0.61440000  0.20690000  0.21610000  1.0 0.039473671
C  C48  1  0.38560000  0.79310000  0.78390000  1.0 0.039473671
C  C49  1  0.67250000  0.21780000  0.28450000  1.0 0.0491261365
C  C50  1  0.32750000  0.78220000  0.71550000  1.0 0.0491261365
C  C51  1  0.45020000  0.23250000  0.40470000  1.0 0.5599366592
C  C52  1  0.54980000  0.76750000  0.59530000  1.0 0.5599366592
C  C53  1  0.66600000  0.22300000  0.14340000  1.0 0.5599366592
C  C54  1  0.33400000  0.77700000  0.85660000  1.0 0.5599366592
C  C55  1  0.54640000  0.48840000  0.43690000  1.0 0.0300442635
C  C56  1  0.45360000  0.51160000  0.56310000  1.0 0.0300442635
C  C57  1  0.47050000  0.55060000  0.44280000  1.0 0.0590852429
C  C58  1  0.52950000  0.44940000  0.55720000  1.0 0.0590852429
C  C59  1  0.60330000  0.47100000  0.36870000  1.0 0.5599366592
C  C60  1  0.39670000  0.52900000  0.63130000  1.0 0.5599366592
C  C61  1  0.42700000  0.00960000  0.05010000  1.0 0.0300442635
C  C62  1  0.57300000  0.99040000  0.94990000  1.0 0.0300442635
C  C63  1  0.45680000  0.92780000  0.02490000  1.0 0.0765281456
C  C64  1  0.54320000  0.07220000  0.97510000  1.0 0.0765281456
C  C65  1  0.35470000  0.02050000  0.11000000  1.0 0.5483018177
C  C66  1  0.64530000  0.97950000  0.89000000  1.0 0.5483018177
C  C67  1  0.92410000  0.48840000  0.04850000  1.0 0.0300442635
C  C68  1  0.07590000  0.51160000  0.95150000  1.0 0.0300442635
C  C69  1  0.94700000  0.56640000  0.01770000  1.0 0.039473671
C  C70  1  0.05300000  0.43360000  0.98230000  1.0 0.039473671
C  C71  1  0.83940000  0.47460000  0.10280000  1.0 0.5412093567
C  C72  1  0.16060000  0.52540000  0.89720000  1.0 0.5412093567
N  N1  1  0.45150000  0.29640000  0.76010000  1.0 -0.2291018173
N  N2  1  0.54850000  0.70360000  0.23990000  1.0 -0.2291018173
N  N3  1  0.64890000  0.20460000  0.77070000  1.0 -0.2291018173
N  N4  1  0.35110000  0.79540000  0.22930000  1.0 -0.2291018173
N  N5  1  0.14480000  0.30450000  0.77130000  1.0 -0.2291018173
N  N6  1  0.85520000  0.69550000  0.22870000  1.0 -0.2291018173
N  N7  1  0.93340000  0.22010000  0.75470000  1.0 -0.2291018173
N  N8  1  0.06660000  0.77990000  0.24530000  1.0 -0.2291018173
N  N9  1  0.06550000  0.07690000  0.49290000  1.0 -0.2291018173
N  N10  1  0.93450000  0.92310000  0.50710000  1.0 -0.2291018173
N  N11  1  0.11680000  0.27820000  0.34110000  1.0 -0.2211516185
N  N12  1  0.88320000  0.72180000  0.65890000  1.0 -0.2211516185
N  N13  1  0.00280000  0.30940000  0.20000000  1.0 -0.2402683032
N  N14  1  0.99720000  0.69060000  0.80000000  1.0 -0.2402683032
N  N15  1  0.62160000  0.22650000  0.34670000  1.0 -0.2092505577
N  N16  1  0.37840000  0.77350000  0.65330000  1.0 -0.2092505577
N  N17  1  0.50080000  0.19680000  0.20600000  1.0 -0.2211516185
N  N18  1  0.49920000  0.80320000  0.79400000  1.0 -0.2211516185
N  N19  1  0.57840000  0.43460000  0.49550000  1.0 -0.2211516185
N  N20  1  0.42160000  0.56540000  0.50450000  1.0 -0.2211516185
N  N21  1  0.47070000  0.08100000  0.02410000  1.0 -0.2291018173
N  N22  1  0.52930000  0.91900000  0.97590000  1.0 -0.2291018173
N  N23  1  0.97540000  0.41780000  0.02900000  1.0 -0.2291018173
N  N24  1  0.02460000  0.58220000  0.97100000  1.0 -0.2291018173
N  N25  1  0.87840000  0.43200000  0.54190000  1.0 0.7053076344
N  N26  1  0.12160000  0.56800000  0.45810000  1.0 0.7019882517
N  N27  1  0.84610000  0.04660000  0.32320000  1.0 0.6714220064
N  N28  1  0.15390000  0.95340000  0.67680000  1.0 0.6714220064
N  N29  1  0.69790000  0.96710000  0.13570000  1.0 0.6872900642
N  N30  1  0.30210000  0.03290000  0.86430000  1.0 0.6849049645
N  N31  1  0.67350000  0.52990000  0.69880000  1.0 0.6714220064
N  N32  1  0.32650000  0.47010000  0.30120000  1.0 0.6714220064
N  N33  1  0.22690000  0.51980000  0.11280000  1.0 0.6872900642
N  N34  1  0.77310000  0.48020000  0.88720000  1.0 0.6872900642
O  O1  1  0.74490000  0.17370000  0.64870000  1.0 -0.466375923
O  O2  1  0.25510000  0.82630000  0.35130000  1.0 -0.466375923
O  O3  1  0.65310000  0.28040000  0.58640000  1.0 -0.5309176825
O  O4  1  0.34690000  0.71960000  0.41360000  1.0 -0.5309176825
O  O5  1  0.34760000  0.32980000  0.87650000  1.0 -0.5027400014
O  O6  1  0.65240000  0.67020000  0.12350000  1.0 -0.5027400014
O  O7  1  0.46970000  0.25200000  0.95280000  1.0 -0.5519393844
O  O8  1  0.53030000  0.74800000  0.04720000  1.0 -0.5519393844
O  O9  1  0.25410000  0.33950000  0.65740000  1.0 -0.5351741595
O  O10  1  0.74590000  0.66050000  0.34260000  1.0 -0.5309176825
O  O11  1  0.14190000  0.24200000  0.58490000  1.0 -0.5309176825
O  O12  1  0.85810000  0.75800000  0.41510000  1.0 -0.5309176825
O  O13  1  0.84280000  0.16750000  0.87470000  1.0 -0.5027400014
O  O14  1  0.15720000  0.83250000  0.12530000  1.0 -0.5027400014
O  O15  1  0.95860000  0.25400000  0.94770000  1.0 -0.4887589199
O  O16  1  0.04140000  0.74600000  0.05230000  1.0 -0.4887589199
O  O17  1  0.16880000  0.10000000  0.37490000  1.0 -0.4887589199
O  O18  1  0.83120000  0.90000000  0.62510000  1.0 -0.4887589199
O  O19  1  0.12510000  0.96550000  0.33470000  1.0 -0.4887589199
O  O20  1  0.87490000  0.03450000  0.66530000  1.0 -0.4822358949
O  O21  1  0.00860000  0.25070000  0.45690000  1.0 -0.5309176825
O  O22  1  0.99140000  0.74930000  0.54310000  1.0 -0.5309176825
O  O23  1  0.84960000  0.30580000  0.39390000  1.0 -0.5519393844
O  O24  1  0.15040000  0.69420000  0.60610000  1.0 -0.5519393844
O  O25  1  0.09890000  0.26340000  0.08070000  1.0 -0.5182703299
O  O26  1  0.90110000  0.73660000  0.91930000  1.0 -0.5182703299
O  O27  1  0.26820000  0.25860000  0.14790000  1.0 -0.5182703299
O  O28  1  0.73180000  0.74140000  0.85210000  1.0 -0.5182703299
O  O29  1  0.51430000  0.26760000  0.45960000  1.0 -0.5519393844
O  O30  1  0.48570000  0.73240000  0.54040000  1.0 -0.5550792498
O  O31  1  0.34820000  0.21870000  0.40010000  1.0 -0.5182703299
O  O32  1  0.65180000  0.78130000  0.59990000  1.0 -0.5309176825
O  O33  1  0.60080000  0.23340000  0.08460000  1.0 -0.5087570631
O  O34  1  0.39920000  0.76660000  0.91540000  1.0 -0.5087570631
O  O35  1  0.76950000  0.23020000  0.15120000  1.0 -0.5087570631
O  O36  1  0.23050000  0.76980000  0.84880000  1.0 -0.5087570631
O  O37  1  0.65200000  0.40320000  0.36490000  1.0 -0.4822358949
O  O38  1  0.34800000  0.59680000  0.63510000  1.0 -0.4822358949
O  O39  1  0.59650000  0.53060000  0.32220000  1.0 -0.5087570631
O  O40  1  0.40350000  0.46940000  0.67780000  1.0 -0.5087570631
O  O41  1  0.33080000  0.09710000  0.12300000  1.0 -0.4822358949
O  O42  1  0.66920000  0.90290000  0.87700000  1.0 -0.4822358949
O  O43  1  0.31710000  0.95470000  0.14310000  1.0 -0.5309176825
O  O44  1  0.68290000  0.04530000  0.85690000  1.0 -0.5309176825
O  O45  1  0.82240000  0.39830000  0.12060000  1.0 -0.4620052708
O  O46  1  0.17760000  0.60170000  0.87940000  1.0 -0.4620052708
O  O47  1  0.79520000  0.53920000  0.12690000  1.0 -0.5309176825
O  O48  1  0.20480000  0.46080000  0.87310000  1.0 -0.5309176825
O  O49  1  0.86600000  0.35130000  0.56060000  1.0 -0.466375923
O  O50  1  0.13400000  0.64870000  0.43940000  1.0 -0.466375923
O  O51  1  0.80730000  0.45540000  0.48770000  1.0 -0.4085425122
O  O52  1  0.19270000  0.54460000  0.51230000  1.0 -0.4085425122
O  O53  1  0.95320000  0.48060000  0.57380000  1.0 -0.3157211823
O  O54  1  0.04680000  0.51940000  0.42620000  1.0 -0.3157211823
O  O55  1  0.49760000  0.45840000  0.82600000  1.0 -0.0992459042
O  O56  1  0.50240000  0.54160000  0.17400000  1.0 -0.0992459042
O  O57  1  0.32870000  0.57890000  0.78770000  1.0 0.0765281456
O  O58  1  0.67130000  0.42110000  0.21230000  1.0 0.0765281456
O  O59  1  0.14450000  0.48550000  0.70820000  1.0 -0.1498857645
O  O60  1  0.85550000  0.51450000  0.29180000  1.0 -0.1498857645
O  O61  1  0.35190000  0.24020000  0.55300000  1.0 0.3306160288
O  O62  1  0.64810000  0.75980000  0.44700000  1.0 0.3306160288
O  O63  1  0.29840000  0.11440000  0.53360000  1.0 -0.4887589199
O  O64  1  0.70160000  0.88560000  0.46640000  1.0 -0.4887589199
O  O65  1  0.23320000  0.36560000  0.47100000  1.0 -0.2291018173
O  O66  1  0.76680000  0.63440000  0.52900000  1.0 -0.2291018173
O  O67  1  0.75650000  0.16680000  0.48860000  1.0 -0.1498857645
O  O68  1  0.24350000  0.83320000  0.51140000  1.0 -0.1498857645
O  O69  1  0.24630000  0.18280000  0.98520000  1.0 -0.2211516185
O  O70  1  0.75370000  0.81720000  0.01480000  1.0 -0.2092505577
O  O71  1  0.31390000  0.35510000  0.01650000  1.0 0.0011761424
O  O72  1  0.68610000  0.64490000  0.98350000  1.0 0.0011761424
O  O73  1  0.46150000  0.35700000  0.14550000  1.0 -0.0397042354
O  O74  1  0.53850000  0.64300000  0.85450000  1.0 -0.0497228908
O  O75  1  0.74080000  0.30240000  0.98810000  1.0 -0.1428261158
O  O76  1  0.25920000  0.69760000  0.01190000  1.0 -0.1428261158
O  O77  1  0.80980000  0.13500000  0.01990000  1.0 -0.0992459042
O  O78  1  0.19020000  0.86500000  0.98010000  1.0 -0.0992459042
O  O79  1  0.96120000  0.13930000  0.14910000  1.0 -0.0497228908
O  O80  1  0.03880000  0.86070000  0.85090000  1.0 -0.0497228908
O  O81  1  0.62880000  0.02330000  0.69580000  1.0 -0.3441728932
O  O82  1  0.37120000  0.97670000  0.30420000  1.0 -0.3441728932
O  O83  1  0.81310000  0.93300000  0.77870000  1.0 0.0011761424
O  O84  1  0.18690000  0.06700000  0.22130000  1.0 -0.0017465501
O  O85  1  0.98930000  0.05800000  0.80790000  1.0 -0.0992459042
O  O86  1  0.01070000  0.94200000  0.19210000  1.0 -0.0992459042
O  O87  1  0.90520000  0.11050000  0.30650000  1.0 -0.4000231458
O  O88  1  0.85410000  0.97550000  0.29010000  1.0 -0.3685927821
O  O89  1  0.78410000  0.05110000  0.37300000  1.0 -0.3590156617
O  O90  1  0.09480000  0.88950000  0.69350000  1.0 -0.4000231458
O  O91  1  0.14590000  0.02450000  0.70990000  1.0 -0.3685927821
O  O92  1  0.21590000  0.94890000  0.62700000  1.0 -0.3590156617
O  O93  1  0.66760000  0.03840000  0.16450000  1.0 -0.4439043832
O  O94  1  0.76470000  0.97200000  0.08420000  1.0 -0.3685927821
O  O95  1  0.66330000  0.89810000  0.15940000  1.0 -0.3789110614
O  O96  1  0.33240000  0.96160000  0.83550000  1.0 -0.4439043832
O  O97  1  0.23530000  0.02800000  0.91580000  1.0 -0.3685927821
O  O98  1  0.33670000  0.10190000  0.84060000  1.0 -0.3789110614
O  O99  1  0.61770000  0.59590000  0.70530000  1.0 -0.3941229565
O  O100  1  0.65840000  0.46000000  0.73010000  1.0 -0.3590156617
O  O101  1  0.74840000  0.53020000  0.65340000  1.0 -0.3789110614
O  O102  1  0.38230000  0.40410000  0.29470000  1.0 -0.3941229565
O  O103  1  0.34160000  0.54000000  0.26990000  1.0 -0.3590156617
O  O104  1  0.25160000  0.46980000  0.34660000  1.0 -0.3789110614
O  O105  1  0.16290000  0.57890000  0.12690000  1.0 -0.4085425122
O  O106  1  0.22210000  0.44770000  0.14720000  1.0 -0.4164626581
O  O107  1  0.30320000  0.53280000  0.06890000  1.0 -0.3590156617
O  O108  1  0.83710000  0.42110000  0.87310000  1.0 -0.4085425122
O  O109  1  0.77790000  0.55230000  0.85280000  1.0 -0.4164626581
O  O110  1  0.69680000  0.46720000  0.93110000  1.0 -0.3590156617
