# DDEC6 charges by PACMAN v1.1 (https://github.com/mtap-research/PACMAN-charge/)
data_XUDNUH_ASR_pacman
_symmetry_space_group_name_H-M   'P 1'
_cell_length_a   26.60000000
_cell_length_b   26.60000000
_cell_length_c   27.12000000
_cell_angle_alpha   90.00000000
_cell_angle_beta   90.00000000
_cell_angle_gamma   90.00000000
_symmetry_Int_Tables_number   1
_chemical_formula_structural   CuH10C17NO4
_chemical_formula_sum   'Cu16 H160 C272 N16 O64'
_cell_volume   19189.02720000
_cell_formula_units_Z   16
loop_
 _symmetry_equiv_pos_site_id
 _symmetry_equiv_pos_as_xyz
  1  'x, y, z'
loop_
 _atom_site_type_symbol
 _atom_site_label
 _atom_site_symmetry_multiplicity
 _atom_site_fract_x
 _atom_site_fract_y
 _atom_site_fract_z
 _atom_site_occupancy
 _atom_site_charge
Cu  Cu1  1  0.00000000  0.00000000  0.14756000  1.0 0.8608544552
Cu  Cu2  1  0.50000000  0.50000000  0.35244000  1.0 0.8608544552
Cu  Cu3  1  0.00000000  0.00000000  0.85244000  1.0 0.8608544552
Cu  Cu4  1  0.50000000  0.50000000  0.64756000  1.0 0.8608544552
Cu  Cu5  1  0.00000000  0.00000000  0.24479000  1.0 0.8608544552
Cu  Cu6  1  0.50000000  0.50000000  0.25521000  1.0 0.8608544552
Cu  Cu7  1  0.00000000  0.00000000  0.75521000  1.0 0.8608544552
Cu  Cu8  1  0.50000000  0.50000000  0.74479000  1.0 0.8608544552
Cu  Cu9  1  0.52209000  0.04421000  0.00000000  1.0 0.8658972664
Cu  Cu10  1  0.47791000  0.95579000  0.00000000  1.0 0.8658972664
Cu  Cu11  1  0.95579000  0.52209000  0.00000000  1.0 0.8658972664
Cu  Cu12  1  0.04421000  0.47791000  0.00000000  1.0 0.8658972664
Cu  Cu13  1  0.97791000  0.54421000  0.50000000  1.0 0.8608544552
Cu  Cu14  1  0.02209000  0.45579000  0.50000000  1.0 0.8608544552
Cu  Cu15  1  0.54421000  0.02209000  0.50000000  1.0 0.8608544552
Cu  Cu16  1  0.45579000  0.97791000  0.50000000  1.0 0.8608544552
H  H1  1  0.84600000  0.95480000  0.12190000  1.0 0.1298693597
H  H2  1  0.15400000  0.04520000  0.12190000  1.0 0.1298693597
H  H3  1  0.04520000  0.84600000  0.12190000  1.0 0.1298693597
H  H4  1  0.95480000  0.15400000  0.12190000  1.0 0.1298693597
H  H5  1  0.65400000  0.45480000  0.37810000  1.0 0.1298693597
H  H6  1  0.34600000  0.54520000  0.37810000  1.0 0.1298693597
H  H7  1  0.45480000  0.34600000  0.37810000  1.0 0.1298693597
H  H8  1  0.54520000  0.65400000  0.37810000  1.0 0.1298693597
H  H9  1  0.15400000  0.04520000  0.87810000  1.0 0.1298693597
H  H10  1  0.84600000  0.95480000  0.87810000  1.0 0.1298693597
H  H11  1  0.95480000  0.15400000  0.87810000  1.0 0.1298693597
H  H12  1  0.04520000  0.84600000  0.87810000  1.0 0.1298693597
H  H13  1  0.34600000  0.54520000  0.62190000  1.0 0.1298693597
H  H14  1  0.65400000  0.45480000  0.62190000  1.0 0.1298693597
H  H15  1  0.54520000  0.65400000  0.62190000  1.0 0.1298693597
H  H16  1  0.45480000  0.34600000  0.62190000  1.0 0.1298693597
H  H17  1  0.76470000  0.92360000  0.12280000  1.0 0.1298693597
H  H18  1  0.23530000  0.07640000  0.12280000  1.0 0.1298693597
H  H19  1  0.07640000  0.76470000  0.12280000  1.0 0.1298693597
H  H20  1  0.92360000  0.23530000  0.12280000  1.0 0.1298693597
H  H21  1  0.73530000  0.42360000  0.37720000  1.0 0.1298693597
H  H22  1  0.26470000  0.57640000  0.37720000  1.0 0.1298693597
H  H23  1  0.42360000  0.26470000  0.37720000  1.0 0.1298693597
H  H24  1  0.57640000  0.73530000  0.37720000  1.0 0.1298693597
H  H25  1  0.23530000  0.07640000  0.87720000  1.0 0.1298693597
H  H26  1  0.76470000  0.92360000  0.87720000  1.0 0.1298693597
H  H27  1  0.92360000  0.23530000  0.87720000  1.0 0.1298693597
H  H28  1  0.07640000  0.76470000  0.87720000  1.0 0.1298693597
H  H29  1  0.26470000  0.57640000  0.62280000  1.0 0.1298693597
H  H30  1  0.73530000  0.42360000  0.62280000  1.0 0.1298693597
H  H31  1  0.57640000  0.73530000  0.62280000  1.0 0.1298693597
H  H32  1  0.42360000  0.26470000  0.62280000  1.0 0.1298693597
H  H33  1  0.76910000  0.91310000  0.26900000  1.0 0.1298693597
H  H34  1  0.23090000  0.08690000  0.26900000  1.0 0.1298693597
H  H35  1  0.08690000  0.76910000  0.26900000  1.0 0.1298693597
H  H36  1  0.91310000  0.23090000  0.26900000  1.0 0.1298693597
H  H37  1  0.73090000  0.41310000  0.23100000  1.0 0.1298693597
H  H38  1  0.26910000  0.58690000  0.23100000  1.0 0.1298693597
H  H39  1  0.41310000  0.26910000  0.23100000  1.0 0.1298693597
H  H40  1  0.58690000  0.73090000  0.23100000  1.0 0.1298693597
H  H41  1  0.23090000  0.08690000  0.73100000  1.0 0.1298693597
H  H42  1  0.76910000  0.91310000  0.73100000  1.0 0.1298693597
H  H43  1  0.91310000  0.23090000  0.73100000  1.0 0.1298693597
H  H44  1  0.08690000  0.76910000  0.73100000  1.0 0.1298693597
H  H45  1  0.26910000  0.58690000  0.76900000  1.0 0.1298693597
H  H46  1  0.73090000  0.41310000  0.76900000  1.0 0.1298693597
H  H47  1  0.58690000  0.73090000  0.76900000  1.0 0.1298693597
H  H48  1  0.41310000  0.26910000  0.76900000  1.0 0.1298693597
H  H49  1  0.84910000  0.94610000  0.26960000  1.0 0.1298693597
H  H50  1  0.15090000  0.05390000  0.26960000  1.0 0.1298693597
H  H51  1  0.05390000  0.84910000  0.26960000  1.0 0.1298693597
H  H52  1  0.94610000  0.15090000  0.26960000  1.0 0.1298693597
H  H53  1  0.65090000  0.44610000  0.23040000  1.0 0.1298693597
H  H54  1  0.34910000  0.55390000  0.23040000  1.0 0.1298693597
H  H55  1  0.44610000  0.34910000  0.23040000  1.0 0.1298693597
H  H56  1  0.55390000  0.65090000  0.23040000  1.0 0.1298693597
H  H57  1  0.15090000  0.05390000  0.73040000  1.0 0.1298693597
H  H58  1  0.84910000  0.94610000  0.73040000  1.0 0.1298693597
H  H59  1  0.94610000  0.15090000  0.73040000  1.0 0.1298693597
H  H60  1  0.05390000  0.84910000  0.73040000  1.0 0.1298693597
H  H61  1  0.34910000  0.55390000  0.76960000  1.0 0.1298693597
H  H62  1  0.65090000  0.44610000  0.76960000  1.0 0.1298693597
H  H63  1  0.55390000  0.65090000  0.76960000  1.0 0.1298693597
H  H64  1  0.44610000  0.34910000  0.76960000  1.0 0.1298693597
H  H65  1  0.69260000  0.98560000  0.16720000  1.0 0.1298693597
H  H66  1  0.30740000  0.01440000  0.16720000  1.0 0.1298693597
H  H67  1  0.01440000  0.69260000  0.16720000  1.0 0.1298693597
H  H68  1  0.98560000  0.30740000  0.16720000  1.0 0.1298693597
H  H69  1  0.80740000  0.48560000  0.33280000  1.0 0.1298693597
H  H70  1  0.19260000  0.51440000  0.33280000  1.0 0.1298693597
H  H71  1  0.48560000  0.19260000  0.33280000  1.0 0.1298693597
H  H72  1  0.51440000  0.80740000  0.33280000  1.0 0.1298693597
H  H73  1  0.30740000  0.01440000  0.83280000  1.0 0.1298693597
H  H74  1  0.69260000  0.98560000  0.83280000  1.0 0.1298693597
H  H75  1  0.98560000  0.30740000  0.83280000  1.0 0.1298693597
H  H76  1  0.01440000  0.69260000  0.83280000  1.0 0.1298693597
H  H77  1  0.19260000  0.51440000  0.66720000  1.0 0.1298693597
H  H78  1  0.80740000  0.48560000  0.66720000  1.0 0.1298693597
H  H79  1  0.51440000  0.80740000  0.66720000  1.0 0.1298693597
H  H80  1  0.48560000  0.19260000  0.66720000  1.0 0.1298693597
H  H81  1  0.63270000  0.01670000  0.11720000  1.0 0.1298693597
H  H82  1  0.36730000  0.98330000  0.11720000  1.0 0.1298693597
H  H83  1  0.98330000  0.63270000  0.11720000  1.0 0.1298693597
H  H84  1  0.01670000  0.36730000  0.11720000  1.0 0.1298693597
H  H85  1  0.86730000  0.51670000  0.38280000  1.0 0.1298693597
H  H86  1  0.13270000  0.48330000  0.38280000  1.0 0.1298693597
H  H87  1  0.51670000  0.13270000  0.38280000  1.0 0.1298693597
H  H88  1  0.48330000  0.86730000  0.38280000  1.0 0.1298693597
H  H89  1  0.36730000  0.98330000  0.88280000  1.0 0.1298693597
H  H90  1  0.63270000  0.01670000  0.88280000  1.0 0.1298693597
H  H91  1  0.01670000  0.36730000  0.88280000  1.0 0.1298693597
H  H92  1  0.98330000  0.63270000  0.88280000  1.0 0.1298693597
H  H93  1  0.13270000  0.48330000  0.61720000  1.0 0.1298693597
H  H94  1  0.86730000  0.51670000  0.61720000  1.0 0.1298693597
H  H95  1  0.48330000  0.86730000  0.61720000  1.0 0.1298693597
H  H96  1  0.51670000  0.13270000  0.61720000  1.0 0.1298693597
H  H97  1  0.57710000  0.87790000  0.09970000  1.0 0.1298693597
H  H98  1  0.42290000  0.12210000  0.09970000  1.0 0.1298693597
H  H99  1  0.12210000  0.57710000  0.09970000  1.0 0.1298693597
H  H100  1  0.87790000  0.42290000  0.09970000  1.0 0.1298693597
H  H101  1  0.92290000  0.37790000  0.40030000  1.0 0.1298693597
H  H102  1  0.07710000  0.62210000  0.40030000  1.0 0.1298693597
H  H103  1  0.37790000  0.07710000  0.40030000  1.0 0.1298693597
H  H104  1  0.62210000  0.92290000  0.40030000  1.0 0.1298693597
H  H105  1  0.42290000  0.12210000  0.90030000  1.0 0.1298693597
H  H106  1  0.57710000  0.87790000  0.90030000  1.0 0.1298693597
H  H107  1  0.87790000  0.42290000  0.90030000  1.0 0.1298693597
H  H108  1  0.12210000  0.57710000  0.90030000  1.0 0.1298693597
H  H109  1  0.07710000  0.62210000  0.59970000  1.0 0.1298693597
H  H110  1  0.92290000  0.37790000  0.59970000  1.0 0.1298693597
H  H111  1  0.62210000  0.92290000  0.59970000  1.0 0.1298693597
H  H112  1  0.37790000  0.07710000  0.59970000  1.0 0.1298693597
H  H113  1  0.63850000  0.84620000  0.14920000  1.0 0.1298693597
H  H114  1  0.36150000  0.15380000  0.14920000  1.0 0.1298693597
H  H115  1  0.15380000  0.63850000  0.14920000  1.0 0.1298693597
H  H116  1  0.84620000  0.36150000  0.14920000  1.0 0.1298693597
H  H117  1  0.86150000  0.34620000  0.35080000  1.0 0.1298693597
H  H118  1  0.13850000  0.65380000  0.35080000  1.0 0.1298693597
H  H119  1  0.34620000  0.13850000  0.35080000  1.0 0.1298693597
H  H120  1  0.65380000  0.86150000  0.35080000  1.0 0.1298693597
H  H121  1  0.36150000  0.15380000  0.85080000  1.0 0.1298693597
H  H122  1  0.63850000  0.84620000  0.85080000  1.0 0.1298693597
H  H123  1  0.84620000  0.36150000  0.85080000  1.0 0.1298693597
H  H124  1  0.15380000  0.63850000  0.85080000  1.0 0.1298693597
H  H125  1  0.13850000  0.65380000  0.64920000  1.0 0.1298693597
H  H126  1  0.86150000  0.34620000  0.64920000  1.0 0.1298693597
H  H127  1  0.65380000  0.86150000  0.64920000  1.0 0.1298693597
H  H128  1  0.34620000  0.13850000  0.64920000  1.0 0.1298693597
H  H129  1  0.76870000  0.81660000  0.20700000  1.0 0.1298693597
H  H130  1  0.23130000  0.18340000  0.20700000  1.0 0.1298693597
H  H131  1  0.18340000  0.76870000  0.20700000  1.0 0.1298693597
H  H132  1  0.81660000  0.23130000  0.20700000  1.0 0.1298693597
H  H133  1  0.73130000  0.31660000  0.29300000  1.0 0.1298693597
H  H134  1  0.26870000  0.68340000  0.29300000  1.0 0.1298693597
H  H135  1  0.31660000  0.26870000  0.29300000  1.0 0.1298693597
H  H136  1  0.68340000  0.73130000  0.29300000  1.0 0.1298693597
H  H137  1  0.23130000  0.18340000  0.79300000  1.0 0.1298693597
H  H138  1  0.76870000  0.81660000  0.79300000  1.0 0.1298693597
H  H139  1  0.81660000  0.23130000  0.79300000  1.0 0.1298693597
H  H140  1  0.18340000  0.76870000  0.79300000  1.0 0.1298693597
H  H141  1  0.26870000  0.68340000  0.70700000  1.0 0.1298693597
H  H142  1  0.73130000  0.31660000  0.70700000  1.0 0.1298693597
H  H143  1  0.68340000  0.73130000  0.70700000  1.0 0.1298693597
H  H144  1  0.31660000  0.26870000  0.70700000  1.0 0.1298693597
H  H145  1  0.63400000  0.86600000  0.25000000  1.0 0.151472917
H  H146  1  0.36600000  0.13400000  0.25000000  1.0 0.151472917
H  H147  1  0.13400000  0.63400000  0.25000000  1.0 0.151472917
H  H148  1  0.86600000  0.36600000  0.25000000  1.0 0.151472917
H  H149  1  0.36600000  0.13400000  0.75000000  1.0 0.151472917
H  H150  1  0.63400000  0.86600000  0.75000000  1.0 0.151472917
H  H151  1  0.86600000  0.36600000  0.75000000  1.0 0.151472917
H  H152  1  0.13400000  0.63400000  0.75000000  1.0 0.151472917
H  H153  1  0.75600000  0.74400000  0.25000000  1.0 0.1115265472
H  H154  1  0.24400000  0.25600000  0.25000000  1.0 0.1115265472
H  H155  1  0.25600000  0.75600000  0.25000000  1.0 0.1115265472
H  H156  1  0.74400000  0.24400000  0.25000000  1.0 0.1115265472
H  H157  1  0.24400000  0.25600000  0.75000000  1.0 0.1115265472
H  H158  1  0.75600000  0.74400000  0.75000000  1.0 0.1115265472
H  H159  1  0.74400000  0.24400000  0.75000000  1.0 0.1115265472
H  H160  1  0.25600000  0.75600000  0.75000000  1.0 0.1115265472
C  C1  1  0.90942000  0.97146000  0.19614000  1.0 0.5757031908
C  C2  1  0.09058000  0.02854000  0.19614000  1.0 0.5757031908
C  C3  1  0.02854000  0.90942000  0.19614000  1.0 0.5757031908
C  C4  1  0.97146000  0.09058000  0.19614000  1.0 0.5757031908
C  C5  1  0.59058000  0.47146000  0.30386000  1.0 0.5757031908
C  C6  1  0.40942000  0.52854000  0.30386000  1.0 0.5757031908
C  C7  1  0.47146000  0.40942000  0.30386000  1.0 0.5757031908
C  C8  1  0.52854000  0.59058000  0.30386000  1.0 0.5757031908
C  C9  1  0.09058000  0.02854000  0.80386000  1.0 0.5757031908
C  C10  1  0.90942000  0.97146000  0.80386000  1.0 0.5757031908
C  C11  1  0.97146000  0.09058000  0.80386000  1.0 0.5757031908
C  C12  1  0.02854000  0.90942000  0.80386000  1.0 0.5757031908
C  C13  1  0.40942000  0.52854000  0.69614000  1.0 0.5757031908
C  C14  1  0.59058000  0.47146000  0.69614000  1.0 0.5757031908
C  C15  1  0.52854000  0.59058000  0.69614000  1.0 0.5757031908
C  C16  1  0.47146000  0.40942000  0.69614000  1.0 0.5757031908
C  C17  1  0.85629000  0.95332000  0.19650000  1.0 -0.0581243657
C  C18  1  0.14371000  0.04668000  0.19650000  1.0 -0.0581243657
C  C19  1  0.04668000  0.85629000  0.19650000  1.0 -0.0581243657
C  C20  1  0.95332000  0.14371000  0.19650000  1.0 -0.0581243657
C  C21  1  0.64371000  0.45332000  0.30350000  1.0 -0.0581243657
C  C22  1  0.35629000  0.54668000  0.30350000  1.0 -0.0581243657
C  C23  1  0.45332000  0.35629000  0.30350000  1.0 -0.0581243657
C  C24  1  0.54668000  0.64371000  0.30350000  1.0 -0.0581243657
C  C25  1  0.14371000  0.04668000  0.80350000  1.0 -0.0581243657
C  C26  1  0.85629000  0.95332000  0.80350000  1.0 -0.0581243657
C  C27  1  0.95332000  0.14371000  0.80350000  1.0 -0.0581243657
C  C28  1  0.04668000  0.85629000  0.80350000  1.0 -0.0581243657
C  C29  1  0.35629000  0.54668000  0.69650000  1.0 -0.0581243657
C  C30  1  0.64371000  0.45332000  0.69650000  1.0 -0.0581243657
C  C31  1  0.54668000  0.64371000  0.69650000  1.0 -0.0581243657
C  C32  1  0.45332000  0.35629000  0.69650000  1.0 -0.0581243657
C  C33  1  0.83059000  0.94670000  0.15161000  1.0 -0.0762757503
C  C34  1  0.16941000  0.05330000  0.15161000  1.0 -0.0762757503
C  C35  1  0.05330000  0.83059000  0.15161000  1.0 -0.0762757503
C  C36  1  0.94670000  0.16941000  0.15161000  1.0 -0.0762757503
C  C37  1  0.66941000  0.44670000  0.34839000  1.0 -0.0762757503
C  C38  1  0.33059000  0.55330000  0.34839000  1.0 -0.0762757503
C  C39  1  0.44670000  0.33059000  0.34839000  1.0 -0.0762757503
C  C40  1  0.55330000  0.66941000  0.34839000  1.0 -0.0762757503
C  C41  1  0.16941000  0.05330000  0.84839000  1.0 -0.0762757503
C  C42  1  0.83059000  0.94670000  0.84839000  1.0 -0.0762757503
C  C43  1  0.94670000  0.16941000  0.84839000  1.0 -0.0762757503
C  C44  1  0.05330000  0.83059000  0.84839000  1.0 -0.0762757503
C  C45  1  0.33059000  0.55330000  0.65161000  1.0 -0.0762757503
C  C46  1  0.66941000  0.44670000  0.65161000  1.0 -0.0762757503
C  C47  1  0.55330000  0.66941000  0.65161000  1.0 -0.0762757503
C  C48  1  0.44670000  0.33059000  0.65161000  1.0 -0.0762757503
C  C49  1  0.78197000  0.92789000  0.15229000  1.0 -0.1993244228
C  C50  1  0.21803000  0.07211000  0.15229000  1.0 -0.1993244228
C  C51  1  0.07211000  0.78197000  0.15229000  1.0 -0.1993244228
C  C52  1  0.92789000  0.21803000  0.15229000  1.0 -0.1993244228
C  C53  1  0.71803000  0.42789000  0.34771000  1.0 -0.1993244228
C  C54  1  0.28197000  0.57211000  0.34771000  1.0 -0.1993244228
C  C55  1  0.42789000  0.28197000  0.34771000  1.0 -0.1993244228
C  C56  1  0.57211000  0.71803000  0.34771000  1.0 -0.1993244228
C  C57  1  0.21803000  0.07211000  0.84771000  1.0 -0.1993244228
C  C58  1  0.78197000  0.92789000  0.84771000  1.0 -0.1993244228
C  C59  1  0.92789000  0.21803000  0.84771000  1.0 -0.1993244228
C  C60  1  0.07211000  0.78197000  0.84771000  1.0 -0.1993244228
C  C61  1  0.28197000  0.57211000  0.65229000  1.0 -0.1993244228
C  C62  1  0.71803000  0.42789000  0.65229000  1.0 -0.1993244228
C  C63  1  0.57211000  0.71803000  0.65229000  1.0 -0.1993244228
C  C64  1  0.42789000  0.28197000  0.65229000  1.0 -0.1993244228
C  C65  1  0.75890000  0.91553000  0.19607000  1.0 0.1606520584
C  C66  1  0.24110000  0.08447000  0.19607000  1.0 0.1606520584
C  C67  1  0.08447000  0.75890000  0.19607000  1.0 0.1606520584
C  C68  1  0.91553000  0.24110000  0.19607000  1.0 0.1606520584
C  C69  1  0.74110000  0.41553000  0.30393000  1.0 0.1606520584
C  C70  1  0.25890000  0.58447000  0.30393000  1.0 0.1606520584
C  C71  1  0.41553000  0.25890000  0.30393000  1.0 0.1606520584
C  C72  1  0.58447000  0.74110000  0.30393000  1.0 0.1606520584
C  C73  1  0.24110000  0.08447000  0.80393000  1.0 0.1606520584
C  C74  1  0.75890000  0.91553000  0.80393000  1.0 0.1606520584
C  C75  1  0.91553000  0.24110000  0.80393000  1.0 0.1606520584
C  C76  1  0.08447000  0.75890000  0.80393000  1.0 0.1606520584
C  C77  1  0.25890000  0.58447000  0.69607000  1.0 0.1606520584
C  C78  1  0.74110000  0.41553000  0.69607000  1.0 0.1606520584
C  C79  1  0.58447000  0.74110000  0.69607000  1.0 0.1606520584
C  C80  1  0.41553000  0.25890000  0.69607000  1.0 0.1606520584
C  C81  1  0.78441000  0.92188000  0.23943000  1.0 -0.1993244228
C  C82  1  0.21559000  0.07812000  0.23943000  1.0 -0.1993244228
C  C83  1  0.07812000  0.78441000  0.23943000  1.0 -0.1993244228
C  C84  1  0.92188000  0.21559000  0.23943000  1.0 -0.1993244228
C  C85  1  0.71559000  0.42188000  0.26057000  1.0 -0.1993244228
C  C86  1  0.28441000  0.57812000  0.26057000  1.0 -0.1993244228
C  C87  1  0.42188000  0.28441000  0.26057000  1.0 -0.1993244228
C  C88  1  0.57812000  0.71559000  0.26057000  1.0 -0.1993244228
C  C89  1  0.21559000  0.07812000  0.76057000  1.0 -0.1993244228
C  C90  1  0.78441000  0.92188000  0.76057000  1.0 -0.1993244228
C  C91  1  0.92188000  0.21559000  0.76057000  1.0 -0.1993244228
C  C92  1  0.07812000  0.78441000  0.76057000  1.0 -0.1993244228
C  C93  1  0.28441000  0.57812000  0.73943000  1.0 -0.1993244228
C  C94  1  0.71559000  0.42188000  0.73943000  1.0 -0.1993244228
C  C95  1  0.57812000  0.71559000  0.73943000  1.0 -0.1993244228
C  C96  1  0.42188000  0.28441000  0.73943000  1.0 -0.1993244228
C  C97  1  0.83263000  0.94124000  0.23978000  1.0 -0.0735392431
C  C98  1  0.16737000  0.05876000  0.23978000  1.0 -0.0735392431
C  C99  1  0.05876000  0.83263000  0.23978000  1.0 -0.0735392431
C  C100  1  0.94124000  0.16737000  0.23978000  1.0 -0.0735392431
C  C101  1  0.66737000  0.44124000  0.26022000  1.0 -0.0735392431
C  C102  1  0.33263000  0.55876000  0.26022000  1.0 -0.0735392431
C  C103  1  0.44124000  0.33263000  0.26022000  1.0 -0.0735392431
C  C104  1  0.55876000  0.66737000  0.26022000  1.0 -0.0735392431
C  C105  1  0.16737000  0.05876000  0.76022000  1.0 -0.0735392431
C  C106  1  0.83263000  0.94124000  0.76022000  1.0 -0.0735392431
C  C107  1  0.94124000  0.16737000  0.76022000  1.0 -0.0735392431
C  C108  1  0.05876000  0.83263000  0.76022000  1.0 -0.0735392431
C  C109  1  0.33263000  0.55876000  0.73978000  1.0 -0.0735392431
C  C110  1  0.66737000  0.44124000  0.73978000  1.0 -0.0735392431
C  C111  1  0.55876000  0.66737000  0.73978000  1.0 -0.0735392431
C  C112  1  0.44124000  0.33263000  0.73978000  1.0 -0.0735392431
C  C113  1  0.67233000  0.91318000  0.16489000  1.0 0.1823674125
C  C114  1  0.32767000  0.08682000  0.16489000  1.0 0.1823674125
C  C115  1  0.08682000  0.67233000  0.16489000  1.0 0.1823674125
C  C116  1  0.91318000  0.32767000  0.16489000  1.0 0.1823674125
C  C117  1  0.82767000  0.41318000  0.33511000  1.0 0.1823674125
C  C118  1  0.17233000  0.58682000  0.33511000  1.0 0.1823674125
C  C119  1  0.41318000  0.17233000  0.33511000  1.0 0.1823674125
C  C120  1  0.58682000  0.82767000  0.33511000  1.0 0.1823674125
C  C121  1  0.32767000  0.08682000  0.83511000  1.0 0.1823674125
C  C122  1  0.67233000  0.91318000  0.83511000  1.0 0.1823674125
C  C123  1  0.91318000  0.32767000  0.83511000  1.0 0.1823674125
C  C124  1  0.08682000  0.67233000  0.83511000  1.0 0.1823674125
C  C125  1  0.17233000  0.58682000  0.66489000  1.0 0.1823674125
C  C126  1  0.82767000  0.41318000  0.66489000  1.0 0.1823674125
C  C127  1  0.58682000  0.82767000  0.66489000  1.0 0.1823674125
C  C128  1  0.41318000  0.17233000  0.66489000  1.0 0.1823674125
C  C129  1  0.66925000  0.96364000  0.15339000  1.0 -0.1776857377
C  C130  1  0.33075000  0.03636000  0.15339000  1.0 -0.1776857377
C  C131  1  0.03636000  0.66925000  0.15339000  1.0 -0.1776857377
C  C132  1  0.96364000  0.33075000  0.15339000  1.0 -0.1776857377
C  C133  1  0.83075000  0.46364000  0.34661000  1.0 -0.1776857377
C  C134  1  0.16925000  0.53636000  0.34661000  1.0 -0.1776857377
C  C135  1  0.46364000  0.16925000  0.34661000  1.0 -0.1776857377
C  C136  1  0.53636000  0.83075000  0.34661000  1.0 -0.1776857377
C  C137  1  0.33075000  0.03636000  0.84661000  1.0 -0.1776857377
C  C138  1  0.66925000  0.96364000  0.84661000  1.0 -0.1776857377
C  C139  1  0.96364000  0.33075000  0.84661000  1.0 -0.1776857377
C  C140  1  0.03636000  0.66925000  0.84661000  1.0 -0.1776857377
C  C141  1  0.16925000  0.53636000  0.65339000  1.0 -0.1776857377
C  C142  1  0.83075000  0.46364000  0.65339000  1.0 -0.1776857377
C  C143  1  0.53636000  0.83075000  0.65339000  1.0 -0.1776857377
C  C144  1  0.46364000  0.16925000  0.65339000  1.0 -0.1776857377
C  C145  1  0.63409000  0.98227000  0.12323000  1.0 -0.0762757503
C  C146  1  0.36591000  0.01773000  0.12323000  1.0 -0.0762757503
C  C147  1  0.01773000  0.63409000  0.12323000  1.0 -0.0762757503
C  C148  1  0.98227000  0.36591000  0.12323000  1.0 -0.0762757503
C  C149  1  0.86591000  0.48227000  0.37677000  1.0 -0.0762757503
C  C150  1  0.13409000  0.51773000  0.37677000  1.0 -0.0762757503
C  C151  1  0.48227000  0.13409000  0.37677000  1.0 -0.0762757503
C  C152  1  0.51773000  0.86591000  0.37677000  1.0 -0.0762757503
C  C153  1  0.36591000  0.01773000  0.87677000  1.0 -0.0762757503
C  C154  1  0.63409000  0.98227000  0.87677000  1.0 -0.0762757503
C  C155  1  0.98227000  0.36591000  0.87677000  1.0 -0.0762757503
C  C156  1  0.01773000  0.63409000  0.87677000  1.0 -0.0762757503
C  C157  1  0.13409000  0.51773000  0.62323000  1.0 -0.0735392431
C  C158  1  0.86591000  0.48227000  0.62323000  1.0 -0.0735392431
C  C159  1  0.51773000  0.86591000  0.62323000  1.0 -0.0735392431
C  C160  1  0.48227000  0.13409000  0.62323000  1.0 -0.0735392431
C  C161  1  0.59891000  0.94966000  0.10040000  1.0 -0.051370133
C  C162  1  0.40109000  0.05034000  0.10040000  1.0 -0.051370133
C  C163  1  0.05034000  0.59891000  0.10040000  1.0 -0.051370133
C  C164  1  0.94966000  0.40109000  0.10040000  1.0 -0.051370133
C  C165  1  0.90109000  0.44966000  0.39960000  1.0 -0.051370133
C  C166  1  0.09891000  0.55034000  0.39960000  1.0 -0.051370133
C  C167  1  0.44966000  0.09891000  0.39960000  1.0 -0.051370133
C  C168  1  0.55034000  0.90109000  0.39960000  1.0 -0.051370133
C  C169  1  0.40109000  0.05034000  0.89960000  1.0 -0.051370133
C  C170  1  0.59891000  0.94966000  0.89960000  1.0 -0.051370133
C  C171  1  0.94966000  0.40109000  0.89960000  1.0 -0.051370133
C  C172  1  0.05034000  0.59891000  0.89960000  1.0 -0.051370133
C  C173  1  0.09891000  0.55034000  0.60040000  1.0 -0.051370133
C  C174  1  0.90109000  0.44966000  0.60040000  1.0 -0.051370133
C  C175  1  0.55034000  0.90109000  0.60040000  1.0 -0.051370133
C  C176  1  0.44966000  0.09891000  0.60040000  1.0 -0.051370133
C  C177  1  0.60114000  0.89965000  0.11266000  1.0 -0.0762757503
C  C178  1  0.39886000  0.10035000  0.11266000  1.0 -0.0762757503
C  C179  1  0.10035000  0.60114000  0.11266000  1.0 -0.0762757503
C  C180  1  0.89965000  0.39886000  0.11266000  1.0 -0.0762757503
C  C181  1  0.89886000  0.39965000  0.38734000  1.0 -0.0762757503
C  C182  1  0.10114000  0.60035000  0.38734000  1.0 -0.0762757503
C  C183  1  0.39965000  0.10114000  0.38734000  1.0 -0.0762757503
C  C184  1  0.60035000  0.89886000  0.38734000  1.0 -0.0762757503
C  C185  1  0.39886000  0.10035000  0.88734000  1.0 -0.0762757503
C  C186  1  0.60114000  0.89965000  0.88734000  1.0 -0.0762757503
C  C187  1  0.89965000  0.39886000  0.88734000  1.0 -0.0762757503
C  C188  1  0.10035000  0.60114000  0.88734000  1.0 -0.0762757503
C  C189  1  0.10114000  0.60035000  0.61266000  1.0 -0.0762757503
C  C190  1  0.89886000  0.39965000  0.61266000  1.0 -0.0762757503
C  C191  1  0.60035000  0.89886000  0.61266000  1.0 -0.0762757503
C  C192  1  0.39965000  0.10114000  0.61266000  1.0 -0.0762757503
C  C193  1  0.63714000  0.88060000  0.14298000  1.0 -0.1993244228
C  C194  1  0.36286000  0.11940000  0.14298000  1.0 -0.1993244228
C  C195  1  0.11940000  0.63714000  0.14298000  1.0 -0.1993244228
C  C196  1  0.88060000  0.36286000  0.14298000  1.0 -0.1993244228
C  C197  1  0.86286000  0.38060000  0.35702000  1.0 -0.1993244228
C  C198  1  0.13714000  0.61940000  0.35702000  1.0 -0.1993244228
C  C199  1  0.38060000  0.13714000  0.35702000  1.0 -0.1993244228
C  C200  1  0.61940000  0.86286000  0.35702000  1.0 -0.1993244228
C  C201  1  0.36286000  0.11940000  0.85702000  1.0 -0.1993244228
C  C202  1  0.63714000  0.88060000  0.85702000  1.0 -0.1993244228
C  C203  1  0.88060000  0.36286000  0.85702000  1.0 -0.1993244228
C  C204  1  0.11940000  0.63714000  0.85702000  1.0 -0.1993244228
C  C205  1  0.13714000  0.61940000  0.64298000  1.0 -0.1993244228
C  C206  1  0.86286000  0.38060000  0.64298000  1.0 -0.1993244228
C  C207  1  0.61940000  0.86286000  0.64298000  1.0 -0.1993244228
C  C208  1  0.38060000  0.13714000  0.64298000  1.0 -0.1993244228
C  C209  1  0.56143000  0.96984000  0.06424000  1.0 0.5757031908
C  C210  1  0.43857000  0.03016000  0.06424000  1.0 0.5757031908
C  C211  1  0.03016000  0.56143000  0.06424000  1.0 0.5757031908
C  C212  1  0.96984000  0.43857000  0.06424000  1.0 0.5757031908
C  C213  1  0.93857000  0.46984000  0.43576000  1.0 0.5757031908
C  C214  1  0.06143000  0.53016000  0.43576000  1.0 0.5757031908
C  C215  1  0.46984000  0.06143000  0.43576000  1.0 0.5757031908
C  C216  1  0.53016000  0.93857000  0.43576000  1.0 0.5757031908
C  C217  1  0.43857000  0.03016000  0.93576000  1.0 0.5757031908
C  C218  1  0.56143000  0.96984000  0.93576000  1.0 0.5757031908
C  C219  1  0.96984000  0.43857000  0.93576000  1.0 0.5757031908
C  C220  1  0.03016000  0.56143000  0.93576000  1.0 0.5757031908
C  C221  1  0.06143000  0.53016000  0.56424000  1.0 0.5757031908
C  C222  1  0.93857000  0.46984000  0.56424000  1.0 0.5757031908
C  C223  1  0.53016000  0.93857000  0.56424000  1.0 0.5757031908
C  C224  1  0.46984000  0.06143000  0.56424000  1.0 0.5757031908
C  C225  1  0.70221000  0.84904000  0.22408000  1.0 0.1679169286
C  C226  1  0.29779000  0.15096000  0.22408000  1.0 0.1679169286
C  C227  1  0.15096000  0.70221000  0.22408000  1.0 0.1679169286
C  C228  1  0.84904000  0.29779000  0.22408000  1.0 0.1679169286
C  C229  1  0.79779000  0.34904000  0.27592000  1.0 0.1679169286
C  C230  1  0.20221000  0.65096000  0.27592000  1.0 0.1679169286
C  C231  1  0.34904000  0.20221000  0.27592000  1.0 0.1679169286
C  C232  1  0.65096000  0.79779000  0.27592000  1.0 0.1679169286
C  C233  1  0.29779000  0.15096000  0.77592000  1.0 0.1679169286
C  C234  1  0.70221000  0.84904000  0.77592000  1.0 0.1679169286
C  C235  1  0.84904000  0.29779000  0.77592000  1.0 0.1679169286
C  C236  1  0.15096000  0.70221000  0.77592000  1.0 0.1679169286
C  C237  1  0.20221000  0.65096000  0.72408000  1.0 0.1679169286
C  C238  1  0.79779000  0.34904000  0.72408000  1.0 0.1679169286
C  C239  1  0.65096000  0.79779000  0.72408000  1.0 0.1679169286
C  C240  1  0.34904000  0.20221000  0.72408000  1.0 0.1679169286
C  C241  1  0.73888000  0.81188000  0.22440000  1.0 -0.1993244228
C  C242  1  0.26112000  0.18812000  0.22440000  1.0 -0.1993244228
C  C243  1  0.18812000  0.73888000  0.22440000  1.0 -0.1993244228
C  C244  1  0.81188000  0.26112000  0.22440000  1.0 -0.1993244228
C  C245  1  0.76112000  0.31188000  0.27560000  1.0 -0.1993244228
C  C246  1  0.23888000  0.68812000  0.27560000  1.0 -0.1993244228
C  C247  1  0.31188000  0.23888000  0.27560000  1.0 -0.1993244228
C  C248  1  0.68812000  0.76112000  0.27560000  1.0 -0.1993244228
C  C249  1  0.26112000  0.18812000  0.77560000  1.0 -0.1993244228
C  C250  1  0.73888000  0.81188000  0.77560000  1.0 -0.1993244228
C  C251  1  0.81188000  0.26112000  0.77560000  1.0 -0.1993244228
C  C252  1  0.18812000  0.73888000  0.77560000  1.0 -0.1993244228
C  C253  1  0.23888000  0.68812000  0.72440000  1.0 -0.1993244228
C  C254  1  0.76112000  0.31188000  0.72440000  1.0 -0.1993244228
C  C255  1  0.68812000  0.76112000  0.72440000  1.0 -0.1993244228
C  C256  1  0.31188000  0.23888000  0.72440000  1.0 -0.1993244228
C  C257  1  0.65870000  0.84130000  0.25000000  1.0 -0.2665344978
C  C258  1  0.34130000  0.15870000  0.25000000  1.0 -0.2665344978
C  C259  1  0.15870000  0.65870000  0.25000000  1.0 -0.2665344978
C  C260  1  0.84130000  0.34130000  0.25000000  1.0 -0.2665344978
C  C261  1  0.34130000  0.15870000  0.75000000  1.0 -0.2665344978
C  C262  1  0.65870000  0.84130000  0.75000000  1.0 -0.2665344978
C  C263  1  0.84130000  0.34130000  0.75000000  1.0 -0.2665344978
C  C264  1  0.15870000  0.65870000  0.75000000  1.0 -0.2665344978
C  C265  1  0.73125000  0.76875000  0.25000000  1.0 -0.0581243657
C  C266  1  0.26875000  0.23125000  0.25000000  1.0 -0.0581243657
C  C267  1  0.23125000  0.73125000  0.25000000  1.0 -0.0581243657
C  C268  1  0.76875000  0.26875000  0.25000000  1.0 -0.0581243657
C  C269  1  0.26875000  0.23125000  0.75000000  1.0 -0.0581243657
C  C270  1  0.73125000  0.76875000  0.75000000  1.0 -0.0581243657
C  C271  1  0.76875000  0.26875000  0.75000000  1.0 -0.0581243657
C  C272  1  0.23125000  0.73125000  0.75000000  1.0 -0.0581243657
N  N1  1  0.70966000  0.89412000  0.19624000  1.0 -0.1742359417
N  N2  1  0.29034000  0.10588000  0.19624000  1.0 -0.1776857377
N  N3  1  0.10588000  0.70966000  0.19624000  1.0 -0.1742359417
N  N4  1  0.89412000  0.29034000  0.19624000  1.0 -0.1776857377
N  N5  1  0.79034000  0.39412000  0.30376000  1.0 -0.1776857377
N  N6  1  0.20966000  0.60588000  0.30376000  1.0 -0.1776857377
N  N7  1  0.39412000  0.20966000  0.30376000  1.0 -0.1776857377
N  N8  1  0.60588000  0.79034000  0.30376000  1.0 -0.1776857377
N  N9  1  0.29034000  0.10588000  0.80376000  1.0 -0.1776857377
N  N10  1  0.70966000  0.89412000  0.80376000  1.0 -0.1742359417
N  N11  1  0.89412000  0.29034000  0.80376000  1.0 -0.1776857377
N  N12  1  0.10588000  0.70966000  0.80376000  1.0 -0.1742359417
N  N13  1  0.20966000  0.60588000  0.69624000  1.0 -0.1776857377
N  N14  1  0.79034000  0.39412000  0.69624000  1.0 -0.1776857377
N  N15  1  0.60588000  0.79034000  0.69624000  1.0 -0.1776857377
N  N16  1  0.39412000  0.20966000  0.69624000  1.0 -0.1776857377
O  O1  1  0.93060000  0.97559000  0.23740000  1.0 -0.5198367888
O  O2  1  0.06940000  0.02441000  0.23740000  1.0 -0.5198367888
O  O3  1  0.02441000  0.93060000  0.23740000  1.0 -0.5198367888
O  O4  1  0.97559000  0.06940000  0.23740000  1.0 -0.5198367888
O  O5  1  0.56940000  0.47559000  0.26260000  1.0 -0.5198367888
O  O6  1  0.43060000  0.52441000  0.26260000  1.0 -0.5198367888
O  O7  1  0.47559000  0.43060000  0.26260000  1.0 -0.5198367888
O  O8  1  0.52441000  0.56940000  0.26260000  1.0 -0.5198367888
O  O9  1  0.06940000  0.02441000  0.76260000  1.0 -0.5198367888
O  O10  1  0.93060000  0.97559000  0.76260000  1.0 -0.5198367888
O  O11  1  0.97559000  0.06940000  0.76260000  1.0 -0.5198367888
O  O12  1  0.02441000  0.93060000  0.76260000  1.0 -0.5198367888
O  O13  1  0.43060000  0.52441000  0.73740000  1.0 -0.5198367888
O  O14  1  0.56940000  0.47559000  0.73740000  1.0 -0.5198367888
O  O15  1  0.52441000  0.56940000  0.73740000  1.0 -0.5198367888
O  O16  1  0.47559000  0.43060000  0.73740000  1.0 -0.5198367888
O  O17  1  0.92903000  0.98080000  0.15457000  1.0 -0.529897658
O  O18  1  0.07097000  0.01920000  0.15457000  1.0 -0.529897658
O  O19  1  0.01920000  0.92903000  0.15457000  1.0 -0.529897658
O  O20  1  0.98080000  0.07097000  0.15457000  1.0 -0.529897658
O  O21  1  0.57097000  0.48080000  0.34543000  1.0 -0.529897658
O  O22  1  0.42903000  0.51920000  0.34543000  1.0 -0.529897658
O  O23  1  0.48080000  0.42903000  0.34543000  1.0 -0.529897658
O  O24  1  0.51920000  0.57097000  0.34543000  1.0 -0.529897658
O  O25  1  0.07097000  0.01920000  0.84543000  1.0 -0.529897658
O  O26  1  0.92903000  0.98080000  0.84543000  1.0 -0.529897658
O  O27  1  0.98080000  0.07097000  0.84543000  1.0 -0.529897658
O  O28  1  0.01920000  0.92903000  0.84543000  1.0 -0.529897658
O  O29  1  0.42903000  0.51920000  0.65457000  1.0 -0.529897658
O  O30  1  0.57097000  0.48080000  0.65457000  1.0 -0.529897658
O  O31  1  0.51920000  0.57097000  0.65457000  1.0 -0.529897658
O  O32  1  0.48080000  0.42903000  0.65457000  1.0 -0.529897658
O  O33  1  0.56533000  0.01475000  0.05078000  1.0 -0.5198367888
O  O34  1  0.43467000  0.98525000  0.05078000  1.0 -0.5198367888
O  O35  1  0.98525000  0.56533000  0.05078000  1.0 -0.5198367888
O  O36  1  0.01475000  0.43467000  0.05078000  1.0 -0.5198367888
O  O37  1  0.93467000  0.51475000  0.44922000  1.0 -0.5198367888
O  O38  1  0.06533000  0.48525000  0.44922000  1.0 -0.5198367888
O  O39  1  0.51475000  0.06533000  0.44922000  1.0 -0.5198367888
O  O40  1  0.48525000  0.93467000  0.44922000  1.0 -0.5198367888
O  O41  1  0.43467000  0.98525000  0.94922000  1.0 -0.5198367888
O  O42  1  0.56533000  0.01475000  0.94922000  1.0 -0.5198367888
O  O43  1  0.01475000  0.43467000  0.94922000  1.0 -0.5198367888
O  O44  1  0.98525000  0.56533000  0.94922000  1.0 -0.5198367888
O  O45  1  0.06533000  0.48525000  0.55078000  1.0 -0.5198367888
O  O46  1  0.93467000  0.51475000  0.55078000  1.0 -0.5198367888
O  O47  1  0.48525000  0.93467000  0.55078000  1.0 -0.5198367888
O  O48  1  0.51475000  0.06533000  0.55078000  1.0 -0.5198367888
O  O49  1  0.52790000  0.93841000  0.05037000  1.0 -0.529897658
O  O50  1  0.47210000  0.06159000  0.05037000  1.0 -0.529897658
O  O51  1  0.06159000  0.52790000  0.05037000  1.0 -0.529897658
O  O52  1  0.93841000  0.47210000  0.05037000  1.0 -0.529897658
O  O53  1  0.97210000  0.43841000  0.44963000  1.0 -0.529897658
O  O54  1  0.02790000  0.56159000  0.44963000  1.0 -0.529897658
O  O55  1  0.43841000  0.02790000  0.44963000  1.0 -0.529897658
O  O56  1  0.56159000  0.97210000  0.44963000  1.0 -0.529897658
O  O57  1  0.47210000  0.06159000  0.94963000  1.0 -0.529897658
O  O58  1  0.52790000  0.93841000  0.94963000  1.0 -0.529897658
O  O59  1  0.93841000  0.47210000  0.94963000  1.0 -0.529897658
O  O60  1  0.06159000  0.52790000  0.94963000  1.0 -0.529897658
O  O61  1  0.02790000  0.56159000  0.55037000  1.0 -0.529897658
O  O62  1  0.97210000  0.43841000  0.55037000  1.0 -0.529897658
O  O63  1  0.56159000  0.97210000  0.55037000  1.0 -0.529897658
O  O64  1  0.43841000  0.02790000  0.55037000  1.0 -0.529897658
