# DDEC6 charges by PACMAN v1.1 (https://github.com/mtap-research/PACMAN-charge/)
data_XUDPOD_ASR_pacman
_symmetry_space_group_name_H-M   'P 1'
_cell_length_a   26.45000000
_cell_length_b   26.45000000
_cell_length_c   27.88000000
_cell_angle_alpha   90.00000000
_cell_angle_beta   90.00000000
_cell_angle_gamma   90.00000000
_symmetry_Int_Tables_number   1
_chemical_formula_structural   Cu4H48C78N9O16
_chemical_formula_sum   'Cu16 H192 C312 N36 O64'
_cell_volume   19504.91770000
_cell_formula_units_Z   4
loop_
 _symmetry_equiv_pos_site_id
 _symmetry_equiv_pos_as_xyz
  1  'x, y, z'
loop_
 _atom_site_type_symbol
 _atom_site_label
 _atom_site_symmetry_multiplicity
 _atom_site_fract_x
 _atom_site_fract_y
 _atom_site_fract_z
 _atom_site_occupancy
 _atom_site_charge
Cu  Cu1  1  0.47759000  0.95571000  0.50000000  1.0 0.8533262312
Cu  Cu2  1  0.04429000  0.47759000  0.50000000  1.0 0.8533262312
Cu  Cu3  1  0.52241000  0.04429000  0.50000000  1.0 0.8533262312
Cu  Cu4  1  0.95571000  0.52241000  0.50000000  1.0 0.8533262312
Cu  Cu5  1  0.97759000  0.54429000  0.00000000  1.0 0.8533262312
Cu  Cu6  1  0.45571000  0.97759000  0.00000000  1.0 0.8533262312
Cu  Cu7  1  0.02241000  0.45571000  0.00000000  1.0 0.8533262312
Cu  Cu8  1  0.54429000  0.02241000  0.00000000  1.0 0.8533262312
Cu  Cu9  1  0.00000000  0.00000000  0.35610000  1.0 0.8562013209
Cu  Cu10  1  0.50000000  0.50000000  0.14390000  1.0 0.8533262312
Cu  Cu11  1  0.00000000  0.00000000  0.64390000  1.0 0.8562013209
Cu  Cu12  1  0.50000000  0.50000000  0.85610000  1.0 0.8562013209
Cu  Cu13  1  0.00000000  0.00000000  0.26145000  1.0 0.7201025287
Cu  Cu14  1  0.50000000  0.50000000  0.23855000  1.0 0.7201025287
Cu  Cu15  1  0.00000000  0.00000000  0.73855000  1.0 0.7201025287
Cu  Cu16  1  0.50000000  0.50000000  0.76145000  1.0 0.7201025287
H  H1  1  0.36860000  0.98350000  0.38620000  1.0 0.1292259533
H  H2  1  0.01650000  0.36860000  0.38620000  1.0 0.1292259533
H  H3  1  0.63140000  0.01650000  0.38620000  1.0 0.1292259533
H  H4  1  0.98350000  0.63140000  0.38620000  1.0 0.1292259533
H  H5  1  0.86860000  0.51650000  0.11380000  1.0 0.1292259533
H  H6  1  0.48350000  0.86860000  0.11380000  1.0 0.1292259533
H  H7  1  0.13140000  0.48350000  0.11380000  1.0 0.1292259533
H  H8  1  0.51650000  0.13140000  0.11380000  1.0 0.1292259533
H  H9  1  0.63140000  0.01650000  0.61380000  1.0 0.1292259533
H  H10  1  0.98350000  0.63140000  0.61380000  1.0 0.1292259533
H  H11  1  0.36860000  0.98350000  0.61380000  1.0 0.1292259533
H  H12  1  0.01650000  0.36860000  0.61380000  1.0 0.1292259533
H  H13  1  0.13140000  0.48350000  0.88620000  1.0 0.1292259533
H  H14  1  0.51650000  0.13140000  0.88620000  1.0 0.1292259533
H  H15  1  0.86860000  0.51650000  0.88620000  1.0 0.1292259533
H  H16  1  0.48350000  0.86860000  0.88620000  1.0 0.1292259533
H  H17  1  0.31010000  0.01230000  0.33390000  1.0 0.1292259533
H  H18  1  0.98770000  0.31010000  0.33390000  1.0 0.1292259533
H  H19  1  0.68990000  0.98770000  0.33390000  1.0 0.1292259533
H  H20  1  0.01230000  0.68990000  0.33390000  1.0 0.1292259533
H  H21  1  0.81010000  0.48770000  0.16610000  1.0 0.1292259533
H  H22  1  0.51230000  0.81010000  0.16610000  1.0 0.1292259533
H  H23  1  0.18990000  0.51230000  0.16610000  1.0 0.1292259533
H  H24  1  0.48770000  0.18990000  0.16610000  1.0 0.1292259533
H  H25  1  0.68990000  0.98770000  0.66610000  1.0 0.1292259533
H  H26  1  0.01230000  0.68990000  0.66610000  1.0 0.1292259533
H  H27  1  0.31010000  0.01230000  0.66610000  1.0 0.1292259533
H  H28  1  0.98770000  0.31010000  0.66610000  1.0 0.1292259533
H  H29  1  0.18990000  0.51230000  0.83390000  1.0 0.1292259533
H  H30  1  0.48770000  0.18990000  0.83390000  1.0 0.1292259533
H  H31  1  0.81010000  0.48770000  0.83390000  1.0 0.1292259533
H  H32  1  0.51230000  0.81010000  0.83390000  1.0 0.1292259533
H  H33  1  0.36560000  0.15370000  0.34740000  1.0 0.1292259533
H  H34  1  0.84630000  0.36560000  0.34740000  1.0 0.1292259533
H  H35  1  0.63440000  0.84630000  0.34740000  1.0 0.1292259533
H  H36  1  0.15370000  0.63440000  0.34740000  1.0 0.1292259533
H  H37  1  0.86560000  0.34630000  0.15260000  1.0 0.1292259533
H  H38  1  0.65370000  0.86560000  0.15260000  1.0 0.1292259533
H  H39  1  0.13440000  0.65370000  0.15260000  1.0 0.1292259533
H  H40  1  0.34630000  0.13440000  0.15260000  1.0 0.1292259533
H  H41  1  0.63440000  0.84630000  0.65260000  1.0 0.1292259533
H  H42  1  0.15370000  0.63440000  0.65260000  1.0 0.1292259533
H  H43  1  0.36560000  0.15370000  0.65260000  1.0 0.1292259533
H  H44  1  0.84630000  0.36560000  0.65260000  1.0 0.1292259533
H  H45  1  0.13440000  0.65370000  0.84740000  1.0 0.1292259533
H  H46  1  0.34630000  0.13440000  0.84740000  1.0 0.1292259533
H  H47  1  0.86560000  0.34630000  0.84740000  1.0 0.1292259533
H  H48  1  0.65370000  0.86560000  0.84740000  1.0 0.1292259533
H  H49  1  0.42460000  0.12210000  0.40150000  1.0 0.1233565996
H  H50  1  0.87790000  0.42460000  0.40150000  1.0 0.1233565996
H  H51  1  0.57540000  0.87790000  0.40150000  1.0 0.1233565996
H  H52  1  0.12210000  0.57540000  0.40150000  1.0 0.1233565996
H  H53  1  0.92460000  0.37790000  0.09850000  1.0 0.1292259533
H  H54  1  0.62210000  0.92460000  0.09850000  1.0 0.1292259533
H  H55  1  0.07540000  0.62210000  0.09850000  1.0 0.1292259533
H  H56  1  0.37790000  0.07540000  0.09850000  1.0 0.1292259533
H  H57  1  0.57540000  0.87790000  0.59850000  1.0 0.1292259533
H  H58  1  0.12210000  0.57540000  0.59850000  1.0 0.1292259533
H  H59  1  0.42460000  0.12210000  0.59850000  1.0 0.1292259533
H  H60  1  0.87790000  0.42460000  0.59850000  1.0 0.1292259533
H  H61  1  0.07540000  0.62210000  0.90150000  1.0 0.1292259533
H  H62  1  0.37790000  0.07540000  0.90150000  1.0 0.1292259533
H  H63  1  0.92460000  0.37790000  0.90150000  1.0 0.1292259533
H  H64  1  0.62210000  0.92460000  0.90150000  1.0 0.1292259533
H  H65  1  0.23740000  0.07810000  0.37720000  1.0 0.1292259533
H  H66  1  0.92190000  0.23740000  0.37720000  1.0 0.1292259533
H  H67  1  0.76260000  0.92190000  0.37720000  1.0 0.1292259533
H  H68  1  0.07810000  0.76260000  0.37720000  1.0 0.1292259533
H  H69  1  0.73740000  0.42190000  0.12280000  1.0 0.1292259533
H  H70  1  0.57810000  0.73740000  0.12280000  1.0 0.1292259533
H  H71  1  0.26260000  0.57810000  0.12280000  1.0 0.1292259533
H  H72  1  0.42190000  0.26260000  0.12280000  1.0 0.1292259533
H  H73  1  0.76260000  0.92190000  0.62280000  1.0 0.1292259533
H  H74  1  0.07810000  0.76260000  0.62280000  1.0 0.1292259533
H  H75  1  0.23740000  0.07810000  0.62280000  1.0 0.1292259533
H  H76  1  0.92190000  0.23740000  0.62280000  1.0 0.1292259533
H  H77  1  0.26260000  0.57810000  0.87720000  1.0 0.1292259533
H  H78  1  0.42190000  0.26260000  0.87720000  1.0 0.1292259533
H  H79  1  0.73740000  0.42190000  0.87720000  1.0 0.1292259533
H  H80  1  0.57810000  0.73740000  0.87720000  1.0 0.1292259533
H  H81  1  0.15570000  0.04770000  0.37940000  1.0 0.1233565996
H  H82  1  0.95230000  0.15570000  0.37940000  1.0 0.1233565996
H  H83  1  0.84430000  0.95230000  0.37940000  1.0 0.1233565996
H  H84  1  0.04770000  0.84430000  0.37940000  1.0 0.1233565996
H  H85  1  0.65570000  0.45230000  0.12060000  1.0 0.1233565996
H  H86  1  0.54770000  0.65570000  0.12060000  1.0 0.1233565996
H  H87  1  0.34430000  0.54770000  0.12060000  1.0 0.1233565996
H  H88  1  0.45230000  0.34430000  0.12060000  1.0 0.1233565996
H  H89  1  0.84430000  0.95230000  0.62060000  1.0 0.1233565996
H  H90  1  0.04770000  0.84430000  0.62060000  1.0 0.1233565996
H  H91  1  0.15570000  0.04770000  0.62060000  1.0 0.1233565996
H  H92  1  0.95230000  0.15570000  0.62060000  1.0 0.1233565996
H  H93  1  0.34430000  0.54770000  0.87940000  1.0 0.1233565996
H  H94  1  0.45230000  0.34430000  0.87940000  1.0 0.1233565996
H  H95  1  0.65570000  0.45230000  0.87940000  1.0 0.1233565996
H  H96  1  0.54770000  0.65570000  0.87940000  1.0 0.1233565996
H  H97  1  0.15070000  0.05130000  0.23720000  1.0 0.1292259533
H  H98  1  0.94870000  0.15070000  0.23720000  1.0 0.1292259533
H  H99  1  0.84930000  0.94870000  0.23720000  1.0 0.1233565996
H  H100  1  0.05130000  0.84930000  0.23720000  1.0 0.1292259533
H  H101  1  0.65070000  0.44870000  0.26280000  1.0 0.1233565996
H  H102  1  0.55130000  0.65070000  0.26280000  1.0 0.1233565996
H  H103  1  0.34930000  0.55130000  0.26280000  1.0 0.1233565996
H  H104  1  0.44870000  0.34930000  0.26280000  1.0 0.1233565996
H  H105  1  0.84930000  0.94870000  0.76280000  1.0 0.1292259533
H  H106  1  0.05130000  0.84930000  0.76280000  1.0 0.1292259533
H  H107  1  0.15070000  0.05130000  0.76280000  1.0 0.1292259533
H  H108  1  0.94870000  0.15070000  0.76280000  1.0 0.1292259533
H  H109  1  0.34930000  0.55130000  0.73720000  1.0 0.1292259533
H  H110  1  0.44870000  0.34930000  0.73720000  1.0 0.1292259533
H  H111  1  0.65070000  0.44870000  0.73720000  1.0 0.1292259533
H  H112  1  0.55130000  0.65070000  0.73720000  1.0 0.1292259533
H  H113  1  0.23270000  0.08110000  0.23370000  1.0 0.1292259533
H  H114  1  0.91890000  0.23270000  0.23370000  1.0 0.1292259533
H  H115  1  0.76730000  0.91890000  0.23370000  1.0 0.1292259533
H  H116  1  0.08110000  0.76730000  0.23370000  1.0 0.1292259533
H  H117  1  0.73270000  0.41890000  0.26630000  1.0 0.1292259533
H  H118  1  0.58110000  0.73270000  0.26630000  1.0 0.1292259533
H  H119  1  0.26730000  0.58110000  0.26630000  1.0 0.1292259533
H  H120  1  0.41890000  0.26730000  0.26630000  1.0 0.1292259533
H  H121  1  0.76730000  0.91890000  0.76630000  1.0 0.1292259533
H  H122  1  0.08110000  0.76730000  0.76630000  1.0 0.1292259533
H  H123  1  0.23270000  0.08110000  0.76630000  1.0 0.1292259533
H  H124  1  0.91890000  0.23270000  0.76630000  1.0 0.1292259533
H  H125  1  0.26730000  0.58110000  0.73370000  1.0 0.1292259533
H  H126  1  0.41890000  0.26730000  0.73370000  1.0 0.1292259533
H  H127  1  0.73270000  0.41890000  0.73370000  1.0 0.1292259533
H  H128  1  0.58110000  0.73270000  0.73370000  1.0 0.1292259533
H  H129  1  0.36860000  0.13140000  0.25000000  1.0 0.1460992867
H  H130  1  0.86860000  0.36860000  0.25000000  1.0 0.1460992867
H  H131  1  0.63140000  0.86860000  0.25000000  1.0 0.1460992867
H  H132  1  0.13140000  0.63140000  0.25000000  1.0 0.1460992867
H  H133  1  0.63140000  0.86860000  0.75000000  1.0 0.1460992867
H  H134  1  0.13140000  0.63140000  0.75000000  1.0 0.1460992867
H  H135  1  0.36860000  0.13140000  0.75000000  1.0 0.1460992867
H  H136  1  0.86860000  0.36860000  0.75000000  1.0 0.1460992867
H  H137  1  0.23380000  0.18170000  0.29330000  1.0 0.1292259533
H  H138  1  0.81830000  0.23380000  0.29330000  1.0 0.1292259533
H  H139  1  0.76620000  0.81830000  0.29330000  1.0 0.1292259533
H  H140  1  0.18170000  0.76620000  0.29330000  1.0 0.1292259533
H  H141  1  0.73380000  0.31830000  0.20670000  1.0 0.1292259533
H  H142  1  0.68170000  0.73380000  0.20670000  1.0 0.1292259533
H  H143  1  0.26620000  0.68170000  0.20670000  1.0 0.1292259533
H  H144  1  0.31830000  0.26620000  0.20670000  1.0 0.1292259533
H  H145  1  0.76620000  0.81830000  0.70670000  1.0 0.1292259533
H  H146  1  0.18170000  0.76620000  0.70670000  1.0 0.1292259533
H  H147  1  0.23380000  0.18170000  0.70670000  1.0 0.1292259533
H  H148  1  0.81830000  0.23380000  0.70670000  1.0 0.1292259533
H  H149  1  0.26620000  0.68170000  0.79330000  1.0 0.1292259533
H  H150  1  0.31830000  0.26620000  0.79330000  1.0 0.1292259533
H  H151  1  0.73380000  0.31830000  0.79330000  1.0 0.1292259533
H  H152  1  0.68170000  0.73380000  0.79330000  1.0 0.1292259533
H  H153  1  0.24550000  0.25450000  0.25000000  1.0 0.1077606222
H  H154  1  0.74550000  0.24550000  0.25000000  1.0 0.1077606222
H  H155  1  0.75450000  0.74550000  0.25000000  1.0 0.1077606222
H  H156  1  0.25450000  0.75450000  0.25000000  1.0 0.1077606222
H  H157  1  0.75450000  0.74550000  0.75000000  1.0 0.1077606222
H  H158  1  0.25450000  0.75450000  0.75000000  1.0 0.1077606222
H  H159  1  0.24550000  0.25450000  0.75000000  1.0 0.1077606222
H  H160  1  0.74550000  0.24550000  0.75000000  1.0 0.1077606222
H  H161  1  0.03190000  0.06710000  0.17740000  1.0 0.1077606222
H  H162  1  0.93290000  0.03190000  0.17740000  1.0 0.1077606222
H  H163  1  0.96810000  0.93290000  0.17740000  1.0 0.1077606222
H  H164  1  0.06710000  0.96810000  0.17740000  1.0 0.1077606222
H  H165  1  0.53190000  0.43290000  0.32260000  1.0 0.1077606222
H  H166  1  0.56710000  0.53190000  0.32260000  1.0 0.1077606222
H  H167  1  0.46810000  0.56710000  0.32260000  1.0 0.1077606222
H  H168  1  0.43290000  0.46810000  0.32260000  1.0 0.1077606222
H  H169  1  0.96810000  0.93290000  0.82260000  1.0 0.1077606222
H  H170  1  0.06710000  0.96810000  0.82260000  1.0 0.1077606222
H  H171  1  0.03190000  0.06710000  0.82260000  1.0 0.1077606222
H  H172  1  0.93290000  0.03190000  0.82260000  1.0 0.1077606222
H  H173  1  0.46810000  0.56710000  0.67740000  1.0 0.1077606222
H  H174  1  0.43290000  0.46810000  0.67740000  1.0 0.1077606222
H  H175  1  0.53190000  0.43290000  0.67740000  1.0 0.1077606222
H  H176  1  0.56710000  0.53190000  0.67740000  1.0 0.1077606222
H  H177  1  0.03220000  0.06920000  0.10050000  1.0 0.1077606222
H  H178  1  0.93080000  0.03220000  0.10050000  1.0 0.1077606222
H  H179  1  0.96780000  0.93080000  0.10050000  1.0 0.1077606222
H  H180  1  0.06920000  0.96780000  0.10050000  1.0 0.1077606222
H  H181  1  0.53220000  0.43080000  0.39950000  1.0 0.1077606222
H  H182  1  0.56920000  0.53220000  0.39950000  1.0 0.1077606222
H  H183  1  0.46780000  0.56920000  0.39950000  1.0 0.1077606222
H  H184  1  0.43080000  0.46780000  0.39950000  1.0 0.1077606222
H  H185  1  0.96780000  0.93080000  0.89950000  1.0 0.1077606222
H  H186  1  0.06920000  0.96780000  0.89950000  1.0 0.1077606222
H  H187  1  0.03220000  0.06920000  0.89950000  1.0 0.1077606222
H  H188  1  0.93080000  0.03220000  0.89950000  1.0 0.1077606222
H  H189  1  0.46780000  0.56920000  0.60050000  1.0 0.1077606222
H  H190  1  0.43080000  0.46780000  0.60050000  1.0 0.1077606222
H  H191  1  0.53220000  0.43080000  0.60050000  1.0 0.1077606222
H  H192  1  0.56920000  0.53220000  0.60050000  1.0 0.1077606222
C  C1  1  0.43913000  0.03090000  0.43764000  1.0 0.5764902184
C  C2  1  0.96910000  0.43913000  0.43764000  1.0 0.5764902184
C  C3  1  0.56087000  0.96910000  0.43764000  1.0 0.5764902184
C  C4  1  0.03090000  0.56087000  0.43764000  1.0 0.5764902184
C  C5  1  0.93913000  0.46910000  0.06236000  1.0 0.5764902184
C  C6  1  0.53090000  0.93913000  0.06236000  1.0 0.5764902184
C  C7  1  0.06087000  0.53090000  0.06236000  1.0 0.5764902184
C  C8  1  0.46910000  0.06087000  0.06236000  1.0 0.5764902184
C  C9  1  0.56087000  0.96910000  0.56236000  1.0 0.5764902184
C  C10  1  0.03090000  0.56087000  0.56236000  1.0 0.5764902184
C  C11  1  0.43913000  0.03090000  0.56236000  1.0 0.5764902184
C  C12  1  0.96910000  0.43913000  0.56236000  1.0 0.5764902184
C  C13  1  0.06087000  0.53090000  0.93764000  1.0 0.5764902184
C  C14  1  0.46910000  0.06087000  0.93764000  1.0 0.5764902184
C  C15  1  0.93913000  0.46910000  0.93764000  1.0 0.5764902184
C  C16  1  0.53090000  0.93913000  0.93764000  1.0 0.5764902184
C  C17  1  0.40195000  0.05006000  0.39972000  1.0 -0.0506822945
C  C18  1  0.94994000  0.40195000  0.39972000  1.0 -0.0506822945
C  C19  1  0.59805000  0.94994000  0.39972000  1.0 -0.0506822945
C  C20  1  0.05006000  0.59805000  0.39972000  1.0 -0.0506822945
C  C21  1  0.90195000  0.44994000  0.10028000  1.0 -0.0506822945
C  C22  1  0.55006000  0.90195000  0.10028000  1.0 -0.0506822945
C  C23  1  0.09805000  0.55006000  0.10028000  1.0 -0.059435204
C  C24  1  0.44994000  0.09805000  0.10028000  1.0 -0.059435204
C  C25  1  0.59805000  0.94994000  0.60028000  1.0 -0.0506822945
C  C26  1  0.05006000  0.59805000  0.60028000  1.0 -0.0506822945
C  C27  1  0.40195000  0.05006000  0.60028000  1.0 -0.0506822945
C  C28  1  0.94994000  0.40195000  0.60028000  1.0 -0.0506822945
C  C29  1  0.09805000  0.55006000  0.89972000  1.0 -0.059435204
C  C30  1  0.44994000  0.09805000  0.89972000  1.0 -0.059435204
C  C31  1  0.90195000  0.44994000  0.89972000  1.0 -0.0506822945
C  C32  1  0.55006000  0.90195000  0.89972000  1.0 -0.0506822945
C  C33  1  0.36769000  0.01773000  0.37873000  1.0 -0.0824559601
C  C34  1  0.98227000  0.36769000  0.37873000  1.0 -0.0824559601
C  C35  1  0.63231000  0.98227000  0.37873000  1.0 -0.0824559601
C  C36  1  0.01773000  0.63231000  0.37873000  1.0 -0.0824559601
C  C37  1  0.86769000  0.48227000  0.12127000  1.0 -0.0824559601
C  C38  1  0.51773000  0.86769000  0.12127000  1.0 -0.0824559601
C  C39  1  0.13231000  0.51773000  0.12127000  1.0 -0.0824559601
C  C40  1  0.48227000  0.13231000  0.12127000  1.0 -0.0824559601
C  C41  1  0.63231000  0.98227000  0.62127000  1.0 -0.0824559601
C  C42  1  0.01773000  0.63231000  0.62127000  1.0 -0.0824559601
C  C43  1  0.36769000  0.01773000  0.62127000  1.0 -0.0824559601
C  C44  1  0.98227000  0.36769000  0.62127000  1.0 -0.0824559601
C  C45  1  0.13231000  0.51773000  0.87873000  1.0 -0.0824559601
C  C46  1  0.48227000  0.13231000  0.87873000  1.0 -0.0824559601
C  C47  1  0.86769000  0.48227000  0.87873000  1.0 -0.0824559601
C  C48  1  0.51773000  0.86769000  0.87873000  1.0 -0.0824559601
C  C49  1  0.33290000  0.03486000  0.34755000  1.0 -0.1796303464
C  C50  1  0.96514000  0.33290000  0.34755000  1.0 -0.1796303464
C  C51  1  0.66710000  0.96514000  0.34755000  1.0 -0.1904414577
C  C52  1  0.03486000  0.66710000  0.34755000  1.0 -0.1904414577
C  C53  1  0.83290000  0.46514000  0.15245000  1.0 -0.1796303464
C  C54  1  0.53486000  0.83290000  0.15245000  1.0 -0.1796303464
C  C55  1  0.16710000  0.53486000  0.15245000  1.0 -0.1796303464
C  C56  1  0.46514000  0.16710000  0.15245000  1.0 -0.1796303464
C  C57  1  0.66710000  0.96514000  0.65245000  1.0 -0.1904414577
C  C58  1  0.03486000  0.66710000  0.65245000  1.0 -0.1904414577
C  C59  1  0.33290000  0.03486000  0.65245000  1.0 -0.1796303464
C  C60  1  0.96514000  0.33290000  0.65245000  1.0 -0.1796303464
C  C61  1  0.16710000  0.53486000  0.84755000  1.0 -0.1904414577
C  C62  1  0.46514000  0.16710000  0.84755000  1.0 -0.1796303464
C  C63  1  0.83290000  0.46514000  0.84755000  1.0 -0.1796303464
C  C64  1  0.53486000  0.83290000  0.84755000  1.0 -0.1904414577
C  C65  1  0.33061000  0.08545000  0.33548000  1.0 0.1826236617
C  C66  1  0.91455000  0.33061000  0.33548000  1.0 0.1826236617
C  C67  1  0.66939000  0.91455000  0.33548000  1.0 0.1826236617
C  C68  1  0.08545000  0.66939000  0.33548000  1.0 0.1826236617
C  C69  1  0.83061000  0.41455000  0.16452000  1.0 0.1826236617
C  C70  1  0.58545000  0.83061000  0.16452000  1.0 0.1826236617
C  C71  1  0.16939000  0.58545000  0.16452000  1.0 0.1826236617
C  C72  1  0.41455000  0.16939000  0.16452000  1.0 0.1826236617
C  C73  1  0.66939000  0.91455000  0.66452000  1.0 0.1826236617
C  C74  1  0.08545000  0.66939000  0.66452000  1.0 0.1826236617
C  C75  1  0.33061000  0.08545000  0.66452000  1.0 0.1826236617
C  C76  1  0.91455000  0.33061000  0.66452000  1.0 0.1826236617
C  C77  1  0.16939000  0.58545000  0.83548000  1.0 0.1826236617
C  C78  1  0.41455000  0.16939000  0.83548000  1.0 0.1826236617
C  C79  1  0.83061000  0.41455000  0.83548000  1.0 0.1826236617
C  C80  1  0.58545000  0.83061000  0.83548000  1.0 0.1826236617
C  C81  1  0.36587000  0.11957000  0.35551000  1.0 -0.2109754669
C  C82  1  0.88043000  0.36587000  0.35551000  1.0 -0.2109754669
C  C83  1  0.63413000  0.88043000  0.35551000  1.0 -0.2109754669
C  C84  1  0.11957000  0.63413000  0.35551000  1.0 -0.2109754669
C  C85  1  0.86587000  0.38043000  0.14449000  1.0 -0.2109754669
C  C86  1  0.61957000  0.86587000  0.14449000  1.0 -0.2109754669
C  C87  1  0.13413000  0.61957000  0.14449000  1.0 -0.2109754669
C  C88  1  0.38043000  0.13413000  0.14449000  1.0 -0.2109754669
C  C89  1  0.63413000  0.88043000  0.64449000  1.0 -0.2109754669
C  C90  1  0.11957000  0.63413000  0.64449000  1.0 -0.2109754669
C  C91  1  0.36587000  0.11957000  0.64449000  1.0 -0.2109754669
C  C92  1  0.88043000  0.36587000  0.64449000  1.0 -0.2109754669
C  C93  1  0.13413000  0.61957000  0.85551000  1.0 -0.2109754669
C  C94  1  0.38043000  0.13413000  0.85551000  1.0 -0.2109754669
C  C95  1  0.86587000  0.38043000  0.85551000  1.0 -0.2109754669
C  C96  1  0.61957000  0.86587000  0.85551000  1.0 -0.2109754669
C  C97  1  0.40109000  0.10030000  0.38775000  1.0 -0.0710220419
C  C98  1  0.89970000  0.40109000  0.38775000  1.0 -0.0710220419
C  C99  1  0.59891000  0.89970000  0.38775000  1.0 -0.0710220419
C  C100  1  0.10030000  0.59891000  0.38775000  1.0 -0.0710220419
C  C101  1  0.90109000  0.39970000  0.11225000  1.0 -0.0710220419
C  C102  1  0.60030000  0.90109000  0.11225000  1.0 -0.0710220419
C  C103  1  0.09891000  0.60030000  0.11225000  1.0 -0.0710220419
C  C104  1  0.39970000  0.09891000  0.11225000  1.0 -0.0710220419
C  C105  1  0.59891000  0.89970000  0.61225000  1.0 -0.0710220419
C  C106  1  0.10030000  0.59891000  0.61225000  1.0 -0.0710220419
C  C107  1  0.40109000  0.10030000  0.61225000  1.0 -0.0710220419
C  C108  1  0.89970000  0.40109000  0.61225000  1.0 -0.0710220419
C  C109  1  0.09891000  0.60030000  0.88775000  1.0 -0.0710220419
C  C110  1  0.39970000  0.09891000  0.88775000  1.0 -0.0710220419
C  C111  1  0.90109000  0.39970000  0.88775000  1.0 -0.0710220419
C  C112  1  0.60030000  0.90109000  0.88775000  1.0 -0.0710220419
C  C113  1  0.24304000  0.08352000  0.30571000  1.0 0.170257799
C  C114  1  0.91648000  0.24304000  0.30571000  1.0 0.170257799
C  C115  1  0.75696000  0.91648000  0.30571000  1.0 0.170257799
C  C116  1  0.08352000  0.75696000  0.30571000  1.0 0.170257799
C  C117  1  0.74304000  0.41648000  0.19429000  1.0 0.170257799
C  C118  1  0.58352000  0.74304000  0.19429000  1.0 0.170257799
C  C119  1  0.25696000  0.58352000  0.19429000  1.0 0.170257799
C  C120  1  0.41648000  0.25696000  0.19429000  1.0 0.170257799
C  C121  1  0.75696000  0.91648000  0.69429000  1.0 0.170257799
C  C122  1  0.08352000  0.75696000  0.69429000  1.0 0.170257799
C  C123  1  0.24304000  0.08352000  0.69429000  1.0 0.170257799
C  C124  1  0.91648000  0.24304000  0.69429000  1.0 0.170257799
C  C125  1  0.25696000  0.58352000  0.80571000  1.0 0.170257799
C  C126  1  0.41648000  0.25696000  0.80571000  1.0 0.170257799
C  C127  1  0.74304000  0.41648000  0.80571000  1.0 0.170257799
C  C128  1  0.58352000  0.74304000  0.80571000  1.0 0.170257799
C  C129  1  0.21991000  0.07291000  0.34870000  1.0 -0.1904414577
C  C130  1  0.92709000  0.21991000  0.34870000  1.0 -0.1904414577
C  C131  1  0.78009000  0.92709000  0.34870000  1.0 -0.1904414577
C  C132  1  0.07291000  0.78009000  0.34870000  1.0 -0.1904414577
C  C133  1  0.71991000  0.42709000  0.15130000  1.0 -0.1904414577
C  C134  1  0.57291000  0.71991000  0.15130000  1.0 -0.1904414577
C  C135  1  0.28009000  0.57291000  0.15130000  1.0 -0.1904414577
C  C136  1  0.42709000  0.28009000  0.15130000  1.0 -0.1904414577
C  C137  1  0.78009000  0.92709000  0.65130000  1.0 -0.1904414577
C  C138  1  0.07291000  0.78009000  0.65130000  1.0 -0.1904414577
C  C139  1  0.21991000  0.07291000  0.65130000  1.0 -0.1904414577
C  C140  1  0.92709000  0.21991000  0.65130000  1.0 -0.1904414577
C  C141  1  0.28009000  0.57291000  0.84870000  1.0 -0.1904414577
C  C142  1  0.42709000  0.28009000  0.84870000  1.0 -0.1904414577
C  C143  1  0.71991000  0.42709000  0.84870000  1.0 -0.1904414577
C  C144  1  0.57291000  0.71991000  0.84870000  1.0 -0.1904414577
C  C145  1  0.17094000  0.05459000  0.35002000  1.0 -0.0824559601
C  C146  1  0.94541000  0.17094000  0.35002000  1.0 -0.0824559601
C  C147  1  0.82906000  0.94541000  0.35002000  1.0 -0.0824559601
C  C148  1  0.05459000  0.82906000  0.35002000  1.0 -0.0824559601
C  C149  1  0.67094000  0.44541000  0.14998000  1.0 -0.0824559601
C  C150  1  0.55459000  0.67094000  0.14998000  1.0 -0.0824559601
C  C151  1  0.32906000  0.55459000  0.14998000  1.0 -0.0824559601
C  C152  1  0.44541000  0.32906000  0.14998000  1.0 -0.0824559601
C  C153  1  0.82906000  0.94541000  0.64998000  1.0 -0.0824559601
C  C154  1  0.05459000  0.82906000  0.64998000  1.0 -0.0824559601
C  C155  1  0.17094000  0.05459000  0.64998000  1.0 -0.0824559601
C  C156  1  0.94541000  0.17094000  0.64998000  1.0 -0.0824559601
C  C157  1  0.32906000  0.55459000  0.85002000  1.0 -0.0824559601
C  C158  1  0.44541000  0.32906000  0.85002000  1.0 -0.0824559601
C  C159  1  0.67094000  0.44541000  0.85002000  1.0 -0.0824559601
C  C160  1  0.55459000  0.67094000  0.85002000  1.0 -0.0824559601
C  C161  1  0.14467000  0.04651000  0.30816000  1.0 -0.059435204
C  C162  1  0.95349000  0.14467000  0.30816000  1.0 -0.059435204
C  C163  1  0.85533000  0.95349000  0.30816000  1.0 -0.059435204
C  C164  1  0.04651000  0.85533000  0.30816000  1.0 -0.059435204
C  C165  1  0.64467000  0.45349000  0.19184000  1.0 -0.059435204
C  C166  1  0.54651000  0.64467000  0.19184000  1.0 -0.059435204
C  C167  1  0.35533000  0.54651000  0.19184000  1.0 -0.059435204
C  C168  1  0.45349000  0.35533000  0.19184000  1.0 -0.059435204
C  C169  1  0.85533000  0.95349000  0.69184000  1.0 -0.059435204
C  C170  1  0.04651000  0.85533000  0.69184000  1.0 -0.059435204
C  C171  1  0.14467000  0.04651000  0.69184000  1.0 -0.059435204
C  C172  1  0.95349000  0.14467000  0.69184000  1.0 -0.059435204
C  C173  1  0.35533000  0.54651000  0.80816000  1.0 -0.059435204
C  C174  1  0.45349000  0.35533000  0.80816000  1.0 -0.059435204
C  C175  1  0.64467000  0.45349000  0.80816000  1.0 -0.059435204
C  C176  1  0.54651000  0.64467000  0.80816000  1.0 -0.059435204
C  C177  1  0.09163000  0.02878000  0.30879000  1.0 0.5720630946
C  C178  1  0.97122000  0.09163000  0.30879000  1.0 0.5720630946
C  C179  1  0.90837000  0.97122000  0.30879000  1.0 0.5720630946
C  C180  1  0.02878000  0.90837000  0.30879000  1.0 0.5720630946
C  C181  1  0.59163000  0.47122000  0.19121000  1.0 0.5720630946
C  C182  1  0.52878000  0.59163000  0.19121000  1.0 0.5720630946
C  C183  1  0.40837000  0.52878000  0.19121000  1.0 0.5720630946
C  C184  1  0.47122000  0.40837000  0.19121000  1.0 0.5720630946
C  C185  1  0.90837000  0.97122000  0.69121000  1.0 0.5720630946
C  C186  1  0.02878000  0.90837000  0.69121000  1.0 0.5720630946
C  C187  1  0.09163000  0.02878000  0.69121000  1.0 0.5720630946
C  C188  1  0.97122000  0.09163000  0.69121000  1.0 0.5720630946
C  C189  1  0.40837000  0.52878000  0.80879000  1.0 0.5720630946
C  C190  1  0.47122000  0.40837000  0.80879000  1.0 0.5720630946
C  C191  1  0.59163000  0.47122000  0.80879000  1.0 0.5720630946
C  C192  1  0.52878000  0.59163000  0.80879000  1.0 0.5720630946
C  C193  1  0.16826000  0.05673000  0.26563000  1.0 -0.0824559601
C  C194  1  0.94327000  0.16826000  0.26563000  1.0 -0.0824559601
C  C195  1  0.83174000  0.94327000  0.26563000  1.0 -0.0824559601
C  C196  1  0.05673000  0.83174000  0.26563000  1.0 -0.0824559601
C  C197  1  0.66826000  0.44327000  0.23437000  1.0 -0.0824559601
C  C198  1  0.55673000  0.66826000  0.23437000  1.0 -0.0824559601
C  C199  1  0.33174000  0.55673000  0.23437000  1.0 -0.0824559601
C  C200  1  0.44327000  0.33174000  0.23437000  1.0 -0.0824559601
C  C201  1  0.83174000  0.94327000  0.73437000  1.0 -0.0824559601
C  C202  1  0.05673000  0.83174000  0.73437000  1.0 -0.0824559601
C  C203  1  0.16826000  0.05673000  0.73437000  1.0 -0.0824559601
C  C204  1  0.94327000  0.16826000  0.73437000  1.0 -0.0824559601
C  C205  1  0.33174000  0.55673000  0.76563000  1.0 -0.0824559601
C  C206  1  0.44327000  0.33174000  0.76563000  1.0 -0.0824559601
C  C207  1  0.66826000  0.44327000  0.76563000  1.0 -0.0824559601
C  C208  1  0.55673000  0.66826000  0.76563000  1.0 -0.0824559601
C  C209  1  0.21739000  0.07490000  0.26316000  1.0 -0.1904414577
C  C210  1  0.92510000  0.21739000  0.26316000  1.0 -0.1904414577
C  C211  1  0.78261000  0.92510000  0.26316000  1.0 -0.1904414577
C  C212  1  0.07490000  0.78261000  0.26316000  1.0 -0.1904414577
C  C213  1  0.71739000  0.42510000  0.23684000  1.0 -0.1904414577
C  C214  1  0.57490000  0.71739000  0.23684000  1.0 -0.1904414577
C  C215  1  0.28261000  0.57490000  0.23684000  1.0 -0.1904414577
C  C216  1  0.42510000  0.28261000  0.23684000  1.0 -0.1904414577
C  C217  1  0.78261000  0.92510000  0.73684000  1.0 -0.1904414577
C  C218  1  0.07490000  0.78261000  0.73684000  1.0 -0.1904414577
C  C219  1  0.21739000  0.07490000  0.73684000  1.0 -0.1904414577
C  C220  1  0.92510000  0.21739000  0.73684000  1.0 -0.1904414577
C  C221  1  0.28261000  0.57490000  0.76316000  1.0 -0.1904414577
C  C222  1  0.42510000  0.28261000  0.76316000  1.0 -0.1904414577
C  C223  1  0.71739000  0.42510000  0.76316000  1.0 -0.1904414577
C  C224  1  0.57490000  0.71739000  0.76316000  1.0 -0.1904414577
C  C225  1  0.30019000  0.14951000  0.27594000  1.0 0.170257799
C  C226  1  0.85049000  0.30019000  0.27594000  1.0 0.170257799
C  C227  1  0.69981000  0.85049000  0.27594000  1.0 0.170257799
C  C228  1  0.14951000  0.69981000  0.27594000  1.0 0.170257799
C  C229  1  0.80019000  0.35049000  0.22406000  1.0 0.170257799
C  C230  1  0.64951000  0.80019000  0.22406000  1.0 0.170257799
C  C231  1  0.19981000  0.64951000  0.22406000  1.0 0.170257799
C  C232  1  0.35049000  0.19981000  0.22406000  1.0 0.170257799
C  C233  1  0.69981000  0.85049000  0.72406000  1.0 0.170257799
C  C234  1  0.14951000  0.69981000  0.72406000  1.0 0.170257799
C  C235  1  0.30019000  0.14951000  0.72406000  1.0 0.170257799
C  C236  1  0.85049000  0.30019000  0.72406000  1.0 0.170257799
C  C237  1  0.19981000  0.64951000  0.77594000  1.0 0.170257799
C  C238  1  0.35049000  0.19981000  0.77594000  1.0 0.170257799
C  C239  1  0.80019000  0.35049000  0.77594000  1.0 0.170257799
C  C240  1  0.64951000  0.80019000  0.77594000  1.0 0.170257799
C  C241  1  0.34377000  0.15623000  0.25000000  1.0 -0.2670064544
C  C242  1  0.84377000  0.34377000  0.25000000  1.0 -0.2670064544
C  C243  1  0.65623000  0.84377000  0.25000000  1.0 -0.2670064544
C  C244  1  0.15623000  0.65623000  0.25000000  1.0 -0.2670064544
C  C245  1  0.65623000  0.84377000  0.75000000  1.0 -0.2670064544
C  C246  1  0.15623000  0.65623000  0.75000000  1.0 -0.2670064544
C  C247  1  0.34377000  0.15623000  0.75000000  1.0 -0.2670064544
C  C248  1  0.84377000  0.34377000  0.75000000  1.0 -0.2670064544
C  C249  1  0.26338000  0.18630000  0.27580000  1.0 -0.2109754669
C  C250  1  0.81370000  0.26338000  0.27580000  1.0 -0.2109754669
C  C251  1  0.73662000  0.81370000  0.27580000  1.0 -0.2109754669
C  C252  1  0.18630000  0.73662000  0.27580000  1.0 -0.2109754669
C  C253  1  0.76338000  0.31370000  0.22420000  1.0 -0.2109754669
C  C254  1  0.68630000  0.76338000  0.22420000  1.0 -0.2109754669
C  C255  1  0.23662000  0.68630000  0.22420000  1.0 -0.2109754669
C  C256  1  0.31370000  0.23662000  0.22420000  1.0 -0.2109754669
C  C257  1  0.73662000  0.81370000  0.72420000  1.0 -0.2109754669
C  C258  1  0.18630000  0.73662000  0.72420000  1.0 -0.2109754669
C  C259  1  0.26338000  0.18630000  0.72420000  1.0 -0.2109754669
C  C260  1  0.81370000  0.26338000  0.72420000  1.0 -0.2109754669
C  C261  1  0.23662000  0.68630000  0.77580000  1.0 -0.2109754669
C  C262  1  0.31370000  0.23662000  0.77580000  1.0 -0.2109754669
C  C263  1  0.76338000  0.31370000  0.77580000  1.0 -0.2109754669
C  C264  1  0.68630000  0.76338000  0.77580000  1.0 -0.2109754669
C  C265  1  0.27040000  0.22960000  0.25000000  1.0 -0.059435204
C  C266  1  0.77040000  0.27040000  0.25000000  1.0 -0.059435204
C  C267  1  0.72960000  0.77040000  0.25000000  1.0 -0.059435204
C  C268  1  0.22960000  0.72960000  0.25000000  1.0 -0.059435204
C  C269  1  0.72960000  0.77040000  0.75000000  1.0 -0.059435204
C  C270  1  0.22960000  0.72960000  0.75000000  1.0 -0.059435204
C  C271  1  0.27040000  0.22960000  0.75000000  1.0 -0.059435204
C  C272  1  0.77040000  0.27040000  0.75000000  1.0 -0.059435204
C  C273  1  0.01880000  0.03980000  0.16050000  1.0 0.0057259555
C  C274  1  0.96020000  0.01880000  0.16050000  1.0 0.0057259555
C  C275  1  0.98120000  0.96020000  0.16050000  1.0 0.0057259555
C  C276  1  0.03980000  0.98120000  0.16050000  1.0 0.0057259555
C  C277  1  0.51880000  0.46020000  0.33950000  1.0 0.0048072027
C  C278  1  0.53980000  0.51880000  0.33950000  1.0 0.0048072027
C  C279  1  0.48120000  0.53980000  0.33950000  1.0 0.0048072027
C  C280  1  0.46020000  0.48120000  0.33950000  1.0 0.0048072027
C  C281  1  0.98120000  0.96020000  0.83950000  1.0 0.0057259555
C  C282  1  0.03980000  0.98120000  0.83950000  1.0 0.0057259555
C  C283  1  0.01880000  0.03980000  0.83950000  1.0 0.0048072027
C  C284  1  0.96020000  0.01880000  0.83950000  1.0 0.0057259555
C  C285  1  0.48120000  0.53980000  0.66050000  1.0 0.0048072027
C  C286  1  0.46020000  0.48120000  0.66050000  1.0 0.0048072027
C  C287  1  0.51880000  0.46020000  0.66050000  1.0 0.0048072027
C  C288  1  0.53980000  0.51880000  0.66050000  1.0 0.0057259555
C  C289  1  0.01940000  0.04150000  0.11700000  1.0 -0.0710220419
C  C290  1  0.95850000  0.01940000  0.11700000  1.0 -0.0710220419
C  C291  1  0.98060000  0.95850000  0.11700000  1.0 -0.0710220419
C  C292  1  0.04150000  0.98060000  0.11700000  1.0 -0.0710220419
C  C293  1  0.51940000  0.45850000  0.38300000  1.0 -0.059435204
C  C294  1  0.54150000  0.51940000  0.38300000  1.0 -0.059435204
C  C295  1  0.48060000  0.54150000  0.38300000  1.0 -0.059435204
C  C296  1  0.45850000  0.48060000  0.38300000  1.0 -0.059435204
C  C297  1  0.98060000  0.95850000  0.88300000  1.0 -0.0710220419
C  C298  1  0.04150000  0.98060000  0.88300000  1.0 -0.0710220419
C  C299  1  0.01940000  0.04150000  0.88300000  1.0 -0.0710220419
C  C300  1  0.95850000  0.01940000  0.88300000  1.0 -0.0710220419
C  C301  1  0.48060000  0.54150000  0.61700000  1.0 -0.0710220419
C  C302  1  0.45850000  0.48060000  0.61700000  1.0 -0.0710220419
C  C303  1  0.51940000  0.45850000  0.61700000  1.0 -0.0710220419
C  C304  1  0.54150000  0.51940000  0.61700000  1.0 -0.0710220419
C  C305  1  0.00000000  0.00000000  0.09390000  1.0 -0.0243186926
C  C306  1  0.50000000  0.50000000  0.40610000  1.0 -0.0274076586
C  C307  1  0.00000000  0.00000000  0.90610000  1.0 -0.0243186926
C  C308  1  0.50000000  0.50000000  0.59390000  1.0 -0.0243186926
C  C309  1  0.00000000  0.00000000  0.04490000  1.0 0.095128114
C  C310  1  0.50000000  0.50000000  0.45510000  1.0 0.0884679469
C  C311  1  0.00000000  0.00000000  0.95510000  1.0 0.0808487038
C  C312  1  0.50000000  0.50000000  0.54490000  1.0 0.0884679469
N  N1  1  0.29298000  0.10452000  0.30367000  1.0 -0.1796303464
N  N2  1  0.89548000  0.29298000  0.30367000  1.0 -0.1796303464
N  N3  1  0.70702000  0.89548000  0.30367000  1.0 -0.1796303464
N  N4  1  0.10452000  0.70702000  0.30367000  1.0 -0.1796303464
N  N5  1  0.79298000  0.39548000  0.19633000  1.0 -0.1796303464
N  N6  1  0.60452000  0.79298000  0.19633000  1.0 -0.1796303464
N  N7  1  0.20702000  0.60452000  0.19633000  1.0 -0.1796303464
N  N8  1  0.39548000  0.20702000  0.19633000  1.0 -0.1796303464
N  N9  1  0.70702000  0.89548000  0.69633000  1.0 -0.1796303464
N  N10  1  0.10452000  0.70702000  0.69633000  1.0 -0.1796303464
N  N11  1  0.29298000  0.10452000  0.69633000  1.0 -0.1796303464
N  N12  1  0.89548000  0.29298000  0.69633000  1.0 -0.1796303464
N  N13  1  0.20702000  0.60452000  0.80367000  1.0 -0.1796303464
N  N14  1  0.39548000  0.20702000  0.80367000  1.0 -0.1796303464
N  N15  1  0.79298000  0.39548000  0.80367000  1.0 -0.1796303464
N  N16  1  0.60452000  0.79298000  0.80367000  1.0 -0.1796303464
N  N17  1  0.00000000  0.00000000  0.18610000  1.0 -0.2109754669
N  N18  1  0.50000000  0.50000000  0.31390000  1.0 -0.2109754669
N  N19  1  0.00000000  0.00000000  0.81390000  1.0 -0.2109754669
N  N20  1  0.50000000  0.50000000  0.68610000  1.0 -0.2109754669
N  N21  1  0.00800000  0.03700000  0.01890000  1.0 -0.0506822945
N  N22  1  0.96300000  0.00800000  0.01890000  1.0 -0.0506822945
N  N23  1  0.99200000  0.96300000  0.01890000  1.0 -0.0506822945
N  N24  1  0.03700000  0.99200000  0.01890000  1.0 -0.0506822945
N  N25  1  0.50800000  0.46300000  0.48110000  1.0 -0.0506822945
N  N26  1  0.53700000  0.50800000  0.48110000  1.0 -0.0506822945
N  N27  1  0.49200000  0.53700000  0.48110000  1.0 -0.0506822945
N  N28  1  0.46300000  0.49200000  0.48110000  1.0 -0.0506822945
N  N29  1  0.99200000  0.96300000  0.98110000  1.0 -0.0506822945
N  N30  1  0.03700000  0.99200000  0.98110000  1.0 -0.0506822945
N  N31  1  0.00800000  0.03700000  0.98110000  1.0 -0.0506822945
N  N32  1  0.96300000  0.00800000  0.98110000  1.0 -0.0506822945
N  N33  1  0.49200000  0.53700000  0.51890000  1.0 -0.0506822945
N  N34  1  0.46300000  0.49200000  0.51890000  1.0 -0.0506822945
N  N35  1  0.50800000  0.46300000  0.51890000  1.0 -0.0506822945
N  N36  1  0.53700000  0.50800000  0.51890000  1.0 -0.0506822945
O  O1  1  0.43497000  0.98563000  0.45033000  1.0 -0.5260925465
O  O2  1  0.01437000  0.43497000  0.45033000  1.0 -0.5260925465
O  O3  1  0.56503000  0.01437000  0.45033000  1.0 -0.5260925465
O  O4  1  0.98563000  0.56503000  0.45033000  1.0 -0.5260925465
O  O5  1  0.93497000  0.51437000  0.04967000  1.0 -0.5260925465
O  O6  1  0.48563000  0.93497000  0.04967000  1.0 -0.5260925465
O  O7  1  0.06503000  0.48563000  0.04967000  1.0 -0.5260925465
O  O8  1  0.51437000  0.06503000  0.04967000  1.0 -0.5260925465
O  O9  1  0.56503000  0.01437000  0.54967000  1.0 -0.5260925465
O  O10  1  0.98563000  0.56503000  0.54967000  1.0 -0.5260925465
O  O11  1  0.43497000  0.98563000  0.54967000  1.0 -0.5260925465
O  O12  1  0.01437000  0.43497000  0.54967000  1.0 -0.5260925465
O  O13  1  0.06503000  0.48563000  0.95033000  1.0 -0.5260925465
O  O14  1  0.51437000  0.06503000  0.95033000  1.0 -0.5260925465
O  O15  1  0.93497000  0.51437000  0.95033000  1.0 -0.5260925465
O  O16  1  0.48563000  0.93497000  0.95033000  1.0 -0.5260925465
O  O17  1  0.47194000  0.06239000  0.45085000  1.0 -0.5209184419
O  O18  1  0.93761000  0.47194000  0.45085000  1.0 -0.5209184419
O  O19  1  0.52806000  0.93761000  0.45085000  1.0 -0.5209184419
O  O20  1  0.06239000  0.52806000  0.45085000  1.0 -0.5209184419
O  O21  1  0.97194000  0.43761000  0.04915000  1.0 -0.5260925465
O  O22  1  0.56239000  0.97194000  0.04915000  1.0 -0.5209184419
O  O23  1  0.02806000  0.56239000  0.04915000  1.0 -0.5260925465
O  O24  1  0.43761000  0.02806000  0.04915000  1.0 -0.5260925465
O  O25  1  0.52806000  0.93761000  0.54915000  1.0 -0.5209184419
O  O26  1  0.06239000  0.52806000  0.54915000  1.0 -0.5209184419
O  O27  1  0.47194000  0.06239000  0.54915000  1.0 -0.5209184419
O  O28  1  0.93761000  0.47194000  0.54915000  1.0 -0.5209184419
O  O29  1  0.02806000  0.56239000  0.95085000  1.0 -0.5260925465
O  O30  1  0.43761000  0.02806000  0.95085000  1.0 -0.5260925465
O  O31  1  0.97194000  0.43761000  0.95085000  1.0 -0.5260925465
O  O32  1  0.56239000  0.97194000  0.95085000  1.0 -0.5209184419
O  O33  1  0.07114000  0.02089000  0.34907000  1.0 -0.5081303616
O  O34  1  0.97911000  0.07114000  0.34907000  1.0 -0.5081303616
O  O35  1  0.92886000  0.97911000  0.34907000  1.0 -0.5081303616
O  O36  1  0.02089000  0.92886000  0.34907000  1.0 -0.5081303616
O  O37  1  0.57114000  0.47911000  0.15093000  1.0 -0.5081303616
O  O38  1  0.52089000  0.57114000  0.15093000  1.0 -0.5081303616
O  O39  1  0.42886000  0.52089000  0.15093000  1.0 -0.5081303616
O  O40  1  0.47911000  0.42886000  0.15093000  1.0 -0.5081303616
O  O41  1  0.92886000  0.97911000  0.65093000  1.0 -0.5081303616
O  O42  1  0.02089000  0.92886000  0.65093000  1.0 -0.5081303616
O  O43  1  0.07114000  0.02089000  0.65093000  1.0 -0.5081303616
O  O44  1  0.97911000  0.07114000  0.65093000  1.0 -0.5081303616
O  O45  1  0.42886000  0.52089000  0.84907000  1.0 -0.5081303616
O  O46  1  0.47911000  0.42886000  0.84907000  1.0 -0.5081303616
O  O47  1  0.57114000  0.47911000  0.84907000  1.0 -0.5081303616
O  O48  1  0.52089000  0.57114000  0.84907000  1.0 -0.5081303616
O  O49  1  0.07018000  0.02304000  0.26909000  1.0 -0.5209184419
O  O50  1  0.97696000  0.07018000  0.26909000  1.0 -0.5209184419
O  O51  1  0.92982000  0.97696000  0.26909000  1.0 -0.5209184419
O  O52  1  0.02304000  0.92982000  0.26909000  1.0 -0.5209184419
O  O53  1  0.57018000  0.47696000  0.23091000  1.0 -0.5209184419
O  O54  1  0.52304000  0.57018000  0.23091000  1.0 -0.5209184419
O  O55  1  0.42982000  0.52304000  0.23091000  1.0 -0.5209184419
O  O56  1  0.47696000  0.42982000  0.23091000  1.0 -0.5209184419
O  O57  1  0.92982000  0.97696000  0.73091000  1.0 -0.5209184419
O  O58  1  0.02304000  0.92982000  0.73091000  1.0 -0.5209184419
O  O59  1  0.07018000  0.02304000  0.73091000  1.0 -0.5209184419
O  O60  1  0.97696000  0.07018000  0.73091000  1.0 -0.5209184419
O  O61  1  0.42982000  0.52304000  0.76909000  1.0 -0.5209184419
O  O62  1  0.47696000  0.42982000  0.76909000  1.0 -0.5209184419
O  O63  1  0.57018000  0.47696000  0.76909000  1.0 -0.5209184419
O  O64  1  0.52304000  0.57018000  0.76909000  1.0 -0.5209184419
