# DDEC6 charges by PACMAN v1.1 (https://github.com/mtap-research/PACMAN-charge/)
data_XUDPIX_ASR_pacman
_symmetry_space_group_name_H-M   'P 1'
_cell_length_a   27.25000000
_cell_length_b   37.44100000
_cell_length_c   37.44900000
_cell_angle_alpha   90.00000000
_cell_angle_beta   90.00000000
_cell_angle_gamma   90.00000000
_symmetry_Int_Tables_number   1
_chemical_formula_structural   Cu2H24C39(NO2)4
_chemical_formula_sum   'Cu32 H384 C624 N64 O128'
_cell_volume   38207.98824525
_cell_formula_units_Z   16
loop_
 _symmetry_equiv_pos_site_id
 _symmetry_equiv_pos_as_xyz
  1  'x, y, z'
loop_
 _atom_site_type_symbol
 _atom_site_label
 _atom_site_symmetry_multiplicity
 _atom_site_fract_x
 _atom_site_fract_y
 _atom_site_fract_z
 _atom_site_occupancy
 _atom_site_charge
Cu  Cu1  1  0.14958000  0.00102000  0.00335000  1.0 0.855970684
Cu  Cu2  1  0.14958000  0.49898000  0.49665000  1.0 0.854575433
Cu  Cu3  1  0.35042000  0.50102000  0.99665000  1.0 0.854575433
Cu  Cu4  1  0.35042000  0.99898000  0.50335000  1.0 0.854575433
Cu  Cu5  1  0.85042000  0.99898000  0.99665000  1.0 0.854575433
Cu  Cu6  1  0.85042000  0.50102000  0.50335000  1.0 0.854575433
Cu  Cu7  1  0.64958000  0.49898000  0.00335000  1.0 0.854575433
Cu  Cu8  1  0.64958000  0.00102000  0.49665000  1.0 0.854575433
Cu  Cu9  1  0.24613000  0.99089000  0.99795000  1.0 0.7758694101
Cu  Cu10  1  0.24613000  0.50911000  0.50205000  1.0 0.7758694101
Cu  Cu11  1  0.25387000  0.49089000  0.00205000  1.0 0.7758694101
Cu  Cu12  1  0.25387000  0.00911000  0.49795000  1.0 0.7758694101
Cu  Cu13  1  0.75387000  0.00911000  0.00205000  1.0 0.7758694101
Cu  Cu14  1  0.75387000  0.49089000  0.49795000  1.0 0.7758694101
Cu  Cu15  1  0.74613000  0.50911000  0.99795000  1.0 0.7758694101
Cu  Cu16  1  0.74613000  0.99089000  0.50205000  1.0 0.7758694101
Cu  Cu17  1  0.03999000  0.23856000  0.28367000  1.0 0.8028023574
Cu  Cu18  1  0.03999000  0.26144000  0.21633000  1.0 0.8028023574
Cu  Cu19  1  0.46001000  0.73856000  0.71633000  1.0 0.8028023574
Cu  Cu20  1  0.46001000  0.76144000  0.78367000  1.0 0.8028023574
Cu  Cu21  1  0.96001000  0.76144000  0.71633000  1.0 0.8028023574
Cu  Cu22  1  0.96001000  0.73856000  0.78367000  1.0 0.8028023574
Cu  Cu23  1  0.53999000  0.26144000  0.28367000  1.0 0.8028023574
Cu  Cu24  1  0.53999000  0.23856000  0.21633000  1.0 0.8028023574
Cu  Cu25  1  0.03072000  0.28340000  0.76109000  1.0 0.844222616
Cu  Cu26  1  0.03072000  0.21660000  0.73891000  1.0 0.844222616
Cu  Cu27  1  0.46928000  0.78340000  0.23891000  1.0 0.844222616
Cu  Cu28  1  0.46928000  0.71660000  0.26109000  1.0 0.844222616
Cu  Cu29  1  0.96928000  0.71660000  0.23891000  1.0 0.844222616
Cu  Cu30  1  0.96928000  0.78340000  0.26109000  1.0 0.844222616
Cu  Cu31  1  0.53072000  0.21660000  0.76109000  1.0 0.844222616
Cu  Cu32  1  0.53072000  0.28340000  0.73891000  1.0 0.844222616
H  H1  1  0.28730000  0.11640000  0.24870000  1.0 0.1455718885
H  H2  1  0.28730000  0.38360000  0.25130000  1.0 0.1455718885
H  H3  1  0.21270000  0.61640000  0.75130000  1.0 0.1455718885
H  H4  1  0.21270000  0.88360000  0.74870000  1.0 0.1455718885
H  H5  1  0.71270000  0.88360000  0.75130000  1.0 0.1455718885
H  H6  1  0.71270000  0.61640000  0.74870000  1.0 0.1455718885
H  H7  1  0.78730000  0.38360000  0.24870000  1.0 0.1455718885
H  H8  1  0.78730000  0.11640000  0.25130000  1.0 0.1455718885
H  H9  1  0.15680000  0.08220000  0.15790000  1.0 0.1293707361
H  H10  1  0.15680000  0.41780000  0.34210000  1.0 0.1293707361
H  H11  1  0.34320000  0.58220000  0.84210000  1.0 0.1293707361
H  H12  1  0.34320000  0.91780000  0.65790000  1.0 0.1293707361
H  H13  1  0.84320000  0.91780000  0.84210000  1.0 0.1293707361
H  H14  1  0.84320000  0.58220000  0.65790000  1.0 0.1293707361
H  H15  1  0.65680000  0.41780000  0.15790000  1.0 0.1293707361
H  H16  1  0.65680000  0.08220000  0.34210000  1.0 0.1293707361
H  H17  1  0.14730000  0.05560000  0.10350000  1.0 0.1293707361
H  H18  1  0.14730000  0.44440000  0.39650000  1.0 0.1293707361
H  H19  1  0.35270000  0.55560000  0.89650000  1.0 0.1293707361
H  H20  1  0.35270000  0.94440000  0.60350000  1.0 0.1293707361
H  H21  1  0.85270000  0.94440000  0.89650000  1.0 0.1293707361
H  H22  1  0.85270000  0.55560000  0.60350000  1.0 0.1293707361
H  H23  1  0.64730000  0.44440000  0.10350000  1.0 0.1293707361
H  H24  1  0.64730000  0.05560000  0.39650000  1.0 0.1293707361
H  H25  1  0.14130000  0.09970000  0.94530000  1.0 0.1293707361
H  H26  1  0.14130000  0.40030000  0.55470000  1.0 0.1293707361
H  H27  1  0.35870000  0.59970000  0.05470000  1.0 0.1293707361
H  H28  1  0.35870000  0.90030000  0.44530000  1.0 0.1293707361
H  H29  1  0.85870000  0.90030000  0.05470000  1.0 0.1293707361
H  H30  1  0.85870000  0.59970000  0.44530000  1.0 0.1293707361
H  H31  1  0.64130000  0.40030000  0.94530000  1.0 0.1293707361
H  H32  1  0.64130000  0.09970000  0.55470000  1.0 0.1293707361
H  H33  1  0.14610000  0.15750000  0.92360000  1.0 0.1293707361
H  H34  1  0.14610000  0.34250000  0.57640000  1.0 0.1293707361
H  H35  1  0.35390000  0.65750000  0.07640000  1.0 0.1293707361
H  H36  1  0.35390000  0.84250000  0.42360000  1.0 0.1293707361
H  H37  1  0.85390000  0.84250000  0.07640000  1.0 0.1293707361
H  H38  1  0.85390000  0.65750000  0.42360000  1.0 0.1293707361
H  H39  1  0.64610000  0.34250000  0.92360000  1.0 0.1293707361
H  H40  1  0.64610000  0.15750000  0.57640000  1.0 0.1293707361
H  H41  1  0.27900000  0.24610000  0.88390000  1.0 0.1455718885
H  H42  1  0.27900000  0.25390000  0.61610000  1.0 0.1455718885
H  H43  1  0.22100000  0.74610000  0.11610000  1.0 0.1375438604
H  H44  1  0.22100000  0.75390000  0.38390000  1.0 0.1455718885
H  H45  1  0.72100000  0.75390000  0.11610000  1.0 0.1375438604
H  H46  1  0.72100000  0.74610000  0.38390000  1.0 0.1375438604
H  H47  1  0.77900000  0.25390000  0.88390000  1.0 0.1455718885
H  H48  1  0.77900000  0.24610000  0.61610000  1.0 0.1455718885
H  H49  1  0.32750000  0.28520000  0.97690000  1.0 0.1375438604
H  H50  1  0.32750000  0.21480000  0.52310000  1.0 0.1375438604
H  H51  1  0.17250000  0.78520000  0.02310000  1.0 0.1375438604
H  H52  1  0.17250000  0.71480000  0.47690000  1.0 0.1375438604
H  H53  1  0.67250000  0.71480000  0.02310000  1.0 0.1375438604
H  H54  1  0.67250000  0.78520000  0.47690000  1.0 0.1375438604
H  H55  1  0.82750000  0.21480000  0.97690000  1.0 0.1375438604
H  H56  1  0.82750000  0.28520000  0.52310000  1.0 0.1375438604
H  H57  1  0.28750000  0.24070000  0.00670000  1.0 0.1113215066
H  H58  1  0.28750000  0.25930000  0.49330000  1.0 0.1113215066
H  H59  1  0.21250000  0.74070000  0.99330000  1.0 0.1113215066
H  H60  1  0.21250000  0.75930000  0.50670000  1.0 0.1113215066
H  H61  1  0.71250000  0.75930000  0.99330000  1.0 0.1113215066
H  H62  1  0.71250000  0.74070000  0.50670000  1.0 0.1113215066
H  H63  1  0.78750000  0.25930000  0.00670000  1.0 0.1113215066
H  H64  1  0.78750000  0.24070000  0.49330000  1.0 0.1113215066
H  H65  1  0.23700000  0.20140000  0.97550000  1.0 0.1293707361
H  H66  1  0.23700000  0.29860000  0.52450000  1.0 0.1293707361
H  H67  1  0.26300000  0.70140000  0.02450000  1.0 0.1293707361
H  H68  1  0.26300000  0.79860000  0.47550000  1.0 0.1293707361
H  H69  1  0.76300000  0.79860000  0.02450000  1.0 0.1293707361
H  H70  1  0.76300000  0.70140000  0.47550000  1.0 0.1293707361
H  H71  1  0.73700000  0.29860000  0.97550000  1.0 0.1293707361
H  H72  1  0.73700000  0.20140000  0.52450000  1.0 0.1293707361
H  H73  1  0.18010000  0.25360000  0.89730000  1.0 0.1293707361
H  H74  1  0.18010000  0.24640000  0.60270000  1.0 0.1293707361
H  H75  1  0.31990000  0.75360000  0.10270000  1.0 0.1293707361
H  H76  1  0.31990000  0.74640000  0.39730000  1.0 0.1293707361
H  H77  1  0.81990000  0.74640000  0.10270000  1.0 0.1293707361
H  H78  1  0.81990000  0.75360000  0.39730000  1.0 0.1293707361
H  H79  1  0.68010000  0.24640000  0.89730000  1.0 0.1293707361
H  H80  1  0.68010000  0.25360000  0.60270000  1.0 0.1293707361
H  H81  1  0.12890000  0.27160000  0.85200000  1.0 0.1293707361
H  H82  1  0.12890000  0.22840000  0.64800000  1.0 0.1293707361
H  H83  1  0.37110000  0.77160000  0.14800000  1.0 0.1293707361
H  H84  1  0.37110000  0.72840000  0.35200000  1.0 0.1231216579
H  H85  1  0.87110000  0.72840000  0.14800000  1.0 0.1231216579
H  H86  1  0.87110000  0.77160000  0.35200000  1.0 0.1231216579
H  H87  1  0.62890000  0.22840000  0.85200000  1.0 0.1231216579
H  H88  1  0.62890000  0.27160000  0.64800000  1.0 0.1231216579
H  H89  1  0.14310000  0.17350000  0.80740000  1.0 0.1293707361
H  H90  1  0.14310000  0.32650000  0.69260000  1.0 0.1293707361
H  H91  1  0.35690000  0.67350000  0.19260000  1.0 0.1293707361
H  H92  1  0.35690000  0.82650000  0.30740000  1.0 0.1293707361
H  H93  1  0.85690000  0.82650000  0.19260000  1.0 0.1293707361
H  H94  1  0.85690000  0.67350000  0.30740000  1.0 0.1293707361
H  H95  1  0.64310000  0.32650000  0.80740000  1.0 0.1293707361
H  H96  1  0.64310000  0.17350000  0.69260000  1.0 0.1293707361
H  H97  1  0.19690000  0.15780000  0.85280000  1.0 0.1293707361
H  H98  1  0.19690000  0.34220000  0.64720000  1.0 0.1293707361
H  H99  1  0.30310000  0.65780000  0.14720000  1.0 0.1293707361
H  H100  1  0.30310000  0.84220000  0.35280000  1.0 0.1293707361
H  H101  1  0.80310000  0.84220000  0.14720000  1.0 0.1293707361
H  H102  1  0.80310000  0.65780000  0.35280000  1.0 0.1293707361
H  H103  1  0.69690000  0.34220000  0.85280000  1.0 0.1293707361
H  H104  1  0.69690000  0.15780000  0.64720000  1.0 0.1293707361
H  H105  1  0.29270000  0.14950000  0.92670000  1.0 0.1293707361
H  H106  1  0.29270000  0.35050000  0.57330000  1.0 0.1293707361
H  H107  1  0.20730000  0.64950000  0.07330000  1.0 0.1293707361
H  H108  1  0.20730000  0.85050000  0.42670000  1.0 0.1293707361
H  H109  1  0.70730000  0.85050000  0.07330000  1.0 0.1293707361
H  H110  1  0.70730000  0.64950000  0.42670000  1.0 0.1293707361
H  H111  1  0.79270000  0.35050000  0.92670000  1.0 0.1293707361
H  H112  1  0.79270000  0.14950000  0.57330000  1.0 0.1293707361
H  H113  1  0.28570000  0.09340000  0.95180000  1.0 0.1293707361
H  H114  1  0.28570000  0.40660000  0.54820000  1.0 0.1293707361
H  H115  1  0.21430000  0.59340000  0.04820000  1.0 0.1293707361
H  H116  1  0.21430000  0.90660000  0.45180000  1.0 0.1293707361
H  H117  1  0.71430000  0.90660000  0.04820000  1.0 0.1293707361
H  H118  1  0.71430000  0.59340000  0.45180000  1.0 0.1293707361
H  H119  1  0.78570000  0.40660000  0.95180000  1.0 0.1293707361
H  H120  1  0.78570000  0.09340000  0.54820000  1.0 0.1293707361
H  H121  1  0.39190000  0.40240000  0.94310000  1.0 0.1293707361
H  H122  1  0.39190000  0.09760000  0.55690000  1.0 0.1293707361
H  H123  1  0.10810000  0.90240000  0.05690000  1.0 0.1293707361
H  H124  1  0.10810000  0.59760000  0.44310000  1.0 0.1293707361
H  H125  1  0.60810000  0.59760000  0.05690000  1.0 0.1293707361
H  H126  1  0.60810000  0.90240000  0.44310000  1.0 0.1293707361
H  H127  1  0.89190000  0.09760000  0.94310000  1.0 0.1293707361
H  H128  1  0.89190000  0.40240000  0.55690000  1.0 0.1293707361
H  H129  1  0.39940000  0.34570000  0.92000000  1.0 0.1293707361
H  H130  1  0.39940000  0.15430000  0.58000000  1.0 0.1293707361
H  H131  1  0.10060000  0.84570000  0.08000000  1.0 0.1293707361
H  H132  1  0.10060000  0.65430000  0.42000000  1.0 0.1293707361
H  H133  1  0.60060000  0.65430000  0.08000000  1.0 0.1293707361
H  H134  1  0.60060000  0.84570000  0.42000000  1.0 0.1293707361
H  H135  1  0.89940000  0.15430000  0.92000000  1.0 0.1293707361
H  H136  1  0.89940000  0.34570000  0.58000000  1.0 0.1293707361
H  H137  1  0.25490000  0.33140000  0.92960000  1.0 0.1293707361
H  H138  1  0.25490000  0.16860000  0.57040000  1.0 0.1293707361
H  H139  1  0.24510000  0.83140000  0.07040000  1.0 0.1293707361
H  H140  1  0.24510000  0.66860000  0.42960000  1.0 0.1293707361
H  H141  1  0.74510000  0.66860000  0.07040000  1.0 0.1293707361
H  H142  1  0.74510000  0.83140000  0.42960000  1.0 0.1293707361
H  H143  1  0.75490000  0.16860000  0.92960000  1.0 0.1293707361
H  H144  1  0.75490000  0.33140000  0.57040000  1.0 0.1293707361
H  H145  1  0.24660000  0.38760000  0.95230000  1.0 0.1293707361
H  H146  1  0.24660000  0.11240000  0.54770000  1.0 0.1293707361
H  H147  1  0.25340000  0.88760000  0.04770000  1.0 0.1293707361
H  H148  1  0.25340000  0.61240000  0.45230000  1.0 0.1293707361
H  H149  1  0.75340000  0.61240000  0.04770000  1.0 0.1293707361
H  H150  1  0.75340000  0.88760000  0.45230000  1.0 0.1293707361
H  H151  1  0.74660000  0.11240000  0.95230000  1.0 0.1293707361
H  H152  1  0.74660000  0.38760000  0.54770000  1.0 0.1293707361
H  H153  1  0.38090000  0.23920000  0.89540000  1.0 0.1293707361
H  H154  1  0.38090000  0.26080000  0.60460000  1.0 0.1293707361
H  H155  1  0.11910000  0.73920000  0.10460000  1.0 0.1293707361
H  H156  1  0.11910000  0.76080000  0.39540000  1.0 0.1293707361
H  H157  1  0.61910000  0.76080000  0.10460000  1.0 0.1293707361
H  H158  1  0.61910000  0.73920000  0.39540000  1.0 0.1293707361
H  H159  1  0.88090000  0.26080000  0.89540000  1.0 0.1293707361
H  H160  1  0.88090000  0.23920000  0.60460000  1.0 0.1293707361
H  H161  1  0.43110000  0.22430000  0.85200000  1.0 0.1293707361
H  H162  1  0.43110000  0.27570000  0.64800000  1.0 0.1293707361
H  H163  1  0.06890000  0.72430000  0.14800000  1.0 0.1293707361
H  H164  1  0.06890000  0.77570000  0.35200000  1.0 0.1293707361
H  H165  1  0.56890000  0.77570000  0.14800000  1.0 0.1293707361
H  H166  1  0.56890000  0.72430000  0.35200000  1.0 0.1293707361
H  H167  1  0.93110000  0.27570000  0.85200000  1.0 0.1293707361
H  H168  1  0.93110000  0.22430000  0.64800000  1.0 0.1293707361
H  H169  1  0.41610000  0.32340000  0.80970000  1.0 0.1293707361
H  H170  1  0.41610000  0.17660000  0.69030000  1.0 0.1293707361
H  H171  1  0.08390000  0.82340000  0.19030000  1.0 0.1293707361
H  H172  1  0.08390000  0.67660000  0.30970000  1.0 0.1293707361
H  H173  1  0.58390000  0.67660000  0.19030000  1.0 0.1293707361
H  H174  1  0.58390000  0.82340000  0.30970000  1.0 0.1293707361
H  H175  1  0.91610000  0.17660000  0.80970000  1.0 0.1293707361
H  H176  1  0.91610000  0.32340000  0.69030000  1.0 0.1293707361
H  H177  1  0.35880000  0.33590000  0.85410000  1.0 0.1293707361
H  H178  1  0.35880000  0.16410000  0.64590000  1.0 0.1293707361
H  H179  1  0.14120000  0.83590000  0.14590000  1.0 0.1293707361
H  H180  1  0.14120000  0.66410000  0.35410000  1.0 0.1293707361
H  H181  1  0.64120000  0.66410000  0.14590000  1.0 0.1293707361
H  H182  1  0.64120000  0.83590000  0.35410000  1.0 0.1293707361
H  H183  1  0.85880000  0.16410000  0.85410000  1.0 0.1293707361
H  H184  1  0.85880000  0.33590000  0.64590000  1.0 0.1293707361
H  H185  1  0.29300000  0.04120000  0.09760000  1.0 0.1231216579
H  H186  1  0.29300000  0.45880000  0.40240000  1.0 0.1231216579
H  H187  1  0.20700000  0.54120000  0.90240000  1.0 0.1231216579
H  H188  1  0.20700000  0.95880000  0.59760000  1.0 0.1231216579
H  H189  1  0.70700000  0.95880000  0.90240000  1.0 0.1231216579
H  H190  1  0.70700000  0.54120000  0.59760000  1.0 0.1231216579
H  H191  1  0.79300000  0.45880000  0.09760000  1.0 0.1231216579
H  H192  1  0.79300000  0.04120000  0.40240000  1.0 0.1231216579
H  H193  1  0.30120000  0.06720000  0.15370000  1.0 0.1293707361
H  H194  1  0.30120000  0.43280000  0.34630000  1.0 0.1293707361
H  H195  1  0.19880000  0.56720000  0.84630000  1.0 0.1293707361
H  H196  1  0.19880000  0.93280000  0.65370000  1.0 0.1293707361
H  H197  1  0.69880000  0.93280000  0.84630000  1.0 0.1293707361
H  H198  1  0.69880000  0.56720000  0.65370000  1.0 0.1293707361
H  H199  1  0.80120000  0.43280000  0.15370000  1.0 0.1293707361
H  H200  1  0.80120000  0.06720000  0.34630000  1.0 0.1293707361
H  H201  1  0.20870000  0.14790000  0.16100000  1.0 0.1293707361
H  H202  1  0.20870000  0.35210000  0.33900000  1.0 0.1293707361
H  H203  1  0.29130000  0.64790000  0.83900000  1.0 0.1293707361
H  H204  1  0.29130000  0.85210000  0.66100000  1.0 0.1293707361
H  H205  1  0.79130000  0.85210000  0.83900000  1.0 0.1293707361
H  H206  1  0.79130000  0.64790000  0.66100000  1.0 0.1293707361
H  H207  1  0.70870000  0.35210000  0.16100000  1.0 0.1293707361
H  H208  1  0.70870000  0.14790000  0.33900000  1.0 0.1293707361
H  H209  1  0.15500000  0.19240000  0.17650000  1.0 0.1293707361
H  H210  1  0.15500000  0.30760000  0.32350000  1.0 0.1293707361
H  H211  1  0.34500000  0.69240000  0.82350000  1.0 0.1293707361
H  H212  1  0.34500000  0.80760000  0.67650000  1.0 0.1293707361
H  H213  1  0.84500000  0.80760000  0.82350000  1.0 0.1293707361
H  H214  1  0.84500000  0.69240000  0.67650000  1.0 0.1293707361
H  H215  1  0.65500000  0.30760000  0.17650000  1.0 0.1293707361
H  H216  1  0.65500000  0.19240000  0.32350000  1.0 0.1293707361
H  H217  1  0.13830000  0.14910000  0.27220000  1.0 0.1293707361
H  H218  1  0.13830000  0.35090000  0.22780000  1.0 0.1293707361
H  H219  1  0.36170000  0.64910000  0.72780000  1.0 0.1293707361
H  H220  1  0.36170000  0.85090000  0.77220000  1.0 0.1293707361
H  H221  1  0.86170000  0.85090000  0.72780000  1.0 0.1293707361
H  H222  1  0.86170000  0.64910000  0.77220000  1.0 0.1293707361
H  H223  1  0.63830000  0.35090000  0.27220000  1.0 0.1293707361
H  H224  1  0.63830000  0.14910000  0.22780000  1.0 0.1293707361
H  H225  1  0.18690000  0.10230000  0.25680000  1.0 0.1293707361
H  H226  1  0.18690000  0.39770000  0.24320000  1.0 0.1293707361
H  H227  1  0.31310000  0.60230000  0.74320000  1.0 0.1293707361
H  H228  1  0.31310000  0.89770000  0.75680000  1.0 0.1293707361
H  H229  1  0.81310000  0.89770000  0.74320000  1.0 0.1293707361
H  H230  1  0.81310000  0.60230000  0.75680000  1.0 0.1293707361
H  H231  1  0.68690000  0.39770000  0.25680000  1.0 0.1293707361
H  H232  1  0.68690000  0.10230000  0.24320000  1.0 0.1293707361
H  H233  1  0.24910000  0.02340000  0.20570000  1.0 0.1293707361
H  H234  1  0.24910000  0.47660000  0.29430000  1.0 0.1293707361
H  H235  1  0.25090000  0.52340000  0.79430000  1.0 0.1293707361
H  H236  1  0.25090000  0.97660000  0.70570000  1.0 0.1293707361
H  H237  1  0.75090000  0.97660000  0.79430000  1.0 0.1293707361
H  H238  1  0.75090000  0.52340000  0.70570000  1.0 0.1293707361
H  H239  1  0.74910000  0.47660000  0.20570000  1.0 0.1293707361
H  H240  1  0.74910000  0.02340000  0.29430000  1.0 0.1293707361
H  H241  1  0.29190000  0.99410000  0.25020000  1.0 0.1113215066
H  H242  1  0.29190000  0.50590000  0.24980000  1.0 0.1113215066
H  H243  1  0.20810000  0.49410000  0.74980000  1.0 0.1113215066
H  H244  1  0.20810000  0.00590000  0.75020000  1.0 0.1113215066
H  H245  1  0.70810000  0.00590000  0.74980000  1.0 0.1113215066
H  H246  1  0.70810000  0.49410000  0.75020000  1.0 0.1113215066
H  H247  1  0.79190000  0.50590000  0.25020000  1.0 0.1113215066
H  H248  1  0.79190000  0.99410000  0.24980000  1.0 0.1113215066
H  H249  1  0.33490000  0.02440000  0.29150000  1.0 0.1375438604
H  H250  1  0.33490000  0.47560000  0.20850000  1.0 0.1375438604
H  H251  1  0.16510000  0.52440000  0.70850000  1.0 0.1375438604
H  H252  1  0.16510000  0.97560000  0.79150000  1.0 0.1375438604
H  H253  1  0.66510000  0.97560000  0.70850000  1.0 0.1375438604
H  H254  1  0.66510000  0.52440000  0.79150000  1.0 0.1375438604
H  H255  1  0.83490000  0.47560000  0.29150000  1.0 0.1375438604
H  H256  1  0.83490000  0.02440000  0.20850000  1.0 0.1375438604
H  H257  1  0.26220000  0.07920000  0.33740000  1.0 0.1293707361
H  H258  1  0.26220000  0.42080000  0.16260000  1.0 0.1293707361
H  H259  1  0.23780000  0.57920000  0.66260000  1.0 0.1293707361
H  H260  1  0.23780000  0.92080000  0.83740000  1.0 0.1293707361
H  H261  1  0.73780000  0.92080000  0.66260000  1.0 0.1293707361
H  H262  1  0.73780000  0.57920000  0.83740000  1.0 0.1293707361
H  H263  1  0.76220000  0.42080000  0.33740000  1.0 0.1293707361
H  H264  1  0.76220000  0.07920000  0.16260000  1.0 0.1293707361
H  H265  1  0.25240000  0.05330000  0.39290000  1.0 0.1231216579
H  H266  1  0.25240000  0.44670000  0.10710000  1.0 0.1231216579
H  H267  1  0.24760000  0.55330000  0.60710000  1.0 0.1231216579
H  H268  1  0.24760000  0.94670000  0.89290000  1.0 0.1231216579
H  H269  1  0.74760000  0.94670000  0.60710000  1.0 0.1231216579
H  H270  1  0.74760000  0.55330000  0.89290000  1.0 0.1231216579
H  H271  1  0.75240000  0.44670000  0.39290000  1.0 0.1231216579
H  H272  1  0.75240000  0.05330000  0.10710000  1.0 0.1231216579
H  H273  1  0.39910000  0.05440000  0.40660000  1.0 0.1293707361
H  H274  1  0.39910000  0.44560000  0.09340000  1.0 0.1293707361
H  H275  1  0.10090000  0.55440000  0.59340000  1.0 0.1231216579
H  H276  1  0.10090000  0.94560000  0.90660000  1.0 0.1231216579
H  H277  1  0.60090000  0.94560000  0.59340000  1.0 0.1231216579
H  H278  1  0.60090000  0.55440000  0.90660000  1.0 0.1231216579
H  H279  1  0.89910000  0.44560000  0.40660000  1.0 0.1231216579
H  H280  1  0.89910000  0.05440000  0.09340000  1.0 0.1231216579
H  H281  1  0.40830000  0.08030000  0.35010000  1.0 0.1293707361
H  H282  1  0.40830000  0.41970000  0.14990000  1.0 0.1293707361
H  H283  1  0.09170000  0.58030000  0.64990000  1.0 0.1293707361
H  H284  1  0.09170000  0.91970000  0.85010000  1.0 0.1293707361
H  H285  1  0.59170000  0.91970000  0.64990000  1.0 0.1293707361
H  H286  1  0.59170000  0.58030000  0.85010000  1.0 0.1293707361
H  H287  1  0.90830000  0.41970000  0.35010000  1.0 0.1293707361
H  H288  1  0.90830000  0.08030000  0.14990000  1.0 0.1293707361
H  H289  1  0.37290000  0.14620000  0.34050000  1.0 0.1293707361
H  H290  1  0.37290000  0.35380000  0.15950000  1.0 0.1293707361
H  H291  1  0.12710000  0.64620000  0.65950000  1.0 0.1293707361
H  H292  1  0.12710000  0.85380000  0.84050000  1.0 0.1293707361
H  H293  1  0.62710000  0.85380000  0.65950000  1.0 0.1293707361
H  H294  1  0.62710000  0.64620000  0.84050000  1.0 0.1293707361
H  H295  1  0.87290000  0.35380000  0.34050000  1.0 0.1293707361
H  H296  1  0.87290000  0.14620000  0.15950000  1.0 0.1293707361
H  H297  1  0.42340000  0.19190000  0.32590000  1.0 0.1293707361
H  H298  1  0.42340000  0.30810000  0.17410000  1.0 0.1293707361
H  H299  1  0.07660000  0.69190000  0.67410000  1.0 0.1293707361
H  H300  1  0.07660000  0.80810000  0.82590000  1.0 0.1293707361
H  H301  1  0.57660000  0.80810000  0.67410000  1.0 0.1293707361
H  H302  1  0.57660000  0.69190000  0.82590000  1.0 0.1293707361
H  H303  1  0.92340000  0.30810000  0.32590000  1.0 0.1293707361
H  H304  1  0.92340000  0.19190000  0.17410000  1.0 0.1293707361
H  H305  1  0.44150000  0.15210000  0.22920000  1.0 0.1293707361
H  H306  1  0.44150000  0.34790000  0.27080000  1.0 0.1293707361
H  H307  1  0.05850000  0.65210000  0.77080000  1.0 0.1293707361
H  H308  1  0.05850000  0.84790000  0.72920000  1.0 0.1293707361
H  H309  1  0.55850000  0.84790000  0.77080000  1.0 0.1293707361
H  H310  1  0.55850000  0.65210000  0.72920000  1.0 0.1293707361
H  H311  1  0.94150000  0.34790000  0.22920000  1.0 0.1293707361
H  H312  1  0.94150000  0.15210000  0.27080000  1.0 0.1293707361
H  H313  1  0.39000000  0.10460000  0.24320000  1.0 0.1293707361
H  H314  1  0.39000000  0.39540000  0.25680000  1.0 0.1293707361
H  H315  1  0.11000000  0.60460000  0.75680000  1.0 0.1293707361
H  H316  1  0.11000000  0.89540000  0.74320000  1.0 0.1293707361
H  H317  1  0.61000000  0.89540000  0.75680000  1.0 0.1293707361
H  H318  1  0.61000000  0.60460000  0.74320000  1.0 0.1293707361
H  H319  1  0.89000000  0.39540000  0.24320000  1.0 0.1293707361
H  H320  1  0.89000000  0.10460000  0.25680000  1.0 0.1293707361
H  H321  1  0.36460000  0.01310000  0.01400000  1.0 0.1293707361
H  H322  1  0.36460000  0.48690000  0.48600000  1.0 0.1293707361
H  H323  1  0.13540000  0.51310000  0.98600000  1.0 0.1293707361
H  H324  1  0.13540000  0.98690000  0.51400000  1.0 0.1293707361
H  H325  1  0.63540000  0.98690000  0.98600000  1.0 0.1293707361
H  H326  1  0.63540000  0.51310000  0.51400000  1.0 0.1293707361
H  H327  1  0.86460000  0.48690000  0.01400000  1.0 0.1293707361
H  H328  1  0.86460000  0.01310000  0.48600000  1.0 0.1293707361
H  H329  1  0.40050000  0.92490000  0.95620000  1.0 0.1375438604
H  H330  1  0.40050000  0.57510000  0.54380000  1.0 0.1375438604
H  H331  1  0.09950000  0.42490000  0.04380000  1.0 0.1375438604
H  H332  1  0.09950000  0.07510000  0.45620000  1.0 0.1375438604
H  H333  1  0.59950000  0.07510000  0.04380000  1.0 0.1375438604
H  H334  1  0.59950000  0.42490000  0.45620000  1.0 0.1375438604
H  H335  1  0.90050000  0.57510000  0.95620000  1.0 0.1375438604
H  H336  1  0.90050000  0.92490000  0.54380000  1.0 0.1375438604
H  H337  1  0.30850000  0.92870000  0.95910000  1.0 0.1293707361
H  H338  1  0.30850000  0.57130000  0.54090000  1.0 0.1293707361
H  H339  1  0.19150000  0.42870000  0.04090000  1.0 0.1293707361
H  H340  1  0.19150000  0.07130000  0.45910000  1.0 0.1293707361
H  H341  1  0.69150000  0.07130000  0.04090000  1.0 0.1293707361
H  H342  1  0.69150000  0.42870000  0.45910000  1.0 0.1293707361
H  H343  1  0.80850000  0.57130000  0.95910000  1.0 0.1293707361
H  H344  1  0.80850000  0.92870000  0.54090000  1.0 0.1293707361
H  H345  1  0.09790000  0.18050000  0.33820000  1.0 0.1375438604
H  H346  1  0.09790000  0.31950000  0.16180000  1.0 0.1293707361
H  H347  1  0.40210000  0.68050000  0.66180000  1.0 0.1293707361
H  H348  1  0.40210000  0.81950000  0.83820000  1.0 0.1375438604
H  H349  1  0.90210000  0.81950000  0.66180000  1.0 0.1293707361
H  H350  1  0.90210000  0.68050000  0.83820000  1.0 0.1293707361
H  H351  1  0.59790000  0.31950000  0.33820000  1.0 0.1293707361
H  H352  1  0.59790000  0.18050000  0.16180000  1.0 0.1293707361
H  H353  1  0.99250000  0.19810000  0.41310000  1.0 0.1231216579
H  H354  1  0.99250000  0.30190000  0.08690000  1.0 0.1231216579
H  H355  1  0.50750000  0.69810000  0.58690000  1.0 0.1293707361
H  H356  1  0.50750000  0.80190000  0.91310000  1.0 0.1293707361
H  H357  1  0.00750000  0.80190000  0.58690000  1.0 0.1293707361
H  H358  1  0.00750000  0.69810000  0.91310000  1.0 0.1293707361
H  H359  1  0.49250000  0.30190000  0.41310000  1.0 0.1231216579
H  H360  1  0.49250000  0.19810000  0.08690000  1.0 0.1231216579
H  H361  1  0.97890000  0.24130000  0.36270000  1.0 0.1375438604
H  H362  1  0.97890000  0.25870000  0.13730000  1.0 0.1293707361
H  H363  1  0.52110000  0.74130000  0.63730000  1.0 0.1293707361
H  H364  1  0.52110000  0.75870000  0.86270000  1.0 0.1375438604
H  H365  1  0.02110000  0.75870000  0.63730000  1.0 0.1293707361
H  H366  1  0.02110000  0.74130000  0.86270000  1.0 0.1293707361
H  H367  1  0.47890000  0.25870000  0.36270000  1.0 0.1293707361
H  H368  1  0.47890000  0.24130000  0.13730000  1.0 0.1293707361
H  H369  1  0.48400000  0.94200000  0.98510000  1.0 0.1293707361
H  H370  1  0.48400000  0.55800000  0.51490000  1.0 0.1293707361
H  H371  1  0.01600000  0.44200000  0.01490000  1.0 0.1293707361
H  H372  1  0.01600000  0.05800000  0.48510000  1.0 0.1293707361
H  H373  1  0.51600000  0.05800000  0.01490000  1.0 0.1293707361
H  H374  1  0.51600000  0.44200000  0.48510000  1.0 0.1293707361
H  H375  1  0.98400000  0.55800000  0.98510000  1.0 0.1293707361
H  H376  1  0.98400000  0.94200000  0.51490000  1.0 0.1293707361
H  H377  1  0.43740000  0.04070000  0.00580000  1.0 0.1293707361
H  H378  1  0.43740000  0.45930000  0.49420000  1.0 0.1293707361
H  H379  1  0.06260000  0.54070000  0.99420000  1.0 0.1293707361
H  H380  1  0.06260000  0.95930000  0.50580000  1.0 0.1293707361
H  H381  1  0.56260000  0.95930000  0.99420000  1.0 0.1293707361
H  H382  1  0.56260000  0.54070000  0.50580000  1.0 0.1293707361
H  H383  1  0.93740000  0.45930000  0.00580000  1.0 0.1293707361
H  H384  1  0.93740000  0.04070000  0.49420000  1.0 0.1293707361
C  C1  1  0.31470000  0.07391000  0.27466000  1.0 0.1625602235
C  C2  1  0.31470000  0.42609000  0.22534000  1.0 0.1625602235
C  C3  1  0.18530000  0.57391000  0.72534000  1.0 0.1625602235
C  C4  1  0.18530000  0.92609000  0.77466000  1.0 0.1688310561
C  C5  1  0.68530000  0.92609000  0.72534000  1.0 0.1688310561
C  C6  1  0.68530000  0.57391000  0.77466000  1.0 0.1688310561
C  C7  1  0.81470000  0.42609000  0.27466000  1.0 0.1688310561
C  C8  1  0.81470000  0.07391000  0.22534000  1.0 0.1688310561
C  C9  1  0.28840000  0.09156000  0.24868000  1.0 -0.2542799338
C  C10  1  0.28840000  0.40844000  0.25132000  1.0 -0.2542799338
C  C11  1  0.21160000  0.59156000  0.75132000  1.0 -0.2542799338
C  C12  1  0.21160000  0.90844000  0.74868000  1.0 -0.2554951277
C  C13  1  0.71160000  0.90844000  0.75132000  1.0 -0.2542799338
C  C14  1  0.71160000  0.59156000  0.74868000  1.0 -0.2542799338
C  C15  1  0.78840000  0.40844000  0.24868000  1.0 -0.2542799338
C  C16  1  0.78840000  0.09156000  0.25132000  1.0 -0.2542799338
C  C17  1  0.26390000  0.07297000  0.22308000  1.0 0.1625602235
C  C18  1  0.26390000  0.42703000  0.27692000  1.0 0.1625602235
C  C19  1  0.23610000  0.57297000  0.77692000  1.0 0.1625602235
C  C20  1  0.23610000  0.92703000  0.72308000  1.0 0.1625602235
C  C21  1  0.73610000  0.92703000  0.77692000  1.0 0.1688310561
C  C22  1  0.73610000  0.57297000  0.72308000  1.0 0.1688310561
C  C23  1  0.76390000  0.42703000  0.22308000  1.0 0.1688310561
C  C24  1  0.76390000  0.07297000  0.27692000  1.0 0.1625602235
C  C25  1  0.22900000  0.07597000  0.16252000  1.0 0.1625602235
C  C26  1  0.22900000  0.42403000  0.33748000  1.0 0.1625602235
C  C27  1  0.27100000  0.57597000  0.83748000  1.0 0.1625602235
C  C28  1  0.27100000  0.92403000  0.66252000  1.0 0.1625602235
C  C29  1  0.77100000  0.92403000  0.83748000  1.0 0.1625602235
C  C30  1  0.77100000  0.57597000  0.66252000  1.0 0.1625602235
C  C31  1  0.72900000  0.42403000  0.16252000  1.0 0.1625602235
C  C32  1  0.72900000  0.07597000  0.33748000  1.0 0.1625602235
C  C33  1  0.18430000  0.07310000  0.14630000  1.0 -0.1894582433
C  C34  1  0.18430000  0.42690000  0.35370000  1.0 -0.1894582433
C  C35  1  0.31570000  0.57310000  0.85370000  1.0 -0.1894582433
C  C36  1  0.31570000  0.92690000  0.64630000  1.0 -0.1894582433
C  C37  1  0.81570000  0.92690000  0.85370000  1.0 -0.1894582433
C  C38  1  0.81570000  0.57310000  0.64630000  1.0 -0.1894582433
C  C39  1  0.68430000  0.42690000  0.14630000  1.0 -0.1894582433
C  C40  1  0.68430000  0.07310000  0.35370000  1.0 -0.1894582433
C  C41  1  0.17840000  0.05740000  0.11355000  1.0 -0.0722482567
C  C42  1  0.17840000  0.44260000  0.38645000  1.0 -0.0722482567
C  C43  1  0.32160000  0.55740000  0.88645000  1.0 -0.0722482567
C  C44  1  0.32160000  0.94260000  0.61355000  1.0 -0.0722482567
C  C45  1  0.82160000  0.94260000  0.88645000  1.0 -0.0722482567
C  C46  1  0.82160000  0.55740000  0.61355000  1.0 -0.0722482567
C  C47  1  0.67840000  0.44260000  0.11355000  1.0 -0.0722482567
C  C48  1  0.67840000  0.05740000  0.38645000  1.0 -0.0722482567
C  C49  1  0.21890000  0.04399000  0.09513000  1.0 -0.0722482567
C  C50  1  0.21890000  0.45601000  0.40487000  1.0 -0.0722482567
C  C51  1  0.28110000  0.54399000  0.90487000  1.0 -0.0722482567
C  C52  1  0.28110000  0.95601000  0.59513000  1.0 -0.0722482567
C  C53  1  0.78110000  0.95601000  0.90487000  1.0 -0.0722482567
C  C54  1  0.78110000  0.54399000  0.59513000  1.0 -0.0722482567
C  C55  1  0.71890000  0.45601000  0.09513000  1.0 -0.0722482567
C  C56  1  0.71890000  0.04399000  0.40487000  1.0 -0.0722482567
C  C57  1  0.21290000  0.02714000  0.06006000  1.0 0.5678337155
C  C58  1  0.21290000  0.47286000  0.43994000  1.0 0.5678337155
C  C59  1  0.28710000  0.52714000  0.93994000  1.0 0.5678337155
C  C60  1  0.28710000  0.97286000  0.56006000  1.0 0.5678337155
C  C61  1  0.78710000  0.97286000  0.93994000  1.0 0.5678337155
C  C62  1  0.78710000  0.52714000  0.56006000  1.0 0.5678337155
C  C63  1  0.71290000  0.47286000  0.06006000  1.0 0.5678337155
C  C64  1  0.71290000  0.02714000  0.43994000  1.0 0.5678337155
C  C65  1  0.20710000  0.05558000  0.96924000  1.0 0.5678337155
C  C66  1  0.20710000  0.44442000  0.53076000  1.0 0.5678337155
C  C67  1  0.29290000  0.55558000  0.03076000  1.0 0.5678337155
C  C68  1  0.29290000  0.94442000  0.46924000  1.0 0.5678337155
C  C69  1  0.79290000  0.94442000  0.03076000  1.0 0.5678337155
C  C70  1  0.79290000  0.55558000  0.46924000  1.0 0.5678337155
C  C71  1  0.70710000  0.44442000  0.96924000  1.0 0.5678337155
C  C72  1  0.70710000  0.05558000  0.53076000  1.0 0.5678337155
C  C73  1  0.21250000  0.09080000  0.95164000  1.0 -0.0595166048
C  C74  1  0.21250000  0.40920000  0.54836000  1.0 -0.0595166048
C  C75  1  0.28750000  0.59080000  0.04836000  1.0 -0.0595166048
C  C76  1  0.28750000  0.90920000  0.45164000  1.0 -0.0595166048
C  C77  1  0.78750000  0.90920000  0.04836000  1.0 -0.0595166048
C  C78  1  0.78750000  0.59080000  0.45164000  1.0 -0.0595166048
C  C79  1  0.71250000  0.40920000  0.95164000  1.0 -0.0595166048
C  C80  1  0.71250000  0.09080000  0.54836000  1.0 -0.0595166048
C  C81  1  0.17200000  0.11010000  0.94230000  1.0 -0.0722482567
C  C82  1  0.17200000  0.38990000  0.55770000  1.0 -0.0722482567
C  C83  1  0.32800000  0.61010000  0.05770000  1.0 -0.0722482567
C  C84  1  0.32800000  0.88990000  0.44230000  1.0 -0.0722482567
C  C85  1  0.82800000  0.88990000  0.05770000  1.0 -0.0722482567
C  C86  1  0.82800000  0.61010000  0.44230000  1.0 -0.0722482567
C  C87  1  0.67200000  0.38990000  0.94230000  1.0 -0.0722482567
C  C88  1  0.67200000  0.11010000  0.55770000  1.0 -0.0722482567
C  C89  1  0.17430000  0.14450000  0.92840000  1.0 -0.1894582433
C  C90  1  0.17430000  0.35550000  0.57160000  1.0 -0.1894582433
C  C91  1  0.32570000  0.64450000  0.07160000  1.0 -0.1894582433
C  C92  1  0.32570000  0.85550000  0.42840000  1.0 -0.1894582433
C  C93  1  0.82570000  0.85550000  0.07160000  1.0 -0.1894582433
C  C94  1  0.82570000  0.64450000  0.42840000  1.0 -0.1894582433
C  C95  1  0.67430000  0.35550000  0.92840000  1.0 -0.1894582433
C  C96  1  0.67430000  0.14450000  0.57160000  1.0 -0.1894582433
C  C97  1  0.22120000  0.15858000  0.92210000  1.0 0.1625602235
C  C98  1  0.22120000  0.34142000  0.57790000  1.0 0.1625602235
C  C99  1  0.27880000  0.65858000  0.07790000  1.0 0.1625602235
C  C100  1  0.27880000  0.84142000  0.42210000  1.0 0.1625602235
C  C101  1  0.77880000  0.84142000  0.07790000  1.0 0.1625602235
C  C102  1  0.77880000  0.65858000  0.42210000  1.0 0.1625602235
C  C103  1  0.72120000  0.34142000  0.92210000  1.0 0.1625602235
C  C104  1  0.72120000  0.15858000  0.57790000  1.0 0.1625602235
C  C105  1  0.25340000  0.21886000  0.92700000  1.0 0.1819780887
C  C106  1  0.25340000  0.28114000  0.57300000  1.0 0.1819780887
C  C107  1  0.24660000  0.71886000  0.07300000  1.0 0.1819780887
C  C108  1  0.24660000  0.78114000  0.42700000  1.0 0.1819780887
C  C109  1  0.74660000  0.78114000  0.07300000  1.0 0.1819780887
C  C110  1  0.74660000  0.71886000  0.42700000  1.0 0.1819780887
C  C111  1  0.75340000  0.28114000  0.92700000  1.0 0.1819780887
C  C112  1  0.75340000  0.21886000  0.57300000  1.0 0.1819780887
C  C113  1  0.27970000  0.24538000  0.90870000  1.0 -0.2779915076
C  C114  1  0.27970000  0.25462000  0.59130000  1.0 -0.2779915076
C  C115  1  0.22030000  0.74538000  0.09130000  1.0 -0.2779915076
C  C116  1  0.22030000  0.75462000  0.40870000  1.0 -0.2779915076
C  C117  1  0.72030000  0.75462000  0.09130000  1.0 -0.2779915076
C  C118  1  0.72030000  0.74538000  0.40870000  1.0 -0.2779915076
C  C119  1  0.77970000  0.25462000  0.90870000  1.0 -0.2779915076
C  C120  1  0.77970000  0.24538000  0.59130000  1.0 -0.2779915076
C  C121  1  0.30630000  0.27000000  0.92720000  1.0 0.1688310561
C  C122  1  0.30630000  0.23000000  0.57280000  1.0 0.1688310561
C  C123  1  0.19370000  0.77000000  0.07280000  1.0 0.1688310561
C  C124  1  0.19370000  0.73000000  0.42720000  1.0 0.1688310561
C  C125  1  0.69370000  0.73000000  0.07280000  1.0 0.1688310561
C  C126  1  0.69370000  0.77000000  0.42720000  1.0 0.1688310561
C  C127  1  0.80630000  0.23000000  0.92720000  1.0 0.1688310561
C  C128  1  0.80630000  0.27000000  0.57280000  1.0 0.1688310561
C  C129  1  0.30910000  0.26850000  0.96440000  1.0 -0.199549989
C  C130  1  0.30910000  0.23150000  0.53560000  1.0 -0.199549989
C  C131  1  0.19090000  0.76850000  0.03560000  1.0 -0.199549989
C  C132  1  0.19090000  0.73150000  0.46440000  1.0 -0.199549989
C  C133  1  0.69090000  0.73150000  0.03560000  1.0 -0.199549989
C  C134  1  0.69090000  0.76850000  0.46440000  1.0 -0.199549989
C  C135  1  0.80910000  0.23150000  0.96440000  1.0 -0.199549989
C  C136  1  0.80910000  0.26850000  0.53560000  1.0 -0.199549989
C  C137  1  0.28480000  0.24250000  0.98200000  1.0 -0.0595166048
C  C138  1  0.28480000  0.25750000  0.51800000  1.0 -0.0595166048
C  C139  1  0.21520000  0.74250000  0.01800000  1.0 -0.0595166048
C  C140  1  0.21520000  0.75750000  0.48200000  1.0 -0.0595166048
C  C141  1  0.71520000  0.75750000  0.01800000  1.0 -0.0595166048
C  C142  1  0.71520000  0.74250000  0.48200000  1.0 -0.0595166048
C  C143  1  0.78480000  0.25750000  0.98200000  1.0 -0.0595166048
C  C144  1  0.78480000  0.24250000  0.51800000  1.0 -0.0595166048
C  C145  1  0.25540000  0.21820000  0.96300000  1.0 -0.212830379
C  C146  1  0.25540000  0.28180000  0.53700000  1.0 -0.212830379
C  C147  1  0.24460000  0.71820000  0.03700000  1.0 -0.212830379
C  C148  1  0.24460000  0.78180000  0.46300000  1.0 -0.212830379
C  C149  1  0.74460000  0.78180000  0.03700000  1.0 -0.212830379
C  C150  1  0.74460000  0.71820000  0.46300000  1.0 -0.212830379
C  C151  1  0.75540000  0.28180000  0.96300000  1.0 -0.212830379
C  C152  1  0.75540000  0.21820000  0.53700000  1.0 -0.212830379
C  C153  1  0.19330000  0.20430000  0.88020000  1.0 0.1625602235
C  C154  1  0.19330000  0.29570000  0.61980000  1.0 0.1688310561
C  C155  1  0.30670000  0.70430000  0.11980000  1.0 0.1625602235
C  C156  1  0.30670000  0.79570000  0.38020000  1.0 0.1625602235
C  C157  1  0.80670000  0.79570000  0.11980000  1.0 0.1625602235
C  C158  1  0.80670000  0.70430000  0.38020000  1.0 0.1625602235
C  C159  1  0.69330000  0.29570000  0.88020000  1.0 0.1688310561
C  C160  1  0.69330000  0.20430000  0.61980000  1.0 0.1625602235
C  C161  1  0.17280000  0.23760000  0.87900000  1.0 -0.199549989
C  C162  1  0.17280000  0.26240000  0.62100000  1.0 -0.199549989
C  C163  1  0.32720000  0.73760000  0.12100000  1.0 -0.199549989
C  C164  1  0.32720000  0.76240000  0.37900000  1.0 -0.199549989
C  C165  1  0.82720000  0.76240000  0.12100000  1.0 -0.199549989
C  C166  1  0.82720000  0.73760000  0.37900000  1.0 -0.199549989
C  C167  1  0.67280000  0.26240000  0.87900000  1.0 -0.199549989
C  C168  1  0.67280000  0.23760000  0.62100000  1.0 -0.199549989
C  C169  1  0.14200000  0.24870000  0.85210000  1.0 -0.0799284601
C  C170  1  0.14200000  0.25130000  0.64790000  1.0 -0.0799284601
C  C171  1  0.35800000  0.74870000  0.14790000  1.0 -0.0799284601
C  C172  1  0.35800000  0.75130000  0.35210000  1.0 -0.0799284601
C  C173  1  0.85800000  0.75130000  0.14790000  1.0 -0.0799284601
C  C174  1  0.85800000  0.74870000  0.35210000  1.0 -0.0799284601
C  C175  1  0.64200000  0.25130000  0.85210000  1.0 -0.0722482567
C  C176  1  0.64200000  0.24870000  0.64790000  1.0 -0.0722482567
C  C177  1  0.13060000  0.22400000  0.82400000  1.0 -0.0502284013
C  C178  1  0.13060000  0.27600000  0.67600000  1.0 -0.0502284013
C  C179  1  0.36940000  0.72400000  0.17600000  1.0 -0.0502284013
C  C180  1  0.36940000  0.77600000  0.32400000  1.0 -0.0502284013
C  C181  1  0.86940000  0.77600000  0.17600000  1.0 -0.0502284013
C  C182  1  0.86940000  0.72400000  0.32400000  1.0 -0.0502284013
C  C183  1  0.63060000  0.27600000  0.82400000  1.0 -0.0502284013
C  C184  1  0.63060000  0.22400000  0.67600000  1.0 -0.0502284013
C  C185  1  0.09570000  0.23580000  0.79580000  1.0 0.5678337155
C  C186  1  0.09570000  0.26420000  0.70420000  1.0 0.5639619503
C  C187  1  0.40430000  0.73580000  0.20420000  1.0 0.5639619503
C  C188  1  0.40430000  0.76420000  0.29580000  1.0 0.5639619503
C  C189  1  0.90430000  0.76420000  0.20420000  1.0 0.5639619503
C  C190  1  0.90430000  0.73580000  0.29580000  1.0 0.5639619503
C  C191  1  0.59570000  0.26420000  0.79580000  1.0 0.5639619503
C  C192  1  0.59570000  0.23580000  0.70420000  1.0 0.5678337155
C  C193  1  0.15080000  0.18990000  0.82510000  1.0 -0.0722482567
C  C194  1  0.15080000  0.31010000  0.67490000  1.0 -0.0799284601
C  C195  1  0.34920000  0.68990000  0.17490000  1.0 -0.0722482567
C  C196  1  0.34920000  0.81010000  0.32510000  1.0 -0.0799284601
C  C197  1  0.84920000  0.81010000  0.17490000  1.0 -0.0799284601
C  C198  1  0.84920000  0.68990000  0.32510000  1.0 -0.0799284601
C  C199  1  0.65080000  0.31010000  0.82510000  1.0 -0.0799284601
C  C200  1  0.65080000  0.18990000  0.67490000  1.0 -0.0722482567
C  C201  1  0.18270000  0.18030000  0.85270000  1.0 -0.199549989
C  C202  1  0.18270000  0.31970000  0.64730000  1.0 -0.199549989
C  C203  1  0.31730000  0.68030000  0.14730000  1.0 -0.199549989
C  C204  1  0.31730000  0.81970000  0.35270000  1.0 -0.199549989
C  C205  1  0.81730000  0.81970000  0.14730000  1.0 -0.199549989
C  C206  1  0.81730000  0.68030000  0.35270000  1.0 -0.199549989
C  C207  1  0.68270000  0.31970000  0.85270000  1.0 -0.199549989
C  C208  1  0.68270000  0.18030000  0.64730000  1.0 -0.199549989
C  C209  1  0.26180000  0.13975000  0.93070000  1.0 -0.1894582433
C  C210  1  0.26180000  0.36025000  0.56930000  1.0 -0.1894582433
C  C211  1  0.23820000  0.63975000  0.06930000  1.0 -0.1894582433
C  C212  1  0.23820000  0.86025000  0.43070000  1.0 -0.1894582433
C  C213  1  0.73820000  0.86025000  0.06930000  1.0 -0.1894582433
C  C214  1  0.73820000  0.63975000  0.43070000  1.0 -0.1894582433
C  C215  1  0.76180000  0.36025000  0.93070000  1.0 -0.1894582433
C  C216  1  0.76180000  0.13975000  0.56930000  1.0 -0.1792710382
C  C217  1  0.25750000  0.10594000  0.94570000  1.0 -0.0799284601
C  C218  1  0.25750000  0.39406000  0.55430000  1.0 -0.0799284601
C  C219  1  0.24250000  0.60594000  0.05430000  1.0 -0.0799284601
C  C220  1  0.24250000  0.89406000  0.44570000  1.0 -0.0799284601
C  C221  1  0.74250000  0.89406000  0.05430000  1.0 -0.0799284601
C  C222  1  0.74250000  0.60594000  0.44570000  1.0 -0.0799284601
C  C223  1  0.75750000  0.39406000  0.94570000  1.0 -0.0799284601
C  C224  1  0.75750000  0.10594000  0.55430000  1.0 -0.0799284601
C  C225  1  0.31350000  0.43655000  0.96824000  1.0 0.5678337155
C  C226  1  0.31350000  0.06345000  0.53176000  1.0 0.5678337155
C  C227  1  0.18650000  0.93655000  0.03176000  1.0 0.5678337155
C  C228  1  0.18650000  0.56345000  0.46824000  1.0 0.5678337155
C  C229  1  0.68650000  0.56345000  0.03176000  1.0 0.5678337155
C  C230  1  0.68650000  0.93655000  0.46824000  1.0 0.5678337155
C  C231  1  0.81350000  0.06345000  0.96824000  1.0 0.5678337155
C  C232  1  0.81350000  0.43655000  0.53176000  1.0 0.5678337155
C  C233  1  0.31920000  0.40094000  0.95071000  1.0 -0.0446832049
C  C234  1  0.31920000  0.09906000  0.54929000  1.0 -0.0446832049
C  C235  1  0.18080000  0.90094000  0.04929000  1.0 -0.0446832049
C  C236  1  0.18080000  0.59906000  0.45071000  1.0 -0.0446832049
C  C237  1  0.68080000  0.59906000  0.04929000  1.0 -0.0446832049
C  C238  1  0.68080000  0.90094000  0.45071000  1.0 -0.0446832049
C  C239  1  0.81920000  0.09906000  0.95071000  1.0 -0.0446832049
C  C240  1  0.81920000  0.40094000  0.54929000  1.0 -0.0446832049
C  C241  1  0.36420000  0.38809000  0.94050000  1.0 -0.0799284601
C  C242  1  0.36420000  0.11191000  0.55950000  1.0 -0.0799284601
C  C243  1  0.13580000  0.88809000  0.05950000  1.0 -0.0799284601
C  C244  1  0.13580000  0.61191000  0.44050000  1.0 -0.0799284601
C  C245  1  0.63580000  0.61191000  0.05950000  1.0 -0.0799284601
C  C246  1  0.63580000  0.88809000  0.44050000  1.0 -0.0799284601
C  C247  1  0.86420000  0.11191000  0.94050000  1.0 -0.0799284601
C  C248  1  0.86420000  0.38809000  0.55950000  1.0 -0.0799284601
C  C249  1  0.36870000  0.35419000  0.92660000  1.0 -0.1894582433
C  C250  1  0.36870000  0.14581000  0.57340000  1.0 -0.1894582433
C  C251  1  0.13130000  0.85419000  0.07340000  1.0 -0.1894582433
C  C252  1  0.13130000  0.64581000  0.42660000  1.0 -0.1894582433
C  C253  1  0.63130000  0.64581000  0.07340000  1.0 -0.1894582433
C  C254  1  0.63130000  0.85419000  0.42660000  1.0 -0.1894582433
C  C255  1  0.86870000  0.14581000  0.92660000  1.0 -0.1894582433
C  C256  1  0.86870000  0.35419000  0.57340000  1.0 -0.1894582433
C  C257  1  0.32810000  0.33290000  0.92230000  1.0 0.1688310561
C  C258  1  0.32810000  0.16710000  0.57770000  1.0 0.1688310561
C  C259  1  0.17190000  0.83290000  0.07770000  1.0 0.1688310561
C  C260  1  0.17190000  0.66710000  0.42230000  1.0 0.1688310561
C  C261  1  0.67190000  0.66710000  0.07770000  1.0 0.1688310561
C  C262  1  0.67190000  0.83290000  0.42230000  1.0 0.1688310561
C  C263  1  0.82810000  0.16710000  0.92230000  1.0 0.1688310561
C  C264  1  0.82810000  0.33290000  0.57770000  1.0 0.1688310561
C  C265  1  0.28240000  0.34581000  0.93230000  1.0 -0.1894582433
C  C266  1  0.28240000  0.15419000  0.56770000  1.0 -0.1894582433
C  C267  1  0.21760000  0.84581000  0.06770000  1.0 -0.1894582433
C  C268  1  0.21760000  0.65419000  0.43230000  1.0 -0.1894582433
C  C269  1  0.71760000  0.65419000  0.06770000  1.0 -0.1894582433
C  C270  1  0.71760000  0.84581000  0.43230000  1.0 -0.1894582433
C  C271  1  0.78240000  0.15419000  0.93230000  1.0 -0.1894582433
C  C272  1  0.78240000  0.34581000  0.56770000  1.0 -0.1894582433
C  C273  1  0.27750000  0.37909000  0.94600000  1.0 -0.0799284601
C  C274  1  0.27750000  0.12091000  0.55400000  1.0 -0.0799284601
C  C275  1  0.22250000  0.87909000  0.05400000  1.0 -0.0799284601
C  C276  1  0.22250000  0.62091000  0.44600000  1.0 -0.0799284601
C  C277  1  0.72250000  0.62091000  0.05400000  1.0 -0.0799284601
C  C278  1  0.72250000  0.87909000  0.44600000  1.0 -0.0799284601
C  C279  1  0.77750000  0.12091000  0.94600000  1.0 -0.0799284601
C  C280  1  0.77750000  0.37909000  0.55400000  1.0 -0.0799284601
C  C281  1  0.36460000  0.28929000  0.87940000  1.0 0.1688310561
C  C282  1  0.36460000  0.21071000  0.62060000  1.0 0.1625602235
C  C283  1  0.13540000  0.78929000  0.12060000  1.0 0.1625602235
C  C284  1  0.13540000  0.71071000  0.37940000  1.0 0.1625602235
C  C285  1  0.63540000  0.71071000  0.12060000  1.0 0.1625602235
C  C286  1  0.63540000  0.78929000  0.37940000  1.0 0.1688310561
C  C287  1  0.86460000  0.21071000  0.87940000  1.0 0.1688310561
C  C288  1  0.86460000  0.28929000  0.62060000  1.0 0.1688310561
C  C289  1  0.38760000  0.25588000  0.87770000  1.0 -0.1688008378
C  C290  1  0.38760000  0.24412000  0.62230000  1.0 -0.1688008378
C  C291  1  0.11240000  0.75588000  0.12230000  1.0 -0.1688008378
C  C292  1  0.11240000  0.74412000  0.37770000  1.0 -0.1688008378
C  C293  1  0.61240000  0.74412000  0.12230000  1.0 -0.1688008378
C  C294  1  0.61240000  0.75588000  0.37770000  1.0 -0.1688008378
C  C295  1  0.88760000  0.24412000  0.87770000  1.0 -0.1688008378
C  C296  1  0.88760000  0.25588000  0.62230000  1.0 -0.1688008378
C  C297  1  0.41780000  0.24720000  0.85250000  1.0 -0.0722482567
C  C298  1  0.41780000  0.25280000  0.64750000  1.0 -0.0722482567
C  C299  1  0.08220000  0.74720000  0.14750000  1.0 -0.0722482567
C  C300  1  0.08220000  0.75280000  0.35250000  1.0 -0.0722482567
C  C301  1  0.58220000  0.75280000  0.14750000  1.0 -0.0722482567
C  C302  1  0.58220000  0.74720000  0.35250000  1.0 -0.0722482567
C  C303  1  0.91780000  0.25280000  0.85250000  1.0 -0.0722482567
C  C304  1  0.91780000  0.24720000  0.64750000  1.0 -0.0722482567
C  C305  1  0.43100000  0.27260000  0.82540000  1.0 -0.0502284013
C  C306  1  0.43100000  0.22740000  0.67460000  1.0 -0.0502284013
C  C307  1  0.06900000  0.77260000  0.17460000  1.0 -0.0502284013
C  C308  1  0.06900000  0.72740000  0.32540000  1.0 -0.0502284013
C  C309  1  0.56900000  0.72740000  0.17460000  1.0 -0.0502284013
C  C310  1  0.56900000  0.77260000  0.32540000  1.0 -0.0502284013
C  C311  1  0.93100000  0.22740000  0.82540000  1.0 -0.0502284013
C  C312  1  0.93100000  0.27260000  0.67460000  1.0 -0.0502284013
C  C313  1  0.46680000  0.26360000  0.79660000  1.0 0.5678337155
C  C314  1  0.46680000  0.23640000  0.70340000  1.0 0.5678337155
C  C315  1  0.03320000  0.76360000  0.20340000  1.0 0.5678337155
C  C316  1  0.03320000  0.73640000  0.29660000  1.0 0.5678337155
C  C317  1  0.53320000  0.73640000  0.20340000  1.0 0.5678337155
C  C318  1  0.53320000  0.76360000  0.29660000  1.0 0.5678337155
C  C319  1  0.96680000  0.23640000  0.79660000  1.0 0.5678337155
C  C320  1  0.96680000  0.26360000  0.70340000  1.0 0.5678337155
C  C321  1  0.40850000  0.30616000  0.82670000  1.0 -0.0799284601
C  C322  1  0.40850000  0.19384000  0.67330000  1.0 -0.0799284601
C  C323  1  0.09150000  0.80616000  0.17330000  1.0 -0.0799284601
C  C324  1  0.09150000  0.69384000  0.32670000  1.0 -0.0799284601
C  C325  1  0.59150000  0.69384000  0.17330000  1.0 -0.0799284601
C  C326  1  0.59150000  0.80616000  0.32670000  1.0 -0.0799284601
C  C327  1  0.90850000  0.19384000  0.82670000  1.0 -0.0799284601
C  C328  1  0.90850000  0.30616000  0.67330000  1.0 -0.0799284601
C  C329  1  0.37460000  0.31390000  0.85380000  1.0 -0.1894582433
C  C330  1  0.37460000  0.18610000  0.64620000  1.0 -0.1894582433
C  C331  1  0.12540000  0.81390000  0.14620000  1.0 -0.1894582433
C  C332  1  0.12540000  0.68610000  0.35380000  1.0 -0.1894582433
C  C333  1  0.62540000  0.68610000  0.14620000  1.0 -0.1894582433
C  C334  1  0.62540000  0.81390000  0.35380000  1.0 -0.1894582433
C  C335  1  0.87460000  0.18610000  0.85380000  1.0 -0.1894582433
C  C336  1  0.87460000  0.31390000  0.64620000  1.0 -0.1894582433
C  C337  1  0.26520000  0.04860000  0.11005000  1.0 -0.0799284601
C  C338  1  0.26520000  0.45140000  0.38995000  1.0 -0.0799284601
C  C339  1  0.23480000  0.54860000  0.88995000  1.0 -0.0799284601
C  C340  1  0.23480000  0.95140000  0.61005000  1.0 -0.0799284601
C  C341  1  0.73480000  0.95140000  0.88995000  1.0 -0.0799284601
C  C342  1  0.73480000  0.54860000  0.61005000  1.0 -0.0799284601
C  C343  1  0.76520000  0.45140000  0.11005000  1.0 -0.0799284601
C  C344  1  0.76520000  0.04860000  0.38995000  1.0 -0.0799284601
C  C345  1  0.27020000  0.06440000  0.14380000  1.0 -0.199549989
C  C346  1  0.27020000  0.43560000  0.35620000  1.0 -0.199549989
C  C347  1  0.22980000  0.56440000  0.85620000  1.0 -0.199549989
C  C348  1  0.22980000  0.93560000  0.64380000  1.0 -0.199549989
C  C349  1  0.72980000  0.93560000  0.85620000  1.0 -0.199549989
C  C350  1  0.72980000  0.56440000  0.64380000  1.0 -0.199549989
C  C351  1  0.77020000  0.43560000  0.14380000  1.0 -0.199549989
C  C352  1  0.77020000  0.06440000  0.35620000  1.0 -0.199549989
C  C353  1  0.20430000  0.11954000  0.20724000  1.0 0.1819780887
C  C354  1  0.20430000  0.38046000  0.29276000  1.0 0.1819780887
C  C355  1  0.29570000  0.61954000  0.79276000  1.0 0.1819780887
C  C356  1  0.29570000  0.88046000  0.70724000  1.0 0.1819780887
C  C357  1  0.79570000  0.88046000  0.79276000  1.0 0.1819780887
C  C358  1  0.79570000  0.61954000  0.70724000  1.0 0.1819780887
C  C359  1  0.70430000  0.38046000  0.20724000  1.0 0.1819780887
C  C360  1  0.70430000  0.11954000  0.29276000  1.0 0.1819780887
C  C361  1  0.19390000  0.14760000  0.18339000  1.0 -0.1894582433
C  C362  1  0.19390000  0.35240000  0.31661000  1.0 -0.1894582433
C  C363  1  0.30610000  0.64760000  0.81661000  1.0 -0.1894582433
C  C364  1  0.30610000  0.85240000  0.68339000  1.0 -0.1894582433
C  C365  1  0.80610000  0.85240000  0.81661000  1.0 -0.1894582433
C  C366  1  0.80610000  0.64760000  0.68339000  1.0 -0.1894582433
C  C367  1  0.69390000  0.35240000  0.18339000  1.0 -0.1894582433
C  C368  1  0.69390000  0.14760000  0.31661000  1.0 -0.1894582433
C  C369  1  0.16230000  0.17450000  0.19279000  1.0 -0.0890281815
C  C370  1  0.16230000  0.32550000  0.30721000  1.0 -0.0890281815
C  C371  1  0.33770000  0.67450000  0.80721000  1.0 -0.0890281815
C  C372  1  0.33770000  0.82550000  0.69279000  1.0 -0.0890281815
C  C373  1  0.83770000  0.82550000  0.80721000  1.0 -0.0890281815
C  C374  1  0.83770000  0.67450000  0.69279000  1.0 -0.0890281815
C  C375  1  0.66230000  0.32550000  0.19279000  1.0 -0.0890281815
C  C376  1  0.66230000  0.17450000  0.30721000  1.0 -0.0890281815
C  C377  1  0.14180000  0.17510000  0.22530000  1.0 -0.027080117
C  C378  1  0.14180000  0.32490000  0.27470000  1.0 -0.027080117
C  C379  1  0.35820000  0.67510000  0.77470000  1.0 -0.027080117
C  C380  1  0.35820000  0.82490000  0.72530000  1.0 -0.027080117
C  C381  1  0.85820000  0.82490000  0.77470000  1.0 -0.027080117
C  C382  1  0.85820000  0.67510000  0.72530000  1.0 -0.027080117
C  C383  1  0.64180000  0.32490000  0.22530000  1.0 -0.027080117
C  C384  1  0.64180000  0.17510000  0.27470000  1.0 -0.027080117
C  C385  1  0.10450000  0.20450000  0.23430000  1.0 0.5759128217
C  C386  1  0.10450000  0.29550000  0.26570000  1.0 0.5759128217
C  C387  1  0.39550000  0.70450000  0.76570000  1.0 0.5759128217
C  C388  1  0.39550000  0.79550000  0.73430000  1.0 0.5759128217
C  C389  1  0.89550000  0.79550000  0.76570000  1.0 0.5759128217
C  C390  1  0.89550000  0.70450000  0.73430000  1.0 0.5759128217
C  C391  1  0.60450000  0.29550000  0.23430000  1.0 0.5759128217
C  C392  1  0.60450000  0.20450000  0.26570000  1.0 0.5759128217
C  C393  1  0.15200000  0.14820000  0.24940000  1.0 -0.0890281815
C  C394  1  0.15200000  0.35180000  0.25060000  1.0 -0.0890281815
C  C395  1  0.34800000  0.64820000  0.75060000  1.0 -0.0890281815
C  C396  1  0.34800000  0.85180000  0.74940000  1.0 -0.0890281815
C  C397  1  0.84800000  0.85180000  0.75060000  1.0 -0.0890281815
C  C398  1  0.84800000  0.64820000  0.74940000  1.0 -0.0890281815
C  C399  1  0.65200000  0.35180000  0.24940000  1.0 -0.0890281815
C  C400  1  0.65200000  0.14820000  0.25060000  1.0 -0.0890281815
C  C401  1  0.18160000  0.12060000  0.24055000  1.0 -0.1894582433
C  C402  1  0.18160000  0.37940000  0.25945000  1.0 -0.199549989
C  C403  1  0.31840000  0.62060000  0.75945000  1.0 -0.1894582433
C  C404  1  0.31840000  0.87940000  0.74055000  1.0 -0.1894582433
C  C405  1  0.81840000  0.87940000  0.75945000  1.0 -0.199549989
C  C406  1  0.81840000  0.62060000  0.74055000  1.0 -0.1894582433
C  C407  1  0.68160000  0.37940000  0.24055000  1.0 -0.199549989
C  C408  1  0.68160000  0.12060000  0.25945000  1.0 -0.1894582433
C  C409  1  0.26550000  0.03640000  0.22320000  1.0 -0.2165630703
C  C410  1  0.26550000  0.46360000  0.27680000  1.0 -0.2165630703
C  C411  1  0.23450000  0.53640000  0.77680000  1.0 -0.2165630703
C  C412  1  0.23450000  0.96360000  0.72320000  1.0 -0.2165630703
C  C413  1  0.73450000  0.96360000  0.77680000  1.0 -0.2165630703
C  C414  1  0.73450000  0.53640000  0.72320000  1.0 -0.2165630703
C  C415  1  0.76550000  0.46360000  0.22320000  1.0 -0.2165630703
C  C416  1  0.76550000  0.03640000  0.27680000  1.0 -0.212830379
C  C417  1  0.29170000  0.01890000  0.24980000  1.0 -0.0595166048
C  C418  1  0.29170000  0.48110000  0.25020000  1.0 -0.0595166048
C  C419  1  0.20830000  0.51890000  0.75020000  1.0 -0.0595166048
C  C420  1  0.20830000  0.98110000  0.74980000  1.0 -0.0595166048
C  C421  1  0.70830000  0.98110000  0.75020000  1.0 -0.0595166048
C  C422  1  0.70830000  0.51890000  0.74980000  1.0 -0.0595166048
C  C423  1  0.79170000  0.48110000  0.24980000  1.0 -0.0595166048
C  C424  1  0.79170000  0.01890000  0.25020000  1.0 -0.0595166048
C  C425  1  0.31650000  0.03660000  0.27450000  1.0 -0.1894582433
C  C426  1  0.31650000  0.46340000  0.22550000  1.0 -0.1894582433
C  C427  1  0.18350000  0.53660000  0.72550000  1.0 -0.1894582433
C  C428  1  0.18350000  0.96340000  0.77450000  1.0 -0.1894582433
C  C429  1  0.68350000  0.96340000  0.72550000  1.0 -0.1894582433
C  C430  1  0.68350000  0.53660000  0.77450000  1.0 -0.1894582433
C  C431  1  0.81650000  0.46340000  0.27450000  1.0 -0.1894582433
C  C432  1  0.81650000  0.03660000  0.22550000  1.0 -0.1894582433
C  C433  1  0.33690000  0.08075000  0.33753000  1.0 0.1688310561
C  C434  1  0.33690000  0.41925000  0.16247000  1.0 0.1688310561
C  C435  1  0.16310000  0.58075000  0.66247000  1.0 0.1688310561
C  C436  1  0.16310000  0.91925000  0.83753000  1.0 0.1688310561
C  C437  1  0.66310000  0.91925000  0.66247000  1.0 0.1688310561
C  C438  1  0.66310000  0.58075000  0.83753000  1.0 0.1688310561
C  C439  1  0.83690000  0.41925000  0.33753000  1.0 0.1688310561
C  C440  1  0.83690000  0.08075000  0.16247000  1.0 0.1688310561
C  C441  1  0.28970000  0.07360000  0.35106000  1.0 -0.199549989
C  C442  1  0.28970000  0.42640000  0.14894000  1.0 -0.199549989
C  C443  1  0.21030000  0.57360000  0.64894000  1.0 -0.199549989
C  C444  1  0.21030000  0.92640000  0.85106000  1.0 -0.199549989
C  C445  1  0.71030000  0.92640000  0.64894000  1.0 -0.199549989
C  C446  1  0.71030000  0.57360000  0.85106000  1.0 -0.199549989
C  C447  1  0.78970000  0.42640000  0.35106000  1.0 -0.199549989
C  C448  1  0.78970000  0.07360000  0.14894000  1.0 -0.199549989
C  C449  1  0.28370000  0.05860000  0.38445000  1.0 -0.0799284601
C  C450  1  0.28370000  0.44140000  0.11555000  1.0 -0.0799284601
C  C451  1  0.21630000  0.55860000  0.61555000  1.0 -0.0799284601
C  C452  1  0.21630000  0.94140000  0.88445000  1.0 -0.0799284601
C  C453  1  0.71630000  0.94140000  0.61555000  1.0 -0.0799284601
C  C454  1  0.71630000  0.55860000  0.88445000  1.0 -0.0799284601
C  C455  1  0.78370000  0.44140000  0.38445000  1.0 -0.0799284601
C  C456  1  0.78370000  0.05860000  0.11555000  1.0 -0.0799284601
C  C457  1  0.32440000  0.05126000  0.40527000  1.0 -0.0502284013
C  C458  1  0.32440000  0.44874000  0.09473000  1.0 -0.0502284013
C  C459  1  0.17560000  0.55126000  0.59473000  1.0 -0.0595166048
C  C460  1  0.17560000  0.94874000  0.90527000  1.0 -0.0595166048
C  C461  1  0.67560000  0.94874000  0.59473000  1.0 -0.0502284013
C  C462  1  0.67560000  0.55126000  0.90527000  1.0 -0.0502284013
C  C463  1  0.82440000  0.44874000  0.40527000  1.0 -0.0502284013
C  C464  1  0.82440000  0.05126000  0.09473000  1.0 -0.0502284013
C  C465  1  0.31700000  0.03444000  0.44074000  1.0 0.5639619503
C  C466  1  0.31700000  0.46556000  0.05926000  1.0 0.5639619503
C  C467  1  0.18300000  0.53444000  0.55926000  1.0 0.5678337155
C  C468  1  0.18300000  0.96556000  0.94074000  1.0 0.5678337155
C  C469  1  0.68300000  0.96556000  0.55926000  1.0 0.5678337155
C  C470  1  0.68300000  0.53444000  0.94074000  1.0 0.5678337155
C  C471  1  0.81700000  0.46556000  0.44074000  1.0 0.5639619503
C  C472  1  0.81700000  0.03444000  0.05926000  1.0 0.5639619503
C  C473  1  0.37170000  0.05920000  0.39259000  1.0 -0.0722482567
C  C474  1  0.37170000  0.44080000  0.10741000  1.0 -0.0722482567
C  C475  1  0.12830000  0.55920000  0.60741000  1.0 -0.0722482567
C  C476  1  0.12830000  0.94080000  0.89259000  1.0 -0.0722482567
C  C477  1  0.62830000  0.94080000  0.60741000  1.0 -0.0722482567
C  C478  1  0.62830000  0.55920000  0.89259000  1.0 -0.0722482567
C  C479  1  0.87170000  0.44080000  0.39259000  1.0 -0.0722482567
C  C480  1  0.87170000  0.05920000  0.10741000  1.0 -0.0722482567
C  C481  1  0.37720000  0.07450000  0.35848000  1.0 -0.199549989
C  C482  1  0.37720000  0.42550000  0.14152000  1.0 -0.199549989
C  C483  1  0.12280000  0.57450000  0.64152000  1.0 -0.199549989
C  C484  1  0.12280000  0.92550000  0.85848000  1.0 -0.199549989
C  C485  1  0.62280000  0.92550000  0.64152000  1.0 -0.199549989
C  C486  1  0.62280000  0.57450000  0.85848000  1.0 -0.199549989
C  C487  1  0.87720000  0.42550000  0.35848000  1.0 -0.199549989
C  C488  1  0.87720000  0.07450000  0.14152000  1.0 -0.199549989
C  C489  1  0.37460000  0.12078000  0.29301000  1.0 0.1819780887
C  C490  1  0.37460000  0.37922000  0.20699000  1.0 0.1819780887
C  C491  1  0.12540000  0.62078000  0.70699000  1.0 0.1819780887
C  C492  1  0.12540000  0.87922000  0.79301000  1.0 0.1819780887
C  C493  1  0.62540000  0.87922000  0.70699000  1.0 0.1819780887
C  C494  1  0.62540000  0.62078000  0.79301000  1.0 0.1819780887
C  C495  1  0.87460000  0.37922000  0.29301000  1.0 0.1819780887
C  C496  1  0.87460000  0.12078000  0.20699000  1.0 0.1819780887
C  C497  1  0.38640000  0.14720000  0.31775000  1.0 -0.1792710382
C  C498  1  0.38640000  0.35280000  0.18225000  1.0 -0.1894582433
C  C499  1  0.11360000  0.64720000  0.68225000  1.0 -0.1894582433
C  C500  1  0.11360000  0.85280000  0.81775000  1.0 -0.1894582433
C  C501  1  0.61360000  0.85280000  0.68225000  1.0 -0.1894582433
C  C502  1  0.61360000  0.64720000  0.81775000  1.0 -0.1894582433
C  C503  1  0.88640000  0.35280000  0.31775000  1.0 -0.1894582433
C  C504  1  0.88640000  0.14720000  0.18225000  1.0 -0.1894582433
C  C505  1  0.41700000  0.17410000  0.30925000  1.0 -0.0890281815
C  C506  1  0.41700000  0.32590000  0.19075000  1.0 -0.0890281815
C  C507  1  0.08300000  0.67410000  0.69075000  1.0 -0.0890281815
C  C508  1  0.08300000  0.82590000  0.80925000  1.0 -0.0890281815
C  C509  1  0.58300000  0.82590000  0.69075000  1.0 -0.0890281815
C  C510  1  0.58300000  0.67410000  0.80925000  1.0 -0.0890281815
C  C511  1  0.91700000  0.32590000  0.30925000  1.0 -0.0890281815
C  C512  1  0.91700000  0.17410000  0.19075000  1.0 -0.0890281815
C  C513  1  0.43900000  0.17526000  0.27578000  1.0 -0.027080117
C  C514  1  0.43900000  0.32474000  0.22422000  1.0 -0.027080117
C  C515  1  0.06100000  0.67526000  0.72422000  1.0 -0.027080117
C  C516  1  0.06100000  0.82474000  0.77578000  1.0 -0.027080117
C  C517  1  0.56100000  0.82474000  0.72422000  1.0 -0.027080117
C  C518  1  0.56100000  0.67526000  0.77578000  1.0 -0.027080117
C  C519  1  0.93900000  0.32474000  0.27578000  1.0 -0.027080117
C  C520  1  0.93900000  0.17526000  0.22422000  1.0 -0.027080117
C  C521  1  0.47570000  0.20420000  0.26680000  1.0 0.5759128217
C  C522  1  0.47570000  0.29580000  0.23320000  1.0 0.5759128217
C  C523  1  0.02430000  0.70420000  0.73320000  1.0 0.5759128217
C  C524  1  0.02430000  0.79580000  0.76680000  1.0 0.5759128217
C  C525  1  0.52430000  0.79580000  0.73320000  1.0 0.5759128217
C  C526  1  0.52430000  0.70420000  0.76680000  1.0 0.5759128217
C  C527  1  0.97570000  0.29580000  0.26680000  1.0 0.5759128217
C  C528  1  0.97570000  0.20420000  0.23320000  1.0 0.5759128217
C  C529  1  0.42790000  0.15060000  0.25200000  1.0 -0.0799284601
C  C530  1  0.42790000  0.34940000  0.24800000  1.0 -0.0799284601
C  C531  1  0.07210000  0.65060000  0.74800000  1.0 -0.0799284601
C  C532  1  0.07210000  0.84940000  0.75200000  1.0 -0.0799284601
C  C533  1  0.57210000  0.84940000  0.74800000  1.0 -0.0799284601
C  C534  1  0.57210000  0.65060000  0.75200000  1.0 -0.0799284601
C  C535  1  0.92790000  0.34940000  0.25200000  1.0 -0.0799284601
C  C536  1  0.92790000  0.15060000  0.24800000  1.0 -0.0799284601
C  C537  1  0.39620000  0.12220000  0.26006000  1.0 -0.199549989
C  C538  1  0.39620000  0.37780000  0.23994000  1.0 -0.199549989
C  C539  1  0.10380000  0.62220000  0.73994000  1.0 -0.212830379
C  C540  1  0.10380000  0.87780000  0.76006000  1.0 -0.212830379
C  C541  1  0.60380000  0.87780000  0.73994000  1.0 -0.199549989
C  C542  1  0.60380000  0.62220000  0.76006000  1.0 -0.199549989
C  C543  1  0.89620000  0.37780000  0.26006000  1.0 -0.199549989
C  C544  1  0.89620000  0.12220000  0.23994000  1.0 -0.199549989
C  C545  1  0.36220000  0.99230000  0.00040000  1.0 0.0434716228
C  C546  1  0.36220000  0.50770000  0.49960000  1.0 0.0434716228
C  C547  1  0.13780000  0.49230000  0.99960000  1.0 0.0434716228
C  C548  1  0.13780000  0.00770000  0.50040000  1.0 0.0434716228
C  C549  1  0.63780000  0.00770000  0.99960000  1.0 0.0457874384
C  C550  1  0.63780000  0.49230000  0.50040000  1.0 0.0434716228
C  C551  1  0.86220000  0.50770000  0.00040000  1.0 0.0434716228
C  C552  1  0.86220000  0.99230000  0.49960000  1.0 0.0434716228
C  C553  1  0.38250000  0.94250000  0.96780000  1.0 -0.1141522401
C  C554  1  0.38250000  0.55750000  0.53220000  1.0 -0.1141522401
C  C555  1  0.11750000  0.44250000  0.03220000  1.0 -0.1141522401
C  C556  1  0.11750000  0.05750000  0.46780000  1.0 -0.1141522401
C  C557  1  0.61750000  0.05750000  0.03220000  1.0 -0.1141522401
C  C558  1  0.61750000  0.44250000  0.46780000  1.0 -0.1141522401
C  C559  1  0.88250000  0.55750000  0.96780000  1.0 -0.1141522401
C  C560  1  0.88250000  0.94250000  0.53220000  1.0 -0.1141522401
C  C561  1  0.33050000  0.94460000  0.96950000  1.0 0.0434716228
C  C562  1  0.33050000  0.55540000  0.53050000  1.0 0.0434716228
C  C563  1  0.16950000  0.44460000  0.03050000  1.0 0.0434716228
C  C564  1  0.16950000  0.05540000  0.46950000  1.0 0.0434716228
C  C565  1  0.66950000  0.05540000  0.03050000  1.0 0.0434716228
C  C566  1  0.66950000  0.44460000  0.46950000  1.0 0.0434716228
C  C567  1  0.83050000  0.55540000  0.96950000  1.0 0.0434716228
C  C568  1  0.83050000  0.94460000  0.53050000  1.0 0.0434716228
C  C569  1  0.07090000  0.18990000  0.35020000  1.0 0.0849506143
C  C570  1  0.07090000  0.31010000  0.14980000  1.0 0.0849506143
C  C571  1  0.42910000  0.68990000  0.64980000  1.0 0.0865919884
C  C572  1  0.42910000  0.81010000  0.85020000  1.0 0.0865919884
C  C573  1  0.92910000  0.81010000  0.64980000  1.0 0.0865919884
C  C574  1  0.92910000  0.68990000  0.85020000  1.0 0.0865919884
C  C575  1  0.57090000  0.31010000  0.35020000  1.0 0.0849506143
C  C576  1  0.57090000  0.18990000  0.14980000  1.0 0.0849506143
C  C577  1  0.01140000  0.19990000  0.39250000  1.0 -0.0890281815
C  C578  1  0.01140000  0.30010000  0.10750000  1.0 -0.0890281815
C  C579  1  0.48860000  0.69990000  0.60750000  1.0 -0.0890281815
C  C580  1  0.48860000  0.80010000  0.89250000  1.0 -0.0890281815
C  C581  1  0.98860000  0.80010000  0.60750000  1.0 -0.0890281815
C  C582  1  0.98860000  0.69990000  0.89250000  1.0 -0.0890281815
C  C583  1  0.51140000  0.30010000  0.39250000  1.0 -0.0890281815
C  C584  1  0.51140000  0.19990000  0.10750000  1.0 -0.0890281815
C  C585  1  0.00370000  0.22430000  0.36400000  1.0 0.0209757637
C  C586  1  0.00370000  0.27570000  0.13600000  1.0 0.0209757637
C  C587  1  0.49630000  0.72430000  0.63600000  1.0 0.0209757637
C  C588  1  0.49630000  0.77570000  0.86400000  1.0 0.0209757637
C  C589  1  0.99630000  0.77570000  0.63600000  1.0 0.0209757637
C  C590  1  0.99630000  0.72430000  0.86400000  1.0 0.0209757637
C  C591  1  0.50370000  0.27570000  0.36400000  1.0 0.0209757637
C  C592  1  0.50370000  0.22430000  0.13600000  1.0 0.0209757637
C  C593  1  0.45320000  0.98810000  0.99530000  1.0 0.1231216579
C  C594  1  0.45320000  0.51190000  0.50470000  1.0 0.1231216579
C  C595  1  0.04680000  0.48810000  0.00470000  1.0 0.1231216579
C  C596  1  0.04680000  0.01190000  0.49530000  1.0 0.1231216579
C  C597  1  0.54680000  0.01190000  0.00470000  1.0 0.1231216579
C  C598  1  0.54680000  0.48810000  0.49530000  1.0 0.1231216579
C  C599  1  0.95320000  0.51190000  0.99530000  1.0 0.1231216579
C  C600  1  0.95320000  0.98810000  0.50470000  1.0 0.1231216579
C  C601  1  0.49050000  0.96550000  0.99140000  1.0 -0.1363549181
C  C602  1  0.49050000  0.53450000  0.50860000  1.0 -0.1363549181
C  C603  1  0.00950000  0.46550000  0.00860000  1.0 -0.1363549181
C  C604  1  0.00950000  0.03450000  0.49140000  1.0 -0.1363549181
C  C605  1  0.50950000  0.03450000  0.00860000  1.0 -0.1363549181
C  C606  1  0.50950000  0.46550000  0.49140000  1.0 -0.1363549181
C  C607  1  0.99050000  0.53450000  0.99140000  1.0 -0.1363549181
C  C608  1  0.99050000  0.96550000  0.50860000  1.0 -0.1363549181
C  C609  1  0.07510000  0.14490000  0.40220000  1.0 -0.4266751503
C  C610  1  0.07510000  0.35510000  0.09780000  1.0 -0.4266751503
C  C611  1  0.42490000  0.64490000  0.59780000  1.0 -0.4266751503
C  C612  1  0.42490000  0.85510000  0.90220000  1.0 -0.4569034245
C  C613  1  0.92490000  0.85510000  0.59780000  1.0 -0.4266751503
C  C614  1  0.92490000  0.64490000  0.90220000  1.0 -0.4266751503
C  C615  1  0.57510000  0.35510000  0.40220000  1.0 -0.4266751503
C  C616  1  0.57510000  0.14490000  0.09780000  1.0 -0.4266751503
C  C617  1  0.46290000  0.02430000  0.00370000  1.0 -0.1688008378
C  C618  1  0.46290000  0.47570000  0.49630000  1.0 -0.1688008378
C  C619  1  0.03710000  0.52430000  0.99630000  1.0 -0.1688008378
C  C620  1  0.03710000  0.97570000  0.50370000  1.0 -0.1688008378
C  C621  1  0.53710000  0.97570000  0.99630000  1.0 -0.1688008378
C  C622  1  0.53710000  0.52430000  0.50370000  1.0 -0.1688008378
C  C623  1  0.96290000  0.47570000  0.00370000  1.0 -0.1688008378
C  C624  1  0.96290000  0.02430000  0.49630000  1.0 -0.1688008378
N  N1  1  0.34180000  0.09341000  0.30135000  1.0 -0.1792710382
N  N2  1  0.34180000  0.40659000  0.19865000  1.0 -0.1792710382
N  N3  1  0.15820000  0.59341000  0.69865000  1.0 -0.1792710382
N  N4  1  0.15820000  0.90659000  0.80135000  1.0 -0.1792710382
N  N5  1  0.65820000  0.90659000  0.69865000  1.0 -0.1792710382
N  N6  1  0.65820000  0.59341000  0.80135000  1.0 -0.1792710382
N  N7  1  0.84180000  0.40659000  0.30135000  1.0 -0.1792710382
N  N8  1  0.84180000  0.09341000  0.19865000  1.0 -0.1792710382
N  N9  1  0.23600000  0.09182000  0.19675000  1.0 -0.1688008378
N  N10  1  0.23600000  0.40818000  0.30325000  1.0 -0.1688008378
N  N11  1  0.26400000  0.59182000  0.80325000  1.0 -0.1688008378
N  N12  1  0.26400000  0.90818000  0.69675000  1.0 -0.1688008378
N  N13  1  0.76400000  0.90818000  0.80325000  1.0 -0.1688008378
N  N14  1  0.76400000  0.59182000  0.69675000  1.0 -0.1688008378
N  N15  1  0.73600000  0.40818000  0.19675000  1.0 -0.1688008378
N  N16  1  0.73600000  0.09182000  0.30325000  1.0 -0.1688008378
N  N17  1  0.22460000  0.19445000  0.90888000  1.0 -0.1688008378
N  N18  1  0.22460000  0.30555000  0.59112000  1.0 -0.1688008378
N  N19  1  0.27540000  0.69445000  0.09112000  1.0 -0.1688008378
N  N20  1  0.27540000  0.80555000  0.40888000  1.0 -0.1688008378
N  N21  1  0.77540000  0.80555000  0.09112000  1.0 -0.1688008378
N  N22  1  0.77540000  0.69445000  0.40888000  1.0 -0.1688008378
N  N23  1  0.72460000  0.30555000  0.90888000  1.0 -0.1688008378
N  N24  1  0.72460000  0.19445000  0.59112000  1.0 -0.1688008378
N  N25  1  0.33240000  0.29766000  0.90820000  1.0 -0.1792710382
N  N26  1  0.33240000  0.20234000  0.59180000  1.0 -0.1792710382
N  N27  1  0.16760000  0.79766000  0.09180000  1.0 -0.1792710382
N  N28  1  0.16760000  0.70234000  0.40820000  1.0 -0.1792710382
N  N29  1  0.66760000  0.70234000  0.09180000  1.0 -0.1792710382
N  N30  1  0.66760000  0.79766000  0.40820000  1.0 -0.1792710382
N  N31  1  0.83240000  0.20234000  0.90820000  1.0 -0.1792710382
N  N32  1  0.83240000  0.29766000  0.59180000  1.0 -0.1792710382
N  N33  1  0.31800000  0.97543000  0.98961000  1.0 -0.2914791633
N  N34  1  0.31800000  0.52457000  0.51039000  1.0 -0.2914791633
N  N35  1  0.18200000  0.47543000  0.01039000  1.0 -0.2914791633
N  N36  1  0.18200000  0.02457000  0.48961000  1.0 -0.2914791633
N  N37  1  0.68200000  0.02457000  0.01039000  1.0 -0.2914791633
N  N38  1  0.68200000  0.47543000  0.48961000  1.0 -0.2914791633
N  N39  1  0.81800000  0.52457000  0.98961000  1.0 -0.2914791633
N  N40  1  0.81800000  0.97543000  0.51039000  1.0 -0.2914791633
N  N41  1  0.40206000  0.97200000  0.98700000  1.0 0.0272280439
N  N42  1  0.40206000  0.52800000  0.51300000  1.0 0.0272280439
N  N43  1  0.09794000  0.47200000  0.01300000  1.0 0.0272280439
N  N44  1  0.09794000  0.02800000  0.48700000  1.0 0.0272280439
N  N45  1  0.59794000  0.02800000  0.01300000  1.0 0.0272280439
N  N46  1  0.59794000  0.47200000  0.48700000  1.0 0.0272280439
N  N47  1  0.90206000  0.52800000  0.98700000  1.0 0.0272280439
N  N48  1  0.90206000  0.97200000  0.51300000  1.0 0.0272280439
N  N49  1  0.04050000  0.21820000  0.33785000  1.0 -0.2975499894
N  N50  1  0.04050000  0.28180000  0.16215000  1.0 -0.2975499894
N  N51  1  0.45950000  0.71820000  0.66215000  1.0 -0.2975499894
N  N52  1  0.45950000  0.78180000  0.83785000  1.0 -0.2975499894
N  N53  1  0.95950000  0.78180000  0.66215000  1.0 -0.2975499894
N  N54  1  0.95950000  0.71820000  0.83785000  1.0 -0.2975499894
N  N55  1  0.54050000  0.28180000  0.33785000  1.0 -0.2975499894
N  N56  1  0.54050000  0.21820000  0.16215000  1.0 -0.2975499894
N  N57  1  0.05290000  0.17870000  0.38390000  1.0 0.1293707361
N  N58  1  0.05290000  0.32130000  0.11610000  1.0 0.1293707361
N  N59  1  0.44710000  0.67870000  0.61610000  1.0 0.1293707361
N  N60  1  0.44710000  0.82130000  0.88390000  1.0 0.1293707361
N  N61  1  0.94710000  0.82130000  0.61610000  1.0 0.1293707361
N  N62  1  0.94710000  0.67870000  0.88390000  1.0 0.1293707361
N  N63  1  0.55290000  0.32130000  0.38390000  1.0 0.1293707361
N  N64  1  0.55290000  0.17870000  0.11610000  1.0 0.1293707361
O  O1  1  0.17054000  0.02520000  0.04760000  1.0 -0.5107442484
O  O2  1  0.17054000  0.47480000  0.45240000  1.0 -0.5107442484
O  O3  1  0.32946000  0.52520000  0.95240000  1.0 -0.5107442484
O  O4  1  0.32946000  0.97480000  0.54760000  1.0 -0.5107442484
O  O5  1  0.82946000  0.97480000  0.95240000  1.0 -0.5107442484
O  O6  1  0.82946000  0.52520000  0.54760000  1.0 -0.5107442484
O  O7  1  0.67054000  0.47480000  0.04760000  1.0 -0.5107442484
O  O8  1  0.67054000  0.02520000  0.45240000  1.0 -0.5107442484
O  O9  1  0.16470000  0.04497000  0.97601000  1.0 -0.5030065444
O  O10  1  0.16470000  0.45503000  0.52399000  1.0 -0.5030065444
O  O11  1  0.33530000  0.54497000  0.02399000  1.0 -0.5030065444
O  O12  1  0.33530000  0.95503000  0.47601000  1.0 -0.5030065444
O  O13  1  0.83530000  0.95503000  0.02399000  1.0 -0.5030065444
O  O14  1  0.83530000  0.54497000  0.47601000  1.0 -0.5030065444
O  O15  1  0.66470000  0.45503000  0.97601000  1.0 -0.5030065444
O  O16  1  0.66470000  0.04497000  0.52399000  1.0 -0.5030065444
O  O17  1  0.08120000  0.26616000  0.79492000  1.0 -0.4716450762
O  O18  1  0.08120000  0.23384000  0.70508000  1.0 -0.4716450762
O  O19  1  0.41880000  0.76616000  0.20508000  1.0 -0.4716450762
O  O20  1  0.41880000  0.73384000  0.29492000  1.0 -0.4716450762
O  O21  1  0.91880000  0.73384000  0.20508000  1.0 -0.4716450762
O  O22  1  0.91880000  0.76616000  0.29492000  1.0 -0.4716450762
O  O23  1  0.58120000  0.23384000  0.79492000  1.0 -0.4716450762
O  O24  1  0.58120000  0.26616000  0.70508000  1.0 -0.4716450762
O  O25  1  0.08170000  0.20991000  0.77551000  1.0 -0.5366353807
O  O26  1  0.08170000  0.29009000  0.72449000  1.0 -0.5366353807
O  O27  1  0.41830000  0.70991000  0.22449000  1.0 -0.5366353807
O  O28  1  0.41830000  0.79009000  0.27551000  1.0 -0.5366353807
O  O29  1  0.91830000  0.79009000  0.22449000  1.0 -0.5366353807
O  O30  1  0.91830000  0.70991000  0.27551000  1.0 -0.5366353807
O  O31  1  0.58170000  0.29009000  0.77551000  1.0 -0.5366353807
O  O32  1  0.58170000  0.20991000  0.72449000  1.0 -0.5366353807
O  O33  1  0.24578000  0.03889000  0.97570000  1.0 -0.5107442484
O  O34  1  0.24578000  0.46111000  0.52430000  1.0 -0.5107442484
O  O35  1  0.25422000  0.53889000  0.02430000  1.0 -0.5107442484
O  O36  1  0.25422000  0.96111000  0.47570000  1.0 -0.5107442484
O  O37  1  0.75422000  0.96111000  0.02430000  1.0 -0.5107442484
O  O38  1  0.75422000  0.53889000  0.47570000  1.0 -0.5107442484
O  O39  1  0.74578000  0.46111000  0.97570000  1.0 -0.5107442484
O  O40  1  0.74578000  0.03889000  0.52430000  1.0 -0.5107442484
O  O41  1  0.25101000  0.01457000  0.04553000  1.0 -0.5107442484
O  O42  1  0.25101000  0.48543000  0.45447000  1.0 -0.5107442484
O  O43  1  0.24899000  0.51457000  0.95447000  1.0 -0.5107442484
O  O44  1  0.24899000  0.98543000  0.54553000  1.0 -0.5107442484
O  O45  1  0.74899000  0.98543000  0.95447000  1.0 -0.5107442484
O  O46  1  0.74899000  0.51457000  0.54553000  1.0 -0.5107442484
O  O47  1  0.75101000  0.48543000  0.04553000  1.0 -0.5107442484
O  O48  1  0.75101000  0.01457000  0.45447000  1.0 -0.5107442484
O  O49  1  0.27184000  0.44550000  0.97811000  1.0 -0.5107442484
O  O50  1  0.27184000  0.05450000  0.52189000  1.0 -0.5107442484
O  O51  1  0.22816000  0.94550000  0.02189000  1.0 -0.5107442484
O  O52  1  0.22816000  0.55450000  0.47811000  1.0 -0.5107442484
O  O53  1  0.72816000  0.55450000  0.02189000  1.0 -0.5107442484
O  O54  1  0.72816000  0.94550000  0.47811000  1.0 -0.5107442484
O  O55  1  0.77184000  0.05450000  0.97811000  1.0 -0.5107442484
O  O56  1  0.77184000  0.44550000  0.52189000  1.0 -0.5107442484
O  O57  1  0.48020000  0.23272000  0.79443000  1.0 -0.4843045142
O  O58  1  0.48020000  0.26728000  0.70557000  1.0 -0.4843045142
O  O59  1  0.01980000  0.73272000  0.20557000  1.0 -0.4843045142
O  O60  1  0.01980000  0.76728000  0.29443000  1.0 -0.4843045142
O  O61  1  0.51980000  0.76728000  0.20557000  1.0 -0.4843045142
O  O62  1  0.51980000  0.73272000  0.29443000  1.0 -0.4843045142
O  O63  1  0.98020000  0.26728000  0.79443000  1.0 -0.4843045142
O  O64  1  0.98020000  0.23272000  0.70557000  1.0 -0.4843045142
O  O65  1  0.47890000  0.28887000  0.77646000  1.0 -0.5186972974
O  O66  1  0.47890000  0.21113000  0.72354000  1.0 -0.5186972974
O  O67  1  0.02110000  0.78887000  0.22354000  1.0 -0.5186972974
O  O68  1  0.02110000  0.71113000  0.27646000  1.0 -0.5186972974
O  O69  1  0.52110000  0.71113000  0.22354000  1.0 -0.5186972974
O  O70  1  0.52110000  0.78887000  0.27646000  1.0 -0.5186972974
O  O71  1  0.97890000  0.21113000  0.77646000  1.0 -0.5186972974
O  O72  1  0.97890000  0.28887000  0.72354000  1.0 -0.5186972974
O  O73  1  0.35204000  0.45533000  0.97111000  1.0 -0.5107442484
O  O74  1  0.35204000  0.04467000  0.52889000  1.0 -0.5107442484
O  O75  1  0.14796000  0.95533000  0.02889000  1.0 -0.5107442484
O  O76  1  0.14796000  0.54467000  0.47111000  1.0 -0.5107442484
O  O77  1  0.64796000  0.54467000  0.02889000  1.0 -0.5107442484
O  O78  1  0.64796000  0.95533000  0.47111000  1.0 -0.5107442484
O  O79  1  0.85204000  0.04467000  0.97111000  1.0 -0.5107442484
O  O80  1  0.85204000  0.45533000  0.52889000  1.0 -0.5107442484
O  O81  1  0.08910000  0.20498000  0.26665000  1.0 -0.5186972974
O  O82  1  0.08910000  0.29502000  0.23335000  1.0 -0.5186972974
O  O83  1  0.41090000  0.70498000  0.73335000  1.0 -0.5186972974
O  O84  1  0.41090000  0.79502000  0.76665000  1.0 -0.5186972974
O  O85  1  0.91090000  0.79502000  0.73335000  1.0 -0.5186972974
O  O86  1  0.91090000  0.70498000  0.76665000  1.0 -0.5186972974
O  O87  1  0.58910000  0.29502000  0.26665000  1.0 -0.5186972974
O  O88  1  0.58910000  0.20498000  0.23335000  1.0 -0.5186972974
O  O89  1  0.09030000  0.22513000  0.21020000  1.0 -0.4921084311
O  O90  1  0.09030000  0.27487000  0.28980000  1.0 -0.4921084311
O  O91  1  0.40970000  0.72513000  0.78980000  1.0 -0.4921084311
O  O92  1  0.40970000  0.77487000  0.71020000  1.0 -0.4921084311
O  O93  1  0.90970000  0.77487000  0.78980000  1.0 -0.4921084311
O  O94  1  0.90970000  0.72513000  0.71020000  1.0 -0.4921084311
O  O95  1  0.59030000  0.27487000  0.21020000  1.0 -0.4921084311
O  O96  1  0.59030000  0.22513000  0.28980000  1.0 -0.4921084311
O  O97  1  0.35680000  0.02528000  0.45707000  1.0 -0.5288169947
O  O98  1  0.35680000  0.47472000  0.04293000  1.0 -0.5288169947
O  O99  1  0.14320000  0.52528000  0.54293000  1.0 -0.5288169947
O  O100  1  0.14320000  0.97472000  0.95707000  1.0 -0.5288169947
O  O101  1  0.64320000  0.97472000  0.54293000  1.0 -0.5288169947
O  O102  1  0.64320000  0.52528000  0.95707000  1.0 -0.5288169947
O  O103  1  0.85680000  0.47472000  0.45707000  1.0 -0.5288169947
O  O104  1  0.85680000  0.02528000  0.04293000  1.0 -0.5288169947
O  O105  1  0.27513000  0.02990000  0.45143000  1.0 -0.4921084311
O  O106  1  0.27513000  0.47010000  0.04857000  1.0 -0.4921084311
O  O107  1  0.22487000  0.52990000  0.54857000  1.0 -0.4921084311
O  O108  1  0.22487000  0.97010000  0.95143000  1.0 -0.4921084311
O  O109  1  0.72487000  0.97010000  0.54857000  1.0 -0.4921084311
O  O110  1  0.72487000  0.52990000  0.95143000  1.0 -0.4921084311
O  O111  1  0.77513000  0.47010000  0.45143000  1.0 -0.4921084311
O  O112  1  0.77513000  0.02990000  0.04857000  1.0 -0.4921084311
O  O113  1  0.49050000  0.22472000  0.29159000  1.0 -0.5186972974
O  O114  1  0.49050000  0.27528000  0.20841000  1.0 -0.5107442484
O  O115  1  0.00950000  0.72472000  0.70841000  1.0 -0.5186972974
O  O116  1  0.00950000  0.77528000  0.79159000  1.0 -0.5186972974
O  O117  1  0.50950000  0.77528000  0.70841000  1.0 -0.5186972974
O  O118  1  0.50950000  0.72472000  0.79159000  1.0 -0.5186972974
O  O119  1  0.99050000  0.27528000  0.29159000  1.0 -0.5186972974
O  O120  1  0.99050000  0.22472000  0.20841000  1.0 -0.5186972974
O  O121  1  0.49020000  0.20582000  0.23482000  1.0 -0.5107442484
O  O122  1  0.49020000  0.29418000  0.26518000  1.0 -0.5107442484
O  O123  1  0.00980000  0.70582000  0.76518000  1.0 -0.5107442484
O  O124  1  0.00980000  0.79418000  0.73482000  1.0 -0.5107442484
O  O125  1  0.50980000  0.79418000  0.76518000  1.0 -0.5107442484
O  O126  1  0.50980000  0.70582000  0.73482000  1.0 -0.5107442484
O  O127  1  0.99020000  0.29418000  0.23482000  1.0 -0.5107442484
O  O128  1  0.99020000  0.20582000  0.26518000  1.0 -0.5107442484
