# DDEC6 charges by PACMAN v1.1 (https://github.com/mtap-research/PACMAN-charge/)
data_XUDPET_ASR_pacman
_symmetry_space_group_name_H-M   'P 1'
_cell_length_a   26.70000000
_cell_length_b   26.70000000
_cell_length_c   26.72000000
_cell_angle_alpha   90.00000000
_cell_angle_beta   90.00000000
_cell_angle_gamma   90.00000000
_symmetry_Int_Tables_number   1
_chemical_formula_structural   CuH15C23N3O5
_chemical_formula_sum   'Cu16 H240 C368 N48 O80'
_cell_volume   19048.42080000
_cell_formula_units_Z   16
loop_
 _symmetry_equiv_pos_site_id
 _symmetry_equiv_pos_as_xyz
  1  'x, y, z'
loop_
 _atom_site_type_symbol
 _atom_site_label
 _atom_site_symmetry_multiplicity
 _atom_site_fract_x
 _atom_site_fract_y
 _atom_site_fract_z
 _atom_site_occupancy
 _atom_site_charge
Cu  Cu1  1  0.00000000  0.00000000  0.14982000  1.0 0.7000273031
Cu  Cu2  1  0.50000000  0.50000000  0.35018000  1.0 0.7000273031
Cu  Cu3  1  0.00000000  0.00000000  0.85018000  1.0 0.7000273031
Cu  Cu4  1  0.50000000  0.50000000  0.64982000  1.0 0.7000273031
Cu  Cu5  1  0.00000000  0.00000000  0.24957000  1.0 0.5631610971
Cu  Cu6  1  0.50000000  0.50000000  0.25043000  1.0 0.5631610971
Cu  Cu7  1  0.00000000  0.00000000  0.75043000  1.0 0.5631610971
Cu  Cu8  1  0.50000000  0.50000000  0.74957000  1.0 0.5631610971
Cu  Cu9  1  0.52201000  0.04414000  0.00000000  1.0 0.8520453881
Cu  Cu10  1  0.47799000  0.95586000  0.00000000  1.0 0.8520453881
Cu  Cu11  1  0.95586000  0.52201000  0.00000000  1.0 0.8520453881
Cu  Cu12  1  0.04414000  0.47799000  0.00000000  1.0 0.8520453881
Cu  Cu13  1  0.97799000  0.54414000  0.50000000  1.0 0.8520453881
Cu  Cu14  1  0.02201000  0.45586000  0.50000000  1.0 0.8520453881
Cu  Cu15  1  0.54414000  0.02201000  0.50000000  1.0 0.8520453881
Cu  Cu16  1  0.45586000  0.97799000  0.50000000  1.0 0.8520453881
H  H1  1  0.84700000  0.95610000  0.12320000  1.0 0.1198794552
H  H2  1  0.15300000  0.04390000  0.12320000  1.0 0.1198794552
H  H3  1  0.04390000  0.84700000  0.12320000  1.0 0.1198794552
H  H4  1  0.95610000  0.15300000  0.12320000  1.0 0.1198794552
H  H5  1  0.65300000  0.45610000  0.37680000  1.0 0.1198794552
H  H6  1  0.34700000  0.54390000  0.37680000  1.0 0.1198794552
H  H7  1  0.45610000  0.34700000  0.37680000  1.0 0.1198794552
H  H8  1  0.54390000  0.65300000  0.37680000  1.0 0.1198794552
H  H9  1  0.15300000  0.04390000  0.87680000  1.0 0.1198794552
H  H10  1  0.84700000  0.95610000  0.87680000  1.0 0.1198794552
H  H11  1  0.95610000  0.15300000  0.87680000  1.0 0.1198794552
H  H12  1  0.04390000  0.84700000  0.87680000  1.0 0.1198794552
H  H13  1  0.34700000  0.54390000  0.62320000  1.0 0.1096364285
H  H14  1  0.65300000  0.45610000  0.62320000  1.0 0.1096364285
H  H15  1  0.54390000  0.65300000  0.62320000  1.0 0.1096364285
H  H16  1  0.45610000  0.34700000  0.62320000  1.0 0.1198794552
H  H17  1  0.76590000  0.92450000  0.12270000  1.0 0.1387830164
H  H18  1  0.23410000  0.07550000  0.12270000  1.0 0.1387830164
H  H19  1  0.07550000  0.76590000  0.12270000  1.0 0.1387830164
H  H20  1  0.92450000  0.23410000  0.12270000  1.0 0.1387830164
H  H21  1  0.73410000  0.42450000  0.37730000  1.0 0.1387830164
H  H22  1  0.26590000  0.57550000  0.37730000  1.0 0.1387830164
H  H23  1  0.42450000  0.26590000  0.37730000  1.0 0.1387830164
H  H24  1  0.57550000  0.73410000  0.37730000  1.0 0.1387830164
H  H25  1  0.23410000  0.07550000  0.87730000  1.0 0.1387830164
H  H26  1  0.76590000  0.92450000  0.87730000  1.0 0.1387830164
H  H27  1  0.92450000  0.23410000  0.87730000  1.0 0.1387830164
H  H28  1  0.07550000  0.76590000  0.87730000  1.0 0.1387830164
H  H29  1  0.26590000  0.57550000  0.62270000  1.0 0.1387830164
H  H30  1  0.73410000  0.42450000  0.62270000  1.0 0.1387830164
H  H31  1  0.57550000  0.73410000  0.62270000  1.0 0.1387830164
H  H32  1  0.42450000  0.26590000  0.62270000  1.0 0.1387830164
H  H33  1  0.76930000  0.91150000  0.27090000  1.0 0.1198794552
H  H34  1  0.23070000  0.08850000  0.27090000  1.0 0.1198794552
H  H35  1  0.08850000  0.76930000  0.27090000  1.0 0.1198794552
H  H36  1  0.91150000  0.23070000  0.27090000  1.0 0.1198794552
H  H37  1  0.73070000  0.41150000  0.22910000  1.0 0.1198794552
H  H38  1  0.26930000  0.58850000  0.22910000  1.0 0.1198794552
H  H39  1  0.41150000  0.26930000  0.22910000  1.0 0.1198794552
H  H40  1  0.58850000  0.73070000  0.22910000  1.0 0.1198794552
H  H41  1  0.23070000  0.08850000  0.72910000  1.0 0.1198794552
H  H42  1  0.76930000  0.91150000  0.72910000  1.0 0.1198794552
H  H43  1  0.91150000  0.23070000  0.72910000  1.0 0.1198794552
H  H44  1  0.08850000  0.76930000  0.72910000  1.0 0.1198794552
H  H45  1  0.26930000  0.58850000  0.77090000  1.0 0.1198794552
H  H46  1  0.73070000  0.41150000  0.77090000  1.0 0.1198794552
H  H47  1  0.58850000  0.73070000  0.77090000  1.0 0.1198794552
H  H48  1  0.41150000  0.26930000  0.77090000  1.0 0.1198794552
H  H49  1  0.84920000  0.94420000  0.27240000  1.0 0.1490281466
H  H50  1  0.15080000  0.05580000  0.27240000  1.0 0.1490281466
H  H51  1  0.05580000  0.84920000  0.27240000  1.0 0.1490281466
H  H52  1  0.94420000  0.15080000  0.27240000  1.0 0.1490281466
H  H53  1  0.65080000  0.44420000  0.22760000  1.0 0.1490281466
H  H54  1  0.34920000  0.55580000  0.22760000  1.0 0.1490281466
H  H55  1  0.44420000  0.34920000  0.22760000  1.0 0.1490281466
H  H56  1  0.55580000  0.65080000  0.22760000  1.0 0.1490281466
H  H57  1  0.15080000  0.05580000  0.72760000  1.0 0.1490281466
H  H58  1  0.84920000  0.94420000  0.72760000  1.0 0.1490281466
H  H59  1  0.94420000  0.15080000  0.72760000  1.0 0.1490281466
H  H60  1  0.05580000  0.84920000  0.72760000  1.0 0.1490281466
H  H61  1  0.34920000  0.55580000  0.77240000  1.0 0.1490281466
H  H62  1  0.65080000  0.44420000  0.77240000  1.0 0.1490281466
H  H63  1  0.55580000  0.65080000  0.77240000  1.0 0.1490281466
H  H64  1  0.44420000  0.34920000  0.77240000  1.0 0.1490281466
H  H65  1  0.69370000  0.98430000  0.16870000  1.0 0.1284409757
H  H66  1  0.30630000  0.01570000  0.16870000  1.0 0.1284409757
H  H67  1  0.01570000  0.69370000  0.16870000  1.0 0.1284409757
H  H68  1  0.98430000  0.30630000  0.16870000  1.0 0.1284409757
H  H69  1  0.80630000  0.48430000  0.33130000  1.0 0.1284409757
H  H70  1  0.19370000  0.51570000  0.33130000  1.0 0.1284409757
H  H71  1  0.48430000  0.19370000  0.33130000  1.0 0.1284409757
H  H72  1  0.51570000  0.80630000  0.33130000  1.0 0.1284409757
H  H73  1  0.30630000  0.01570000  0.83130000  1.0 0.1284409757
H  H74  1  0.69370000  0.98430000  0.83130000  1.0 0.1284409757
H  H75  1  0.98430000  0.30630000  0.83130000  1.0 0.1284409757
H  H76  1  0.01570000  0.69370000  0.83130000  1.0 0.1284409757
H  H77  1  0.19370000  0.51570000  0.66870000  1.0 0.1284409757
H  H78  1  0.80630000  0.48430000  0.66870000  1.0 0.1284409757
H  H79  1  0.51570000  0.80630000  0.66870000  1.0 0.1284409757
H  H80  1  0.48430000  0.19370000  0.66870000  1.0 0.1284409757
H  H81  1  0.63260000  0.01640000  0.11850000  1.0 0.1284409757
H  H82  1  0.36740000  0.98360000  0.11850000  1.0 0.1284409757
H  H83  1  0.98360000  0.63260000  0.11850000  1.0 0.1284409757
H  H84  1  0.01640000  0.36740000  0.11850000  1.0 0.1284409757
H  H85  1  0.86740000  0.51640000  0.38150000  1.0 0.1284409757
H  H86  1  0.13260000  0.48360000  0.38150000  1.0 0.1284409757
H  H87  1  0.51640000  0.13260000  0.38150000  1.0 0.1284409757
H  H88  1  0.48360000  0.86740000  0.38150000  1.0 0.1284409757
H  H89  1  0.36740000  0.98360000  0.88150000  1.0 0.1284409757
H  H90  1  0.63260000  0.01640000  0.88150000  1.0 0.1284409757
H  H91  1  0.01640000  0.36740000  0.88150000  1.0 0.1284409757
H  H92  1  0.98360000  0.63260000  0.88150000  1.0 0.1284409757
H  H93  1  0.13260000  0.48360000  0.61850000  1.0 0.1284409757
H  H94  1  0.86740000  0.51640000  0.61850000  1.0 0.1284409757
H  H95  1  0.48360000  0.86740000  0.61850000  1.0 0.1284409757
H  H96  1  0.51640000  0.13260000  0.61850000  1.0 0.1284409757
H  H97  1  0.57830000  0.87790000  0.09810000  1.0 0.1284409757
H  H98  1  0.42170000  0.12210000  0.09810000  1.0 0.1284409757
H  H99  1  0.12210000  0.57830000  0.09810000  1.0 0.1284409757
H  H100  1  0.87790000  0.42170000  0.09810000  1.0 0.1284409757
H  H101  1  0.92170000  0.37790000  0.40190000  1.0 0.1198794552
H  H102  1  0.07830000  0.62210000  0.40190000  1.0 0.1284409757
H  H103  1  0.37790000  0.07830000  0.40190000  1.0 0.1284409757
H  H104  1  0.62210000  0.92170000  0.40190000  1.0 0.1198794552
H  H105  1  0.42170000  0.12210000  0.90190000  1.0 0.1284409757
H  H106  1  0.57830000  0.87790000  0.90190000  1.0 0.1284409757
H  H107  1  0.87790000  0.42170000  0.90190000  1.0 0.1284409757
H  H108  1  0.12210000  0.57830000  0.90190000  1.0 0.1284409757
H  H109  1  0.07830000  0.62210000  0.59810000  1.0 0.1284409757
H  H110  1  0.92170000  0.37790000  0.59810000  1.0 0.1284409757
H  H111  1  0.62210000  0.92170000  0.59810000  1.0 0.1284409757
H  H112  1  0.37790000  0.07830000  0.59810000  1.0 0.1284409757
H  H113  1  0.64060000  0.84560000  0.14810000  1.0 0.1284409757
H  H114  1  0.35940000  0.15440000  0.14810000  1.0 0.1284409757
H  H115  1  0.15440000  0.64060000  0.14810000  1.0 0.1284409757
H  H116  1  0.84560000  0.35940000  0.14810000  1.0 0.1284409757
H  H117  1  0.85940000  0.34560000  0.35190000  1.0 0.1284409757
H  H118  1  0.14060000  0.65440000  0.35190000  1.0 0.1284409757
H  H119  1  0.34560000  0.14060000  0.35190000  1.0 0.1284409757
H  H120  1  0.65440000  0.85940000  0.35190000  1.0 0.1284409757
H  H121  1  0.35940000  0.15440000  0.85190000  1.0 0.1284409757
H  H122  1  0.64060000  0.84560000  0.85190000  1.0 0.1284409757
H  H123  1  0.84560000  0.35940000  0.85190000  1.0 0.1284409757
H  H124  1  0.15440000  0.64060000  0.85190000  1.0 0.1284409757
H  H125  1  0.14060000  0.65440000  0.64810000  1.0 0.1284409757
H  H126  1  0.85940000  0.34560000  0.64810000  1.0 0.1284409757
H  H127  1  0.65440000  0.85940000  0.64810000  1.0 0.1284409757
H  H128  1  0.34560000  0.14060000  0.64810000  1.0 0.1284409757
H  H129  1  0.77030000  0.81600000  0.20800000  1.0 0.1284409757
H  H130  1  0.22970000  0.18400000  0.20800000  1.0 0.1284409757
H  H131  1  0.18400000  0.77030000  0.20800000  1.0 0.1284409757
H  H132  1  0.81600000  0.22970000  0.20800000  1.0 0.1284409757
H  H133  1  0.72970000  0.31600000  0.29200000  1.0 0.1284409757
H  H134  1  0.27030000  0.68400000  0.29200000  1.0 0.1284409757
H  H135  1  0.31600000  0.27030000  0.29200000  1.0 0.1284409757
H  H136  1  0.68400000  0.72970000  0.29200000  1.0 0.1284409757
H  H137  1  0.22970000  0.18400000  0.79200000  1.0 0.1284409757
H  H138  1  0.77030000  0.81600000  0.79200000  1.0 0.1284409757
H  H139  1  0.81600000  0.22970000  0.79200000  1.0 0.1284409757
H  H140  1  0.18400000  0.77030000  0.79200000  1.0 0.1284409757
H  H141  1  0.27030000  0.68400000  0.70800000  1.0 0.1284409757
H  H142  1  0.72970000  0.31600000  0.70800000  1.0 0.1284409757
H  H143  1  0.68400000  0.72970000  0.70800000  1.0 0.1284409757
H  H144  1  0.31600000  0.27030000  0.70800000  1.0 0.1284409757
H  H145  1  0.63520000  0.86480000  0.25000000  1.0 0.1490281466
H  H146  1  0.36480000  0.13520000  0.25000000  1.0 0.1490281466
H  H147  1  0.13520000  0.63520000  0.25000000  1.0 0.1490281466
H  H148  1  0.86480000  0.36480000  0.25000000  1.0 0.1490281466
H  H149  1  0.36480000  0.13520000  0.75000000  1.0 0.1490281466
H  H150  1  0.63520000  0.86480000  0.75000000  1.0 0.1490281466
H  H151  1  0.86480000  0.36480000  0.75000000  1.0 0.1490281466
H  H152  1  0.13520000  0.63520000  0.75000000  1.0 0.1490281466
H  H153  1  0.75700000  0.74300000  0.25000000  1.0 0.1096364285
H  H154  1  0.24300000  0.25700000  0.25000000  1.0 0.1096364285
H  H155  1  0.25700000  0.75700000  0.25000000  1.0 0.1096364285
H  H156  1  0.74300000  0.24300000  0.25000000  1.0 0.1096364285
H  H157  1  0.24300000  0.25700000  0.75000000  1.0 0.1096364285
H  H158  1  0.75700000  0.74300000  0.75000000  1.0 0.1096364285
H  H159  1  0.74300000  0.24300000  0.75000000  1.0 0.1096364285
H  H160  1  0.25700000  0.75700000  0.75000000  1.0 0.1096364285
H  H161  1  0.93330000  0.99800000  0.35650000  1.0 0.0887665499
H  H162  1  0.06670000  0.00200000  0.35650000  1.0 0.0887665499
H  H163  1  0.00200000  0.93330000  0.35650000  1.0 0.0887665499
H  H164  1  0.99800000  0.06670000  0.35650000  1.0 0.0887665499
H  H165  1  0.56670000  0.49800000  0.14350000  1.0 0.0887665499
H  H166  1  0.43330000  0.50200000  0.14350000  1.0 0.0887665499
H  H167  1  0.49800000  0.43330000  0.14350000  1.0 0.0887665499
H  H168  1  0.50200000  0.56670000  0.14350000  1.0 0.0887665499
H  H169  1  0.06670000  0.00200000  0.64350000  1.0 0.0887665499
H  H170  1  0.93330000  0.99800000  0.64350000  1.0 0.0887665499
H  H171  1  0.99800000  0.06670000  0.64350000  1.0 0.0887665499
H  H172  1  0.00200000  0.93330000  0.64350000  1.0 0.0887665499
H  H173  1  0.43330000  0.50200000  0.85650000  1.0 0.0887665499
H  H174  1  0.56670000  0.49800000  0.85650000  1.0 0.0887665499
H  H175  1  0.50200000  0.56670000  0.85650000  1.0 0.0887665499
H  H176  1  0.49800000  0.43330000  0.85650000  1.0 0.0887665499
H  H177  1  0.06350000  0.02520000  0.43070000  1.0 0.1031514783
H  H178  1  0.93650000  0.97480000  0.43070000  1.0 0.1031514783
H  H179  1  0.97480000  0.06350000  0.43070000  1.0 0.1031514783
H  H180  1  0.02520000  0.93650000  0.43070000  1.0 0.1031514783
H  H181  1  0.43650000  0.52520000  0.06930000  1.0 0.1031514783
H  H182  1  0.56350000  0.47480000  0.06930000  1.0 0.1031514783
H  H183  1  0.52520000  0.56350000  0.06930000  1.0 0.1031514783
H  H184  1  0.47480000  0.43650000  0.06930000  1.0 0.1031514783
H  H185  1  0.93650000  0.97480000  0.56930000  1.0 0.1031514783
H  H186  1  0.06350000  0.02520000  0.56930000  1.0 0.1031514783
H  H187  1  0.02520000  0.93650000  0.56930000  1.0 0.1031514783
H  H188  1  0.97480000  0.06350000  0.56930000  1.0 0.1031514783
H  H189  1  0.56350000  0.47480000  0.93070000  1.0 0.1031514783
H  H190  1  0.43650000  0.52520000  0.93070000  1.0 0.1031514783
H  H191  1  0.47480000  0.43650000  0.93070000  1.0 0.1031514783
H  H192  1  0.52520000  0.56350000  0.93070000  1.0 0.1031514783
H  H193  1  0.08410000  0.01130000  0.34000000  1.0 0.0611061393
H  H194  1  0.91590000  0.98870000  0.34000000  1.0 0.0611061393
H  H195  1  0.98870000  0.08410000  0.34000000  1.0 0.0611061393
H  H196  1  0.01130000  0.91590000  0.34000000  1.0 0.0611061393
H  H197  1  0.41590000  0.51130000  0.16000000  1.0 0.0611061393
H  H198  1  0.58410000  0.48870000  0.16000000  1.0 0.0611061393
H  H199  1  0.51130000  0.58410000  0.16000000  1.0 0.0611061393
H  H200  1  0.48870000  0.41590000  0.16000000  1.0 0.0611061393
H  H201  1  0.91590000  0.98870000  0.66000000  1.0 0.0611061393
H  H202  1  0.08410000  0.01130000  0.66000000  1.0 0.0611061393
H  H203  1  0.01130000  0.91590000  0.66000000  1.0 0.0611061393
H  H204  1  0.98870000  0.08410000  0.66000000  1.0 0.0611061393
H  H205  1  0.58410000  0.48870000  0.84000000  1.0 0.0611061393
H  H206  1  0.41590000  0.51130000  0.84000000  1.0 0.0611061393
H  H207  1  0.48870000  0.41590000  0.84000000  1.0 0.0611061393
H  H208  1  0.51130000  0.58410000  0.84000000  1.0 0.0611061393
H  H209  1  0.02490000  0.00830000  0.50000000  1.0 0.0684750985
H  H210  1  0.97510000  0.99170000  0.50000000  1.0 0.0684750985
H  H211  1  0.99170000  0.02490000  0.50000000  1.0 0.0684750985
H  H212  1  0.00830000  0.97510000  0.50000000  1.0 0.0684750985
H  H213  1  0.47510000  0.50830000  0.00000000  1.0 0.0684750985
H  H214  1  0.52490000  0.49170000  0.00000000  1.0 0.0684750985
H  H215  1  0.50830000  0.52490000  0.00000000  1.0 0.0684750985
H  H216  1  0.49170000  0.47510000  0.00000000  1.0 0.0684750985
H  H217  1  0.89270000  0.02490000  0.42540000  1.0 0.1096364285
H  H218  1  0.10730000  0.97510000  0.42540000  1.0 0.1096364285
H  H219  1  0.97510000  0.89270000  0.42540000  1.0 0.1096364285
H  H220  1  0.02490000  0.10730000  0.42540000  1.0 0.1096364285
H  H221  1  0.60730000  0.52490000  0.07460000  1.0 0.1096364285
H  H222  1  0.39270000  0.47510000  0.07460000  1.0 0.1096364285
H  H223  1  0.52490000  0.39270000  0.07460000  1.0 0.1096364285
H  H224  1  0.47510000  0.60730000  0.07460000  1.0 0.1096364285
H  H225  1  0.10730000  0.97510000  0.57460000  1.0 0.1096364285
H  H226  1  0.89270000  0.02490000  0.57460000  1.0 0.1096364285
H  H227  1  0.02490000  0.10730000  0.57460000  1.0 0.1096364285
H  H228  1  0.97510000  0.89270000  0.57460000  1.0 0.1096364285
H  H229  1  0.39270000  0.47510000  0.92540000  1.0 0.1096364285
H  H230  1  0.60730000  0.52490000  0.92540000  1.0 0.1096364285
H  H231  1  0.47510000  0.60730000  0.92540000  1.0 0.1096364285
H  H232  1  0.52490000  0.39270000  0.92540000  1.0 0.1096364285
H  H233  1  0.84910000  0.00700000  0.50000000  1.0 0.1387830164
H  H234  1  0.15090000  0.99300000  0.50000000  1.0 0.1387830164
H  H235  1  0.99300000  0.84910000  0.50000000  1.0 0.1387830164
H  H236  1  0.00700000  0.15090000  0.50000000  1.0 0.1387830164
H  H237  1  0.65090000  0.50700000  0.00000000  1.0 0.1387830164
H  H238  1  0.34910000  0.49300000  0.00000000  1.0 0.1387830164
H  H239  1  0.50700000  0.34910000  0.00000000  1.0 0.1387830164
H  H240  1  0.49300000  0.65090000  0.00000000  1.0 0.1387830164
C  C1  1  0.90977000  0.97141000  0.19837000  1.0 0.5631610971
C  C2  1  0.09023000  0.02859000  0.19837000  1.0 0.5631610971
C  C3  1  0.02859000  0.90977000  0.19837000  1.0 0.5631610971
C  C4  1  0.97141000  0.09023000  0.19837000  1.0 0.5631610971
C  C5  1  0.59023000  0.47141000  0.30163000  1.0 0.5631610971
C  C6  1  0.40977000  0.52859000  0.30163000  1.0 0.5631610971
C  C7  1  0.47141000  0.40977000  0.30163000  1.0 0.5631610971
C  C8  1  0.52859000  0.59023000  0.30163000  1.0 0.5631610971
C  C9  1  0.09023000  0.02859000  0.80163000  1.0 0.5631610971
C  C10  1  0.90977000  0.97141000  0.80163000  1.0 0.5631610971
C  C11  1  0.97141000  0.09023000  0.80163000  1.0 0.5631610971
C  C12  1  0.02859000  0.90977000  0.80163000  1.0 0.5631610971
C  C13  1  0.40977000  0.52859000  0.69837000  1.0 0.5631610971
C  C14  1  0.59023000  0.47141000  0.69837000  1.0 0.5631610971
C  C15  1  0.52859000  0.59023000  0.69837000  1.0 0.5631610971
C  C16  1  0.47141000  0.40977000  0.69837000  1.0 0.5631610971
C  C17  1  0.85694000  0.95300000  0.19782000  1.0 -0.0222165955
C  C18  1  0.14306000  0.04700000  0.19782000  1.0 -0.0222165955
C  C19  1  0.04700000  0.85694000  0.19782000  1.0 -0.0222165955
C  C20  1  0.95300000  0.14306000  0.19782000  1.0 -0.0222165955
C  C21  1  0.64306000  0.45300000  0.30218000  1.0 -0.0222165955
C  C22  1  0.35694000  0.54700000  0.30218000  1.0 -0.0222165955
C  C23  1  0.45300000  0.35694000  0.30218000  1.0 -0.0222165955
C  C24  1  0.54700000  0.64306000  0.30218000  1.0 -0.0222165955
C  C25  1  0.14306000  0.04700000  0.80218000  1.0 -0.0222165955
C  C26  1  0.85694000  0.95300000  0.80218000  1.0 -0.0222165955
C  C27  1  0.95300000  0.14306000  0.80218000  1.0 -0.0222165955
C  C28  1  0.04700000  0.85694000  0.80218000  1.0 -0.0222165955
C  C29  1  0.35694000  0.54700000  0.69782000  1.0 -0.0222165955
C  C30  1  0.64306000  0.45300000  0.69782000  1.0 -0.0222165955
C  C31  1  0.54700000  0.64306000  0.69782000  1.0 -0.0222165955
C  C32  1  0.45300000  0.35694000  0.69782000  1.0 -0.0222165955
C  C33  1  0.83164000  0.94726000  0.15312000  1.0 -0.1362220224
C  C34  1  0.16836000  0.05274000  0.15312000  1.0 -0.1362220224
C  C35  1  0.05274000  0.83164000  0.15312000  1.0 -0.1362220224
C  C36  1  0.94726000  0.16836000  0.15312000  1.0 -0.1362220224
C  C37  1  0.66836000  0.44726000  0.34688000  1.0 -0.1362220224
C  C38  1  0.33164000  0.55274000  0.34688000  1.0 -0.1362220224
C  C39  1  0.44726000  0.33164000  0.34688000  1.0 -0.1362220224
C  C40  1  0.55274000  0.66836000  0.34688000  1.0 -0.1362220224
C  C41  1  0.16836000  0.05274000  0.84688000  1.0 -0.1362220224
C  C42  1  0.83164000  0.94726000  0.84688000  1.0 -0.1362220224
C  C43  1  0.94726000  0.16836000  0.84688000  1.0 -0.1362220224
C  C44  1  0.05274000  0.83164000  0.84688000  1.0 -0.1362220224
C  C45  1  0.33164000  0.55274000  0.65312000  1.0 -0.1362220224
C  C46  1  0.66836000  0.44726000  0.65312000  1.0 -0.1362220224
C  C47  1  0.55274000  0.66836000  0.65312000  1.0 -0.1362220224
C  C48  1  0.44726000  0.33164000  0.65312000  1.0 -0.1362220224
C  C49  1  0.78288000  0.92814000  0.15283000  1.0 -0.1724034428
C  C50  1  0.21712000  0.07186000  0.15283000  1.0 -0.1724034428
C  C51  1  0.07186000  0.78288000  0.15283000  1.0 -0.1724034428
C  C52  1  0.92814000  0.21712000  0.15283000  1.0 -0.1724034428
C  C53  1  0.71712000  0.42814000  0.34717000  1.0 -0.1724034428
C  C54  1  0.28288000  0.57186000  0.34717000  1.0 -0.1724034428
C  C55  1  0.42814000  0.28288000  0.34717000  1.0 -0.1724034428
C  C56  1  0.57186000  0.71712000  0.34717000  1.0 -0.1724034428
C  C57  1  0.21712000  0.07186000  0.84717000  1.0 -0.1724034428
C  C58  1  0.78288000  0.92814000  0.84717000  1.0 -0.1724034428
C  C59  1  0.92814000  0.21712000  0.84717000  1.0 -0.1724034428
C  C60  1  0.07186000  0.78288000  0.84717000  1.0 -0.1724034428
C  C61  1  0.28288000  0.57186000  0.65283000  1.0 -0.1724034428
C  C62  1  0.71712000  0.42814000  0.65283000  1.0 -0.1724034428
C  C63  1  0.57186000  0.71712000  0.65283000  1.0 -0.1724034428
C  C64  1  0.42814000  0.28288000  0.65283000  1.0 -0.1724034428
C  C65  1  0.76010000  0.91485000  0.19633000  1.0 0.1490281466
C  C66  1  0.23990000  0.08515000  0.19633000  1.0 0.1490281466
C  C67  1  0.08515000  0.76010000  0.19633000  1.0 0.1490281466
C  C68  1  0.91485000  0.23990000  0.19633000  1.0 0.1490281466
C  C69  1  0.73990000  0.41485000  0.30367000  1.0 0.1490281466
C  C70  1  0.26010000  0.58515000  0.30367000  1.0 0.1490281466
C  C71  1  0.41485000  0.26010000  0.30367000  1.0 0.1490281466
C  C72  1  0.58515000  0.73990000  0.30367000  1.0 0.1490281466
C  C73  1  0.23990000  0.08515000  0.80367000  1.0 0.1490281466
C  C74  1  0.76010000  0.91485000  0.80367000  1.0 0.1490281466
C  C75  1  0.91485000  0.23990000  0.80367000  1.0 0.1490281466
C  C76  1  0.08515000  0.76010000  0.80367000  1.0 0.1490281466
C  C77  1  0.26010000  0.58515000  0.69633000  1.0 0.1490281466
C  C78  1  0.73990000  0.41485000  0.69633000  1.0 0.1490281466
C  C79  1  0.58515000  0.73990000  0.69633000  1.0 0.1490281466
C  C80  1  0.41485000  0.26010000  0.69633000  1.0 0.1490281466
C  C81  1  0.78491000  0.92064000  0.24112000  1.0 -0.1724034428
C  C82  1  0.21509000  0.07936000  0.24112000  1.0 -0.1724034428
C  C83  1  0.07936000  0.78491000  0.24112000  1.0 -0.1724034428
C  C84  1  0.92064000  0.21509000  0.24112000  1.0 -0.1724034428
C  C85  1  0.71509000  0.42064000  0.25888000  1.0 -0.1724034428
C  C86  1  0.28491000  0.57936000  0.25888000  1.0 -0.1724034428
C  C87  1  0.42064000  0.28491000  0.25888000  1.0 -0.1724034428
C  C88  1  0.57936000  0.71509000  0.25888000  1.0 -0.1724034428
C  C89  1  0.21509000  0.07936000  0.75888000  1.0 -0.1724034428
C  C90  1  0.78491000  0.92064000  0.75888000  1.0 -0.1724034428
C  C91  1  0.92064000  0.21509000  0.75888000  1.0 -0.1724034428
C  C92  1  0.07936000  0.78491000  0.75888000  1.0 -0.1724034428
C  C93  1  0.28491000  0.57936000  0.74112000  1.0 -0.1724034428
C  C94  1  0.71509000  0.42064000  0.74112000  1.0 -0.1724034428
C  C95  1  0.57936000  0.71509000  0.74112000  1.0 -0.1724034428
C  C96  1  0.42064000  0.28491000  0.74112000  1.0 -0.1724034428
C  C97  1  0.83287000  0.93994000  0.24200000  1.0 -0.0958241251
C  C98  1  0.16713000  0.06006000  0.24200000  1.0 -0.0958241251
C  C99  1  0.06006000  0.83287000  0.24200000  1.0 -0.0958241251
C  C100  1  0.93994000  0.16713000  0.24200000  1.0 -0.0958241251
C  C101  1  0.66713000  0.43994000  0.25800000  1.0 -0.0958241251
C  C102  1  0.33287000  0.56006000  0.25800000  1.0 -0.0958241251
C  C103  1  0.43994000  0.33287000  0.25800000  1.0 -0.0958241251
C  C104  1  0.56006000  0.66713000  0.25800000  1.0 -0.0958241251
C  C105  1  0.16713000  0.06006000  0.75800000  1.0 -0.0945099209
C  C106  1  0.83287000  0.93994000  0.75800000  1.0 -0.0945099209
C  C107  1  0.93994000  0.16713000  0.75800000  1.0 -0.0945099209
C  C108  1  0.06006000  0.83287000  0.75800000  1.0 -0.0945099209
C  C109  1  0.33287000  0.56006000  0.74200000  1.0 -0.0958241251
C  C110  1  0.66713000  0.43994000  0.74200000  1.0 -0.0958241251
C  C111  1  0.56006000  0.66713000  0.74200000  1.0 -0.0958241251
C  C112  1  0.43994000  0.33287000  0.74200000  1.0 -0.0958241251
C  C113  1  0.67397000  0.91192000  0.16429000  1.0 0.1805879357
C  C114  1  0.32603000  0.08808000  0.16429000  1.0 0.1805879357
C  C115  1  0.08808000  0.67397000  0.16429000  1.0 0.1805879357
C  C116  1  0.91192000  0.32603000  0.16429000  1.0 0.1805879357
C  C117  1  0.82603000  0.41192000  0.33571000  1.0 0.1805879357
C  C118  1  0.17397000  0.58808000  0.33571000  1.0 0.1805879357
C  C119  1  0.41192000  0.17397000  0.33571000  1.0 0.1805879357
C  C120  1  0.58808000  0.82603000  0.33571000  1.0 0.1805879357
C  C121  1  0.32603000  0.08808000  0.83571000  1.0 0.1852687236
C  C122  1  0.67397000  0.91192000  0.83571000  1.0 0.1852687236
C  C123  1  0.91192000  0.32603000  0.83571000  1.0 0.1852687236
C  C124  1  0.08808000  0.67397000  0.83571000  1.0 0.1852687236
C  C125  1  0.17397000  0.58808000  0.66429000  1.0 0.1805879357
C  C126  1  0.82603000  0.41192000  0.66429000  1.0 0.1805879357
C  C127  1  0.58808000  0.82603000  0.66429000  1.0 0.1805879357
C  C128  1  0.41192000  0.17397000  0.66429000  1.0 0.1805879357
C  C129  1  0.67050000  0.96264000  0.15423000  1.0 -0.1921289496
C  C130  1  0.32950000  0.03736000  0.15423000  1.0 -0.1921289496
C  C131  1  0.03736000  0.67050000  0.15423000  1.0 -0.1921289496
C  C132  1  0.96264000  0.32950000  0.15423000  1.0 -0.1921289496
C  C133  1  0.82950000  0.46264000  0.34577000  1.0 -0.1921289496
C  C134  1  0.17050000  0.53736000  0.34577000  1.0 -0.1921289496
C  C135  1  0.46264000  0.17050000  0.34577000  1.0 -0.1921289496
C  C136  1  0.53736000  0.82950000  0.34577000  1.0 -0.1921289496
C  C137  1  0.32950000  0.03736000  0.84577000  1.0 -0.1921289496
C  C138  1  0.67050000  0.96264000  0.84577000  1.0 -0.1921289496
C  C139  1  0.96264000  0.32950000  0.84577000  1.0 -0.1921289496
C  C140  1  0.03736000  0.67050000  0.84577000  1.0 -0.1921289496
C  C141  1  0.17050000  0.53736000  0.65423000  1.0 -0.1921289496
C  C142  1  0.82950000  0.46264000  0.65423000  1.0 -0.1921289496
C  C143  1  0.53736000  0.82950000  0.65423000  1.0 -0.1921289496
C  C144  1  0.46264000  0.17050000  0.65423000  1.0 -0.1921289496
C  C145  1  0.63431000  0.98199000  0.12387000  1.0 -0.0754241634
C  C146  1  0.36569000  0.01801000  0.12387000  1.0 -0.0722271534
C  C147  1  0.01801000  0.63431000  0.12387000  1.0 -0.0722271534
C  C148  1  0.98199000  0.36569000  0.12387000  1.0 -0.0754241634
C  C149  1  0.86569000  0.48199000  0.37613000  1.0 -0.0722271534
C  C150  1  0.13431000  0.51801000  0.37613000  1.0 -0.0722271534
C  C151  1  0.48199000  0.13431000  0.37613000  1.0 -0.0722271534
C  C152  1  0.51801000  0.86569000  0.37613000  1.0 -0.0722271534
C  C153  1  0.36569000  0.01801000  0.87613000  1.0 -0.0722271534
C  C154  1  0.63431000  0.98199000  0.87613000  1.0 -0.0722271534
C  C155  1  0.98199000  0.36569000  0.87613000  1.0 -0.0722271534
C  C156  1  0.01801000  0.63431000  0.87613000  1.0 -0.0722271534
C  C157  1  0.13431000  0.51801000  0.62387000  1.0 -0.0722271534
C  C158  1  0.86569000  0.48199000  0.62387000  1.0 -0.0722271534
C  C159  1  0.51801000  0.86569000  0.62387000  1.0 -0.0722271534
C  C160  1  0.48199000  0.13431000  0.62387000  1.0 -0.0722271534
C  C161  1  0.59955000  0.94987000  0.10073000  1.0 -0.0541617289
C  C162  1  0.40045000  0.05013000  0.10073000  1.0 -0.0541617289
C  C163  1  0.05013000  0.59955000  0.10073000  1.0 -0.0541617289
C  C164  1  0.94987000  0.40045000  0.10073000  1.0 -0.0541617289
C  C165  1  0.90045000  0.44987000  0.39927000  1.0 -0.0541617289
C  C166  1  0.09955000  0.55013000  0.39927000  1.0 -0.0541617289
C  C167  1  0.44987000  0.09955000  0.39927000  1.0 -0.0541617289
C  C168  1  0.55013000  0.90045000  0.39927000  1.0 -0.0541617289
C  C169  1  0.40045000  0.05013000  0.89927000  1.0 -0.0541617289
C  C170  1  0.59955000  0.94987000  0.89927000  1.0 -0.0541617289
C  C171  1  0.94987000  0.40045000  0.89927000  1.0 -0.0541617289
C  C172  1  0.05013000  0.59955000  0.89927000  1.0 -0.0541617289
C  C173  1  0.09955000  0.55013000  0.60073000  1.0 -0.0541617289
C  C174  1  0.90045000  0.44987000  0.60073000  1.0 -0.0541617289
C  C175  1  0.55013000  0.90045000  0.60073000  1.0 -0.0541617289
C  C176  1  0.44987000  0.09955000  0.60073000  1.0 -0.0541617289
C  C177  1  0.60210000  0.89942000  0.11170000  1.0 -0.0722271534
C  C178  1  0.39790000  0.10058000  0.11170000  1.0 -0.0722271534
C  C179  1  0.10058000  0.60210000  0.11170000  1.0 -0.0722271534
C  C180  1  0.89942000  0.39790000  0.11170000  1.0 -0.0722271534
C  C181  1  0.89790000  0.39942000  0.38830000  1.0 -0.0722271534
C  C182  1  0.10210000  0.60058000  0.38830000  1.0 -0.0722271534
C  C183  1  0.39942000  0.10210000  0.38830000  1.0 -0.0722271534
C  C184  1  0.60058000  0.89790000  0.38830000  1.0 -0.0722271534
C  C185  1  0.39790000  0.10058000  0.88830000  1.0 -0.0722271534
C  C186  1  0.60210000  0.89942000  0.88830000  1.0 -0.0722271534
C  C187  1  0.89942000  0.39790000  0.88830000  1.0 -0.0722271534
C  C188  1  0.10058000  0.60210000  0.88830000  1.0 -0.0722271534
C  C189  1  0.10210000  0.60058000  0.61170000  1.0 -0.0722271534
C  C190  1  0.89790000  0.39942000  0.61170000  1.0 -0.0722271534
C  C191  1  0.60058000  0.89790000  0.61170000  1.0 -0.0722271534
C  C192  1  0.39942000  0.10210000  0.61170000  1.0 -0.0722271534
C  C193  1  0.63901000  0.87994000  0.14225000  1.0 -0.2088950056
C  C194  1  0.36099000  0.12006000  0.14225000  1.0 -0.2088950056
C  C195  1  0.12006000  0.63901000  0.14225000  1.0 -0.2088950056
C  C196  1  0.87994000  0.36099000  0.14225000  1.0 -0.2088950056
C  C197  1  0.86099000  0.37994000  0.35775000  1.0 -0.2088950056
C  C198  1  0.13901000  0.62006000  0.35775000  1.0 -0.2088950056
C  C199  1  0.37994000  0.13901000  0.35775000  1.0 -0.2088950056
C  C200  1  0.62006000  0.86099000  0.35775000  1.0 -0.2088950056
C  C201  1  0.36099000  0.12006000  0.85775000  1.0 -0.2088950056
C  C202  1  0.63901000  0.87994000  0.85775000  1.0 -0.2088950056
C  C203  1  0.87994000  0.36099000  0.85775000  1.0 -0.2088950056
C  C204  1  0.12006000  0.63901000  0.85775000  1.0 -0.2088950056
C  C205  1  0.13901000  0.62006000  0.64225000  1.0 -0.2088950056
C  C206  1  0.86099000  0.37994000  0.64225000  1.0 -0.2088950056
C  C207  1  0.62006000  0.86099000  0.64225000  1.0 -0.2088950056
C  C208  1  0.37994000  0.13901000  0.64225000  1.0 -0.2088950056
C  C209  1  0.56136000  0.96972000  0.06532000  1.0 0.5772400808
C  C210  1  0.43864000  0.03028000  0.06532000  1.0 0.5772400808
C  C211  1  0.03028000  0.56136000  0.06532000  1.0 0.5772400808
C  C212  1  0.96972000  0.43864000  0.06532000  1.0 0.5772400808
C  C213  1  0.93864000  0.46972000  0.43468000  1.0 0.5772400808
C  C214  1  0.06136000  0.53028000  0.43468000  1.0 0.5772400808
C  C215  1  0.46972000  0.06136000  0.43468000  1.0 0.5772400808
C  C216  1  0.53028000  0.93864000  0.43468000  1.0 0.5772400808
C  C217  1  0.43864000  0.03028000  0.93468000  1.0 0.5772400808
C  C218  1  0.56136000  0.96972000  0.93468000  1.0 0.5772400808
C  C219  1  0.96972000  0.43864000  0.93468000  1.0 0.5772400808
C  C220  1  0.03028000  0.56136000  0.93468000  1.0 0.5772400808
C  C221  1  0.06136000  0.53028000  0.56532000  1.0 0.5772400808
C  C222  1  0.93864000  0.46972000  0.56532000  1.0 0.5772400808
C  C223  1  0.53028000  0.93864000  0.56532000  1.0 0.5772400808
C  C224  1  0.46972000  0.06136000  0.56532000  1.0 0.5772400808
C  C225  1  0.70315000  0.84824000  0.22343000  1.0 0.1805879357
C  C226  1  0.29685000  0.15176000  0.22343000  1.0 0.1805879357
C  C227  1  0.15176000  0.70315000  0.22343000  1.0 0.1805879357
C  C228  1  0.84824000  0.29685000  0.22343000  1.0 0.1805879357
C  C229  1  0.79685000  0.34824000  0.27657000  1.0 0.1805879357
C  C230  1  0.20315000  0.65176000  0.27657000  1.0 0.1805879357
C  C231  1  0.34824000  0.20315000  0.27657000  1.0 0.1805879357
C  C232  1  0.65176000  0.79685000  0.27657000  1.0 0.1805879357
C  C233  1  0.29685000  0.15176000  0.77657000  1.0 0.1805879357
C  C234  1  0.70315000  0.84824000  0.77657000  1.0 0.1805879357
C  C235  1  0.84824000  0.29685000  0.77657000  1.0 0.1805879357
C  C236  1  0.15176000  0.70315000  0.77657000  1.0 0.1805879357
C  C237  1  0.20315000  0.65176000  0.72343000  1.0 0.1805879357
C  C238  1  0.79685000  0.34824000  0.72343000  1.0 0.1805879357
C  C239  1  0.65176000  0.79685000  0.72343000  1.0 0.1805879357
C  C240  1  0.34824000  0.20315000  0.72343000  1.0 0.1805879357
C  C241  1  0.74018000  0.81095000  0.22466000  1.0 -0.2088950056
C  C242  1  0.25982000  0.18905000  0.22466000  1.0 -0.2088950056
C  C243  1  0.18905000  0.74018000  0.22466000  1.0 -0.2088950056
C  C244  1  0.81095000  0.25982000  0.22466000  1.0 -0.2088950056
C  C245  1  0.75982000  0.31095000  0.27534000  1.0 -0.2088950056
C  C246  1  0.24018000  0.68905000  0.27534000  1.0 -0.2088950056
C  C247  1  0.31095000  0.24018000  0.27534000  1.0 -0.2088950056
C  C248  1  0.68905000  0.75982000  0.27534000  1.0 -0.2088950056
C  C249  1  0.25982000  0.18905000  0.77534000  1.0 -0.2088950056
C  C250  1  0.74018000  0.81095000  0.77534000  1.0 -0.2088950056
C  C251  1  0.81095000  0.25982000  0.77534000  1.0 -0.2088950056
C  C252  1  0.18905000  0.74018000  0.77534000  1.0 -0.2088950056
C  C253  1  0.24018000  0.68905000  0.72466000  1.0 -0.2088950056
C  C254  1  0.75982000  0.31095000  0.72466000  1.0 -0.2088950056
C  C255  1  0.68905000  0.75982000  0.72466000  1.0 -0.2088950056
C  C256  1  0.31095000  0.24018000  0.72466000  1.0 -0.2088950056
C  C257  1  0.65983000  0.84017000  0.25000000  1.0 -0.267820983
C  C258  1  0.34017000  0.15983000  0.25000000  1.0 -0.267820983
C  C259  1  0.15983000  0.65983000  0.25000000  1.0 -0.267820983
C  C260  1  0.84017000  0.34017000  0.25000000  1.0 -0.267820983
C  C261  1  0.34017000  0.15983000  0.75000000  1.0 -0.267820983
C  C262  1  0.65983000  0.84017000  0.75000000  1.0 -0.267820983
C  C263  1  0.84017000  0.34017000  0.75000000  1.0 -0.267820983
C  C264  1  0.15983000  0.65983000  0.75000000  1.0 -0.267820983
C  C265  1  0.73237000  0.76763000  0.25000000  1.0 -0.0722271534
C  C266  1  0.26763000  0.23237000  0.25000000  1.0 -0.0722271534
C  C267  1  0.23237000  0.73237000  0.25000000  1.0 -0.0722271534
C  C268  1  0.76763000  0.26763000  0.25000000  1.0 -0.0722271534
C  C269  1  0.26763000  0.23237000  0.75000000  1.0 -0.0722271534
C  C270  1  0.73237000  0.76763000  0.75000000  1.0 -0.0722271534
C  C271  1  0.76763000  0.26763000  0.75000000  1.0 -0.0722271534
C  C272  1  0.23237000  0.73237000  0.75000000  1.0 -0.0722271534
C  C273  1  0.96710000  0.00290000  0.36350000  1.0 0.0378697564
C  C274  1  0.03290000  0.99710000  0.36350000  1.0 0.0378697564
C  C275  1  0.99710000  0.96710000  0.36350000  1.0 0.0378697564
C  C276  1  0.00290000  0.03290000  0.36350000  1.0 0.0378697564
C  C277  1  0.53290000  0.50290000  0.13650000  1.0 0.0378697564
C  C278  1  0.46710000  0.49710000  0.13650000  1.0 0.0378697564
C  C279  1  0.50290000  0.46710000  0.13650000  1.0 0.0378697564
C  C280  1  0.49710000  0.53290000  0.13650000  1.0 0.0378697564
C  C281  1  0.03290000  0.99710000  0.63650000  1.0 0.0378697564
C  C282  1  0.96710000  0.00290000  0.63650000  1.0 0.0378697564
C  C283  1  0.00290000  0.03290000  0.63650000  1.0 0.0378697564
C  C284  1  0.99710000  0.96710000  0.63650000  1.0 0.0378697564
C  C285  1  0.46710000  0.49710000  0.86350000  1.0 0.0378697564
C  C286  1  0.53290000  0.50290000  0.86350000  1.0 0.0378697564
C  C287  1  0.49710000  0.53290000  0.86350000  1.0 0.0378697564
C  C288  1  0.50290000  0.46710000  0.86350000  1.0 0.0378697564
C  C289  1  0.04060000  0.01820000  0.40540000  1.0 0.0378697564
C  C290  1  0.95940000  0.98180000  0.40540000  1.0 0.0378697564
C  C291  1  0.98180000  0.04060000  0.40540000  1.0 0.0378697564
C  C292  1  0.01820000  0.95940000  0.40540000  1.0 0.0378697564
C  C293  1  0.45940000  0.51820000  0.09460000  1.0 0.0378697564
C  C294  1  0.54060000  0.48180000  0.09460000  1.0 0.0378697564
C  C295  1  0.51820000  0.54060000  0.09460000  1.0 0.0378697564
C  C296  1  0.48180000  0.45940000  0.09460000  1.0 0.0378697564
C  C297  1  0.95940000  0.98180000  0.59460000  1.0 0.0378697564
C  C298  1  0.04060000  0.01820000  0.59460000  1.0 0.0378697564
C  C299  1  0.01820000  0.95940000  0.59460000  1.0 0.0378697564
C  C300  1  0.98180000  0.04060000  0.59460000  1.0 0.0378697564
C  C301  1  0.54060000  0.48180000  0.90540000  1.0 0.0378697564
C  C302  1  0.45940000  0.51820000  0.90540000  1.0 0.0378697564
C  C303  1  0.48180000  0.45940000  0.90540000  1.0 0.0378697564
C  C304  1  0.51820000  0.54060000  0.90540000  1.0 0.0378697564
C  C305  1  0.05230000  0.01040000  0.35410000  1.0 0.0378697564
C  C306  1  0.94770000  0.98960000  0.35410000  1.0 0.0378697564
C  C307  1  0.98960000  0.05230000  0.35410000  1.0 0.0378697564
C  C308  1  0.01040000  0.94770000  0.35410000  1.0 0.0378697564
C  C309  1  0.44770000  0.51040000  0.14590000  1.0 0.0378697564
C  C310  1  0.55230000  0.48960000  0.14590000  1.0 0.0378697564
C  C311  1  0.51040000  0.55230000  0.14590000  1.0 0.0378697564
C  C312  1  0.48960000  0.44770000  0.14590000  1.0 0.0378697564
C  C313  1  0.94770000  0.98960000  0.64590000  1.0 0.0378697564
C  C314  1  0.05230000  0.01040000  0.64590000  1.0 0.0378697564
C  C315  1  0.01040000  0.94770000  0.64590000  1.0 0.0378697564
C  C316  1  0.98960000  0.05230000  0.64590000  1.0 0.0378697564
C  C317  1  0.55230000  0.48960000  0.85410000  1.0 0.0378697564
C  C318  1  0.44770000  0.51040000  0.85410000  1.0 0.0378697564
C  C319  1  0.48960000  0.44770000  0.85410000  1.0 0.0378697564
C  C320  1  0.51040000  0.55230000  0.85410000  1.0 0.0378697564
C  C321  1  0.96080000  0.01200000  0.45560000  1.0 0.0611061393
C  C322  1  0.03920000  0.98800000  0.45560000  1.0 0.0611061393
C  C323  1  0.98800000  0.96080000  0.45560000  1.0 0.0611061393
C  C324  1  0.01200000  0.03920000  0.45560000  1.0 0.0611061393
C  C325  1  0.53920000  0.51200000  0.04440000  1.0 0.0611061393
C  C326  1  0.46080000  0.48800000  0.04440000  1.0 0.0611061393
C  C327  1  0.51200000  0.46080000  0.04440000  1.0 0.0611061393
C  C328  1  0.48800000  0.53920000  0.04440000  1.0 0.0611061393
C  C329  1  0.03920000  0.98800000  0.54440000  1.0 0.0611061393
C  C330  1  0.96080000  0.01200000  0.54440000  1.0 0.0611061393
C  C331  1  0.01200000  0.03920000  0.54440000  1.0 0.0611061393
C  C332  1  0.98800000  0.96080000  0.54440000  1.0 0.0611061393
C  C333  1  0.46080000  0.48800000  0.95560000  1.0 0.0611061393
C  C334  1  0.53920000  0.51200000  0.95560000  1.0 0.0611061393
C  C335  1  0.48800000  0.53920000  0.95560000  1.0 0.0611061393
C  C336  1  0.51200000  0.46080000  0.95560000  1.0 0.0611061393
C  C337  1  0.98660000  0.00700000  0.50000000  1.0 -0.1085707869
C  C338  1  0.01340000  0.99300000  0.50000000  1.0 -0.1085707869
C  C339  1  0.99300000  0.98660000  0.50000000  1.0 -0.1085707869
C  C340  1  0.00700000  0.01340000  0.50000000  1.0 -0.1085707869
C  C341  1  0.51340000  0.50700000  0.00000000  1.0 -0.1085707869
C  C342  1  0.48660000  0.49300000  0.00000000  1.0 -0.1085707869
C  C343  1  0.50700000  0.48660000  0.00000000  1.0 -0.1085707869
C  C344  1  0.49300000  0.51340000  0.00000000  1.0 -0.1085707869
C  C345  1  0.90950000  0.01850000  0.45510000  1.0 -0.3033885647
C  C346  1  0.09050000  0.98150000  0.45510000  1.0 -0.3033885647
C  C347  1  0.98150000  0.90950000  0.45510000  1.0 -0.3033885647
C  C348  1  0.01850000  0.09050000  0.45510000  1.0 -0.3033885647
C  C349  1  0.59050000  0.51850000  0.04490000  1.0 -0.3033885647
C  C350  1  0.40950000  0.48150000  0.04490000  1.0 -0.3033885647
C  C351  1  0.51850000  0.40950000  0.04490000  1.0 -0.3033885647
C  C352  1  0.48150000  0.59050000  0.04490000  1.0 -0.3033885647
C  C353  1  0.09050000  0.98150000  0.54490000  1.0 -0.3033885647
C  C354  1  0.90950000  0.01850000  0.54490000  1.0 -0.3033885647
C  C355  1  0.01850000  0.09050000  0.54490000  1.0 -0.3033885647
C  C356  1  0.98150000  0.90950000  0.54490000  1.0 -0.3033885647
C  C357  1  0.40950000  0.48150000  0.95510000  1.0 -0.3033885647
C  C358  1  0.59050000  0.51850000  0.95510000  1.0 -0.3033885647
C  C359  1  0.48150000  0.59050000  0.95510000  1.0 -0.3033885647
C  C360  1  0.51850000  0.40950000  0.95510000  1.0 -0.3033885647
C  C361  1  0.88360000  0.01510000  0.50000000  1.0 -0.1616452996
C  C362  1  0.11640000  0.98490000  0.50000000  1.0 -0.1616452996
C  C363  1  0.98490000  0.88360000  0.50000000  1.0 -0.1616452996
C  C364  1  0.01510000  0.11640000  0.50000000  1.0 -0.1616452996
C  C365  1  0.61640000  0.51510000  0.00000000  1.0 -0.1616452996
C  C366  1  0.38360000  0.48490000  0.00000000  1.0 -0.1616452996
C  C367  1  0.51510000  0.38360000  0.00000000  1.0 -0.1616452996
C  C368  1  0.48490000  0.61640000  0.00000000  1.0 -0.1616452996
N  N1  1  0.71110000  0.89267000  0.19566000  1.0 -0.1724034428
N  N2  1  0.28890000  0.10733000  0.19566000  1.0 -0.1724034428
N  N3  1  0.10733000  0.71110000  0.19566000  1.0 -0.1724034428
N  N4  1  0.89267000  0.28890000  0.19566000  1.0 -0.1724034428
N  N5  1  0.78890000  0.39267000  0.30434000  1.0 -0.1724034428
N  N6  1  0.21110000  0.60733000  0.30434000  1.0 -0.1724034428
N  N7  1  0.39267000  0.21110000  0.30434000  1.0 -0.1724034428
N  N8  1  0.60733000  0.78890000  0.30434000  1.0 -0.1724034428
N  N9  1  0.28890000  0.10733000  0.80434000  1.0 -0.1724034428
N  N10  1  0.71110000  0.89267000  0.80434000  1.0 -0.1724034428
N  N11  1  0.89267000  0.28890000  0.80434000  1.0 -0.1724034428
N  N12  1  0.10733000  0.71110000  0.80434000  1.0 -0.1724034428
N  N13  1  0.21110000  0.60733000  0.69566000  1.0 -0.1724034428
N  N14  1  0.78890000  0.39267000  0.69566000  1.0 -0.1724034428
N  N15  1  0.60733000  0.78890000  0.69566000  1.0 -0.1724034428
N  N16  1  0.39267000  0.21110000  0.69566000  1.0 -0.1724034428
N  N17  1  0.00680000  0.00090000  0.32820000  1.0 -0.2308628101
N  N18  1  0.99320000  0.99910000  0.32820000  1.0 -0.2308628101
N  N19  1  0.99910000  0.00680000  0.32820000  1.0 -0.2308628101
N  N20  1  0.00090000  0.99320000  0.32820000  1.0 -0.2308628101
N  N21  1  0.49320000  0.50090000  0.17180000  1.0 -0.2308628101
N  N22  1  0.50680000  0.49910000  0.17180000  1.0 -0.2308628101
N  N23  1  0.50090000  0.50680000  0.17180000  1.0 -0.2308628101
N  N24  1  0.49910000  0.49320000  0.17180000  1.0 -0.2308628101
N  N25  1  0.99320000  0.99910000  0.67180000  1.0 -0.2308628101
N  N26  1  0.00680000  0.00090000  0.67180000  1.0 -0.2308628101
N  N27  1  0.00090000  0.99320000  0.67180000  1.0 -0.2308628101
N  N28  1  0.99910000  0.00680000  0.67180000  1.0 -0.2308628101
N  N29  1  0.50680000  0.49910000  0.82820000  1.0 -0.2308628101
N  N30  1  0.49320000  0.50090000  0.82820000  1.0 -0.2308628101
N  N31  1  0.49910000  0.49320000  0.82820000  1.0 -0.2308628101
N  N32  1  0.50090000  0.50680000  0.82820000  1.0 -0.2308628101
N  N33  1  0.98790000  0.01360000  0.41113000  1.0 0.1031514783
N  N34  1  0.01210000  0.98640000  0.41113000  1.0 0.1031514783
N  N35  1  0.98640000  0.98790000  0.41113000  1.0 0.1031514783
N  N36  1  0.01360000  0.01210000  0.41113000  1.0 0.1031514783
N  N37  1  0.51210000  0.51360000  0.08887000  1.0 0.1031514783
N  N38  1  0.48790000  0.48640000  0.08887000  1.0 0.1031514783
N  N39  1  0.51360000  0.48790000  0.08887000  1.0 0.1031514783
N  N40  1  0.48640000  0.51210000  0.08887000  1.0 0.1031514783
N  N41  1  0.01210000  0.98640000  0.58887000  1.0 0.1031514783
N  N42  1  0.98790000  0.01360000  0.58887000  1.0 0.1031514783
N  N43  1  0.01360000  0.01210000  0.58887000  1.0 0.1031514783
N  N44  1  0.98640000  0.98790000  0.58887000  1.0 0.1031514783
N  N45  1  0.48790000  0.48640000  0.91113000  1.0 0.1031514783
N  N46  1  0.51210000  0.51360000  0.91113000  1.0 0.1031514783
N  N47  1  0.48640000  0.51210000  0.91113000  1.0 0.1031514783
N  N48  1  0.51360000  0.48790000  0.91113000  1.0 0.1031514783
O  O1  1  0.93090000  0.97499000  0.24042000  1.0 -0.5065097462
O  O2  1  0.06910000  0.02501000  0.24042000  1.0 -0.5065097462
O  O3  1  0.02501000  0.93090000  0.24042000  1.0 -0.5065097462
O  O4  1  0.97499000  0.06910000  0.24042000  1.0 -0.5065097462
O  O5  1  0.56910000  0.47499000  0.25958000  1.0 -0.5065097462
O  O6  1  0.43090000  0.52501000  0.25958000  1.0 -0.5065097462
O  O7  1  0.47499000  0.43090000  0.25958000  1.0 -0.5065097462
O  O8  1  0.52501000  0.56910000  0.25958000  1.0 -0.5065097462
O  O9  1  0.06910000  0.02501000  0.75958000  1.0 -0.5065097462
O  O10  1  0.93090000  0.97499000  0.75958000  1.0 -0.5065097462
O  O11  1  0.97499000  0.06910000  0.75958000  1.0 -0.5065097462
O  O12  1  0.02501000  0.93090000  0.75958000  1.0 -0.5065097462
O  O13  1  0.43090000  0.52501000  0.74042000  1.0 -0.5065097462
O  O14  1  0.56910000  0.47499000  0.74042000  1.0 -0.5065097462
O  O15  1  0.52501000  0.56910000  0.74042000  1.0 -0.5065097462
O  O16  1  0.47499000  0.43090000  0.74042000  1.0 -0.5065097462
O  O17  1  0.92942000  0.98141000  0.15649000  1.0 -0.5396410588
O  O18  1  0.07058000  0.01859000  0.15649000  1.0 -0.5396410588
O  O19  1  0.01859000  0.92942000  0.15649000  1.0 -0.5396410588
O  O20  1  0.98141000  0.07058000  0.15649000  1.0 -0.5396410588
O  O21  1  0.57058000  0.48141000  0.34351000  1.0 -0.5396410588
O  O22  1  0.42942000  0.51859000  0.34351000  1.0 -0.5396410588
O  O23  1  0.48141000  0.42942000  0.34351000  1.0 -0.5396410588
O  O24  1  0.51859000  0.57058000  0.34351000  1.0 -0.5396410588
O  O25  1  0.07058000  0.01859000  0.84351000  1.0 -0.5396410588
O  O26  1  0.92942000  0.98141000  0.84351000  1.0 -0.5396410588
O  O27  1  0.98141000  0.07058000  0.84351000  1.0 -0.5396410588
O  O28  1  0.01859000  0.92942000  0.84351000  1.0 -0.5396410588
O  O29  1  0.42942000  0.51859000  0.65649000  1.0 -0.5396410588
O  O30  1  0.57058000  0.48141000  0.65649000  1.0 -0.5396410588
O  O31  1  0.51859000  0.57058000  0.65649000  1.0 -0.5396410588
O  O32  1  0.48141000  0.42942000  0.65649000  1.0 -0.5396410588
O  O33  1  0.56556000  0.01475000  0.05181000  1.0 -0.5222257476
O  O34  1  0.43444000  0.98525000  0.05181000  1.0 -0.5222257476
O  O35  1  0.98525000  0.56556000  0.05181000  1.0 -0.5222257476
O  O36  1  0.01475000  0.43444000  0.05181000  1.0 -0.5222257476
O  O37  1  0.93444000  0.51475000  0.44819000  1.0 -0.5222257476
O  O38  1  0.06556000  0.48525000  0.44819000  1.0 -0.5222257476
O  O39  1  0.51475000  0.06556000  0.44819000  1.0 -0.5222257476
O  O40  1  0.48525000  0.93444000  0.44819000  1.0 -0.5222257476
O  O41  1  0.43444000  0.98525000  0.94819000  1.0 -0.5222257476
O  O42  1  0.56556000  0.01475000  0.94819000  1.0 -0.5222257476
O  O43  1  0.01475000  0.43444000  0.94819000  1.0 -0.5222257476
O  O44  1  0.98525000  0.56556000  0.94819000  1.0 -0.5222257476
O  O45  1  0.06556000  0.48525000  0.55181000  1.0 -0.5222257476
O  O46  1  0.93444000  0.51475000  0.55181000  1.0 -0.5222257476
O  O47  1  0.48525000  0.93444000  0.55181000  1.0 -0.5222257476
O  O48  1  0.51475000  0.06556000  0.55181000  1.0 -0.5222257476
O  O49  1  0.52840000  0.93887000  0.05125000  1.0 -0.5222257476
O  O50  1  0.47160000  0.06113000  0.05125000  1.0 -0.5222257476
O  O51  1  0.06113000  0.52840000  0.05125000  1.0 -0.5222257476
O  O52  1  0.93887000  0.47160000  0.05125000  1.0 -0.5222257476
O  O53  1  0.97160000  0.43887000  0.44875000  1.0 -0.5222257476
O  O54  1  0.02840000  0.56113000  0.44875000  1.0 -0.5222257476
O  O55  1  0.43887000  0.02840000  0.44875000  1.0 -0.5222257476
O  O56  1  0.56113000  0.97160000  0.44875000  1.0 -0.5222257476
O  O57  1  0.47160000  0.06113000  0.94875000  1.0 -0.5222257476
O  O58  1  0.52840000  0.93887000  0.94875000  1.0 -0.5222257476
O  O59  1  0.93887000  0.47160000  0.94875000  1.0 -0.5222257476
O  O60  1  0.06113000  0.52840000  0.94875000  1.0 -0.5222257476
O  O61  1  0.02840000  0.56113000  0.55125000  1.0 -0.5222257476
O  O62  1  0.97160000  0.43887000  0.55125000  1.0 -0.5222257476
O  O63  1  0.56113000  0.97160000  0.55125000  1.0 -0.5222257476
O  O64  1  0.43887000  0.02840000  0.55125000  1.0 -0.5222257476
O  O65  1  0.01310000  0.98630000  0.07170000  1.0 0.0772998089
O  O66  1  0.98690000  0.01370000  0.07170000  1.0 0.0772998089
O  O67  1  0.01370000  0.01310000  0.07170000  1.0 0.0772998089
O  O68  1  0.98630000  0.98690000  0.07170000  1.0 0.0772998089
O  O69  1  0.48690000  0.48630000  0.42830000  1.0 0.0772998089
O  O70  1  0.51310000  0.51370000  0.42830000  1.0 0.0772998089
O  O71  1  0.48630000  0.51310000  0.42830000  1.0 0.0772998089
O  O72  1  0.51370000  0.48690000  0.42830000  1.0 0.0772998089
O  O73  1  0.98690000  0.01370000  0.92830000  1.0 0.0772998089
O  O74  1  0.01310000  0.98630000  0.92830000  1.0 0.0684750985
O  O75  1  0.98630000  0.98690000  0.92830000  1.0 0.0684750985
O  O76  1  0.01370000  0.01310000  0.92830000  1.0 0.0772998089
O  O77  1  0.51310000  0.51370000  0.57170000  1.0 0.0772998089
O  O78  1  0.48690000  0.48630000  0.57170000  1.0 0.0772998089
O  O79  1  0.51370000  0.48690000  0.57170000  1.0 0.0772998089
O  O80  1  0.48630000  0.51310000  0.57170000  1.0 0.0772998089
