# DDEC6 charges by PACMAN v1.1 (https://github.com/mtap-research/PACMAN-charge/)
data_XUFYAA_FSR_pacman
_symmetry_space_group_name_H-M   'P 1'
_cell_length_a   23.68480000
_cell_length_b   23.68480000
_cell_length_c   23.68480000
_cell_angle_alpha   109.47100000
_cell_angle_beta   109.47100000
_cell_angle_gamma   109.47100000
_symmetry_Int_Tables_number   1
_chemical_formula_structural   MgH36(C18O5)2
_chemical_formula_sum   'Mg6 H216 C216 O60'
_cell_volume   10228.00242299
_cell_formula_units_Z   6
loop_
 _symmetry_equiv_pos_site_id
 _symmetry_equiv_pos_as_xyz
  1  'x, y, z'
loop_
 _atom_site_type_symbol
 _atom_site_label
 _atom_site_symmetry_multiplicity
 _atom_site_fract_x
 _atom_site_fract_y
 _atom_site_fract_z
 _atom_site_occupancy
 _atom_site_charge
Mg  Mg1  1  0.50000000  0.67218000  0.17218000  1.0 1.2616738331
Mg  Mg2  1  0.50000000  0.32782000  0.82782000  1.0 1.2616738331
Mg  Mg3  1  0.17218000  0.50000000  0.67218000  1.0 1.2616738331
Mg  Mg4  1  0.82782000  0.50000000  0.32782000  1.0 1.2678196681
Mg  Mg5  1  0.67218000  0.17218000  0.50000000  1.0 1.2616738331
Mg  Mg6  1  0.32782000  0.82782000  0.50000000  1.0 1.2616738331
H  H1  1  0.49230000  0.45070000  0.21820000  1.0 0.1287259291
H  H2  1  0.23250000  0.27410000  0.78180000  1.0 0.1287259291
H  H3  1  0.50770000  0.72590000  0.95840000  1.0 0.1287259291
H  H4  1  0.76750000  0.54930000  0.04160000  1.0 0.1287259291
H  H5  1  0.21820000  0.49230000  0.45070000  1.0 0.1287259291
H  H6  1  0.04160000  0.76750000  0.54930000  1.0 0.1287259291
H  H7  1  0.78180000  0.23250000  0.27410000  1.0 0.1287259291
H  H8  1  0.95840000  0.50770000  0.72590000  1.0 0.1287259291
H  H9  1  0.45070000  0.21820000  0.49230000  1.0 0.1287259291
H  H10  1  0.54930000  0.04160000  0.76750000  1.0 0.1287259291
H  H11  1  0.27410000  0.78180000  0.23250000  1.0 0.1287259291
H  H12  1  0.72590000  0.95840000  0.50770000  1.0 0.1287259291
H  H13  1  0.50770000  0.54930000  0.78180000  1.0 0.1287259291
H  H14  1  0.76750000  0.72590000  0.21820000  1.0 0.1287259291
H  H15  1  0.49230000  0.27410000  0.04160000  1.0 0.1287259291
H  H16  1  0.23250000  0.45070000  0.95840000  1.0 0.1287259291
H  H17  1  0.78180000  0.50770000  0.54930000  1.0 0.1287259291
H  H18  1  0.95840000  0.23250000  0.45070000  1.0 0.1287259291
H  H19  1  0.21820000  0.76750000  0.72590000  1.0 0.1287259291
H  H20  1  0.04160000  0.49230000  0.27410000  1.0 0.1287259291
H  H21  1  0.54930000  0.78180000  0.50770000  1.0 0.1287259291
H  H22  1  0.45070000  0.95840000  0.23250000  1.0 0.1287259291
H  H23  1  0.72590000  0.21820000  0.76750000  1.0 0.1287259291
H  H24  1  0.27410000  0.04160000  0.49230000  1.0 0.1287259291
H  H25  1  0.45010000  0.39900000  0.27210000  1.0 0.1089693359
H  H26  1  0.12690000  0.17800000  0.72790000  1.0 0.1089693359
H  H27  1  0.54990000  0.82200000  0.94890000  1.0 0.1089693359
H  H28  1  0.87310000  0.60100000  0.05110000  1.0 0.1089693359
H  H29  1  0.27210000  0.45010000  0.39900000  1.0 0.1089693359
H  H30  1  0.05110000  0.87310000  0.60100000  1.0 0.1089693359
H  H31  1  0.72790000  0.12690000  0.17800000  1.0 0.1089693359
H  H32  1  0.94890000  0.54990000  0.82200000  1.0 0.1089693359
H  H33  1  0.39900000  0.27210000  0.45010000  1.0 0.1089693359
H  H34  1  0.60100000  0.05110000  0.87310000  1.0 0.1089693359
H  H35  1  0.17800000  0.72790000  0.12690000  1.0 0.1089693359
H  H36  1  0.82200000  0.94890000  0.54990000  1.0 0.1089693359
H  H37  1  0.54990000  0.60100000  0.72790000  1.0 0.1089693359
H  H38  1  0.87310000  0.82200000  0.27210000  1.0 0.1089693359
H  H39  1  0.45010000  0.17800000  0.05110000  1.0 0.1089693359
H  H40  1  0.12690000  0.39900000  0.94890000  1.0 0.1089693359
H  H41  1  0.72790000  0.54990000  0.60100000  1.0 0.1089693359
H  H42  1  0.94890000  0.12690000  0.39900000  1.0 0.1089693359
H  H43  1  0.27210000  0.87310000  0.82200000  1.0 0.1089693359
H  H44  1  0.05110000  0.45010000  0.17800000  1.0 0.1089693359
H  H45  1  0.60100000  0.72790000  0.54990000  1.0 0.1089693359
H  H46  1  0.39900000  0.94890000  0.12690000  1.0 0.1089693359
H  H47  1  0.82200000  0.27210000  0.87310000  1.0 0.1089693359
H  H48  1  0.17800000  0.05110000  0.45010000  1.0 0.1089693359
H  H49  1  0.45420000  0.56720000  0.38640000  1.0 0.1089693359
H  H50  1  0.18080000  0.06780000  0.61360000  1.0 0.1089693359
H  H51  1  0.54580000  0.93220000  0.11300000  1.0 0.1089693359
H  H52  1  0.81920000  0.43280000  0.88700000  1.0 0.1089693359
H  H53  1  0.38640000  0.45420000  0.56720000  1.0 0.1089693359
H  H54  1  0.88700000  0.81920000  0.43280000  1.0 0.1089693359
H  H55  1  0.61360000  0.18080000  0.06780000  1.0 0.1089693359
H  H56  1  0.11300000  0.54580000  0.93220000  1.0 0.1089693359
H  H57  1  0.56720000  0.38640000  0.45420000  1.0 0.1089693359
H  H58  1  0.43280000  0.88700000  0.81920000  1.0 0.1089693359
H  H59  1  0.06780000  0.61360000  0.18080000  1.0 0.1089693359
H  H60  1  0.93220000  0.11300000  0.54580000  1.0 0.1089693359
H  H61  1  0.54580000  0.43280000  0.61360000  1.0 0.1089693359
H  H62  1  0.81920000  0.93220000  0.38640000  1.0 0.1089693359
H  H63  1  0.45420000  0.06780000  0.88700000  1.0 0.1089693359
H  H64  1  0.18080000  0.56720000  0.11300000  1.0 0.1089693359
H  H65  1  0.61360000  0.54580000  0.43280000  1.0 0.1089693359
H  H66  1  0.11300000  0.18080000  0.56720000  1.0 0.1089693359
H  H67  1  0.38640000  0.81920000  0.93220000  1.0 0.1089693359
H  H68  1  0.88700000  0.45420000  0.06780000  1.0 0.1089693359
H  H69  1  0.43280000  0.61360000  0.54580000  1.0 0.1089693359
H  H70  1  0.56720000  0.11300000  0.18080000  1.0 0.1089693359
H  H71  1  0.93220000  0.38640000  0.81920000  1.0 0.1089693359
H  H72  1  0.06780000  0.88700000  0.45420000  1.0 0.1089693359
H  H73  1  0.47650000  0.61330000  0.31980000  1.0 0.1287259291
H  H74  1  0.29350000  0.15670000  0.68020000  1.0 0.1287259291
H  H75  1  0.52350000  0.84330000  0.13680000  1.0 0.1287259291
H  H76  1  0.70650000  0.38670000  0.86320000  1.0 0.1287259291
H  H77  1  0.31980000  0.47650000  0.61330000  1.0 0.1287259291
H  H78  1  0.86320000  0.70650000  0.38670000  1.0 0.1287259291
H  H79  1  0.68020000  0.29350000  0.15670000  1.0 0.1287259291
H  H80  1  0.13680000  0.52350000  0.84330000  1.0 0.1287259291
H  H81  1  0.61330000  0.31980000  0.47650000  1.0 0.1287259291
H  H82  1  0.38670000  0.86320000  0.70650000  1.0 0.1287259291
H  H83  1  0.15670000  0.68020000  0.29350000  1.0 0.1287259291
H  H84  1  0.84330000  0.13680000  0.52350000  1.0 0.1287259291
H  H85  1  0.52350000  0.38670000  0.68020000  1.0 0.1287259291
H  H86  1  0.70650000  0.84330000  0.31980000  1.0 0.1287259291
H  H87  1  0.47650000  0.15670000  0.86320000  1.0 0.1287259291
H  H88  1  0.29350000  0.61330000  0.13680000  1.0 0.1287259291
H  H89  1  0.68020000  0.52350000  0.38670000  1.0 0.1287259291
H  H90  1  0.13680000  0.29350000  0.61330000  1.0 0.1287259291
H  H91  1  0.31980000  0.70650000  0.84330000  1.0 0.1287259291
H  H92  1  0.86320000  0.47650000  0.15670000  1.0 0.1287259291
H  H93  1  0.38670000  0.68020000  0.52350000  1.0 0.1287259291
H  H94  1  0.61330000  0.13680000  0.29350000  1.0 0.1287259291
H  H95  1  0.84330000  0.31980000  0.70650000  1.0 0.1287259291
H  H96  1  0.15670000  0.86320000  0.47650000  1.0 0.1287259291
H  H97  1  0.49180000  0.39910000  0.37930000  1.0 0.1089693359
H  H98  1  0.01980000  0.11250000  0.62070000  1.0 0.1089693359
H  H99  1  0.50820000  0.88750000  0.90730000  1.0 0.1089693359
H  H100  1  0.98020000  0.60090000  0.09270000  1.0 0.1089693359
H  H101  1  0.37930000  0.49180000  0.39910000  1.0 0.1089693359
H  H102  1  0.09270000  0.98020000  0.60090000  1.0 0.1089693359
H  H103  1  0.62070000  0.01980000  0.11250000  1.0 0.1089693359
H  H104  1  0.90730000  0.50820000  0.88750000  1.0 0.1089693359
H  H105  1  0.39910000  0.37930000  0.49180000  1.0 0.1089693359
H  H106  1  0.60090000  0.09270000  0.98020000  1.0 0.1089693359
H  H107  1  0.11250000  0.62070000  0.01980000  1.0 0.1089693359
H  H108  1  0.88750000  0.90730000  0.50820000  1.0 0.1089693359
H  H109  1  0.50820000  0.60090000  0.62070000  1.0 0.1089693359
H  H110  1  0.98020000  0.88750000  0.37930000  1.0 0.1089693359
H  H111  1  0.49180000  0.11250000  0.09270000  1.0 0.1089693359
H  H112  1  0.01980000  0.39910000  0.90730000  1.0 0.1089693359
H  H113  1  0.62070000  0.50820000  0.60090000  1.0 0.1089693359
H  H114  1  0.90730000  0.01980000  0.39910000  1.0 0.1089693359
H  H115  1  0.37930000  0.98020000  0.88750000  1.0 0.1089693359
H  H116  1  0.09270000  0.49180000  0.11250000  1.0 0.1089693359
H  H117  1  0.60090000  0.62070000  0.50820000  1.0 0.1089693359
H  H118  1  0.39910000  0.90730000  0.01980000  1.0 0.1089693359
H  H119  1  0.88750000  0.37930000  0.98020000  1.0 0.1089693359
H  H120  1  0.11250000  0.09270000  0.49180000  1.0 0.1089693359
H  H121  1  0.47720000  0.72760000  0.26840000  1.0 0.1287259291
H  H122  1  0.45920000  0.20880000  0.73160000  1.0 0.1287259291
H  H123  1  0.52280000  0.79120000  0.25040000  1.0 0.1287259291
H  H124  1  0.54080000  0.27240000  0.74960000  1.0 0.1287259291
H  H125  1  0.26840000  0.47720000  0.72760000  1.0 0.1287259291
H  H126  1  0.74960000  0.54080000  0.27240000  1.0 0.1287259291
H  H127  1  0.73160000  0.45920000  0.20880000  1.0 0.1287259291
H  H128  1  0.25040000  0.52280000  0.79120000  1.0 0.1287259291
H  H129  1  0.72760000  0.26840000  0.47720000  1.0 0.1287259291
H  H130  1  0.27240000  0.74960000  0.54080000  1.0 0.1287259291
H  H131  1  0.20880000  0.73160000  0.45920000  1.0 0.1287259291
H  H132  1  0.79120000  0.25040000  0.52280000  1.0 0.1287259291
H  H133  1  0.52280000  0.27240000  0.73160000  1.0 0.1287259291
H  H134  1  0.54080000  0.79120000  0.26840000  1.0 0.1287259291
H  H135  1  0.47720000  0.20880000  0.74960000  1.0 0.1287259291
H  H136  1  0.45920000  0.72760000  0.25040000  1.0 0.1287259291
H  H137  1  0.73160000  0.52280000  0.27240000  1.0 0.1287259291
H  H138  1  0.25040000  0.45920000  0.72760000  1.0 0.1287259291
H  H139  1  0.26840000  0.54080000  0.79120000  1.0 0.1287259291
H  H140  1  0.74960000  0.47720000  0.20880000  1.0 0.1287259291
H  H141  1  0.27240000  0.73160000  0.52280000  1.0 0.1287259291
H  H142  1  0.72760000  0.25040000  0.45920000  1.0 0.1287259291
H  H143  1  0.79120000  0.26840000  0.54080000  1.0 0.1287259291
H  H144  1  0.20880000  0.74960000  0.47720000  1.0 0.1287259291
H  H145  1  0.54680000  0.78310000  0.28250000  1.0 0.0734032656
H  H146  1  0.50060000  0.26430000  0.71750000  1.0 0.0734032656
H  H147  1  0.45320000  0.73570000  0.23630000  1.0 0.0734032656
H  H148  1  0.49940000  0.21690000  0.76370000  1.0 0.0734032656
H  H149  1  0.28250000  0.54680000  0.78310000  1.0 0.0734032656
H  H150  1  0.76370000  0.49940000  0.21690000  1.0 0.0734032656
H  H151  1  0.71750000  0.50060000  0.26430000  1.0 0.0734032656
H  H152  1  0.23630000  0.45320000  0.73570000  1.0 0.0734032656
H  H153  1  0.78310000  0.28250000  0.54680000  1.0 0.0734032656
H  H154  1  0.21690000  0.76370000  0.49940000  1.0 0.0734032656
H  H155  1  0.26430000  0.71750000  0.50060000  1.0 0.0734032656
H  H156  1  0.73570000  0.23630000  0.45320000  1.0 0.0734032656
H  H157  1  0.45320000  0.21690000  0.71750000  1.0 0.0734032656
H  H158  1  0.49940000  0.73570000  0.28250000  1.0 0.0734032656
H  H159  1  0.54680000  0.26430000  0.76370000  1.0 0.0734032656
H  H160  1  0.50060000  0.78310000  0.23630000  1.0 0.0734032656
H  H161  1  0.71750000  0.45320000  0.21690000  1.0 0.0734032656
H  H162  1  0.23630000  0.50060000  0.78310000  1.0 0.0734032656
H  H163  1  0.28250000  0.49940000  0.73570000  1.0 0.0734032656
H  H164  1  0.76370000  0.54680000  0.26430000  1.0 0.0734032656
H  H165  1  0.21690000  0.71750000  0.45320000  1.0 0.0734032656
H  H166  1  0.78310000  0.23630000  0.50060000  1.0 0.0734032656
H  H167  1  0.73570000  0.28250000  0.49940000  1.0 0.0734032656
H  H168  1  0.26430000  0.76370000  0.54680000  1.0 0.0734032656
H  H169  1  0.52280000  0.61440000  0.07360000  1.0 0.1543032033
H  H170  1  0.54080000  0.44920000  0.92640000  1.0 0.1564622905
H  H171  1  0.47720000  0.55080000  0.09160000  1.0 0.1543032033
H  H172  1  0.45920000  0.38560000  0.90840000  1.0 0.1564622905
H  H173  1  0.07360000  0.52280000  0.61440000  1.0 0.1543032033
H  H174  1  0.90840000  0.45920000  0.38560000  1.0 0.1564622905
H  H175  1  0.92640000  0.54080000  0.44920000  1.0 0.1564622905
H  H176  1  0.09160000  0.47720000  0.55080000  1.0 0.1564622905
H  H177  1  0.61440000  0.07360000  0.52280000  1.0 0.1564622905
H  H178  1  0.38560000  0.90840000  0.45920000  1.0 0.1564622905
H  H179  1  0.44920000  0.92640000  0.54080000  1.0 0.1564622905
H  H180  1  0.55080000  0.09160000  0.47720000  1.0 0.1564622905
H  H181  1  0.47720000  0.38560000  0.92640000  1.0 0.1564622905
H  H182  1  0.45920000  0.55080000  0.07360000  1.0 0.1543032033
H  H183  1  0.52280000  0.44920000  0.90840000  1.0 0.1564622905
H  H184  1  0.54080000  0.61440000  0.09160000  1.0 0.1543032033
H  H185  1  0.92640000  0.47720000  0.38560000  1.0 0.1564622905
H  H186  1  0.09160000  0.54080000  0.61440000  1.0 0.1564622905
H  H187  1  0.07360000  0.45920000  0.55080000  1.0 0.1564622905
H  H188  1  0.90840000  0.52280000  0.44920000  1.0 0.1564622905
H  H189  1  0.38560000  0.92640000  0.47720000  1.0 0.1564622905
H  H190  1  0.61440000  0.09160000  0.54080000  1.0 0.1564622905
H  H191  1  0.55080000  0.07360000  0.45920000  1.0 0.1543032033
H  H192  1  0.44920000  0.90840000  0.52280000  1.0 0.1564622905
H  H193  1  0.45320000  0.55890000  0.05950000  1.0 0.1287259291
H  H194  1  0.49940000  0.39370000  0.94050000  1.0 0.1287259291
H  H195  1  0.54680000  0.60630000  0.10570000  1.0 0.1287259291
H  H196  1  0.50060000  0.44110000  0.89430000  1.0 0.1287259291
H  H197  1  0.05950000  0.45320000  0.55890000  1.0 0.1287259291
H  H198  1  0.89430000  0.50060000  0.44110000  1.0 0.1287259291
H  H199  1  0.94050000  0.49940000  0.39370000  1.0 0.1287259291
H  H200  1  0.10570000  0.54680000  0.60630000  1.0 0.1287259291
H  H201  1  0.55890000  0.05950000  0.45320000  1.0 0.1287259291
H  H202  1  0.44110000  0.89430000  0.50060000  1.0 0.1287259291
H  H203  1  0.39370000  0.94050000  0.49940000  1.0 0.1287259291
H  H204  1  0.60630000  0.10570000  0.54680000  1.0 0.1287259291
H  H205  1  0.54680000  0.44110000  0.94050000  1.0 0.1287259291
H  H206  1  0.50060000  0.60630000  0.05950000  1.0 0.1287259291
H  H207  1  0.45320000  0.39370000  0.89430000  1.0 0.1287259291
H  H208  1  0.49940000  0.55890000  0.10570000  1.0 0.1287259291
H  H209  1  0.94050000  0.54680000  0.44110000  1.0 0.1287259291
H  H210  1  0.10570000  0.49940000  0.55890000  1.0 0.1287259291
H  H211  1  0.05950000  0.50060000  0.60630000  1.0 0.1287259291
H  H212  1  0.89430000  0.45320000  0.39370000  1.0 0.1287259291
H  H213  1  0.44110000  0.94050000  0.54680000  1.0 0.1287259291
H  H214  1  0.55890000  0.10570000  0.49940000  1.0 0.1287259291
H  H215  1  0.60630000  0.05950000  0.50060000  1.0 0.1287259291
H  H216  1  0.39370000  0.89430000  0.45320000  1.0 0.1287259291
C  C1  1  0.49760000  0.56240000  0.21406000  1.0 0.5331915197
C  C2  1  0.34834000  0.28354000  0.78594000  1.0 0.5331915197
C  C3  1  0.50240000  0.71646000  0.06480000  1.0 0.5331915197
C  C4  1  0.65166000  0.43760000  0.93520000  1.0 0.5331915197
C  C5  1  0.21406000  0.49760000  0.56240000  1.0 0.5331915197
C  C6  1  0.93520000  0.65166000  0.43760000  1.0 0.5331915197
C  C7  1  0.78594000  0.34834000  0.28354000  1.0 0.5331915197
C  C8  1  0.06480000  0.50240000  0.71646000  1.0 0.5331915197
C  C9  1  0.56240000  0.21406000  0.49760000  1.0 0.5331915197
C  C10  1  0.43760000  0.93520000  0.65166000  1.0 0.5331915197
C  C11  1  0.28354000  0.78594000  0.34834000  1.0 0.5331915197
C  C12  1  0.71646000  0.06480000  0.50240000  1.0 0.5331915197
C  C13  1  0.50240000  0.43760000  0.78594000  1.0 0.5331915197
C  C14  1  0.65166000  0.71646000  0.21406000  1.0 0.5331915197
C  C15  1  0.49760000  0.28354000  0.93520000  1.0 0.5331915197
C  C16  1  0.34834000  0.56240000  0.06480000  1.0 0.5331915197
C  C17  1  0.78594000  0.50240000  0.43760000  1.0 0.5331915197
C  C18  1  0.06480000  0.34834000  0.56240000  1.0 0.5331915197
C  C19  1  0.21406000  0.65166000  0.71646000  1.0 0.5331915197
C  C20  1  0.93520000  0.49760000  0.28354000  1.0 0.5331915197
C  C21  1  0.43760000  0.78594000  0.50240000  1.0 0.5331915197
C  C22  1  0.56240000  0.06480000  0.34834000  1.0 0.5331915197
C  C23  1  0.71646000  0.21406000  0.65166000  1.0 0.5331915197
C  C24  1  0.28354000  0.93520000  0.49760000  1.0 0.5331915197
C  C25  1  0.48025000  0.53380000  0.25701000  1.0 -0.012730654
C  C26  1  0.27679000  0.22324000  0.74299000  1.0 -0.012730654
C  C27  1  0.51975000  0.77676000  0.05355000  1.0 -0.012730654
C  C28  1  0.72321000  0.46620000  0.94645000  1.0 -0.012730654
C  C29  1  0.25701000  0.48025000  0.53380000  1.0 -0.012730654
C  C30  1  0.94645000  0.72321000  0.46620000  1.0 -0.012730654
C  C31  1  0.74299000  0.27679000  0.22324000  1.0 -0.012730654
C  C32  1  0.05355000  0.51975000  0.77676000  1.0 -0.012730654
C  C33  1  0.53380000  0.25701000  0.48025000  1.0 -0.012730654
C  C34  1  0.46620000  0.94645000  0.72321000  1.0 -0.012730654
C  C35  1  0.22324000  0.74299000  0.27679000  1.0 -0.012730654
C  C36  1  0.77676000  0.05355000  0.51975000  1.0 -0.012730654
C  C37  1  0.51975000  0.46620000  0.74299000  1.0 -0.012730654
C  C38  1  0.72321000  0.77676000  0.25701000  1.0 -0.012730654
C  C39  1  0.48025000  0.22324000  0.94645000  1.0 -0.012730654
C  C40  1  0.27679000  0.53380000  0.05355000  1.0 -0.012730654
C  C41  1  0.74299000  0.51975000  0.46620000  1.0 -0.012730654
C  C42  1  0.05355000  0.27679000  0.53380000  1.0 -0.012730654
C  C43  1  0.25701000  0.72321000  0.77676000  1.0 -0.012730654
C  C44  1  0.94645000  0.48025000  0.22324000  1.0 -0.012730654
C  C45  1  0.46620000  0.74299000  0.51975000  1.0 -0.012730654
C  C46  1  0.53380000  0.05355000  0.27679000  1.0 -0.012730654
C  C47  1  0.77676000  0.25701000  0.72321000  1.0 -0.012730654
C  C48  1  0.22324000  0.94645000  0.48025000  1.0 -0.012730654
C  C49  1  0.47953000  0.47211000  0.24832000  1.0 -0.103276368
C  C50  1  0.22379000  0.23121000  0.75168000  1.0 -0.103276368
C  C51  1  0.52047000  0.76879000  0.99258000  1.0 -0.103276368
C  C52  1  0.77621000  0.52789000  0.00742000  1.0 -0.103276368
C  C53  1  0.24832000  0.47953000  0.47211000  1.0 -0.103276368
C  C54  1  0.00742000  0.77621000  0.52789000  1.0 -0.103276368
C  C55  1  0.75168000  0.22379000  0.23121000  1.0 -0.103276368
C  C56  1  0.99258000  0.52047000  0.76879000  1.0 -0.103276368
C  C57  1  0.47211000  0.24832000  0.47953000  1.0 -0.103276368
C  C58  1  0.52789000  0.00742000  0.77621000  1.0 -0.103276368
C  C59  1  0.23121000  0.75168000  0.22379000  1.0 -0.103276368
C  C60  1  0.76879000  0.99258000  0.52047000  1.0 -0.103276368
C  C61  1  0.52047000  0.52789000  0.75168000  1.0 -0.103276368
C  C62  1  0.77621000  0.76879000  0.24832000  1.0 -0.103276368
C  C63  1  0.47953000  0.23121000  0.00742000  1.0 -0.103276368
C  C64  1  0.22379000  0.47211000  0.99258000  1.0 -0.103276368
C  C65  1  0.75168000  0.52047000  0.52789000  1.0 -0.103276368
C  C66  1  0.99258000  0.22379000  0.47211000  1.0 -0.103276368
C  C67  1  0.24832000  0.77621000  0.76879000  1.0 -0.103276368
C  C68  1  0.00742000  0.47953000  0.23121000  1.0 -0.103276368
C  C69  1  0.52789000  0.75168000  0.52047000  1.0 -0.103276368
C  C70  1  0.47211000  0.99258000  0.22379000  1.0 -0.103276368
C  C71  1  0.76879000  0.24832000  0.77621000  1.0 -0.103276368
C  C72  1  0.23121000  0.00742000  0.47953000  1.0 -0.103276368
C  C73  1  0.45987000  0.44418000  0.28461000  1.0 -0.1706323125
C  C74  1  0.15957000  0.17526000  0.71539000  1.0 -0.1706323125
C  C75  1  0.54013000  0.82474000  0.98431000  1.0 -0.1706323125
C  C76  1  0.84043000  0.55582000  0.01569000  1.0 -0.1706323125
C  C77  1  0.28461000  0.45987000  0.44418000  1.0 -0.1706323125
C  C78  1  0.01569000  0.84043000  0.55582000  1.0 -0.1706323125
C  C79  1  0.71539000  0.15957000  0.17526000  1.0 -0.1706323125
C  C80  1  0.98431000  0.54013000  0.82474000  1.0 -0.1706323125
C  C81  1  0.44418000  0.28461000  0.45987000  1.0 -0.1706323125
C  C82  1  0.55582000  0.01569000  0.84043000  1.0 -0.1706323125
C  C83  1  0.17526000  0.71539000  0.15957000  1.0 -0.1706323125
C  C84  1  0.82474000  0.98431000  0.54013000  1.0 -0.1706323125
C  C85  1  0.54013000  0.55582000  0.71539000  1.0 -0.1706323125
C  C86  1  0.84043000  0.82474000  0.28461000  1.0 -0.1706323125
C  C87  1  0.45987000  0.17526000  0.01569000  1.0 -0.1706323125
C  C88  1  0.15957000  0.44418000  0.98431000  1.0 -0.1706323125
C  C89  1  0.71539000  0.54013000  0.55582000  1.0 -0.1706323125
C  C90  1  0.98431000  0.15957000  0.44418000  1.0 -0.1706323125
C  C91  1  0.28461000  0.84043000  0.82474000  1.0 -0.1706323125
C  C92  1  0.01569000  0.45987000  0.17526000  1.0 -0.1706323125
C  C93  1  0.55582000  0.71539000  0.54013000  1.0 -0.1706323125
C  C94  1  0.44418000  0.98431000  0.15957000  1.0 -0.1706323125
C  C95  1  0.82474000  0.28461000  0.84043000  1.0 -0.1706323125
C  C96  1  0.17526000  0.01569000  0.45987000  1.0 -0.1706323125
C  C97  1  0.45377000  0.48078000  0.34021000  1.0 0.0449321446
C  C98  1  0.14057000  0.11356000  0.65979000  1.0 0.0453617227
C  C99  1  0.54623000  0.88644000  0.02701000  1.0 0.0449321446
C  C100  1  0.85943000  0.51922000  0.97299000  1.0 0.0449321446
C  C101  1  0.34021000  0.45377000  0.48078000  1.0 0.0449321446
C  C102  1  0.97299000  0.85943000  0.51922000  1.0 0.0449321446
C  C103  1  0.65979000  0.14057000  0.11356000  1.0 0.0449321446
C  C104  1  0.02701000  0.54623000  0.88644000  1.0 0.0449321446
C  C105  1  0.48078000  0.34021000  0.45377000  1.0 0.0449321446
C  C106  1  0.51922000  0.97299000  0.85943000  1.0 0.0449321446
C  C107  1  0.11356000  0.65979000  0.14057000  1.0 0.0453617227
C  C108  1  0.88644000  0.02701000  0.54623000  1.0 0.0449321446
C  C109  1  0.54623000  0.51922000  0.65979000  1.0 0.0449321446
C  C110  1  0.85943000  0.88644000  0.34021000  1.0 0.0449321446
C  C111  1  0.45377000  0.11356000  0.97299000  1.0 0.0449321446
C  C112  1  0.14057000  0.48078000  0.02701000  1.0 0.0449321446
C  C113  1  0.65979000  0.54623000  0.51922000  1.0 0.0449321446
C  C114  1  0.02701000  0.14057000  0.48078000  1.0 0.0453617227
C  C115  1  0.34021000  0.85943000  0.88644000  1.0 0.0449321446
C  C116  1  0.97299000  0.45377000  0.11356000  1.0 0.0449321446
C  C117  1  0.51922000  0.65979000  0.54623000  1.0 0.0449321446
C  C118  1  0.48078000  0.02701000  0.14057000  1.0 0.0449321446
C  C119  1  0.88644000  0.34021000  0.85943000  1.0 0.0449321446
C  C120  1  0.11356000  0.97299000  0.45377000  1.0 0.0449321446
C  C121  1  0.45941000  0.54235000  0.35066000  1.0 -0.1763423121
C  C122  1  0.19169000  0.10875000  0.64934000  1.0 -0.1763423121
C  C123  1  0.54059000  0.89125000  0.08294000  1.0 -0.1763423121
C  C124  1  0.80831000  0.45765000  0.91706000  1.0 -0.1763423121
C  C125  1  0.35066000  0.45941000  0.54235000  1.0 -0.1763423121
C  C126  1  0.91706000  0.80831000  0.45765000  1.0 -0.1763423121
C  C127  1  0.64934000  0.19169000  0.10875000  1.0 -0.1763423121
C  C128  1  0.08294000  0.54059000  0.89125000  1.0 -0.1763423121
C  C129  1  0.54235000  0.35066000  0.45941000  1.0 -0.1763423121
C  C130  1  0.45765000  0.91706000  0.80831000  1.0 -0.1763423121
C  C131  1  0.10875000  0.64934000  0.19169000  1.0 -0.1763423121
C  C132  1  0.89125000  0.08294000  0.54059000  1.0 -0.1763423121
C  C133  1  0.54059000  0.45765000  0.64934000  1.0 -0.1763423121
C  C134  1  0.80831000  0.89125000  0.35066000  1.0 -0.1763423121
C  C135  1  0.45941000  0.10875000  0.91706000  1.0 -0.1763423121
C  C136  1  0.19169000  0.54235000  0.08294000  1.0 -0.1763423121
C  C137  1  0.64934000  0.54059000  0.45765000  1.0 -0.1763423121
C  C138  1  0.08294000  0.19169000  0.54235000  1.0 -0.1763423121
C  C139  1  0.35066000  0.80831000  0.89125000  1.0 -0.1763423121
C  C140  1  0.91706000  0.45941000  0.10875000  1.0 -0.1763423121
C  C141  1  0.45765000  0.64934000  0.54059000  1.0 -0.1763423121
C  C142  1  0.54235000  0.08294000  0.19169000  1.0 -0.1763423121
C  C143  1  0.89125000  0.35066000  0.80831000  1.0 -0.1763423121
C  C144  1  0.10875000  0.91706000  0.45941000  1.0 -0.1763423121
C  C145  1  0.47270000  0.57039000  0.31073000  1.0 -0.0770850499
C  C146  1  0.25966000  0.16197000  0.68927000  1.0 -0.0770850499
C  C147  1  0.52730000  0.83803000  0.09769000  1.0 -0.0770850499
C  C148  1  0.74034000  0.42961000  0.90231000  1.0 -0.0770850499
C  C149  1  0.31073000  0.47270000  0.57039000  1.0 -0.0770850499
C  C150  1  0.90231000  0.74034000  0.42961000  1.0 -0.0770850499
C  C151  1  0.68927000  0.25966000  0.16197000  1.0 -0.0770850499
C  C152  1  0.09769000  0.52730000  0.83803000  1.0 -0.0770850499
C  C153  1  0.57039000  0.31073000  0.47270000  1.0 -0.0770850499
C  C154  1  0.42961000  0.90231000  0.74034000  1.0 -0.0770850499
C  C155  1  0.16197000  0.68927000  0.25966000  1.0 -0.0770850499
C  C156  1  0.83803000  0.09769000  0.52730000  1.0 -0.0770850499
C  C157  1  0.52730000  0.42961000  0.68927000  1.0 -0.0770850499
C  C158  1  0.74034000  0.83803000  0.31073000  1.0 -0.0770850499
C  C159  1  0.47270000  0.16197000  0.90231000  1.0 -0.0770850499
C  C160  1  0.25966000  0.57039000  0.09769000  1.0 -0.0770850499
C  C161  1  0.68927000  0.52730000  0.42961000  1.0 -0.0770850499
C  C162  1  0.09769000  0.25966000  0.57039000  1.0 -0.0770850499
C  C163  1  0.31073000  0.74034000  0.83803000  1.0 -0.0770850499
C  C164  1  0.90231000  0.47270000  0.16197000  1.0 -0.0770850499
C  C165  1  0.42961000  0.68927000  0.52730000  1.0 -0.0770850499
C  C166  1  0.57039000  0.09769000  0.25966000  1.0 -0.0770850499
C  C167  1  0.83803000  0.31073000  0.74034000  1.0 -0.0770850499
C  C168  1  0.16197000  0.90231000  0.47270000  1.0 -0.0770850499
C  C169  1  0.43816000  0.44969000  0.38209000  1.0 0.0843358936
C  C170  1  0.06760000  0.05607000  0.61791000  1.0 0.0843358936
C  C171  1  0.56184000  0.94393000  0.01153000  1.0 0.0843358936
C  C172  1  0.93240000  0.55031000  0.98847000  1.0 0.0843358936
C  C173  1  0.38209000  0.43816000  0.44969000  1.0 0.0843358936
C  C174  1  0.98847000  0.93240000  0.55031000  1.0 0.0843358936
C  C175  1  0.61791000  0.06760000  0.05607000  1.0 0.0843358936
C  C176  1  0.01153000  0.56184000  0.94393000  1.0 0.0843358936
C  C177  1  0.44969000  0.38209000  0.43816000  1.0 0.0843358936
C  C178  1  0.55031000  0.98847000  0.93240000  1.0 0.0843358936
C  C179  1  0.05607000  0.61791000  0.06760000  1.0 0.0843358936
C  C180  1  0.94393000  0.01153000  0.56184000  1.0 0.0843358936
C  C181  1  0.56184000  0.55031000  0.61791000  1.0 0.0843358936
C  C182  1  0.93240000  0.94393000  0.38209000  1.0 0.0843358936
C  C183  1  0.43816000  0.05607000  0.98847000  1.0 0.0843358936
C  C184  1  0.06760000  0.44969000  0.01153000  1.0 0.0843358936
C  C185  1  0.61791000  0.56184000  0.55031000  1.0 0.0843358936
C  C186  1  0.01153000  0.06760000  0.44969000  1.0 0.0843358936
C  C187  1  0.38209000  0.93240000  0.94393000  1.0 0.0843358936
C  C188  1  0.98847000  0.43816000  0.05607000  1.0 0.0843358936
C  C189  1  0.55031000  0.61791000  0.56184000  1.0 0.0843358936
C  C190  1  0.44969000  0.01153000  0.06760000  1.0 0.0843358936
C  C191  1  0.94393000  0.38209000  0.93240000  1.0 0.0843358936
C  C192  1  0.05607000  0.98847000  0.43816000  1.0 0.0843358936
C  C193  1  0.46438000  0.40885000  0.39683000  1.0 -0.2108864478
C  C194  1  0.01202000  0.06755000  0.60317000  1.0 -0.2108864478
C  C195  1  0.53562000  0.93245000  0.94447000  1.0 -0.2108864478
C  C196  1  0.98798000  0.59115000  0.05553000  1.0 -0.2108864478
C  C197  1  0.39683000  0.46438000  0.40885000  1.0 -0.2108864478
C  C198  1  0.05553000  0.98798000  0.59115000  1.0 -0.2108864478
C  C199  1  0.60317000  0.01202000  0.06755000  1.0 -0.2108864478
C  C200  1  0.94447000  0.53562000  0.93245000  1.0 -0.2108864478
C  C201  1  0.40885000  0.39683000  0.46438000  1.0 -0.2108864478
C  C202  1  0.59115000  0.05553000  0.98798000  1.0 -0.2108864478
C  C203  1  0.06755000  0.60317000  0.01202000  1.0 -0.2108864478
C  C204  1  0.93245000  0.94447000  0.53562000  1.0 -0.2108864478
C  C205  1  0.53562000  0.59115000  0.60317000  1.0 -0.2108864478
C  C206  1  0.98798000  0.93245000  0.39683000  1.0 -0.2108864478
C  C207  1  0.46438000  0.06755000  0.05553000  1.0 -0.2108864478
C  C208  1  0.01202000  0.40885000  0.94447000  1.0 -0.2108864478
C  C209  1  0.60317000  0.53562000  0.59115000  1.0 -0.2108864478
C  C210  1  0.94447000  0.01202000  0.40885000  1.0 -0.2108864478
C  C211  1  0.39683000  0.98798000  0.93245000  1.0 -0.2108864478
C  C212  1  0.05553000  0.46438000  0.06755000  1.0 -0.2108864478
C  C213  1  0.59115000  0.60317000  0.53562000  1.0 -0.2108864478
C  C214  1  0.40885000  0.94447000  0.01202000  1.0 -0.2108864478
C  C215  1  0.93245000  0.39683000  0.98798000  1.0 -0.2108864478
C  C216  1  0.06755000  0.05553000  0.46438000  1.0 -0.2108864478
O  O1  1  0.49872000  0.61800000  0.22424000  1.0 -0.6187499511
O  O2  1  0.39376000  0.27448000  0.77576000  1.0 -0.6187499511
O  O3  1  0.50128000  0.72552000  0.11928000  1.0 -0.6187499511
O  O4  1  0.60624000  0.38200000  0.88072000  1.0 -0.6187499511
O  O5  1  0.22424000  0.49872000  0.61800000  1.0 -0.6187499511
O  O6  1  0.88072000  0.60624000  0.38200000  1.0 -0.6187499511
O  O7  1  0.77576000  0.39376000  0.27448000  1.0 -0.6187499511
O  O8  1  0.11928000  0.50128000  0.72552000  1.0 -0.6187499511
O  O9  1  0.61800000  0.22424000  0.49872000  1.0 -0.6187499511
O  O10  1  0.38200000  0.88072000  0.60624000  1.0 -0.6187499511
O  O11  1  0.27448000  0.77576000  0.39376000  1.0 -0.6187499511
O  O12  1  0.72552000  0.11928000  0.50128000  1.0 -0.6187499511
O  O13  1  0.50128000  0.38200000  0.77576000  1.0 -0.6187499511
O  O14  1  0.60624000  0.72552000  0.22424000  1.0 -0.6187499511
O  O15  1  0.49872000  0.27448000  0.88072000  1.0 -0.6187499511
O  O16  1  0.39376000  0.61800000  0.11928000  1.0 -0.6187499511
O  O17  1  0.77576000  0.50128000  0.38200000  1.0 -0.6187499511
O  O18  1  0.11928000  0.39376000  0.61800000  1.0 -0.6187499511
O  O19  1  0.22424000  0.60624000  0.72552000  1.0 -0.6187499511
O  O20  1  0.88072000  0.49872000  0.27448000  1.0 -0.6187499511
O  O21  1  0.38200000  0.77576000  0.50128000  1.0 -0.6187499511
O  O22  1  0.61800000  0.11928000  0.39376000  1.0 -0.6187499511
O  O23  1  0.72552000  0.22424000  0.60624000  1.0 -0.6187499511
O  O24  1  0.27448000  0.88072000  0.49872000  1.0 -0.6187499511
O  O25  1  0.51166000  0.53394000  0.17090000  1.0 -0.456078554
O  O26  1  0.36304000  0.34076000  0.82910000  1.0 -0.456078554
O  O27  1  0.48834000  0.65924000  0.02228000  1.0 -0.456078554
O  O28  1  0.63696000  0.46606000  0.97772000  1.0 -0.456078554
O  O29  1  0.17090000  0.51166000  0.53394000  1.0 -0.456078554
O  O30  1  0.97772000  0.63696000  0.46606000  1.0 -0.456078554
O  O31  1  0.82910000  0.36304000  0.34076000  1.0 -0.456078554
O  O32  1  0.02228000  0.48834000  0.65924000  1.0 -0.456078554
O  O33  1  0.53394000  0.17090000  0.51166000  1.0 -0.456078554
O  O34  1  0.46606000  0.97772000  0.63696000  1.0 -0.456078554
O  O35  1  0.34076000  0.82910000  0.36304000  1.0 -0.456078554
O  O36  1  0.65924000  0.02228000  0.48834000  1.0 -0.456078554
O  O37  1  0.48834000  0.46606000  0.82910000  1.0 -0.456078554
O  O38  1  0.63696000  0.65924000  0.17090000  1.0 -0.456078554
O  O39  1  0.51166000  0.34076000  0.97772000  1.0 -0.456078554
O  O40  1  0.36304000  0.53394000  0.02228000  1.0 -0.456078554
O  O41  1  0.82910000  0.48834000  0.46606000  1.0 -0.456078554
O  O42  1  0.02228000  0.36304000  0.53394000  1.0 -0.456078554
O  O43  1  0.17090000  0.63696000  0.65924000  1.0 -0.456078554
O  O44  1  0.97772000  0.51166000  0.34076000  1.0 -0.456078554
O  O45  1  0.46606000  0.82910000  0.48834000  1.0 -0.456078554
O  O46  1  0.53394000  0.02228000  0.36304000  1.0 -0.456078554
O  O47  1  0.65924000  0.17090000  0.63696000  1.0 -0.456078554
O  O48  1  0.34076000  0.97772000  0.51166000  1.0 -0.456078554
O  O49  1  0.50000000  0.59435000  0.09435000  1.0 -0.5175343303
O  O50  1  0.50000000  0.40565000  0.90565000  1.0 -0.5175343303
O  O51  1  0.09435000  0.50000000  0.59435000  1.0 -0.5175343303
O  O52  1  0.90565000  0.50000000  0.40565000  1.0 -0.5175343303
O  O53  1  0.59435000  0.09435000  0.50000000  1.0 -0.5175343303
O  O54  1  0.40565000  0.90565000  0.50000000  1.0 -0.5175343303
O  O55  1  0.50000000  0.74766000  0.24766000  1.0 -0.3778238225
O  O56  1  0.50000000  0.25234000  0.75234000  1.0 -0.3778238225
O  O57  1  0.24766000  0.50000000  0.74766000  1.0 -0.3778238225
O  O58  1  0.75234000  0.50000000  0.25234000  1.0 -0.3707224774
O  O59  1  0.74766000  0.24766000  0.50000000  1.0 -0.3778238225
O  O60  1  0.25234000  0.75234000  0.50000000  1.0 -0.3778238225
