# DDEC6 charges by PACMAN v1.1 (https://github.com/mtap-research/PACMAN-charge/)
data_XUFYEE_ASR_pacman
_symmetry_space_group_name_H-M   'P 1'
_cell_length_a   23.60700000
_cell_length_b   23.60700000
_cell_length_c   23.60700000
_cell_angle_alpha   109.47100000
_cell_angle_beta   109.47100000
_cell_angle_gamma   109.47100000
_symmetry_Int_Tables_number   1
_chemical_formula_structural   Mg6H56(C24O7)3
_chemical_formula_sum   'Mg18 H168 C216 O63'
_cell_volume   10127.54209366
_cell_formula_units_Z   3
loop_
 _symmetry_equiv_pos_site_id
 _symmetry_equiv_pos_as_xyz
  1  'x, y, z'
loop_
 _atom_site_type_symbol
 _atom_site_label
 _atom_site_symmetry_multiplicity
 _atom_site_fract_x
 _atom_site_fract_y
 _atom_site_fract_z
 _atom_site_occupancy
 _atom_site_charge
Mg  Mg1  1  0.66943000  0.16943000  0.50000000  1.0 1.4225009461
Mg  Mg2  1  0.33057000  0.83057000  0.50000000  1.0 1.4225009461
Mg  Mg3  1  0.50000000  0.66943000  0.16943000  1.0 1.4225009461
Mg  Mg4  1  0.50000000  0.33057000  0.83057000  1.0 1.4225009461
Mg  Mg5  1  0.16943000  0.50000000  0.66943000  1.0 1.4225009461
Mg  Mg6  1  0.83057000  0.50000000  0.33057000  1.0 1.4225009461
Mg  Mg7  1  0.55774000  0.11159000  0.55385000  1.0 1.1301918506
Mg  Mg8  1  0.55774000  0.00389000  0.44615000  1.0 1.1301918506
Mg  Mg9  1  0.44226000  0.99611000  0.55385000  1.0 1.1301918506
Mg  Mg10  1  0.44226000  0.88841000  0.44615000  1.0 1.1301918506
Mg  Mg11  1  0.55385000  0.55774000  0.11159000  1.0 1.1301918506
Mg  Mg12  1  0.44615000  0.44226000  0.88841000  1.0 1.1301918506
Mg  Mg13  1  0.44615000  0.55774000  0.00389000  1.0 1.1301918506
Mg  Mg14  1  0.55385000  0.44226000  0.99611000  1.0 1.1301918506
Mg  Mg15  1  0.11159000  0.55385000  0.55774000  1.0 1.1301918506
Mg  Mg16  1  0.88841000  0.44615000  0.44226000  1.0 1.1301918506
Mg  Mg17  1  0.00389000  0.44615000  0.55774000  1.0 1.1301918506
Mg  Mg18  1  0.99611000  0.55385000  0.44226000  1.0 1.1301918506
H  H1  1  0.44590000  0.95590000  0.23100000  1.0 0.1306711515
H  H2  1  0.72490000  0.21490000  0.76900000  1.0 0.1306711515
H  H3  1  0.55410000  0.78510000  0.51000000  1.0 0.1306711515
H  H4  1  0.27510000  0.04410000  0.49000000  1.0 0.1306711515
H  H5  1  0.23100000  0.44590000  0.95590000  1.0 0.1306711515
H  H6  1  0.49000000  0.27510000  0.04410000  1.0 0.1306711515
H  H7  1  0.76900000  0.72490000  0.21490000  1.0 0.1306711515
H  H8  1  0.51000000  0.55410000  0.78510000  1.0 0.1306711515
H  H9  1  0.95590000  0.23100000  0.44590000  1.0 0.1306711515
H  H10  1  0.04410000  0.49000000  0.27510000  1.0 0.1306711515
H  H11  1  0.21490000  0.76900000  0.72490000  1.0 0.1306711515
H  H12  1  0.78510000  0.51000000  0.55410000  1.0 0.1306711515
H  H13  1  0.55410000  0.04410000  0.76900000  1.0 0.1306711515
H  H14  1  0.27510000  0.78510000  0.23100000  1.0 0.1306711515
H  H15  1  0.44590000  0.21490000  0.49000000  1.0 0.1306711515
H  H16  1  0.72490000  0.95590000  0.51000000  1.0 0.1306711515
H  H17  1  0.76900000  0.55410000  0.04410000  1.0 0.1306711515
H  H18  1  0.51000000  0.72490000  0.95590000  1.0 0.1306711515
H  H19  1  0.23100000  0.27510000  0.78510000  1.0 0.1306711515
H  H20  1  0.49000000  0.44590000  0.21490000  1.0 0.1306711515
H  H21  1  0.04410000  0.76900000  0.55410000  1.0 0.1306711515
H  H22  1  0.95590000  0.51000000  0.72490000  1.0 0.1306711515
H  H23  1  0.78510000  0.23100000  0.27510000  1.0 0.1306711515
H  H24  1  0.21490000  0.49000000  0.44590000  1.0 0.1306711515
H  H25  1  0.61400000  0.13450000  0.29430000  1.0 0.1154776494
H  H26  1  0.84020000  0.31970000  0.70570000  1.0 0.1154776494
H  H27  1  0.38600000  0.68030000  0.52050000  1.0 0.1154776494
H  H28  1  0.15980000  0.86550000  0.47950000  1.0 0.1154776494
H  H29  1  0.29430000  0.61400000  0.13450000  1.0 0.1154776494
H  H30  1  0.47950000  0.15980000  0.86550000  1.0 0.1154776494
H  H31  1  0.70570000  0.84020000  0.31970000  1.0 0.1154776494
H  H32  1  0.52050000  0.38600000  0.68030000  1.0 0.1154776494
H  H33  1  0.13450000  0.29430000  0.61400000  1.0 0.1154776494
H  H34  1  0.86550000  0.47950000  0.15980000  1.0 0.1154776494
H  H35  1  0.31970000  0.70570000  0.84020000  1.0 0.1154776494
H  H36  1  0.68030000  0.52050000  0.38600000  1.0 0.1154776494
H  H37  1  0.38600000  0.86550000  0.70570000  1.0 0.1154776494
H  H38  1  0.15980000  0.68030000  0.29430000  1.0 0.1154776494
H  H39  1  0.61400000  0.31970000  0.47950000  1.0 0.1154776494
H  H40  1  0.84020000  0.13450000  0.52050000  1.0 0.1154776494
H  H41  1  0.70570000  0.38600000  0.86550000  1.0 0.1154776494
H  H42  1  0.52050000  0.84020000  0.13450000  1.0 0.1154776494
H  H43  1  0.29430000  0.15980000  0.68030000  1.0 0.1154776494
H  H44  1  0.47950000  0.61400000  0.31970000  1.0 0.1154776494
H  H45  1  0.86550000  0.70570000  0.38600000  1.0 0.1154776494
H  H46  1  0.13450000  0.52050000  0.84020000  1.0 0.1154776494
H  H47  1  0.68030000  0.29430000  0.15980000  1.0 0.1154776494
H  H48  1  0.31970000  0.47950000  0.61400000  1.0 0.1154776494
H  H49  1  0.39910000  0.93930000  0.12280000  1.0 0.1072449725
H  H50  1  0.81650000  0.27630000  0.87720000  1.0 0.1072449725
H  H51  1  0.60090000  0.72370000  0.54020000  1.0 0.1072449725
H  H52  1  0.18350000  0.06070000  0.45980000  1.0 0.1072449725
H  H53  1  0.12280000  0.39910000  0.93930000  1.0 0.1072449725
H  H54  1  0.45980000  0.18350000  0.06070000  1.0 0.1072449725
H  H55  1  0.87720000  0.81650000  0.27630000  1.0 0.1072449725
H  H56  1  0.54020000  0.60090000  0.72370000  1.0 0.1072449725
H  H57  1  0.93930000  0.12280000  0.39910000  1.0 0.1072449725
H  H58  1  0.06070000  0.45980000  0.18350000  1.0 0.1072449725
H  H59  1  0.27630000  0.87720000  0.81650000  1.0 0.1072449725
H  H60  1  0.72370000  0.54020000  0.60090000  1.0 0.1072449725
H  H61  1  0.60090000  0.06070000  0.87720000  1.0 0.1072449725
H  H62  1  0.18350000  0.72370000  0.12280000  1.0 0.1072449725
H  H63  1  0.39910000  0.27630000  0.45980000  1.0 0.1072449725
H  H64  1  0.81650000  0.93930000  0.54020000  1.0 0.1072449725
H  H65  1  0.87720000  0.60090000  0.06070000  1.0 0.1072449725
H  H66  1  0.54020000  0.81650000  0.93930000  1.0 0.1072449725
H  H67  1  0.12280000  0.18350000  0.72370000  1.0 0.1072449725
H  H68  1  0.45980000  0.39910000  0.27630000  1.0 0.1072449725
H  H69  1  0.06070000  0.87720000  0.60090000  1.0 0.1072449725
H  H70  1  0.93930000  0.54020000  0.81650000  1.0 0.1072449725
H  H71  1  0.72370000  0.12280000  0.18350000  1.0 0.1072449725
H  H72  1  0.27630000  0.45980000  0.39910000  1.0 0.1072449725
H  H73  1  0.56690000  0.11300000  0.18150000  1.0 0.1072449725
H  H74  1  0.93150000  0.38540000  0.81850000  1.0 0.1072449725
H  H75  1  0.43310000  0.61460000  0.54610000  1.0 0.1072449725
H  H76  1  0.06850000  0.88700000  0.45390000  1.0 0.1072449725
H  H77  1  0.18150000  0.56690000  0.11300000  1.0 0.1072449725
H  H78  1  0.45390000  0.06850000  0.88700000  1.0 0.1072449725
H  H79  1  0.81850000  0.93150000  0.38540000  1.0 0.1072449725
H  H80  1  0.54610000  0.43310000  0.61460000  1.0 0.1072449725
H  H81  1  0.11300000  0.18150000  0.56690000  1.0 0.1072449725
H  H82  1  0.88700000  0.45390000  0.06850000  1.0 0.1072449725
H  H83  1  0.38540000  0.81850000  0.93150000  1.0 0.1072449725
H  H84  1  0.61460000  0.54610000  0.43310000  1.0 0.1072449725
H  H85  1  0.43310000  0.88700000  0.81850000  1.0 0.1072449725
H  H86  1  0.06850000  0.61460000  0.18150000  1.0 0.1072449725
H  H87  1  0.56690000  0.38540000  0.45390000  1.0 0.1072449725
H  H88  1  0.93150000  0.11300000  0.54610000  1.0 0.1072449725
H  H89  1  0.81850000  0.43310000  0.88700000  1.0 0.1072449725
H  H90  1  0.54610000  0.93150000  0.11300000  1.0 0.1072449725
H  H91  1  0.18150000  0.06850000  0.61460000  1.0 0.1072449725
H  H92  1  0.45390000  0.56690000  0.38540000  1.0 0.1072449725
H  H93  1  0.88700000  0.81850000  0.43310000  1.0 0.1072449725
H  H94  1  0.11300000  0.54610000  0.93150000  1.0 0.1072449725
H  H95  1  0.61460000  0.18150000  0.06850000  1.0 0.1072449725
H  H96  1  0.38540000  0.45390000  0.56690000  1.0 0.1072449725
H  H97  1  0.39900000  0.90660000  0.02000000  1.0 0.1041593383
H  H98  1  0.88660000  0.37900000  0.98000000  1.0 0.1041593383
H  H99  1  0.60100000  0.62100000  0.50760000  1.0 0.1041593383
H  H100  1  0.11340000  0.09340000  0.49240000  1.0 0.1041593383
H  H101  1  0.02000000  0.39900000  0.90660000  1.0 0.1041593383
H  H102  1  0.49240000  0.11340000  0.09340000  1.0 0.1041593383
H  H103  1  0.98000000  0.88660000  0.37900000  1.0 0.1041593383
H  H104  1  0.50760000  0.60100000  0.62100000  1.0 0.1041593383
H  H105  1  0.90660000  0.02000000  0.39900000  1.0 0.1041593383
H  H106  1  0.09340000  0.49240000  0.11340000  1.0 0.1041593383
H  H107  1  0.37900000  0.98000000  0.88660000  1.0 0.1041593383
H  H108  1  0.62100000  0.50760000  0.60100000  1.0 0.1041593383
H  H109  1  0.60100000  0.09340000  0.98000000  1.0 0.1041593383
H  H110  1  0.11340000  0.62100000  0.02000000  1.0 0.1041593383
H  H111  1  0.39900000  0.37900000  0.49240000  1.0 0.1041593383
H  H112  1  0.88660000  0.90660000  0.50760000  1.0 0.1041593383
H  H113  1  0.98000000  0.60100000  0.09340000  1.0 0.1041593383
H  H114  1  0.50760000  0.88660000  0.90660000  1.0 0.1041593383
H  H115  1  0.02000000  0.11340000  0.62100000  1.0 0.1041593383
H  H116  1  0.49240000  0.39900000  0.37900000  1.0 0.1041593383
H  H117  1  0.09340000  0.98000000  0.60100000  1.0 0.1041593383
H  H118  1  0.90660000  0.50760000  0.88660000  1.0 0.1041593383
H  H119  1  0.62100000  0.02000000  0.11340000  1.0 0.1041593383
H  H120  1  0.37900000  0.49240000  0.39900000  1.0 0.1041593383
H  H121  1  0.51930000  0.10220000  0.64130000  1.0 0.0302774706
H  H122  1  0.46090000  0.87800000  0.35870000  1.0 0.0302774706
H  H123  1  0.48070000  0.12200000  0.58290000  1.0 0.0302774706
H  H124  1  0.53910000  0.89780000  0.41710000  1.0 0.0302774706
H  H125  1  0.64130000  0.51930000  0.10220000  1.0 0.0302774706
H  H126  1  0.41710000  0.53910000  0.89780000  1.0 0.0302774706
H  H127  1  0.35870000  0.46090000  0.87800000  1.0 0.0302774706
H  H128  1  0.58290000  0.48070000  0.12200000  1.0 0.0302774706
H  H129  1  0.10220000  0.64130000  0.51930000  1.0 0.0302774706
H  H130  1  0.89780000  0.41710000  0.53910000  1.0 0.0302774706
H  H131  1  0.87800000  0.35870000  0.46090000  1.0 0.0302774706
H  H132  1  0.12200000  0.58290000  0.48070000  1.0 0.0302774706
H  H133  1  0.48070000  0.89780000  0.35870000  1.0 0.0302774706
H  H134  1  0.53910000  0.12200000  0.64130000  1.0 0.0302774706
H  H135  1  0.51930000  0.87800000  0.41710000  1.0 0.0302774706
H  H136  1  0.46090000  0.10220000  0.58290000  1.0 0.0302774706
H  H137  1  0.35870000  0.48070000  0.89780000  1.0 0.0302774706
H  H138  1  0.58290000  0.46090000  0.10220000  1.0 0.0302774706
H  H139  1  0.64130000  0.53910000  0.12200000  1.0 0.0302774706
H  H140  1  0.41710000  0.51930000  0.87800000  1.0 0.0302774706
H  H141  1  0.89780000  0.35870000  0.48070000  1.0 0.0302774706
H  H142  1  0.10220000  0.58290000  0.46090000  1.0 0.0302774706
H  H143  1  0.12200000  0.64130000  0.53910000  1.0 0.0302774706
H  H144  1  0.87800000  0.41710000  0.51930000  1.0 0.0302774706
H  H145  1  0.45880000  0.07340000  0.57940000  1.0 0.023551951
H  H146  1  0.49400000  0.87940000  0.42060000  1.0 0.023551951
H  H147  1  0.54120000  0.12060000  0.61460000  1.0 0.023551951
H  H148  1  0.50600000  0.92660000  0.38540000  1.0 0.023551951
H  H149  1  0.57940000  0.45880000  0.07340000  1.0 0.023551951
H  H150  1  0.38540000  0.50600000  0.92660000  1.0 0.023551951
H  H151  1  0.42060000  0.49400000  0.87940000  1.0 0.023551951
H  H152  1  0.61460000  0.54120000  0.12060000  1.0 0.023551951
H  H153  1  0.07340000  0.57940000  0.45880000  1.0 0.023551951
H  H154  1  0.92660000  0.38540000  0.50600000  1.0 0.023551951
H  H155  1  0.87940000  0.42060000  0.49400000  1.0 0.023551951
H  H156  1  0.12060000  0.61460000  0.54120000  1.0 0.023551951
H  H157  1  0.54120000  0.92660000  0.42060000  1.0 0.023551951
H  H158  1  0.50600000  0.12060000  0.57940000  1.0 0.023551951
H  H159  1  0.45880000  0.87940000  0.38540000  1.0 0.023551951
H  H160  1  0.49400000  0.07340000  0.61460000  1.0 0.023551951
H  H161  1  0.42060000  0.54120000  0.92660000  1.0 0.023551951
H  H162  1  0.61460000  0.49400000  0.07340000  1.0 0.023551951
H  H163  1  0.57940000  0.50600000  0.12060000  1.0 0.023551951
H  H164  1  0.38540000  0.45880000  0.87940000  1.0 0.023551951
H  H165  1  0.92660000  0.42060000  0.54120000  1.0 0.023551951
H  H166  1  0.07340000  0.61460000  0.49400000  1.0 0.023551951
H  H167  1  0.12060000  0.57940000  0.50600000  1.0 0.023551951
H  H168  1  0.87940000  0.38540000  0.45880000  1.0 0.023551951
C  C1  1  0.56354000  0.06060000  0.34840000  1.0 0.5737588261
C  C2  1  0.71220000  0.21514000  0.65160000  1.0 0.5737588261
C  C3  1  0.43646000  0.78486000  0.49706000  1.0 0.5737588261
C  C4  1  0.28780000  0.93940000  0.50294000  1.0 0.5737588261
C  C5  1  0.34840000  0.56354000  0.06060000  1.0 0.5737588261
C  C6  1  0.50294000  0.28780000  0.93940000  1.0 0.5737588261
C  C7  1  0.65160000  0.71220000  0.21514000  1.0 0.5737588261
C  C8  1  0.49706000  0.43646000  0.78486000  1.0 0.5737588261
C  C9  1  0.06060000  0.34840000  0.56354000  1.0 0.5737588261
C  C10  1  0.93940000  0.50294000  0.28780000  1.0 0.5737588261
C  C11  1  0.21514000  0.65160000  0.71220000  1.0 0.5737588261
C  C12  1  0.78486000  0.49706000  0.43646000  1.0 0.5737588261
C  C13  1  0.43646000  0.93940000  0.65160000  1.0 0.5737588261
C  C14  1  0.28780000  0.78486000  0.34840000  1.0 0.5737588261
C  C15  1  0.56354000  0.21514000  0.50294000  1.0 0.5737588261
C  C16  1  0.71220000  0.06060000  0.49706000  1.0 0.5737588261
C  C17  1  0.65160000  0.43646000  0.93940000  1.0 0.5737588261
C  C18  1  0.49706000  0.71220000  0.06060000  1.0 0.5737588261
C  C19  1  0.34840000  0.28780000  0.78486000  1.0 0.5737588261
C  C20  1  0.50294000  0.56354000  0.21514000  1.0 0.5737588261
C  C21  1  0.93940000  0.65160000  0.43646000  1.0 0.5737588261
C  C22  1  0.06060000  0.49706000  0.71220000  1.0 0.5737588261
C  C23  1  0.78486000  0.34840000  0.28780000  1.0 0.5737588261
C  C24  1  0.21514000  0.50294000  0.56354000  1.0 0.5737588261
C  C25  1  0.53295000  0.04844000  0.27529000  1.0 -0.005245552
C  C26  1  0.77315000  0.25766000  0.72471000  1.0 -0.005245552
C  C27  1  0.46705000  0.74234000  0.51549000  1.0 -0.005245552
C  C28  1  0.22685000  0.95156000  0.48451000  1.0 -0.005245552
C  C29  1  0.27529000  0.53295000  0.04844000  1.0 -0.005245552
C  C30  1  0.48451000  0.22685000  0.95156000  1.0 -0.005245552
C  C31  1  0.72471000  0.77315000  0.25766000  1.0 -0.005245552
C  C32  1  0.51549000  0.46705000  0.74234000  1.0 -0.005245552
C  C33  1  0.04844000  0.27529000  0.53295000  1.0 -0.005245552
C  C34  1  0.95156000  0.48451000  0.22685000  1.0 -0.005245552
C  C35  1  0.25766000  0.72471000  0.77315000  1.0 -0.005245552
C  C36  1  0.74234000  0.51549000  0.46705000  1.0 -0.005245552
C  C37  1  0.46705000  0.95156000  0.72471000  1.0 -0.005245552
C  C38  1  0.22685000  0.74234000  0.27529000  1.0 -0.005245552
C  C39  1  0.53295000  0.25766000  0.48451000  1.0 -0.005245552
C  C40  1  0.77315000  0.04844000  0.51549000  1.0 -0.005245552
C  C41  1  0.72471000  0.46705000  0.95156000  1.0 -0.005245552
C  C42  1  0.51549000  0.77315000  0.04844000  1.0 -0.005245552
C  C43  1  0.27529000  0.22685000  0.74234000  1.0 -0.005245552
C  C44  1  0.48451000  0.53295000  0.25766000  1.0 -0.005245552
C  C45  1  0.95156000  0.72471000  0.46705000  1.0 -0.005245552
C  C46  1  0.04844000  0.51549000  0.77315000  1.0 -0.005245552
C  C47  1  0.74234000  0.27529000  0.22685000  1.0 -0.005245552
C  C48  1  0.25766000  0.48451000  0.53295000  1.0 -0.005245552
C  C49  1  0.46934000  0.98844000  0.22142000  1.0 -0.0848994871
C  C50  1  0.76702000  0.24792000  0.77858000  1.0 -0.0848994871
C  C51  1  0.53066000  0.75208000  0.51910000  1.0 -0.0848994871
C  C52  1  0.23298000  0.01156000  0.48090000  1.0 -0.0848994871
C  C53  1  0.22142000  0.46934000  0.98844000  1.0 -0.0848994871
C  C54  1  0.48090000  0.23298000  0.01156000  1.0 -0.0848994871
C  C55  1  0.77858000  0.76702000  0.24792000  1.0 -0.0848994871
C  C56  1  0.51910000  0.53066000  0.75208000  1.0 -0.0848994871
C  C57  1  0.98844000  0.22142000  0.46934000  1.0 -0.0848994871
C  C58  1  0.01156000  0.48090000  0.23298000  1.0 -0.0848994871
C  C59  1  0.24792000  0.77858000  0.76702000  1.0 -0.0848994871
C  C60  1  0.75208000  0.51910000  0.53066000  1.0 -0.0857063999
C  C61  1  0.53066000  0.01156000  0.77858000  1.0 -0.0848994871
C  C62  1  0.23298000  0.75208000  0.22142000  1.0 -0.0848994871
C  C63  1  0.46934000  0.24792000  0.48090000  1.0 -0.0848994871
C  C64  1  0.76702000  0.98844000  0.51910000  1.0 -0.0848994871
C  C65  1  0.77858000  0.53066000  0.01156000  1.0 -0.0848994871
C  C66  1  0.51910000  0.76702000  0.98844000  1.0 -0.0848994871
C  C67  1  0.22142000  0.23298000  0.75208000  1.0 -0.0848994871
C  C68  1  0.48090000  0.46934000  0.24792000  1.0 -0.0848994871
C  C69  1  0.01156000  0.77858000  0.53066000  1.0 -0.0857063999
C  C70  1  0.98844000  0.51910000  0.76702000  1.0 -0.0848994871
C  C71  1  0.75208000  0.22142000  0.23298000  1.0 -0.0848994871
C  C72  1  0.24792000  0.48090000  0.46934000  1.0 -0.0848994871
C  C73  1  0.57101000  0.09556000  0.25985000  1.0 -0.1083512674
C  C74  1  0.83571000  0.31116000  0.74015000  1.0 -0.1083512674
C  C75  1  0.42899000  0.68884000  0.52455000  1.0 -0.1083512674
C  C76  1  0.16429000  0.90444000  0.47545000  1.0 -0.1083512674
C  C77  1  0.25985000  0.57101000  0.09556000  1.0 -0.1083512674
C  C78  1  0.47545000  0.16429000  0.90444000  1.0 -0.1083512674
C  C79  1  0.74015000  0.83571000  0.31116000  1.0 -0.1083512674
C  C80  1  0.52455000  0.42899000  0.68884000  1.0 -0.1083512674
C  C81  1  0.09556000  0.25985000  0.57101000  1.0 -0.1083512674
C  C82  1  0.90444000  0.47545000  0.16429000  1.0 -0.1083512674
C  C83  1  0.31116000  0.74015000  0.83571000  1.0 -0.1083512674
C  C84  1  0.68884000  0.52455000  0.42899000  1.0 -0.1083512674
C  C85  1  0.42899000  0.90444000  0.74015000  1.0 -0.1083512674
C  C86  1  0.16429000  0.68884000  0.25985000  1.0 -0.1083512674
C  C87  1  0.57101000  0.31116000  0.47545000  1.0 -0.1083512674
C  C88  1  0.83571000  0.09556000  0.52455000  1.0 -0.1083512674
C  C89  1  0.74015000  0.42899000  0.90444000  1.0 -0.1083512674
C  C90  1  0.52455000  0.83571000  0.09556000  1.0 -0.1083512674
C  C91  1  0.25985000  0.16429000  0.68884000  1.0 -0.1083512674
C  C92  1  0.47545000  0.57101000  0.31116000  1.0 -0.1083512674
C  C93  1  0.90444000  0.74015000  0.42899000  1.0 -0.1083512674
C  C94  1  0.09556000  0.52455000  0.83571000  1.0 -0.1083512674
C  C95  1  0.68884000  0.25985000  0.16429000  1.0 -0.1083512674
C  C96  1  0.31116000  0.47545000  0.57101000  1.0 -0.1083512674
C  C97  1  0.44243000  0.97782000  0.15693000  1.0 -0.1611948456
C  C98  1  0.82089000  0.28550000  0.84307000  1.0 -0.1611948456
C  C99  1  0.55757000  0.71450000  0.53539000  1.0 -0.1611948456
C  C100  1  0.17911000  0.02218000  0.46461000  1.0 -0.1611948456
C  C101  1  0.15693000  0.44243000  0.97782000  1.0 -0.1611948456
C  C102  1  0.46461000  0.17911000  0.02218000  1.0 -0.1611948456
C  C103  1  0.84307000  0.82089000  0.28550000  1.0 -0.1611948456
C  C104  1  0.53539000  0.55757000  0.71450000  1.0 -0.1611948456
C  C105  1  0.97782000  0.15693000  0.44243000  1.0 -0.1611948456
C  C106  1  0.02218000  0.46461000  0.17911000  1.0 -0.1611948456
C  C107  1  0.28550000  0.84307000  0.82089000  1.0 -0.1611948456
C  C108  1  0.71450000  0.53539000  0.55757000  1.0 -0.1611948456
C  C109  1  0.55757000  0.02218000  0.84307000  1.0 -0.1611948456
C  C110  1  0.17911000  0.71450000  0.15693000  1.0 -0.1611948456
C  C111  1  0.44243000  0.28550000  0.46461000  1.0 -0.1611948456
C  C112  1  0.82089000  0.97782000  0.53539000  1.0 -0.1611948456
C  C113  1  0.84307000  0.55757000  0.02218000  1.0 -0.1611948456
C  C114  1  0.53539000  0.82089000  0.97782000  1.0 -0.1611948456
C  C115  1  0.15693000  0.17911000  0.71450000  1.0 -0.1611948456
C  C116  1  0.46461000  0.44243000  0.28550000  1.0 -0.1611948456
C  C117  1  0.02218000  0.84307000  0.55757000  1.0 -0.1611948456
C  C118  1  0.97782000  0.53539000  0.82089000  1.0 -0.1611948456
C  C119  1  0.71450000  0.15693000  0.17911000  1.0 -0.1611948456
C  C120  1  0.28550000  0.46461000  0.44243000  1.0 -0.1611948456
C  C121  1  0.54239000  0.08207000  0.19196000  1.0 -0.1760949513
C  C122  1  0.89011000  0.35043000  0.80804000  1.0 -0.1760949513
C  C123  1  0.45761000  0.64957000  0.53968000  1.0 -0.1760949513
C  C124  1  0.10989000  0.91793000  0.46032000  1.0 -0.1760949513
C  C125  1  0.19196000  0.54239000  0.08207000  1.0 -0.1760949513
C  C126  1  0.46032000  0.10989000  0.91793000  1.0 -0.1760949513
C  C127  1  0.80804000  0.89011000  0.35043000  1.0 -0.1760949513
C  C128  1  0.53968000  0.45761000  0.64957000  1.0 -0.1760949513
C  C129  1  0.08207000  0.19196000  0.54239000  1.0 -0.1760949513
C  C130  1  0.91793000  0.46032000  0.10989000  1.0 -0.1760949513
C  C131  1  0.35043000  0.80804000  0.89011000  1.0 -0.1760949513
C  C132  1  0.64957000  0.53968000  0.45761000  1.0 -0.1760949513
C  C133  1  0.45761000  0.91793000  0.80804000  1.0 -0.1760949513
C  C134  1  0.10989000  0.64957000  0.19196000  1.0 -0.1760949513
C  C135  1  0.54239000  0.35043000  0.46032000  1.0 -0.1760949513
C  C136  1  0.89011000  0.08207000  0.53968000  1.0 -0.1760949513
C  C137  1  0.80804000  0.45761000  0.91793000  1.0 -0.1760949513
C  C138  1  0.53968000  0.89011000  0.08207000  1.0 -0.1760949513
C  C139  1  0.19196000  0.10989000  0.64957000  1.0 -0.1760949513
C  C140  1  0.46032000  0.54239000  0.35043000  1.0 -0.1760949513
C  C141  1  0.91793000  0.80804000  0.45761000  1.0 -0.1760949513
C  C142  1  0.08207000  0.53968000  0.89011000  1.0 -0.1760949513
C  C143  1  0.64957000  0.19196000  0.10989000  1.0 -0.1760949513
C  C144  1  0.35043000  0.46032000  0.54239000  1.0 -0.1760949513
C  C145  1  0.47923000  0.02483000  0.13942000  1.0 0.045385124
C  C146  1  0.88541000  0.33981000  0.86058000  1.0 0.045385124
C  C147  1  0.52077000  0.66019000  0.54560000  1.0 0.045385124
C  C148  1  0.11459000  0.97517000  0.45440000  1.0 0.045385124
C  C149  1  0.13942000  0.47923000  0.02483000  1.0 0.045385124
C  C150  1  0.45440000  0.11459000  0.97517000  1.0 0.045385124
C  C151  1  0.86058000  0.88541000  0.33981000  1.0 0.045385124
C  C152  1  0.54560000  0.52077000  0.66019000  1.0 0.045385124
C  C153  1  0.02483000  0.13942000  0.47923000  1.0 0.045385124
C  C154  1  0.97517000  0.45440000  0.11459000  1.0 0.045385124
C  C155  1  0.33981000  0.86058000  0.88541000  1.0 0.045385124
C  C156  1  0.66019000  0.54560000  0.52077000  1.0 0.045385124
C  C157  1  0.52077000  0.97517000  0.86058000  1.0 0.045385124
C  C158  1  0.11459000  0.66019000  0.13942000  1.0 0.045385124
C  C159  1  0.47923000  0.33981000  0.45440000  1.0 0.045385124
C  C160  1  0.88541000  0.02483000  0.54560000  1.0 0.045385124
C  C161  1  0.86058000  0.52077000  0.97517000  1.0 0.045385124
C  C162  1  0.54560000  0.88541000  0.02483000  1.0 0.045385124
C  C163  1  0.13942000  0.11459000  0.66019000  1.0 0.045385124
C  C164  1  0.45440000  0.47923000  0.33981000  1.0 0.045385124
C  C165  1  0.97517000  0.86058000  0.52077000  1.0 0.045385124
C  C166  1  0.02483000  0.54560000  0.88541000  1.0 0.045385124
C  C167  1  0.66019000  0.13942000  0.11459000  1.0 0.045385124
C  C168  1  0.33981000  0.45440000  0.47923000  1.0 0.045385124
C  C169  1  0.45028000  0.01156000  0.06826000  1.0 0.0713656301
C  C170  1  0.94330000  0.38202000  0.93174000  1.0 0.0713656301
C  C171  1  0.54972000  0.61798000  0.56128000  1.0 0.0713656301
C  C172  1  0.05670000  0.98844000  0.43872000  1.0 0.0713656301
C  C173  1  0.06826000  0.45028000  0.01156000  1.0 0.0713656301
C  C174  1  0.43872000  0.05670000  0.98844000  1.0 0.0713656301
C  C175  1  0.93174000  0.94330000  0.38202000  1.0 0.0713656301
C  C176  1  0.56128000  0.54972000  0.61798000  1.0 0.0713656301
C  C177  1  0.01156000  0.06826000  0.45028000  1.0 0.0713656301
C  C178  1  0.98844000  0.43872000  0.05670000  1.0 0.0713656301
C  C179  1  0.38202000  0.93174000  0.94330000  1.0 0.0713656301
C  C180  1  0.61798000  0.56128000  0.54972000  1.0 0.0713656301
C  C181  1  0.54972000  0.98844000  0.93174000  1.0 0.0713656301
C  C182  1  0.05670000  0.61798000  0.06826000  1.0 0.0713656301
C  C183  1  0.45028000  0.38202000  0.43872000  1.0 0.0713656301
C  C184  1  0.94330000  0.01156000  0.56128000  1.0 0.0713656301
C  C185  1  0.93174000  0.54972000  0.98844000  1.0 0.0713656301
C  C186  1  0.56128000  0.94330000  0.01156000  1.0 0.0713656301
C  C187  1  0.06826000  0.05670000  0.61798000  1.0 0.0713656301
C  C188  1  0.43872000  0.45028000  0.38202000  1.0 0.0713656301
C  C189  1  0.98844000  0.93174000  0.54972000  1.0 0.0713656301
C  C190  1  0.01156000  0.56128000  0.94330000  1.0 0.0713656301
C  C191  1  0.61798000  0.06826000  0.05670000  1.0 0.0713656301
C  C192  1  0.38202000  0.43872000  0.45028000  1.0 0.0713656301
C  C193  1  0.40896000  0.94392000  0.01222000  1.0 -0.2084117775
C  C194  1  0.93170000  0.39674000  0.98778000  1.0 -0.2084117775
C  C195  1  0.59104000  0.60326000  0.53496000  1.0 -0.2084117775
C  C196  1  0.06830000  0.05608000  0.46504000  1.0 -0.2084117775
C  C197  1  0.01222000  0.40896000  0.94392000  1.0 -0.2084117775
C  C198  1  0.46504000  0.06830000  0.05608000  1.0 -0.2084117775
C  C199  1  0.98778000  0.93170000  0.39674000  1.0 -0.2084117775
C  C200  1  0.53496000  0.59104000  0.60326000  1.0 -0.2084117775
C  C201  1  0.94392000  0.01222000  0.40896000  1.0 -0.2084117775
C  C202  1  0.05608000  0.46504000  0.06830000  1.0 -0.2084117775
C  C203  1  0.39674000  0.98778000  0.93170000  1.0 -0.2084117775
C  C204  1  0.60326000  0.53496000  0.59104000  1.0 -0.2084117775
C  C205  1  0.59104000  0.05608000  0.98778000  1.0 -0.2084117775
C  C206  1  0.06830000  0.60326000  0.01222000  1.0 -0.2084117775
C  C207  1  0.40896000  0.39674000  0.46504000  1.0 -0.2084117775
C  C208  1  0.93170000  0.94392000  0.53496000  1.0 -0.2084117775
C  C209  1  0.98778000  0.59104000  0.05608000  1.0 -0.2084117775
C  C210  1  0.53496000  0.93170000  0.94392000  1.0 -0.2084117775
C  C211  1  0.01222000  0.06830000  0.60326000  1.0 -0.2084117775
C  C212  1  0.46504000  0.40896000  0.39674000  1.0 -0.2084117775
C  C213  1  0.05608000  0.98778000  0.59104000  1.0 -0.2084117775
C  C214  1  0.94392000  0.53496000  0.93170000  1.0 -0.2084117775
C  C215  1  0.60326000  0.01222000  0.06830000  1.0 -0.2084117775
C  C216  1  0.39674000  0.46504000  0.40896000  1.0 -0.2084117775
O  O1  1  0.61588000  0.11607000  0.39359000  1.0 -0.5906452424
O  O2  1  0.72248000  0.22229000  0.60641000  1.0 -0.5906452424
O  O3  1  0.38412000  0.77771000  0.50019000  1.0 -0.5906452424
O  O4  1  0.27752000  0.88393000  0.49981000  1.0 -0.5906452424
O  O5  1  0.39359000  0.61588000  0.11607000  1.0 -0.5906452424
O  O6  1  0.49981000  0.27752000  0.88393000  1.0 -0.5906452424
O  O7  1  0.60641000  0.72248000  0.22229000  1.0 -0.5906452424
O  O8  1  0.50019000  0.38412000  0.77771000  1.0 -0.5906452424
O  O9  1  0.11607000  0.39359000  0.61588000  1.0 -0.5906452424
O  O10  1  0.88393000  0.49981000  0.27752000  1.0 -0.5906452424
O  O11  1  0.22229000  0.60641000  0.72248000  1.0 -0.5906452424
O  O12  1  0.77771000  0.50019000  0.38412000  1.0 -0.5906452424
O  O13  1  0.38412000  0.88393000  0.60641000  1.0 -0.5906452424
O  O14  1  0.27752000  0.77771000  0.39359000  1.0 -0.5906452424
O  O15  1  0.61588000  0.22229000  0.49981000  1.0 -0.5906452424
O  O16  1  0.72248000  0.11607000  0.50019000  1.0 -0.5906452424
O  O17  1  0.60641000  0.38412000  0.88393000  1.0 -0.5906452424
O  O18  1  0.50019000  0.72248000  0.11607000  1.0 -0.5906452424
O  O19  1  0.39359000  0.27752000  0.77771000  1.0 -0.5906452424
O  O20  1  0.49981000  0.61588000  0.22229000  1.0 -0.5906452424
O  O21  1  0.88393000  0.60641000  0.38412000  1.0 -0.5906452424
O  O22  1  0.11607000  0.50019000  0.72248000  1.0 -0.5906452424
O  O23  1  0.77771000  0.39359000  0.27752000  1.0 -0.5906452424
O  O24  1  0.22229000  0.49981000  0.61588000  1.0 -0.5906452424
O  O25  1  0.59380000  0.09380000  0.50000000  1.0 -0.8638849477
O  O26  1  0.40620000  0.90620000  0.50000000  1.0 -0.8638849477
O  O27  1  0.50000000  0.59380000  0.09380000  1.0 -0.8638849477
O  O28  1  0.50000000  0.40620000  0.90620000  1.0 -0.8638849477
O  O29  1  0.09380000  0.50000000  0.59380000  1.0 -0.8638849477
O  O30  1  0.90620000  0.50000000  0.40620000  1.0 -0.8638849477
O  O31  1  0.52958000  0.01521000  0.35889000  1.0 -0.5428495725
O  O32  1  0.65632000  0.17069000  0.64111000  1.0 -0.5428495725
O  O33  1  0.47042000  0.82931000  0.48563000  1.0 -0.5428495725
O  O34  1  0.34368000  0.98479000  0.51437000  1.0 -0.5428495725
O  O35  1  0.35889000  0.52958000  0.01521000  1.0 -0.5428495725
O  O36  1  0.51437000  0.34368000  0.98479000  1.0 -0.5428495725
O  O37  1  0.64111000  0.65632000  0.17069000  1.0 -0.5428495725
O  O38  1  0.48563000  0.47042000  0.82931000  1.0 -0.5428495725
O  O39  1  0.01521000  0.35889000  0.52958000  1.0 -0.5428495725
O  O40  1  0.98479000  0.51437000  0.34368000  1.0 -0.5428495725
O  O41  1  0.17069000  0.64111000  0.65632000  1.0 -0.5428495725
O  O42  1  0.82931000  0.48563000  0.47042000  1.0 -0.5428495725
O  O43  1  0.47042000  0.98479000  0.64111000  1.0 -0.5428495725
O  O44  1  0.34368000  0.82931000  0.35889000  1.0 -0.5428495725
O  O45  1  0.52958000  0.17069000  0.51437000  1.0 -0.5428495725
O  O46  1  0.65632000  0.01521000  0.48563000  1.0 -0.5428495725
O  O47  1  0.64111000  0.47042000  0.98479000  1.0 -0.5428495725
O  O48  1  0.48563000  0.65632000  0.01521000  1.0 -0.5428495725
O  O49  1  0.35889000  0.34368000  0.82931000  1.0 -0.5428495725
O  O50  1  0.51437000  0.52958000  0.17069000  1.0 -0.5428495725
O  O51  1  0.98479000  0.64111000  0.47042000  1.0 -0.5428495725
O  O52  1  0.01521000  0.48563000  0.65632000  1.0 -0.5428495725
O  O53  1  0.82931000  0.35889000  0.34368000  1.0 -0.5428495725
O  O54  1  0.17069000  0.51437000  0.52958000  1.0 -0.5428495725
O  O55  1  0.50000000  0.00000000  0.50000000  1.0 -0.5906452424
O  O56  1  0.50000000  0.50000000  0.00000000  1.0 -0.5906452424
O  O57  1  0.00000000  0.50000000  0.50000000  1.0 -0.5906452424
O  O58  1  0.50000000  0.10724000  0.60724000  1.0 -0.2491856685
O  O59  1  0.50000000  0.89276000  0.39276000  1.0 -0.2491856685
O  O60  1  0.60724000  0.50000000  0.10724000  1.0 -0.2491856685
O  O61  1  0.39276000  0.50000000  0.89276000  1.0 -0.2491856685
O  O62  1  0.10724000  0.60724000  0.50000000  1.0 -0.2491856685
O  O63  1  0.89276000  0.39276000  0.50000000  1.0 -0.2491856685
