# DDEC6 charges by PACMAN v1.1 (https://github.com/mtap-research/PACMAN-charge/)
data_XUHCAG_FSR_pacman
_symmetry_space_group_name_H-M   'P 1'
_cell_length_a   10.58920000
_cell_length_b   19.97000000
_cell_length_c   18.98000000
_cell_angle_alpha   90.00000000
_cell_angle_beta   91.18100000
_cell_angle_gamma   90.00000000
_symmetry_Int_Tables_number   1
_chemical_formula_structural   Ni2H52C42S(N3O4)3
_chemical_formula_sum   'Ni8 H208 C168 S4 N36 O48'
_cell_volume   4012.77822706
_cell_formula_units_Z   4
loop_
 _symmetry_equiv_pos_site_id
 _symmetry_equiv_pos_as_xyz
  1  'x, y, z'
loop_
 _atom_site_type_symbol
 _atom_site_label
 _atom_site_symmetry_multiplicity
 _atom_site_fract_x
 _atom_site_fract_y
 _atom_site_fract_z
 _atom_site_occupancy
 _atom_site_charge
Ni  Ni1  1  0.81535000  0.76771000  0.87298000  1.0 0.7021374408
Ni  Ni2  1  0.18465000  0.26771000  0.62702000  1.0 0.7021374408
Ni  Ni3  1  0.18465000  0.23229000  0.12702000  1.0 0.7021374408
Ni  Ni4  1  0.81535000  0.73229000  0.37298000  1.0 0.7021374408
Ni  Ni5  1  0.33206000  0.87840000  0.77412000  1.0 0.7525651608
Ni  Ni6  1  0.66794000  0.37840000  0.72588000  1.0 0.7525651608
Ni  Ni7  1  0.66794000  0.12160000  0.22588000  1.0 0.7525651608
Ni  Ni8  1  0.33206000  0.62160000  0.27412000  1.0 0.7525651608
H  H1  1  0.07100000  0.60440000  0.95650000  1.0 0.1395195155
H  H2  1  0.92900000  0.10440000  0.54350000  1.0 0.1395195155
H  H3  1  0.92900000  0.39560000  0.04350000  1.0 0.1395195155
H  H4  1  0.07100000  0.89560000  0.45650000  1.0 0.1395195155
H  H5  1  0.44800000  0.59790000  0.98030000  1.0 0.1395195155
H  H6  1  0.55200000  0.09790000  0.51970000  1.0 0.1395195155
H  H7  1  0.55200000  0.40210000  0.01970000  1.0 0.1395195155
H  H8  1  0.44800000  0.90210000  0.48030000  1.0 0.1395195155
H  H9  1  0.45980000  0.70890000  0.94920000  1.0 0.1187132077
H  H10  1  0.54020000  0.20890000  0.55080000  1.0 0.1187132077
H  H11  1  0.54020000  0.29110000  0.05080000  1.0 0.1187132077
H  H12  1  0.45980000  0.79110000  0.44920000  1.0 0.1187132077
H  H13  1  0.04990000  0.44440000  0.91980000  1.0 0.1395195155
H  H14  1  0.95010000  0.94440000  0.58020000  1.0 0.1395195155
H  H15  1  0.95010000  0.55560000  0.08020000  1.0 0.1395195155
H  H16  1  0.04990000  0.05560000  0.41980000  1.0 0.1395195155
H  H17  1  0.04440000  0.38250000  0.81820000  1.0 0.1187132077
H  H18  1  0.95560000  0.88250000  0.68180000  1.0 0.1187132077
H  H19  1  0.95560000  0.61750000  0.18180000  1.0 0.1187132077
H  H20  1  0.04440000  0.11750000  0.31820000  1.0 0.1187132077
H  H21  1  0.42610000  0.46710000  0.89860000  1.0 0.1395195155
H  H22  1  0.57390000  0.96710000  0.60140000  1.0 0.1395195155
H  H23  1  0.57390000  0.53290000  0.10140000  1.0 0.1450983737
H  H24  1  0.42610000  0.03290000  0.39860000  1.0 0.1450983737
H  H25  1  0.18720000  0.00090000  0.70250000  1.0 0.1187132077
H  H26  1  0.81280000  0.50090000  0.79750000  1.0 0.1187132077
H  H27  1  0.81280000  0.99910000  0.29750000  1.0 0.1187132077
H  H28  1  0.18720000  0.49910000  0.20250000  1.0 0.1187132077
H  H29  1  0.07830000  0.89860000  0.86580000  1.0 0.1395195155
H  H30  1  0.92170000  0.39860000  0.63420000  1.0 0.1395195155
H  H31  1  0.92170000  0.10140000  0.13420000  1.0 0.1395195155
H  H32  1  0.07830000  0.60140000  0.36580000  1.0 0.1395195155
H  H33  1  0.92000000  0.98330000  0.84140000  1.0 0.1187132077
H  H34  1  0.08000000  0.48330000  0.65860000  1.0 0.1187132077
H  H35  1  0.08000000  0.01670000  0.15860000  1.0 0.1187132077
H  H36  1  0.92000000  0.51670000  0.34140000  1.0 0.1187132077
H  H37  1  0.97730000  0.06720000  0.67560000  1.0 0.0615296067
H  H38  1  0.02270000  0.56720000  0.82440000  1.0 0.0615296067
H  H39  1  0.02270000  0.93280000  0.32440000  1.0 0.0615296067
H  H40  1  0.97730000  0.43280000  0.17560000  1.0 0.0615296067
H  H41  1  0.87000000  0.05830000  0.73050000  1.0 0.0788657633
H  H42  1  0.13000000  0.55830000  0.76950000  1.0 0.0788657633
H  H43  1  0.13000000  0.94170000  0.26950000  1.0 0.0788657633
H  H44  1  0.87000000  0.44170000  0.23050000  1.0 0.0788657633
H  H45  1  0.06690000  0.22830000  0.84030000  1.0 0.0788657633
H  H46  1  0.93310000  0.72830000  0.65970000  1.0 0.0788657633
H  H47  1  0.93310000  0.77170000  0.15970000  1.0 0.0788657633
H  H48  1  0.06690000  0.27170000  0.34030000  1.0 0.0683197204
H  H49  1  0.01740000  0.20750000  0.91460000  1.0 0.0515861627
H  H50  1  0.98260000  0.70750000  0.58540000  1.0 0.0515861627
H  H51  1  0.98260000  0.79250000  0.08540000  1.0 0.0515861627
H  H52  1  0.01740000  0.29250000  0.41460000  1.0 0.0515861627
H  H53  1  0.94070000  0.17000000  0.73570000  1.0 0.0788657633
H  H54  1  0.05930000  0.67000000  0.76430000  1.0 0.0683197204
H  H55  1  0.05930000  0.83000000  0.26430000  1.0 0.0788657633
H  H56  1  0.94070000  0.33000000  0.23570000  1.0 0.0788657633
H  H57  1  0.08060000  0.14630000  0.74840000  1.0 0.0788657633
H  H58  1  0.91940000  0.64630000  0.75160000  1.0 0.0788657633
H  H59  1  0.91940000  0.85370000  0.25160000  1.0 0.0788657633
H  H60  1  0.08060000  0.35370000  0.24840000  1.0 0.0788657633
H  H61  1  0.88840000  0.12330000  0.84820000  1.0 0.0788657633
H  H62  1  0.11160000  0.62330000  0.65180000  1.0 0.0788657633
H  H63  1  0.11160000  0.87670000  0.15180000  1.0 0.0788657633
H  H64  1  0.88840000  0.37670000  0.34820000  1.0 0.0788657633
H  H65  1  0.03220000  0.10670000  0.86110000  1.0 0.0683197204
H  H66  1  0.96780000  0.60670000  0.63890000  1.0 0.0683197204
H  H67  1  0.96780000  0.89330000  0.13890000  1.0 0.0683197204
H  H68  1  0.03220000  0.39330000  0.36110000  1.0 0.0683197204
H  H69  1  0.90930000  0.29270000  0.75740000  1.0 0.1187132077
H  H70  1  0.09070000  0.79270000  0.74260000  1.0 0.1187132077
H  H71  1  0.09070000  0.70730000  0.24260000  1.0 0.1187132077
H  H72  1  0.90930000  0.20730000  0.25740000  1.0 0.1187132077
H  H73  1  0.77310000  0.23320000  0.94010000  1.0 0.1187132077
H  H74  1  0.22690000  0.73320000  0.55990000  1.0 0.1187132077
H  H75  1  0.22690000  0.76680000  0.05990000  1.0 0.1187132077
H  H76  1  0.77310000  0.26680000  0.44010000  1.0 0.1187132077
H  H77  1  0.62940000  0.31620000  0.88750000  1.0 0.1299833138
H  H78  1  0.37060000  0.81620000  0.61250000  1.0 0.1299833138
H  H79  1  0.37060000  0.68380000  0.11250000  1.0 0.1299833138
H  H80  1  0.62940000  0.18380000  0.38750000  1.0 0.1299833138
H  H81  1  0.78260000  0.68820000  0.01920000  1.0 0.1299833138
H  H82  1  0.21740000  0.18820000  0.48080000  1.0 0.1299833138
H  H83  1  0.21740000  0.31180000  0.98080000  1.0 0.1299833138
H  H84  1  0.78260000  0.81180000  0.51920000  1.0 0.1299833138
H  H85  1  0.67920000  0.73560000  0.12290000  1.0 0.1004538614
H  H86  1  0.32080000  0.23560000  0.37710000  1.0 0.1004538614
H  H87  1  0.32080000  0.26440000  0.87710000  1.0 0.1004538614
H  H88  1  0.67920000  0.76440000  0.62290000  1.0 0.1004538614
H  H89  1  0.36700000  0.82340000  0.24100000  1.0 0.1079239775
H  H90  1  0.63300000  0.32340000  0.25900000  1.0 0.1079239775
H  H91  1  0.63300000  0.17660000  0.75900000  1.0 0.1079239775
H  H92  1  0.36700000  0.67660000  0.74100000  1.0 0.1079239775
H  H93  1  0.34530000  0.88900000  0.28470000  1.0 0.0683197204
H  H94  1  0.65470000  0.38900000  0.21530000  1.0 0.0683197204
H  H95  1  0.65470000  0.11100000  0.71530000  1.0 0.0683197204
H  H96  1  0.34530000  0.61100000  0.78470000  1.0 0.0683197204
H  H97  1  0.62970000  0.85570000  0.95740000  1.0 0.0788657633
H  H98  1  0.37030000  0.35570000  0.54260000  1.0 0.0788657633
H  H99  1  0.37030000  0.14430000  0.04260000  1.0 0.0788657633
H  H100  1  0.62970000  0.64430000  0.45740000  1.0 0.0788657633
H  H101  1  0.47610000  0.87200000  0.05070000  1.0 0.0683197204
H  H102  1  0.52390000  0.37200000  0.44930000  1.0 0.0683197204
H  H103  1  0.52390000  0.12800000  0.94930000  1.0 0.0683197204
H  H104  1  0.47610000  0.62800000  0.55070000  1.0 0.0683197204
H  H105  1  0.45180000  0.81080000  0.09940000  1.0 0.1004538614
H  H106  1  0.54820000  0.31080000  0.40060000  1.0 0.1004538614
H  H107  1  0.54820000  0.18920000  0.90060000  1.0 0.1004538614
H  H108  1  0.45180000  0.68920000  0.59940000  1.0 0.1004538614
H  H109  1  0.60390000  0.85870000  0.17870000  1.0 0.0683197204
H  H110  1  0.39610000  0.35870000  0.32130000  1.0 0.0683197204
H  H111  1  0.39610000  0.14130000  0.82130000  1.0 0.0683197204
H  H112  1  0.60390000  0.64130000  0.67870000  1.0 0.0683197204
H  H113  1  0.59310000  0.92340000  0.13260000  1.0 0.0615296067
H  H114  1  0.40690000  0.42340000  0.36740000  1.0 0.0615296067
H  H115  1  0.40690000  0.07660000  0.86740000  1.0 0.0615296067
H  H116  1  0.59310000  0.57660000  0.63260000  1.0 0.0615296067
H  H117  1  0.45330000  0.95300000  0.20690000  1.0 0.0788657633
H  H118  1  0.54670000  0.45300000  0.29310000  1.0 0.0788657633
H  H119  1  0.54670000  0.04700000  0.79310000  1.0 0.0788657633
H  H120  1  0.45330000  0.54700000  0.70690000  1.0 0.0788657633
H  H121  1  0.36200000  0.90900000  0.16060000  1.0 0.0683197204
H  H122  1  0.63800000  0.40900000  0.33940000  1.0 0.0683197204
H  H123  1  0.63800000  0.09100000  0.83940000  1.0 0.0683197204
H  H124  1  0.36200000  0.59100000  0.66060000  1.0 0.0683197204
H  H125  1  0.54850000  0.75360000  0.28740000  1.0 0.1187132077
H  H126  1  0.45150000  0.25360000  0.21260000  1.0 0.1187132077
H  H127  1  0.45150000  0.24640000  0.71260000  1.0 0.1187132077
H  H128  1  0.54850000  0.74640000  0.78740000  1.0 0.1187132077
H  H129  1  0.57550000  0.94560000  0.33260000  1.0 0.1299833138
H  H130  1  0.42450000  0.44560000  0.16740000  1.0 0.1299833138
H  H131  1  0.42450000  0.05440000  0.66740000  1.0 0.1299833138
H  H132  1  0.57550000  0.55440000  0.83260000  1.0 0.1299833138
H  H133  1  0.75760000  0.88760000  0.38410000  1.0 0.1299833138
H  H134  1  0.24240000  0.38760000  0.11590000  1.0 0.1299833138
H  H135  1  0.24240000  0.11240000  0.61590000  1.0 0.1299833138
H  H136  1  0.75760000  0.61240000  0.88410000  1.0 0.1299833138
H  H137  1  0.00970000  0.08560000  0.68820000  1.0 0.0896794741
H  H138  1  0.99030000  0.58560000  0.81180000  1.0 0.0896794741
H  H139  1  0.99030000  0.91440000  0.31180000  1.0 0.0896794741
H  H140  1  0.00970000  0.41440000  0.18820000  1.0 0.0896794741
H  H141  1  0.88360000  0.04790000  0.70390000  1.0 0.0515861627
H  H142  1  0.11640000  0.54790000  0.79610000  1.0 0.0515861627
H  H143  1  0.11640000  0.95210000  0.29610000  1.0 0.0515861627
H  H144  1  0.88360000  0.45210000  0.20390000  1.0 0.0515861627
H  H145  1  0.06640000  0.23830000  0.87590000  1.0 0.0515861627
H  H146  1  0.93360000  0.73830000  0.62410000  1.0 0.0515861627
H  H147  1  0.93360000  0.76170000  0.12410000  1.0 0.0515861627
H  H148  1  0.06640000  0.26170000  0.37590000  1.0 0.0515861627
H  H149  1  0.98270000  0.18090000  0.90570000  1.0 0.0788657633
H  H150  1  0.01730000  0.68090000  0.59430000  1.0 0.0788657633
H  H151  1  0.01730000  0.81910000  0.09430000  1.0 0.0788657633
H  H152  1  0.98270000  0.31910000  0.40570000  1.0 0.0788657633
H  H153  1  0.86410000  0.15250000  0.75120000  1.0 0.0788657633
H  H154  1  0.13590000  0.65250000  0.74880000  1.0 0.0788657633
H  H155  1  0.13590000  0.84750000  0.24880000  1.0 0.0788657633
H  H156  1  0.86410000  0.34750000  0.25120000  1.0 0.0788657633
H  H157  1  0.87870000  0.10320000  0.81510000  1.0 0.0683197204
H  H158  1  0.12130000  0.60320000  0.68490000  1.0 0.0683197204
H  H159  1  0.12130000  0.89680000  0.18490000  1.0 0.0683197204
H  H160  1  0.87870000  0.39680000  0.31510000  1.0 0.0683197204
H  H161  1  0.10170000  0.13160000  0.81900000  1.0 0.0683197204
H  H162  1  0.89830000  0.63160000  0.68100000  1.0 0.0683197204
H  H163  1  0.89830000  0.86840000  0.18100000  1.0 0.0683197204
H  H164  1  0.10170000  0.36840000  0.31900000  1.0 0.0683197204
H  H165  1  0.06980000  0.18900000  0.76490000  1.0 0.0896794741
H  H166  1  0.93020000  0.68900000  0.73510000  1.0 0.0896794741
H  H167  1  0.93020000  0.81100000  0.23510000  1.0 0.0896794741
H  H168  1  0.06980000  0.31100000  0.26490000  1.0 0.0896794741
H  H169  1  0.63990000  0.72570000  0.11030000  1.0 0.1004538614
H  H170  1  0.36010000  0.22570000  0.38970000  1.0 0.1004538614
H  H171  1  0.36010000  0.27430000  0.88970000  1.0 0.1004538614
H  H172  1  0.63990000  0.77430000  0.61030000  1.0 0.1004538614
H  H173  1  0.35490000  0.82480000  0.25630000  1.0 0.0896794741
H  H174  1  0.64510000  0.32480000  0.24370000  1.0 0.0896794741
H  H175  1  0.64510000  0.17520000  0.74370000  1.0 0.0896794741
H  H176  1  0.35490000  0.67520000  0.75630000  1.0 0.0896794741
H  H177  1  0.35820000  0.89920000  0.28090000  1.0 0.0896794741
H  H178  1  0.64180000  0.39920000  0.21910000  1.0 0.0896794741
H  H179  1  0.64180000  0.10080000  0.71910000  1.0 0.0896794741
H  H180  1  0.35820000  0.60080000  0.78090000  1.0 0.0896794741
H  H181  1  0.72140000  0.87670000  0.98930000  1.0 0.0683197204
H  H182  1  0.27860000  0.37670000  0.51070000  1.0 0.0683197204
H  H183  1  0.27860000  0.12330000  0.01070000  1.0 0.0683197204
H  H184  1  0.72140000  0.62330000  0.48930000  1.0 0.0683197204
H  H185  1  0.68230000  0.87220000  0.17130000  1.0 0.0788657633
H  H186  1  0.31770000  0.37220000  0.32870000  1.0 0.0788657633
H  H187  1  0.31770000  0.12780000  0.82870000  1.0 0.0788657633
H  H188  1  0.68230000  0.62780000  0.67130000  1.0 0.0788657633
H  H189  1  0.62370000  0.91550000  0.10890000  1.0 0.0683197204
H  H190  1  0.37630000  0.41550000  0.39110000  1.0 0.0683197204
H  H191  1  0.37630000  0.08450000  0.89110000  1.0 0.0683197204
H  H192  1  0.62370000  0.58450000  0.60890000  1.0 0.0683197204
H  H193  1  0.46230000  0.82800000  0.09730000  1.0 0.0896794741
H  H194  1  0.53770000  0.32800000  0.40270000  1.0 0.0896794741
H  H195  1  0.53770000  0.17200000  0.90270000  1.0 0.0896794741
H  H196  1  0.46230000  0.67200000  0.59730000  1.0 0.0896794741
H  H197  1  0.51180000  0.80060000  0.17010000  1.0 0.0788657633
H  H198  1  0.48820000  0.30060000  0.32990000  1.0 0.0788657633
H  H199  1  0.48820000  0.19940000  0.82990000  1.0 0.0788657633
H  H200  1  0.51180000  0.69940000  0.67010000  1.0 0.0788657633
H  H201  1  0.44460000  0.93350000  0.17750000  1.0 0.0615296067
H  H202  1  0.55540000  0.43350000  0.32250000  1.0 0.0615296067
H  H203  1  0.55540000  0.06650000  0.82250000  1.0 0.0683197204
H  H204  1  0.44460000  0.56650000  0.67750000  1.0 0.0615296067
H  H205  1  0.32960000  0.88690000  0.15730000  1.0 0.0683197204
H  H206  1  0.67040000  0.38690000  0.34270000  1.0 0.0683197204
H  H207  1  0.67040000  0.11310000  0.84270000  1.0 0.0683197204
H  H208  1  0.32960000  0.61310000  0.65730000  1.0 0.0683197204
C  C1  1  0.27360000  0.72310000  0.92900000  1.0 -0.01613749
C  C2  1  0.72640000  0.22310000  0.57100000  1.0 -0.01613749
C  C3  1  0.72640000  0.27690000  0.07100000  1.0 -0.01613749
C  C4  1  0.27360000  0.77690000  0.42900000  1.0 -0.01613749
C  C5  1  0.15610000  0.69180000  0.93200000  1.0 -0.0389153426
C  C6  1  0.84390000  0.19180000  0.56800000  1.0 -0.0389153426
C  C7  1  0.84390000  0.30820000  0.06800000  1.0 -0.0389153426
C  C8  1  0.15610000  0.80820000  0.43200000  1.0 -0.0389153426
C  C9  1  0.14900000  0.62570000  0.95380000  1.0 -0.1271345429
C  C10  1  0.85100000  0.12570000  0.54620000  1.0 -0.1271345429
C  C11  1  0.85100000  0.37430000  0.04620000  1.0 -0.1271345429
C  C12  1  0.14900000  0.87430000  0.45380000  1.0 -0.1271345429
C  C13  1  0.25900000  0.59140000  0.97160000  1.0 -0.0903228943
C  C14  1  0.74100000  0.09140000  0.52840000  1.0 -0.0903228943
C  C15  1  0.74100000  0.40860000  0.02840000  1.0 -0.0903228943
C  C16  1  0.25900000  0.90860000  0.47160000  1.0 -0.0903228943
C  C17  1  0.37490000  0.62170000  0.96890000  1.0 -0.0903228943
C  C18  1  0.62510000  0.12170000  0.53110000  1.0 -0.0903228943
C  C19  1  0.62510000  0.37830000  0.03110000  1.0 -0.0903228943
C  C20  1  0.37490000  0.87830000  0.46890000  1.0 -0.0903228943
C  C21  1  0.38170000  0.68760000  0.94910000  1.0 -0.1214856953
C  C22  1  0.61830000  0.18760000  0.55090000  1.0 -0.1214856953
C  C23  1  0.61830000  0.31240000  0.05090000  1.0 -0.1214856953
C  C24  1  0.38170000  0.81240000  0.44910000  1.0 -0.1214856953
C  C25  1  0.24030000  0.46120000  0.92030000  1.0 -0.0984396322
C  C26  1  0.75970000  0.96120000  0.57970000  1.0 -0.0984396322
C  C27  1  0.75970000  0.53880000  0.07970000  1.0 -0.0984396322
C  C28  1  0.24030000  0.03880000  0.42030000  1.0 -0.0984396322
C  C29  1  0.12370000  0.43620000  0.89540000  1.0 -0.109450628
C  C30  1  0.87630000  0.93620000  0.60460000  1.0 -0.109450628
C  C31  1  0.87630000  0.56380000  0.10460000  1.0 -0.109450628
C  C32  1  0.12370000  0.06380000  0.39540000  1.0 -0.109450628
C  C33  1  0.12150000  0.39940000  0.83440000  1.0 -0.1214856953
C  C34  1  0.87850000  0.89940000  0.66560000  1.0 -0.1214856953
C  C35  1  0.87850000  0.60060000  0.16560000  1.0 -0.1214856953
C  C36  1  0.12150000  0.10060000  0.33440000  1.0 -0.1214856953
C  C37  1  0.22830000  0.38610000  0.79540000  1.0 -0.0389153426
C  C38  1  0.77170000  0.88610000  0.70460000  1.0 -0.0389153426
C  C39  1  0.77170000  0.61390000  0.20460000  1.0 -0.0389153426
C  C40  1  0.22830000  0.11390000  0.29540000  1.0 -0.0389153426
C  C41  1  0.34420000  0.41240000  0.82000000  1.0 -0.0389153426
C  C42  1  0.65580000  0.91240000  0.68000000  1.0 -0.0389153426
C  C43  1  0.65580000  0.58760000  0.18000000  1.0 -0.0389153426
C  C44  1  0.34420000  0.08760000  0.32000000  1.0 -0.0389153426
C  C45  1  0.34930000  0.44980000  0.88240000  1.0 -0.1214856953
C  C46  1  0.65070000  0.94980000  0.61760000  1.0 -0.1214856953
C  C47  1  0.65070000  0.55020000  0.11760000  1.0 -0.1214856953
C  C48  1  0.34930000  0.05020000  0.38240000  1.0 -0.1214856953
C  C49  1  0.29360000  0.79390000  0.90320000  1.0 0.548159257
C  C50  1  0.70640000  0.29390000  0.59680000  1.0 0.548159257
C  C51  1  0.70640000  0.20610000  0.09680000  1.0 0.548159257
C  C52  1  0.29360000  0.70610000  0.40320000  1.0 0.548159257
C  C53  1  0.03430000  0.72830000  0.91330000  1.0 0.5164782558
C  C54  1  0.96570000  0.22830000  0.58670000  1.0 0.5164782558
C  C55  1  0.96570000  0.27170000  0.08670000  1.0 0.5164782558
C  C56  1  0.03430000  0.77170000  0.41330000  1.0 0.5164782558
C  C57  1  0.46860000  0.39850000  0.78690000  1.0 0.5092563484
C  C58  1  0.53140000  0.89850000  0.71310000  1.0 0.5092563484
C  C59  1  0.53140000  0.60150000  0.21310000  1.0 0.5092563484
C  C60  1  0.46860000  0.10150000  0.28690000  1.0 0.5092563484
C  C61  1  0.21180000  0.34400000  0.72970000  1.0 0.5092563484
C  C62  1  0.78820000  0.84400000  0.77030000  1.0 0.5092563484
C  C63  1  0.78820000  0.65600000  0.27030000  1.0 0.5092563484
C  C64  1  0.21180000  0.15600000  0.22970000  1.0 0.5092563484
C  C65  1  0.14120000  0.98610000  0.74080000  1.0 0.0788657633
C  C66  1  0.85880000  0.48610000  0.75920000  1.0 0.0788657633
C  C67  1  0.85880000  0.01390000  0.25920000  1.0 0.0788657633
C  C68  1  0.14120000  0.51390000  0.24080000  1.0 0.0788657633
C  C69  1  0.08120000  0.93030000  0.83000000  1.0 -0.0497122291
C  C70  1  0.91880000  0.43030000  0.67000000  1.0 -0.0497122291
C  C71  1  0.91880000  0.06970000  0.17000000  1.0 -0.0497122291
C  C72  1  0.08120000  0.56970000  0.33000000  1.0 -0.0497122291
C  C73  1  0.99370000  0.97660000  0.81650000  1.0 -0.109450628
C  C74  1  0.00630000  0.47660000  0.68350000  1.0 -0.109450628
C  C75  1  0.00630000  0.02340000  0.18350000  1.0 -0.109450628
C  C76  1  0.99370000  0.52340000  0.31650000  1.0 -0.109450628
C  C77  1  0.95960000  0.06670000  0.72550000  1.0 -0.141255993
C  C78  1  0.04040000  0.56670000  0.77450000  1.0 -0.141255993
C  C79  1  0.04040000  0.93330000  0.27450000  1.0 -0.141255993
C  C80  1  0.95960000  0.43330000  0.22550000  1.0 -0.141255993
C  C81  1  0.99630000  0.20870000  0.86470000  1.0 -0.1214856953
C  C82  1  0.00370000  0.70870000  0.63530000  1.0 -0.1214856953
C  C83  1  0.00370000  0.79130000  0.13530000  1.0 -0.1271345429
C  C84  1  0.99630000  0.29130000  0.36470000  1.0 -0.1214856953
C  C85  1  0.99310000  0.13590000  0.75790000  1.0 -0.0696624067
C  C86  1  0.00690000  0.63590000  0.74210000  1.0 -0.0696624067
C  C87  1  0.00690000  0.86410000  0.24210000  1.0 -0.0696624067
C  C88  1  0.99310000  0.36410000  0.25790000  1.0 -0.0696624067
C  C89  1  0.97370000  0.13730000  0.83780000  1.0 -0.0903228943
C  C90  1  0.02630000  0.63730000  0.66220000  1.0 -0.0903228943
C  C91  1  0.02630000  0.86270000  0.16220000  1.0 -0.0903228943
C  C92  1  0.97370000  0.36270000  0.33780000  1.0 -0.0903228943
C  C93  1  0.85780000  0.28910000  0.79630000  1.0 0.0683197204
C  C94  1  0.14220000  0.78910000  0.70370000  1.0 0.0615296067
C  C95  1  0.14220000  0.71090000  0.20370000  1.0 0.0615296067
C  C96  1  0.85780000  0.21090000  0.29630000  1.0 0.0683197204
C  C97  1  0.78340000  0.25590000  0.89770000  1.0 -0.1646217551
C  C98  1  0.21660000  0.75590000  0.60230000  1.0 -0.1646217551
C  C99  1  0.21660000  0.74410000  0.10230000  1.0 -0.1646217551
C  C100  1  0.78340000  0.24410000  0.39770000  1.0 -0.1646217551
C  C101  1  0.70400000  0.30110000  0.86790000  1.0 -0.0984396322
C  C102  1  0.29600000  0.80110000  0.63210000  1.0 -0.0984396322
C  C103  1  0.29600000  0.69890000  0.13210000  1.0 -0.0984396322
C  C104  1  0.70400000  0.19890000  0.36790000  1.0 -0.0984396322
C  C105  1  0.74450000  0.73010000  0.02200000  1.0 -0.1922580894
C  C106  1  0.25550000  0.23010000  0.47800000  1.0 -0.1922580894
C  C107  1  0.25550000  0.26990000  0.97800000  1.0 -0.1922580894
C  C108  1  0.74450000  0.76990000  0.52200000  1.0 -0.1922580894
C  C109  1  0.67980000  0.75210000  0.07710000  1.0 -0.0903228943
C  C110  1  0.32020000  0.25210000  0.42290000  1.0 -0.0903228943
C  C111  1  0.32020000  0.24790000  0.92290000  1.0 -0.0903228943
C  C112  1  0.67980000  0.74790000  0.57710000  1.0 -0.0903228943
C  C113  1  0.40520000  0.86530000  0.25590000  1.0 -0.1706386751
C  C114  1  0.59480000  0.36530000  0.24410000  1.0 -0.1706386751
C  C115  1  0.59480000  0.13470000  0.74410000  1.0 -0.1706386751
C  C116  1  0.40520000  0.63470000  0.75590000  1.0 -0.1706386751
C  C117  1  0.65780000  0.82050000  0.98580000  1.0 0.0683197204
C  C118  1  0.34220000  0.32050000  0.51420000  1.0 0.0683197204
C  C119  1  0.34220000  0.17950000  0.01420000  1.0 0.0683197204
C  C120  1  0.65780000  0.67950000  0.48580000  1.0 0.0683197204
C  C121  1  0.51550000  0.84270000  0.08550000  1.0 -0.0609097813
C  C122  1  0.48450000  0.34270000  0.41450000  1.0 -0.0609097813
C  C123  1  0.48450000  0.15730000  0.91450000  1.0 -0.0609097813
C  C124  1  0.51550000  0.65730000  0.58550000  1.0 -0.0609097813
C  C125  1  0.54730000  0.88420000  0.14810000  1.0 -0.0609097813
C  C126  1  0.45270000  0.38420000  0.35190000  1.0 -0.0609097813
C  C127  1  0.45270000  0.11580000  0.85190000  1.0 -0.0609097813
C  C128  1  0.54730000  0.61580000  0.64810000  1.0 -0.0609097813
C  C129  1  0.43630000  0.90750000  0.19130000  1.0 -0.0984396322
C  C130  1  0.56370000  0.40750000  0.30870000  1.0 -0.0984396322
C  C131  1  0.56370000  0.09250000  0.80870000  1.0 -0.0984396322
C  C132  1  0.43630000  0.59250000  0.69130000  1.0 -0.0984396322
C  C133  1  0.57860000  0.79380000  0.30580000  1.0 0.0896794741
C  C134  1  0.42140000  0.29380000  0.19420000  1.0 0.0896794741
C  C135  1  0.42140000  0.20620000  0.69420000  1.0 0.0896794741
C  C136  1  0.57860000  0.70620000  0.80580000  1.0 0.0896794741
C  C137  1  0.59230000  0.89990000  0.33010000  1.0 -0.1271345429
C  C138  1  0.40770000  0.39990000  0.16990000  1.0 -0.1271345429
C  C139  1  0.40770000  0.10010000  0.66990000  1.0 -0.1271345429
C  C140  1  0.59230000  0.60010000  0.83010000  1.0 -0.1271345429
C  C141  1  0.69230000  0.86740000  0.35840000  1.0 -0.0903228943
C  C142  1  0.30770000  0.36740000  0.14160000  1.0 -0.0903228943
C  C143  1  0.30770000  0.13260000  0.64160000  1.0 -0.0903228943
C  C144  1  0.69230000  0.63260000  0.85840000  1.0 -0.0903228943
C  C145  1  0.92230000  0.12240000  0.77550000  1.0 -0.0903228943
C  C146  1  0.07770000  0.62240000  0.72450000  1.0 -0.0903228943
C  C147  1  0.07770000  0.87760000  0.22450000  1.0 -0.0903228943
C  C148  1  0.92230000  0.37760000  0.27550000  1.0 -0.0903228943
C  C149  1  0.03620000  0.16220000  0.80280000  1.0 -0.0696624067
C  C150  1  0.96380000  0.66220000  0.69720000  1.0 -0.0696624067
C  C151  1  0.96380000  0.83780000  0.19720000  1.0 -0.0696624067
C  C152  1  0.03620000  0.33780000  0.30280000  1.0 -0.0696624067
C  C153  1  0.71770000  0.83390000  0.00840000  1.0 0.0683197204
C  C154  1  0.28230000  0.33390000  0.49160000  1.0 0.0683197204
C  C155  1  0.28230000  0.16610000  0.99160000  1.0 0.0683197204
C  C156  1  0.71770000  0.66610000  0.50840000  1.0 0.0683197204
C  C157  1  0.63050000  0.87080000  0.12850000  1.0 -0.109450628
C  C158  1  0.36950000  0.37080000  0.37150000  1.0 -0.109450628
C  C159  1  0.36950000  0.12920000  0.87150000  1.0 -0.109450628
C  C160  1  0.63050000  0.62920000  0.62850000  1.0 -0.109450628
C  C161  1  0.50110000  0.84090000  0.14200000  1.0 -0.0794633688
C  C162  1  0.49890000  0.34090000  0.35800000  1.0 -0.0794633688
C  C163  1  0.49890000  0.15910000  0.85800000  1.0 -0.0794633688
C  C164  1  0.50110000  0.65910000  0.64200000  1.0 -0.0794633688
C  C165  1  0.41300000  0.88800000  0.17960000  1.0 -0.0794633688
C  C166  1  0.58700000  0.38800000  0.32040000  1.0 -0.0794633688
C  C167  1  0.58700000  0.11200000  0.82040000  1.0 -0.0794633688
C  C168  1  0.41300000  0.61200000  0.67960000  1.0 -0.0794633688
S  S1  1  0.25001000  0.50661000  0.99969000  1.0 0.9793263827
S  S2  1  0.74999000  0.00661000  0.50031000  1.0 0.9793263827
S  S3  1  0.74999000  0.49339000  0.00031000  1.0 0.9793263827
S  S4  1  0.25001000  0.99339000  0.49969000  1.0 0.9793263827
N  N1  1  0.74690000  0.77720000  0.97090000  1.0 -0.2111294303
N  N2  1  0.25310000  0.27720000  0.52910000  1.0 -0.2111294303
N  N3  1  0.25310000  0.22280000  0.02910000  1.0 -0.2111294303
N  N4  1  0.74690000  0.72280000  0.47090000  1.0 -0.2111294303
N  N5  1  0.61540000  0.80460000  0.04920000  1.0 0.157798842
N  N6  1  0.38460000  0.30460000  0.45080000  1.0 0.157798842
N  N7  1  0.38460000  0.19540000  0.95080000  1.0 0.157798842
N  N8  1  0.61540000  0.69540000  0.54920000  1.0 0.157798842
N  N9  1  0.17670000  0.93683000  0.78230000  1.0 -0.27452971
N  N10  1  0.82330000  0.43683000  0.71770000  1.0 -0.27452971
N  N11  1  0.82330000  0.06317000  0.21770000  1.0 -0.27452971
N  N12  1  0.17670000  0.56317000  0.28230000  1.0 -0.27452971
N  N13  1  0.03170000  0.01260000  0.75970000  1.0 -0.1826084699
N  N14  1  0.96830000  0.51260000  0.74030000  1.0 -0.1826084699
N  N15  1  0.96830000  0.98740000  0.24030000  1.0 -0.1826084699
N  N16  1  0.03170000  0.48740000  0.25970000  1.0 -0.1826084699
N  N17  1  0.88240000  0.25020000  0.85280000  1.0 -0.1706386751
N  N18  1  0.11760000  0.75020000  0.64720000  1.0 -0.1706386751
N  N19  1  0.11760000  0.74980000  0.14720000  1.0 -0.1706386751
N  N20  1  0.88240000  0.24980000  0.35280000  1.0 -0.1706386751
N  N21  1  0.75040000  0.32140000  0.80400000  1.0 -0.2646849301
N  N22  1  0.24960000  0.82140000  0.69600000  1.0 -0.2646849301
N  N23  1  0.24960000  0.67860000  0.19600000  1.0 -0.2646849301
N  N24  1  0.75040000  0.17860000  0.30400000  1.0 -0.2646849301
N  N25  1  0.52030000  0.85210000  0.29670000  1.0 -0.1706386751
N  N26  1  0.47970000  0.35210000  0.20330000  1.0 -0.1706386751
N  N27  1  0.47970000  0.14790000  0.70330000  1.0 -0.1706386751
N  N28  1  0.52030000  0.64790000  0.79670000  1.0 -0.1706386751
N  N29  1  0.68390000  0.79930000  0.34390000  1.0 -0.3413469043
N  N30  1  0.31610000  0.29930000  0.15610000  1.0 -0.3413469043
N  N31  1  0.31610000  0.20070000  0.65610000  1.0 -0.3413469043
N  N32  1  0.68390000  0.70070000  0.84390000  1.0 -0.3413469043
N  N33  1  0.68290000  0.82190000  0.07570000  1.0 -0.0696624067
N  N34  1  0.31710000  0.32190000  0.42430000  1.0 -0.0696624067
N  N35  1  0.31710000  0.17810000  0.92430000  1.0 -0.0696624067
N  N36  1  0.68290000  0.67810000  0.57570000  1.0 -0.0696624067
O  O1  1  0.28270000  0.80208000  0.83914000  1.0 -0.49746639
O  O2  1  0.71730000  0.30208000  0.66086000  1.0 -0.49746639
O  O3  1  0.71730000  0.19792000  0.16086000  1.0 -0.49746639
O  O4  1  0.28270000  0.69792000  0.33914000  1.0 -0.49746639
O  O5  1  0.32440000  0.83715000  0.94770000  1.0 -0.5594467368
O  O6  1  0.67560000  0.33715000  0.55230000  1.0 -0.5594467368
O  O7  1  0.67560000  0.16285000  0.05230000  1.0 -0.5594467368
O  O8  1  0.32440000  0.66285000  0.44770000  1.0 -0.5594467368
O  O9  1  0.93940000  0.69340000  0.89580000  1.0 -0.4916171577
O  O10  1  0.06060000  0.19340000  0.60420000  1.0 -0.4916171577
O  O11  1  0.06060000  0.30660000  0.10420000  1.0 -0.4916171577
O  O12  1  0.93940000  0.80660000  0.39580000  1.0 -0.4916171577
O  O13  1  0.02810000  0.78997000  0.91470000  1.0 -0.4845937338
O  O14  1  0.97190000  0.28997000  0.58530000  1.0 -0.4845937338
O  O15  1  0.97190000  0.21003000  0.08530000  1.0 -0.4845937338
O  O16  1  0.02810000  0.71003000  0.41470000  1.0 -0.4845937338
O  O17  1  0.48380000  0.34346000  0.75580000  1.0 -0.4916171577
O  O18  1  0.51620000  0.84346000  0.74420000  1.0 -0.4916171577
O  O19  1  0.51620000  0.65654000  0.24420000  1.0 -0.4916171577
O  O20  1  0.48380000  0.15654000  0.25580000  1.0 -0.4916171577
O  O21  1  0.55600000  0.44087000  0.79128000  1.0 -0.49746639
O  O22  1  0.44400000  0.94087000  0.70872000  1.0 -0.49746639
O  O23  1  0.44400000  0.55913000  0.20872000  1.0 -0.49746639
O  O24  1  0.55600000  0.05913000  0.29128000  1.0 -0.49746639
O  O25  1  0.25780000  0.35924000  0.67280000  1.0 -0.4727082025
O  O26  1  0.74220000  0.85924000  0.82720000  1.0 -0.4727082025
O  O27  1  0.74220000  0.64076000  0.32720000  1.0 -0.4727082025
O  O28  1  0.25780000  0.14076000  0.17280000  1.0 -0.4727082025
O  O29  1  0.14360000  0.29263000  0.73440000  1.0 -0.49746639
O  O30  1  0.85640000  0.79263000  0.76560000  1.0 -0.49746639
O  O31  1  0.85640000  0.70737000  0.26560000  1.0 -0.49746639
O  O32  1  0.14360000  0.20737000  0.23440000  1.0 -0.49746639
O  O33  1  0.36900000  0.49025000  0.03303000  1.0 -0.4916171577
O  O34  1  0.63100000  0.99025000  0.46697000  1.0 -0.4916171577
O  O35  1  0.63100000  0.50975000  0.96697000  1.0 -0.4916171577
O  O36  1  0.36900000  0.00975000  0.53303000  1.0 -0.4916171577
O  O37  1  0.13540000  0.49630000  0.03661000  1.0 -0.5112420168
O  O38  1  0.86460000  0.99630000  0.46339000  1.0 -0.5112420168
O  O39  1  0.86460000  0.50370000  0.96339000  1.0 -0.5112420168
O  O40  1  0.13540000  0.00370000  0.53661000  1.0 -0.5112420168
O  O41  1  0.39990000  0.93630000  0.86670000  1.0 0.0092893459
O  O42  1  0.60010000  0.43630000  0.63330000  1.0 0.0092893459
O  O43  1  0.60010000  0.06370000  0.13330000  1.0 0.0092893459
O  O44  1  0.39990000  0.56370000  0.36670000  1.0 0.0092893459
O  O45  1  0.45460000  0.91300000  0.85070000  1.0 0.0092893459
O  O46  1  0.54540000  0.41300000  0.64930000  1.0 0.0092893459
O  O47  1  0.54540000  0.08700000  0.14930000  1.0 0.0092893459
O  O48  1  0.45460000  0.58700000  0.35070000  1.0 0.0092893459
