# DDEC6 charges by PACMAN v1.1 (https://github.com/mtap-research/PACMAN-charge/)
data_XUHMUL_ASR_pacman
_symmetry_space_group_name_H-M   'P 1'
_cell_length_a   33.10670000
_cell_length_b   33.10670000
_cell_length_c   33.10670000
_cell_angle_alpha   60.00000000
_cell_angle_beta   60.00000000
_cell_angle_gamma   60.00000000
_symmetry_Int_Tables_number   1
_chemical_formula_structural   NiH14C24NO4
_chemical_formula_sum   'Ni12 H168 C288 N12 O48'
_cell_volume   25658.58381247
_cell_formula_units_Z   12
loop_
 _symmetry_equiv_pos_site_id
 _symmetry_equiv_pos_as_xyz
  1  'x, y, z'
loop_
 _atom_site_type_symbol
 _atom_site_label
 _atom_site_symmetry_multiplicity
 _atom_site_fract_x
 _atom_site_fract_y
 _atom_site_fract_z
 _atom_site_occupancy
 _atom_site_charge
Ni  Ni1  1  0.14898000  0.85102000  0.14898000  1.0 0.8499912656
Ni  Ni2  1  0.20710000  0.79290000  0.20710000  1.0 0.8499912656
Ni  Ni3  1  0.85102000  0.14898000  0.85102000  1.0 0.8499912656
Ni  Ni4  1  0.79290000  0.20710000  0.79290000  1.0 0.856716989
Ni  Ni5  1  0.85102000  0.14898000  0.14898000  1.0 0.8499912656
Ni  Ni6  1  0.79290000  0.20710000  0.20710000  1.0 0.856716989
Ni  Ni7  1  0.14898000  0.85102000  0.85102000  1.0 0.8499912656
Ni  Ni8  1  0.20710000  0.79290000  0.79290000  1.0 0.856716989
Ni  Ni9  1  0.14898000  0.14898000  0.85102000  1.0 0.8499912656
Ni  Ni10  1  0.20710000  0.20710000  0.79290000  1.0 0.856716989
Ni  Ni11  1  0.85102000  0.85102000  0.14898000  1.0 0.8499912656
Ni  Ni12  1  0.79290000  0.79290000  0.20710000  1.0 0.856716989
H  H1  1  0.00931000  0.06739000  0.36033000  1.0 0.1014225348
H  H2  1  0.01206000  0.06520000  0.43228000  1.0 0.0873238089
H  H3  1  0.36033000  0.56297000  0.00931000  1.0 0.1014225348
H  H4  1  0.43228000  0.49046000  0.01206000  1.0 0.0873238089
H  H5  1  0.06739000  0.00931000  0.56297000  1.0 0.1014225348
H  H6  1  0.06520000  0.01206000  0.49046000  1.0 0.0873238089
H  H7  1  0.56297000  0.36033000  0.06739000  1.0 0.1014225348
H  H8  1  0.49046000  0.43228000  0.06520000  1.0 0.0873238089
H  H9  1  0.06739000  0.36033000  0.00931000  1.0 0.1014225348
H  H10  1  0.06520000  0.43228000  0.01206000  1.0 0.0873238089
H  H11  1  0.56297000  0.00931000  0.36033000  1.0 0.1014225348
H  H12  1  0.49046000  0.01206000  0.43228000  1.0 0.0873238089
H  H13  1  0.00931000  0.56297000  0.06739000  1.0 0.1014225348
H  H14  1  0.01206000  0.49046000  0.06520000  1.0 0.0873238089
H  H15  1  0.36033000  0.06739000  0.56297000  1.0 0.1014225348
H  H16  1  0.43228000  0.06520000  0.49046000  1.0 0.0873238089
H  H17  1  0.36033000  0.00931000  0.06739000  1.0 0.1014225348
H  H18  1  0.43228000  0.01206000  0.06520000  1.0 0.0873238089
H  H19  1  0.00931000  0.36033000  0.56297000  1.0 0.1014225348
H  H20  1  0.01206000  0.43228000  0.49046000  1.0 0.0873238089
H  H21  1  0.56297000  0.06739000  0.00931000  1.0 0.1014225348
H  H22  1  0.49046000  0.06520000  0.01206000  1.0 0.0873238089
H  H23  1  0.06739000  0.56297000  0.36033000  1.0 0.1014225348
H  H24  1  0.06520000  0.49046000  0.43228000  1.0 0.0873238089
H  H25  1  0.99069000  0.43703000  0.63967000  1.0 0.1014225348
H  H26  1  0.98794000  0.50954000  0.56772000  1.0 0.0873238089
H  H27  1  0.63967000  0.93261000  0.99069000  1.0 0.1014225348
H  H28  1  0.56772000  0.93480000  0.98794000  1.0 0.0873238089
H  H29  1  0.93261000  0.63967000  0.43703000  1.0 0.1014225348
H  H30  1  0.93480000  0.56772000  0.50954000  1.0 0.0873238089
H  H31  1  0.43703000  0.99069000  0.93261000  1.0 0.1014225348
H  H32  1  0.50954000  0.98794000  0.93480000  1.0 0.0873238089
H  H33  1  0.93261000  0.43703000  0.99069000  1.0 0.1014225348
H  H34  1  0.93480000  0.50954000  0.98794000  1.0 0.0873238089
H  H35  1  0.43703000  0.93261000  0.63967000  1.0 0.1014225348
H  H36  1  0.50954000  0.93480000  0.56772000  1.0 0.0873238089
H  H37  1  0.99069000  0.63967000  0.93261000  1.0 0.1014225348
H  H38  1  0.98794000  0.56772000  0.93480000  1.0 0.0873238089
H  H39  1  0.63967000  0.99069000  0.43703000  1.0 0.1014225348
H  H40  1  0.56772000  0.98794000  0.50954000  1.0 0.0873238089
H  H41  1  0.63967000  0.43703000  0.93261000  1.0 0.1014225348
H  H42  1  0.56772000  0.50954000  0.93480000  1.0 0.0873238089
H  H43  1  0.99069000  0.93261000  0.43703000  1.0 0.1014225348
H  H44  1  0.98794000  0.93480000  0.50954000  1.0 0.0873238089
H  H45  1  0.43703000  0.63967000  0.99069000  1.0 0.1014225348
H  H46  1  0.50954000  0.56772000  0.98794000  1.0 0.0873238089
H  H47  1  0.93261000  0.99069000  0.63967000  1.0 0.1014225348
H  H48  1  0.93480000  0.98794000  0.56772000  1.0 0.0873238089
H  H49  1  0.99069000  0.93261000  0.63967000  1.0 0.1014225348
H  H50  1  0.98794000  0.93480000  0.56772000  1.0 0.0873238089
H  H51  1  0.63967000  0.43703000  0.99069000  1.0 0.1014225348
H  H52  1  0.56772000  0.50954000  0.98794000  1.0 0.0873238089
H  H53  1  0.93261000  0.99069000  0.43703000  1.0 0.1014225348
H  H54  1  0.93480000  0.98794000  0.50954000  1.0 0.0873238089
H  H55  1  0.43703000  0.63967000  0.93261000  1.0 0.1014225348
H  H56  1  0.50954000  0.56772000  0.93480000  1.0 0.0873238089
H  H57  1  0.93261000  0.63967000  0.99069000  1.0 0.1014225348
H  H58  1  0.93480000  0.56772000  0.98794000  1.0 0.0873238089
H  H59  1  0.43703000  0.99069000  0.63967000  1.0 0.1014225348
H  H60  1  0.50954000  0.98794000  0.56772000  1.0 0.0873238089
H  H61  1  0.99069000  0.43703000  0.93261000  1.0 0.1014225348
H  H62  1  0.98794000  0.50954000  0.93480000  1.0 0.0873238089
H  H63  1  0.63967000  0.93261000  0.43703000  1.0 0.1014225348
H  H64  1  0.56772000  0.93480000  0.50954000  1.0 0.0873238089
H  H65  1  0.63967000  0.99069000  0.93261000  1.0 0.1014225348
H  H66  1  0.56772000  0.98794000  0.93480000  1.0 0.0873238089
H  H67  1  0.99069000  0.63967000  0.43703000  1.0 0.1014225348
H  H68  1  0.98794000  0.56772000  0.50954000  1.0 0.0873238089
H  H69  1  0.43703000  0.93261000  0.99069000  1.0 0.1014225348
H  H70  1  0.50954000  0.93480000  0.98794000  1.0 0.0873238089
H  H71  1  0.93261000  0.43703000  0.63967000  1.0 0.1014225348
H  H72  1  0.93480000  0.50954000  0.56772000  1.0 0.0873238089
H  H73  1  0.00931000  0.56297000  0.36033000  1.0 0.1014225348
H  H74  1  0.01206000  0.49046000  0.43228000  1.0 0.0873238089
H  H75  1  0.36033000  0.06739000  0.00931000  1.0 0.1014225348
H  H76  1  0.43228000  0.06520000  0.01206000  1.0 0.0873238089
H  H77  1  0.06739000  0.36033000  0.56297000  1.0 0.1014225348
H  H78  1  0.06520000  0.43228000  0.49046000  1.0 0.0873238089
H  H79  1  0.56297000  0.00931000  0.06739000  1.0 0.1014225348
H  H80  1  0.49046000  0.01206000  0.06520000  1.0 0.0873238089
H  H81  1  0.06739000  0.56297000  0.00931000  1.0 0.1014225348
H  H82  1  0.06520000  0.49046000  0.01206000  1.0 0.0873238089
H  H83  1  0.56297000  0.06739000  0.36033000  1.0 0.1014225348
H  H84  1  0.49046000  0.06520000  0.43228000  1.0 0.0873238089
H  H85  1  0.00931000  0.36033000  0.06739000  1.0 0.1014225348
H  H86  1  0.01206000  0.43228000  0.06520000  1.0 0.0873238089
H  H87  1  0.36033000  0.00931000  0.56297000  1.0 0.1014225348
H  H88  1  0.43228000  0.01206000  0.49046000  1.0 0.0873238089
H  H89  1  0.36033000  0.56297000  0.06739000  1.0 0.1014225348
H  H90  1  0.43228000  0.49046000  0.06520000  1.0 0.0873238089
H  H91  1  0.00931000  0.06739000  0.56297000  1.0 0.1014225348
H  H92  1  0.01206000  0.06520000  0.49046000  1.0 0.0873238089
H  H93  1  0.56297000  0.36033000  0.00931000  1.0 0.1014225348
H  H94  1  0.49046000  0.43228000  0.01206000  1.0 0.0873238089
H  H95  1  0.06739000  0.00931000  0.36033000  1.0 0.1014225348
H  H96  1  0.06520000  0.01206000  0.43228000  1.0 0.0873238089
H  H97  1  0.04332000  0.95668000  0.22806000  1.0 0.1389398338
H  H98  1  0.08242000  0.91758000  0.36358000  1.0 0.1275173472
H  H99  1  0.12957000  0.87043000  0.31277000  1.0 0.1275173472
H  H100  1  0.22806000  0.77194000  0.04332000  1.0 0.1389398338
H  H101  1  0.36358000  0.63642000  0.08242000  1.0 0.1275173472
H  H102  1  0.31277000  0.68723000  0.12957000  1.0 0.1275173472
H  H103  1  0.95668000  0.04332000  0.77194000  1.0 0.1389398338
H  H104  1  0.91758000  0.08242000  0.63642000  1.0 0.1275173472
H  H105  1  0.87043000  0.12957000  0.68723000  1.0 0.1275173472
H  H106  1  0.77194000  0.22806000  0.95668000  1.0 0.1389398338
H  H107  1  0.63642000  0.36358000  0.91758000  1.0 0.1275173472
H  H108  1  0.68723000  0.31277000  0.87043000  1.0 0.1275173472
H  H109  1  0.95668000  0.22806000  0.04332000  1.0 0.1389398338
H  H110  1  0.91758000  0.36358000  0.08242000  1.0 0.1275173472
H  H111  1  0.87043000  0.31277000  0.12957000  1.0 0.1275173472
H  H112  1  0.77194000  0.04332000  0.22806000  1.0 0.1389398338
H  H113  1  0.63642000  0.08242000  0.36358000  1.0 0.1275173472
H  H114  1  0.68723000  0.12957000  0.31277000  1.0 0.1275173472
H  H115  1  0.04332000  0.77194000  0.95668000  1.0 0.1389398338
H  H116  1  0.08242000  0.63642000  0.91758000  1.0 0.1275173472
H  H117  1  0.12957000  0.68723000  0.87043000  1.0 0.1275173472
H  H118  1  0.22806000  0.95668000  0.77194000  1.0 0.1389398338
H  H119  1  0.36358000  0.91758000  0.63642000  1.0 0.1275173472
H  H120  1  0.31277000  0.87043000  0.68723000  1.0 0.1275173472
H  H121  1  0.22806000  0.04332000  0.95668000  1.0 0.1389398338
H  H122  1  0.36358000  0.08242000  0.91758000  1.0 0.1275173472
H  H123  1  0.31277000  0.12957000  0.87043000  1.0 0.1275173472
H  H124  1  0.04332000  0.22806000  0.77194000  1.0 0.1389398338
H  H125  1  0.08242000  0.36358000  0.63642000  1.0 0.1275173472
H  H126  1  0.12957000  0.31277000  0.68723000  1.0 0.1275173472
H  H127  1  0.77194000  0.95668000  0.04332000  1.0 0.1389398338
H  H128  1  0.63642000  0.91758000  0.08242000  1.0 0.1275173472
H  H129  1  0.68723000  0.87043000  0.12957000  1.0 0.1275173472
H  H130  1  0.95668000  0.77194000  0.22806000  1.0 0.1389398338
H  H131  1  0.91758000  0.63642000  0.36358000  1.0 0.1275173472
H  H132  1  0.87043000  0.68723000  0.31277000  1.0 0.1275173472
H  H133  1  0.95668000  0.22806000  0.77194000  1.0 0.1389398338
H  H134  1  0.91758000  0.36358000  0.63642000  1.0 0.1275173472
H  H135  1  0.87043000  0.31277000  0.68723000  1.0 0.1275173472
H  H136  1  0.77194000  0.04332000  0.95668000  1.0 0.1389398338
H  H137  1  0.63642000  0.08242000  0.91758000  1.0 0.1275173472
H  H138  1  0.68723000  0.12957000  0.87043000  1.0 0.1275173472
H  H139  1  0.04332000  0.77194000  0.22806000  1.0 0.1389398338
H  H140  1  0.08242000  0.63642000  0.36358000  1.0 0.1275173472
H  H141  1  0.12957000  0.68723000  0.31277000  1.0 0.1275173472
H  H142  1  0.22806000  0.95668000  0.04332000  1.0 0.1389398338
H  H143  1  0.36358000  0.91758000  0.08242000  1.0 0.1275173472
H  H144  1  0.31277000  0.87043000  0.12957000  1.0 0.1275173472
H  H145  1  0.04332000  0.22806000  0.95668000  1.0 0.1389398338
H  H146  1  0.08242000  0.36358000  0.91758000  1.0 0.1275173472
H  H147  1  0.12957000  0.31277000  0.87043000  1.0 0.1275173472
H  H148  1  0.22806000  0.04332000  0.77194000  1.0 0.1389398338
H  H149  1  0.36358000  0.08242000  0.63642000  1.0 0.1275173472
H  H150  1  0.31277000  0.12957000  0.68723000  1.0 0.1275173472
H  H151  1  0.95668000  0.77194000  0.04332000  1.0 0.1389398338
H  H152  1  0.91758000  0.63642000  0.08242000  1.0 0.1275173472
H  H153  1  0.87043000  0.68723000  0.12957000  1.0 0.1275173472
H  H154  1  0.77194000  0.95668000  0.22806000  1.0 0.1389398338
H  H155  1  0.63642000  0.91758000  0.36358000  1.0 0.1275173472
H  H156  1  0.68723000  0.87043000  0.31277000  1.0 0.1275173472
H  H157  1  0.77194000  0.22806000  0.04332000  1.0 0.1389398338
H  H158  1  0.63642000  0.36358000  0.08242000  1.0 0.1275173472
H  H159  1  0.68723000  0.31277000  0.12957000  1.0 0.1275173472
H  H160  1  0.95668000  0.04332000  0.22806000  1.0 0.1389398338
H  H161  1  0.91758000  0.08242000  0.36358000  1.0 0.1275173472
H  H162  1  0.87043000  0.12957000  0.31277000  1.0 0.1275173472
H  H163  1  0.22806000  0.77194000  0.95668000  1.0 0.1389398338
H  H164  1  0.36358000  0.63642000  0.91758000  1.0 0.1275173472
H  H165  1  0.31277000  0.68723000  0.87043000  1.0 0.1275173472
H  H166  1  0.04332000  0.95668000  0.77194000  1.0 0.1389398338
H  H167  1  0.08242000  0.91758000  0.63642000  1.0 0.1275173472
H  H168  1  0.12957000  0.87043000  0.68723000  1.0 0.1275173472
C  C1  1  0.00605000  0.04075000  0.38955000  1.0 -0.096133091
C  C2  1  0.00689000  0.03951000  0.43333000  1.0 -0.0779752913
C  C3  1  0.38955000  0.56365000  0.00605000  1.0 -0.096133091
C  C4  1  0.43333000  0.52027000  0.00689000  1.0 -0.0779752913
C  C5  1  0.04075000  0.00605000  0.56365000  1.0 -0.096133091
C  C6  1  0.03951000  0.00689000  0.52027000  1.0 -0.0779752913
C  C7  1  0.56365000  0.38955000  0.04075000  1.0 -0.096133091
C  C8  1  0.52027000  0.43333000  0.03951000  1.0 -0.0779752913
C  C9  1  0.04075000  0.38955000  0.00605000  1.0 -0.096133091
C  C10  1  0.03951000  0.43333000  0.00689000  1.0 -0.0779752913
C  C11  1  0.56365000  0.00605000  0.38955000  1.0 -0.096133091
C  C12  1  0.52027000  0.00689000  0.43333000  1.0 -0.0779752913
C  C13  1  0.00605000  0.56365000  0.04075000  1.0 -0.096133091
C  C14  1  0.00689000  0.52027000  0.03951000  1.0 -0.0779752913
C  C15  1  0.38955000  0.04075000  0.56365000  1.0 -0.096133091
C  C16  1  0.43333000  0.03951000  0.52027000  1.0 -0.0779752913
C  C17  1  0.38955000  0.00605000  0.04075000  1.0 -0.096133091
C  C18  1  0.43333000  0.00689000  0.03951000  1.0 -0.0779752913
C  C19  1  0.00605000  0.38955000  0.56365000  1.0 -0.096133091
C  C20  1  0.00689000  0.43333000  0.52027000  1.0 -0.0779752913
C  C21  1  0.56365000  0.04075000  0.00605000  1.0 -0.096133091
C  C22  1  0.52027000  0.03951000  0.00689000  1.0 -0.0779752913
C  C23  1  0.04075000  0.56365000  0.38955000  1.0 -0.096133091
C  C24  1  0.03951000  0.52027000  0.43333000  1.0 -0.0779752913
C  C25  1  0.99395000  0.43635000  0.61045000  1.0 -0.096133091
C  C26  1  0.99311000  0.47973000  0.56667000  1.0 -0.0779752913
C  C27  1  0.61045000  0.95925000  0.99395000  1.0 -0.096133091
C  C28  1  0.56667000  0.96049000  0.99311000  1.0 -0.0779752913
C  C29  1  0.95925000  0.61045000  0.43635000  1.0 -0.096133091
C  C30  1  0.96049000  0.56667000  0.47973000  1.0 -0.0779752913
C  C31  1  0.43635000  0.99395000  0.95925000  1.0 -0.096133091
C  C32  1  0.47973000  0.99311000  0.96049000  1.0 -0.0779752913
C  C33  1  0.95925000  0.43635000  0.99395000  1.0 -0.0945101663
C  C34  1  0.96049000  0.47973000  0.99311000  1.0 -0.0779752913
C  C35  1  0.43635000  0.95925000  0.61045000  1.0 -0.096133091
C  C36  1  0.47973000  0.96049000  0.56667000  1.0 -0.0779752913
C  C37  1  0.99395000  0.61045000  0.95925000  1.0 -0.096133091
C  C38  1  0.99311000  0.56667000  0.96049000  1.0 -0.0779752913
C  C39  1  0.61045000  0.99395000  0.43635000  1.0 -0.096133091
C  C40  1  0.56667000  0.99311000  0.47973000  1.0 -0.0779752913
C  C41  1  0.61045000  0.43635000  0.95925000  1.0 -0.096133091
C  C42  1  0.56667000  0.47973000  0.96049000  1.0 -0.0779752913
C  C43  1  0.99395000  0.95925000  0.43635000  1.0 -0.096133091
C  C44  1  0.99311000  0.96049000  0.47973000  1.0 -0.0779752913
C  C45  1  0.43635000  0.61045000  0.99395000  1.0 -0.096133091
C  C46  1  0.47973000  0.56667000  0.99311000  1.0 -0.0779752913
C  C47  1  0.95925000  0.99395000  0.61045000  1.0 -0.0945101663
C  C48  1  0.96049000  0.99311000  0.56667000  1.0 -0.0779752913
C  C49  1  0.99395000  0.95925000  0.61045000  1.0 -0.096133091
C  C50  1  0.99311000  0.96049000  0.56667000  1.0 -0.0779752913
C  C51  1  0.61045000  0.43635000  0.99395000  1.0 -0.096133091
C  C52  1  0.56667000  0.47973000  0.99311000  1.0 -0.0779752913
C  C53  1  0.95925000  0.99395000  0.43635000  1.0 -0.096133091
C  C54  1  0.96049000  0.99311000  0.47973000  1.0 -0.0779752913
C  C55  1  0.43635000  0.61045000  0.95925000  1.0 -0.096133091
C  C56  1  0.47973000  0.56667000  0.96049000  1.0 -0.0779752913
C  C57  1  0.95925000  0.61045000  0.99395000  1.0 -0.0945101663
C  C58  1  0.96049000  0.56667000  0.99311000  1.0 -0.0779752913
C  C59  1  0.43635000  0.99395000  0.61045000  1.0 -0.096133091
C  C60  1  0.47973000  0.99311000  0.56667000  1.0 -0.0779752913
C  C61  1  0.99395000  0.43635000  0.95925000  1.0 -0.096133091
C  C62  1  0.99311000  0.47973000  0.96049000  1.0 -0.0779752913
C  C63  1  0.61045000  0.95925000  0.43635000  1.0 -0.096133091
C  C64  1  0.56667000  0.96049000  0.47973000  1.0 -0.0779752913
C  C65  1  0.61045000  0.99395000  0.95925000  1.0 -0.0945101663
C  C66  1  0.56667000  0.99311000  0.96049000  1.0 -0.0779752913
C  C67  1  0.99395000  0.61045000  0.43635000  1.0 -0.096133091
C  C68  1  0.99311000  0.56667000  0.47973000  1.0 -0.0779752913
C  C69  1  0.43635000  0.95925000  0.99395000  1.0 -0.096133091
C  C70  1  0.47973000  0.96049000  0.99311000  1.0 -0.0779752913
C  C71  1  0.95925000  0.43635000  0.61045000  1.0 -0.0945101663
C  C72  1  0.96049000  0.47973000  0.56667000  1.0 -0.0779752913
C  C73  1  0.00605000  0.56365000  0.38955000  1.0 -0.096133091
C  C74  1  0.00689000  0.52027000  0.43333000  1.0 -0.0779752913
C  C75  1  0.38955000  0.04075000  0.00605000  1.0 -0.096133091
C  C76  1  0.43333000  0.03951000  0.00689000  1.0 -0.0779752913
C  C77  1  0.04075000  0.38955000  0.56365000  1.0 -0.096133091
C  C78  1  0.03951000  0.43333000  0.52027000  1.0 -0.0779752913
C  C79  1  0.56365000  0.00605000  0.04075000  1.0 -0.096133091
C  C80  1  0.52027000  0.00689000  0.03951000  1.0 -0.0779752913
C  C81  1  0.04075000  0.56365000  0.00605000  1.0 -0.096133091
C  C82  1  0.03951000  0.52027000  0.00689000  1.0 -0.0779752913
C  C83  1  0.56365000  0.04075000  0.38955000  1.0 -0.096133091
C  C84  1  0.52027000  0.03951000  0.43333000  1.0 -0.0779752913
C  C85  1  0.00605000  0.38955000  0.04075000  1.0 -0.096133091
C  C86  1  0.00689000  0.43333000  0.03951000  1.0 -0.0779752913
C  C87  1  0.38955000  0.00605000  0.56365000  1.0 -0.096133091
C  C88  1  0.43333000  0.00689000  0.52027000  1.0 -0.0779752913
C  C89  1  0.38955000  0.56365000  0.04075000  1.0 -0.096133091
C  C90  1  0.43333000  0.52027000  0.03951000  1.0 -0.0779752913
C  C91  1  0.00605000  0.04075000  0.56365000  1.0 -0.096133091
C  C92  1  0.00689000  0.03951000  0.52027000  1.0 -0.0779752913
C  C93  1  0.56365000  0.38955000  0.00605000  1.0 -0.096133091
C  C94  1  0.52027000  0.43333000  0.00689000  1.0 -0.0779752913
C  C95  1  0.04075000  0.00605000  0.38955000  1.0 -0.096133091
C  C96  1  0.03951000  0.00689000  0.43333000  1.0 -0.0779752913
C  C97  1  0.00000000  0.00000000  0.39316000  1.0 0.0873238089
C  C98  1  0.00000000  0.00000000  0.47712000  1.0 0.0061111506
C  C99  1  0.39316000  0.60684000  0.00000000  1.0 0.0873238089
C  C100  1  0.47712000  0.52288000  0.00000000  1.0 0.0061111506
C  C101  1  0.00000000  0.00000000  0.60684000  1.0 0.0873238089
C  C102  1  0.00000000  0.00000000  0.52288000  1.0 0.0043163578
C  C103  1  0.60684000  0.39316000  0.00000000  1.0 0.0873238089
C  C104  1  0.52288000  0.47712000  0.00000000  1.0 0.0043163578
C  C105  1  0.00000000  0.39316000  0.00000000  1.0 0.0873238089
C  C106  1  0.00000000  0.47712000  0.00000000  1.0 0.0061111506
C  C107  1  0.60684000  0.00000000  0.39316000  1.0 0.0873238089
C  C108  1  0.52288000  0.00000000  0.47712000  1.0 0.0043163578
C  C109  1  0.00000000  0.60684000  0.00000000  1.0 0.0873238089
C  C110  1  0.00000000  0.52288000  0.00000000  1.0 0.0043163578
C  C111  1  0.39316000  0.00000000  0.60684000  1.0 0.0873238089
C  C112  1  0.47712000  0.00000000  0.52288000  1.0 0.0043163578
C  C113  1  0.39316000  0.00000000  0.00000000  1.0 0.0873238089
C  C114  1  0.47712000  0.00000000  0.00000000  1.0 0.0061111506
C  C115  1  0.00000000  0.39316000  0.60684000  1.0 0.0873238089
C  C116  1  0.00000000  0.47712000  0.52288000  1.0 0.0043163578
C  C117  1  0.60684000  0.00000000  0.00000000  1.0 0.0873238089
C  C118  1  0.52288000  0.00000000  0.00000000  1.0 0.0061111506
C  C119  1  0.00000000  0.60684000  0.39316000  1.0 0.0873238089
C  C120  1  0.00000000  0.52288000  0.47712000  1.0 0.0043163578
C  C121  1  0.12327000  0.87673000  0.23283000  1.0 0.5799708381
C  C122  1  0.09105000  0.90895000  0.26473000  1.0 -0.0454835471
C  C123  1  0.05110000  0.94890000  0.25506000  1.0 -0.1191324639
C  C124  1  0.02246000  0.97754000  0.28452000  1.0 -0.0179694534
C  C125  1  0.03393000  0.96607000  0.32547000  1.0 0.1389398338
C  C126  1  0.07459000  0.92541000  0.33661000  1.0 -0.2112050302
C  C127  1  0.10226000  0.89774000  0.30618000  1.0 -0.0779752913
C  C128  1  0.23283000  0.76717000  0.12327000  1.0 0.5799708381
C  C129  1  0.26473000  0.73527000  0.09105000  1.0 -0.0454835471
C  C130  1  0.25506000  0.74494000  0.05110000  1.0 -0.1191324639
C  C131  1  0.28452000  0.71548000  0.02246000  1.0 -0.0179694534
C  C132  1  0.32547000  0.67453000  0.03393000  1.0 0.1389398338
C  C133  1  0.33661000  0.66339000  0.07459000  1.0 -0.2112050302
C  C134  1  0.30618000  0.69382000  0.10226000  1.0 -0.0779752913
C  C135  1  0.87673000  0.12327000  0.76717000  1.0 0.5799708381
C  C136  1  0.90895000  0.09105000  0.73527000  1.0 -0.0440493174
C  C137  1  0.94890000  0.05110000  0.74494000  1.0 -0.1191324639
C  C138  1  0.97754000  0.02246000  0.71548000  1.0 -0.0179694534
C  C139  1  0.96607000  0.03393000  0.67453000  1.0 0.1389398338
C  C140  1  0.92541000  0.07459000  0.66339000  1.0 -0.2112050302
C  C141  1  0.89774000  0.10226000  0.69382000  1.0 -0.0779752913
C  C142  1  0.76717000  0.23283000  0.87673000  1.0 0.5799708381
C  C143  1  0.73527000  0.26473000  0.90895000  1.0 -0.0440493174
C  C144  1  0.74494000  0.25506000  0.94890000  1.0 -0.1191324639
C  C145  1  0.71548000  0.28452000  0.97754000  1.0 -0.0179694534
C  C146  1  0.67453000  0.32547000  0.96607000  1.0 0.1389398338
C  C147  1  0.66339000  0.33661000  0.92541000  1.0 -0.2112050302
C  C148  1  0.69382000  0.30618000  0.89774000  1.0 -0.0779752913
C  C149  1  0.87673000  0.23283000  0.12327000  1.0 0.5799708381
C  C150  1  0.90895000  0.26473000  0.09105000  1.0 -0.0440493174
C  C151  1  0.94890000  0.25506000  0.05110000  1.0 -0.1191324639
C  C152  1  0.97754000  0.28452000  0.02246000  1.0 -0.0179694534
C  C153  1  0.96607000  0.32547000  0.03393000  1.0 0.1389398338
C  C154  1  0.92541000  0.33661000  0.07459000  1.0 -0.2112050302
C  C155  1  0.89774000  0.30618000  0.10226000  1.0 -0.0779752913
C  C156  1  0.76717000  0.12327000  0.23283000  1.0 0.5799708381
C  C157  1  0.73527000  0.09105000  0.26473000  1.0 -0.0440493174
C  C158  1  0.74494000  0.05110000  0.25506000  1.0 -0.1191324639
C  C159  1  0.71548000  0.02246000  0.28452000  1.0 -0.0179694534
C  C160  1  0.67453000  0.03393000  0.32547000  1.0 0.1389398338
C  C161  1  0.66339000  0.07459000  0.33661000  1.0 -0.2112050302
C  C162  1  0.69382000  0.10226000  0.30618000  1.0 -0.0779752913
C  C163  1  0.12327000  0.76717000  0.87673000  1.0 0.5799708381
C  C164  1  0.09105000  0.73527000  0.90895000  1.0 -0.0440493174
C  C165  1  0.05110000  0.74494000  0.94890000  1.0 -0.1191324639
C  C166  1  0.02246000  0.71548000  0.97754000  1.0 -0.0179694534
C  C167  1  0.03393000  0.67453000  0.96607000  1.0 0.1389398338
C  C168  1  0.07459000  0.66339000  0.92541000  1.0 -0.2112050302
C  C169  1  0.10226000  0.69382000  0.89774000  1.0 -0.0779752913
C  C170  1  0.23283000  0.87673000  0.76717000  1.0 0.5799708381
C  C171  1  0.26473000  0.90895000  0.73527000  1.0 -0.0454835471
C  C172  1  0.25506000  0.94890000  0.74494000  1.0 -0.1191324639
C  C173  1  0.28452000  0.97754000  0.71548000  1.0 -0.0179694534
C  C174  1  0.32547000  0.96607000  0.67453000  1.0 0.1389398338
C  C175  1  0.33661000  0.92541000  0.66339000  1.0 -0.2112050302
C  C176  1  0.30618000  0.89774000  0.69382000  1.0 -0.0779752913
C  C177  1  0.23283000  0.12327000  0.87673000  1.0 0.5799708381
C  C178  1  0.26473000  0.09105000  0.90895000  1.0 -0.0440493174
C  C179  1  0.25506000  0.05110000  0.94890000  1.0 -0.1191324639
C  C180  1  0.28452000  0.02246000  0.97754000  1.0 -0.0179694534
C  C181  1  0.32547000  0.03393000  0.96607000  1.0 0.1389398338
C  C182  1  0.33661000  0.07459000  0.92541000  1.0 -0.2112050302
C  C183  1  0.30618000  0.10226000  0.89774000  1.0 -0.0779752913
C  C184  1  0.12327000  0.23283000  0.76717000  1.0 0.5799708381
C  C185  1  0.09105000  0.26473000  0.73527000  1.0 -0.0440493174
C  C186  1  0.05110000  0.25506000  0.74494000  1.0 -0.1191324639
C  C187  1  0.02246000  0.28452000  0.71548000  1.0 -0.0179694534
C  C188  1  0.03393000  0.32547000  0.67453000  1.0 0.1389398338
C  C189  1  0.07459000  0.33661000  0.66339000  1.0 -0.2112050302
C  C190  1  0.10226000  0.30618000  0.69382000  1.0 -0.0779752913
C  C191  1  0.76717000  0.87673000  0.12327000  1.0 0.5799708381
C  C192  1  0.73527000  0.90895000  0.09105000  1.0 -0.0454835471
C  C193  1  0.74494000  0.94890000  0.05110000  1.0 -0.1191324639
C  C194  1  0.71548000  0.97754000  0.02246000  1.0 -0.0179694534
C  C195  1  0.67453000  0.96607000  0.03393000  1.0 0.1389398338
C  C196  1  0.66339000  0.92541000  0.07459000  1.0 -0.2112050302
C  C197  1  0.69382000  0.89774000  0.10226000  1.0 -0.0779752913
C  C198  1  0.87673000  0.76717000  0.23283000  1.0 0.5799708381
C  C199  1  0.90895000  0.73527000  0.26473000  1.0 -0.0454835471
C  C200  1  0.94890000  0.74494000  0.25506000  1.0 -0.1191324639
C  C201  1  0.97754000  0.71548000  0.28452000  1.0 -0.0179694534
C  C202  1  0.96607000  0.67453000  0.32547000  1.0 0.1389398338
C  C203  1  0.92541000  0.66339000  0.33661000  1.0 -0.2112050302
C  C204  1  0.89774000  0.69382000  0.30618000  1.0 -0.0779752913
C  C205  1  0.87673000  0.23283000  0.76717000  1.0 0.5799708381
C  C206  1  0.90895000  0.26473000  0.73527000  1.0 -0.0440493174
C  C207  1  0.94890000  0.25506000  0.74494000  1.0 -0.1191324639
C  C208  1  0.97754000  0.28452000  0.71548000  1.0 -0.0179694534
C  C209  1  0.96607000  0.32547000  0.67453000  1.0 0.1389398338
C  C210  1  0.92541000  0.33661000  0.66339000  1.0 -0.2112050302
C  C211  1  0.89774000  0.30618000  0.69382000  1.0 -0.0779752913
C  C212  1  0.76717000  0.12327000  0.87673000  1.0 0.5799708381
C  C213  1  0.73527000  0.09105000  0.90895000  1.0 -0.0440493174
C  C214  1  0.74494000  0.05110000  0.94890000  1.0 -0.1191324639
C  C215  1  0.71548000  0.02246000  0.97754000  1.0 -0.0179694534
C  C216  1  0.67453000  0.03393000  0.96607000  1.0 0.1389398338
C  C217  1  0.66339000  0.07459000  0.92541000  1.0 -0.2112050302
C  C218  1  0.69382000  0.10226000  0.89774000  1.0 -0.0779752913
C  C219  1  0.12327000  0.76717000  0.23283000  1.0 0.5799708381
C  C220  1  0.09105000  0.73527000  0.26473000  1.0 -0.0454835471
C  C221  1  0.05110000  0.74494000  0.25506000  1.0 -0.1191324639
C  C222  1  0.02246000  0.71548000  0.28452000  1.0 -0.0179694534
C  C223  1  0.03393000  0.67453000  0.32547000  1.0 0.1389398338
C  C224  1  0.07459000  0.66339000  0.33661000  1.0 -0.2112050302
C  C225  1  0.10226000  0.69382000  0.30618000  1.0 -0.0779752913
C  C226  1  0.23283000  0.87673000  0.12327000  1.0 0.5799708381
C  C227  1  0.26473000  0.90895000  0.09105000  1.0 -0.0440493174
C  C228  1  0.25506000  0.94890000  0.05110000  1.0 -0.1191324639
C  C229  1  0.28452000  0.97754000  0.02246000  1.0 -0.0179694534
C  C230  1  0.32547000  0.96607000  0.03393000  1.0 0.1389398338
C  C231  1  0.33661000  0.92541000  0.07459000  1.0 -0.2112050302
C  C232  1  0.30618000  0.89774000  0.10226000  1.0 -0.0779752913
C  C233  1  0.12327000  0.23283000  0.87673000  1.0 0.5799708381
C  C234  1  0.09105000  0.26473000  0.90895000  1.0 -0.0440493174
C  C235  1  0.05110000  0.25506000  0.94890000  1.0 -0.1191324639
C  C236  1  0.02246000  0.28452000  0.97754000  1.0 -0.0179694534
C  C237  1  0.03393000  0.32547000  0.96607000  1.0 0.1389398338
C  C238  1  0.07459000  0.33661000  0.92541000  1.0 -0.2112050302
C  C239  1  0.10226000  0.30618000  0.89774000  1.0 -0.0779752913
C  C240  1  0.23283000  0.12327000  0.76717000  1.0 0.5799708381
C  C241  1  0.26473000  0.09105000  0.73527000  1.0 -0.0440493174
C  C242  1  0.25506000  0.05110000  0.74494000  1.0 -0.1191324639
C  C243  1  0.28452000  0.02246000  0.71548000  1.0 -0.0179694534
C  C244  1  0.32547000  0.03393000  0.67453000  1.0 0.1389398338
C  C245  1  0.33661000  0.07459000  0.66339000  1.0 -0.2112050302
C  C246  1  0.30618000  0.10226000  0.69382000  1.0 -0.0779752913
C  C247  1  0.87673000  0.76717000  0.12327000  1.0 0.5799708381
C  C248  1  0.90895000  0.73527000  0.09105000  1.0 -0.0454835471
C  C249  1  0.94890000  0.74494000  0.05110000  1.0 -0.1191324639
C  C250  1  0.97754000  0.71548000  0.02246000  1.0 -0.0179694534
C  C251  1  0.96607000  0.67453000  0.03393000  1.0 0.1389398338
C  C252  1  0.92541000  0.66339000  0.07459000  1.0 -0.2112050302
C  C253  1  0.89774000  0.69382000  0.10226000  1.0 -0.0779752913
C  C254  1  0.76717000  0.87673000  0.23283000  1.0 0.5799708381
C  C255  1  0.73527000  0.90895000  0.26473000  1.0 -0.0440493174
C  C256  1  0.74494000  0.94890000  0.25506000  1.0 -0.1191324639
C  C257  1  0.71548000  0.97754000  0.28452000  1.0 -0.0179694534
C  C258  1  0.67453000  0.96607000  0.32547000  1.0 0.1389398338
C  C259  1  0.66339000  0.92541000  0.33661000  1.0 -0.2112050302
C  C260  1  0.69382000  0.89774000  0.30618000  1.0 -0.0779752913
C  C261  1  0.76717000  0.23283000  0.12327000  1.0 0.5799708381
C  C262  1  0.73527000  0.26473000  0.09105000  1.0 -0.0454835471
C  C263  1  0.74494000  0.25506000  0.05110000  1.0 -0.1191324639
C  C264  1  0.71548000  0.28452000  0.02246000  1.0 -0.0179694534
C  C265  1  0.67453000  0.32547000  0.03393000  1.0 0.1389398338
C  C266  1  0.66339000  0.33661000  0.07459000  1.0 -0.2112050302
C  C267  1  0.69382000  0.30618000  0.10226000  1.0 -0.0779752913
C  C268  1  0.87673000  0.12327000  0.23283000  1.0 0.5799708381
C  C269  1  0.90895000  0.09105000  0.26473000  1.0 -0.0440493174
C  C270  1  0.94890000  0.05110000  0.25506000  1.0 -0.1191324639
C  C271  1  0.97754000  0.02246000  0.28452000  1.0 -0.0179694534
C  C272  1  0.96607000  0.03393000  0.32547000  1.0 0.1389398338
C  C273  1  0.92541000  0.07459000  0.33661000  1.0 -0.2112050302
C  C274  1  0.89774000  0.10226000  0.30618000  1.0 -0.0779752913
C  C275  1  0.23283000  0.76717000  0.87673000  1.0 0.5799708381
C  C276  1  0.26473000  0.73527000  0.90895000  1.0 -0.0454835471
C  C277  1  0.25506000  0.74494000  0.94890000  1.0 -0.1191324639
C  C278  1  0.28452000  0.71548000  0.97754000  1.0 -0.0179694534
C  C279  1  0.32547000  0.67453000  0.96607000  1.0 0.1389398338
C  C280  1  0.33661000  0.66339000  0.92541000  1.0 -0.2112050302
C  C281  1  0.30618000  0.69382000  0.89774000  1.0 -0.0779752913
C  C282  1  0.12327000  0.87673000  0.76717000  1.0 0.5799708381
C  C283  1  0.09105000  0.90895000  0.73527000  1.0 -0.0440493174
C  C284  1  0.05110000  0.94890000  0.74494000  1.0 -0.1191324639
C  C285  1  0.02246000  0.97754000  0.71548000  1.0 -0.0179694534
C  C286  1  0.03393000  0.96607000  0.67453000  1.0 0.1389398338
C  C287  1  0.07459000  0.92541000  0.66339000  1.0 -0.2112050302
C  C288  1  0.10226000  0.89774000  0.69382000  1.0 -0.0779752913
N  N1  1  0.00000000  0.00000000  0.34958000  1.0 -0.1756941363
N  N2  1  0.34958000  0.65042000  0.00000000  1.0 -0.1719788704
N  N3  1  0.00000000  0.00000000  0.65042000  1.0 -0.1719788704
N  N4  1  0.65042000  0.34958000  0.00000000  1.0 -0.1719788704
N  N5  1  0.00000000  0.34958000  0.00000000  1.0 -0.1719788704
N  N6  1  0.65042000  0.00000000  0.34958000  1.0 -0.1719788704
N  N7  1  0.00000000  0.65042000  0.00000000  1.0 -0.1719788704
N  N8  1  0.34958000  0.00000000  0.65042000  1.0 -0.1719788704
N  N9  1  0.34958000  0.00000000  0.00000000  1.0 -0.1719788704
N  N10  1  0.00000000  0.34958000  0.65042000  1.0 -0.1719788704
N  N11  1  0.65042000  0.00000000  0.00000000  1.0 -0.1719788704
N  N12  1  0.00000000  0.65042000  0.34958000  1.0 -0.1719788704
O  O1  1  0.11200000  0.88800000  0.19668000  1.0 -0.5290382129
O  O2  1  0.15931000  0.84069000  0.24391000  1.0 -0.5290382129
O  O3  1  0.19668000  0.80332000  0.11200000  1.0 -0.5290382129
O  O4  1  0.24391000  0.75609000  0.15931000  1.0 -0.5290382129
O  O5  1  0.88800000  0.11200000  0.80332000  1.0 -0.5290382129
O  O6  1  0.84069000  0.15931000  0.75609000  1.0 -0.5290382129
O  O7  1  0.80332000  0.19668000  0.88800000  1.0 -0.5290382129
O  O8  1  0.75609000  0.24391000  0.84069000  1.0 -0.5290382129
O  O9  1  0.88800000  0.19668000  0.11200000  1.0 -0.5290382129
O  O10  1  0.84069000  0.24391000  0.15931000  1.0 -0.5290382129
O  O11  1  0.80332000  0.11200000  0.19668000  1.0 -0.5290382129
O  O12  1  0.75609000  0.15931000  0.24391000  1.0 -0.5290382129
O  O13  1  0.11200000  0.80332000  0.88800000  1.0 -0.5290382129
O  O14  1  0.15931000  0.75609000  0.84069000  1.0 -0.5290382129
O  O15  1  0.19668000  0.88800000  0.80332000  1.0 -0.5290382129
O  O16  1  0.24391000  0.84069000  0.75609000  1.0 -0.5290382129
O  O17  1  0.19668000  0.11200000  0.88800000  1.0 -0.5290382129
O  O18  1  0.24391000  0.15931000  0.84069000  1.0 -0.5290382129
O  O19  1  0.11200000  0.19668000  0.80332000  1.0 -0.5290382129
O  O20  1  0.15931000  0.24391000  0.75609000  1.0 -0.5290382129
O  O21  1  0.80332000  0.88800000  0.11200000  1.0 -0.5290382129
O  O22  1  0.75609000  0.84069000  0.15931000  1.0 -0.5290382129
O  O23  1  0.88800000  0.80332000  0.19668000  1.0 -0.5290382129
O  O24  1  0.84069000  0.75609000  0.24391000  1.0 -0.5290382129
O  O25  1  0.88800000  0.19668000  0.80332000  1.0 -0.5290382129
O  O26  1  0.84069000  0.24391000  0.75609000  1.0 -0.5290382129
O  O27  1  0.80332000  0.11200000  0.88800000  1.0 -0.5290382129
O  O28  1  0.75609000  0.15931000  0.84069000  1.0 -0.5290382129
O  O29  1  0.11200000  0.80332000  0.19668000  1.0 -0.5290382129
O  O30  1  0.15931000  0.75609000  0.24391000  1.0 -0.5290382129
O  O31  1  0.19668000  0.88800000  0.11200000  1.0 -0.5290382129
O  O32  1  0.24391000  0.84069000  0.15931000  1.0 -0.5290382129
O  O33  1  0.11200000  0.19668000  0.88800000  1.0 -0.5290382129
O  O34  1  0.15931000  0.24391000  0.84069000  1.0 -0.5290382129
O  O35  1  0.19668000  0.11200000  0.80332000  1.0 -0.5290382129
O  O36  1  0.24391000  0.15931000  0.75609000  1.0 -0.5290382129
O  O37  1  0.88800000  0.80332000  0.11200000  1.0 -0.5290382129
O  O38  1  0.84069000  0.75609000  0.15931000  1.0 -0.5290382129
O  O39  1  0.80332000  0.88800000  0.19668000  1.0 -0.5290382129
O  O40  1  0.75609000  0.84069000  0.24391000  1.0 -0.5290382129
O  O41  1  0.80332000  0.19668000  0.11200000  1.0 -0.5290382129
O  O42  1  0.75609000  0.24391000  0.15931000  1.0 -0.5290382129
O  O43  1  0.88800000  0.11200000  0.19668000  1.0 -0.5290382129
O  O44  1  0.84069000  0.15931000  0.24391000  1.0 -0.5290382129
O  O45  1  0.19668000  0.80332000  0.88800000  1.0 -0.5290382129
O  O46  1  0.24391000  0.75609000  0.84069000  1.0 -0.5290382129
O  O47  1  0.11200000  0.88800000  0.80332000  1.0 -0.5290382129
O  O48  1  0.15931000  0.84069000  0.75609000  1.0 -0.5290382129
