# DDEC6 charges by PACMAN v1.1 (https://github.com/mtap-research/PACMAN-charge/)
data_XUJBOW_ASR_pacman
_symmetry_space_group_name_H-M   'P 1'
_cell_length_a   33.29060000
_cell_length_b   33.29060000
_cell_length_c   33.29060000
_cell_angle_alpha   60.00000000
_cell_angle_beta   60.00000000
_cell_angle_gamma   60.00000000
_symmetry_Int_Tables_number   1
_chemical_formula_structural   MnH14C24NO4
_chemical_formula_sum   'Mn12 H168 C288 N12 O48'
_cell_volume   26088.54568360
_cell_formula_units_Z   12
loop_
 _symmetry_equiv_pos_site_id
 _symmetry_equiv_pos_as_xyz
  1  'x, y, z'
loop_
 _atom_site_type_symbol
 _atom_site_label
 _atom_site_symmetry_multiplicity
 _atom_site_fract_x
 _atom_site_fract_y
 _atom_site_fract_z
 _atom_site_occupancy
 _atom_site_charge
Mn  Mn1  1  0.14584000  0.85416000  0.14584000  1.0 1.0140296453
Mn  Mn2  1  0.21096000  0.78904000  0.21096000  1.0 1.0190801323
Mn  Mn3  1  0.85416000  0.14584000  0.85416000  1.0 1.0190801323
Mn  Mn4  1  0.78904000  0.21096000  0.78904000  1.0 1.0190801323
Mn  Mn5  1  0.85416000  0.14584000  0.14584000  1.0 1.0190801323
Mn  Mn6  1  0.78904000  0.21096000  0.21096000  1.0 1.0190801323
Mn  Mn7  1  0.14584000  0.85416000  0.85416000  1.0 1.0140296453
Mn  Mn8  1  0.21096000  0.78904000  0.78904000  1.0 1.0190801323
Mn  Mn9  1  0.14584000  0.14584000  0.85416000  1.0 1.0140296453
Mn  Mn10  1  0.21096000  0.21096000  0.78904000  1.0 1.0190801323
Mn  Mn11  1  0.85416000  0.85416000  0.14584000  1.0 1.0190801323
Mn  Mn12  1  0.78904000  0.78904000  0.21096000  1.0 1.0190801323
H  H1  1  0.00439000  0.06653000  0.36377000  1.0 0.1047055457
H  H2  1  0.00697000  0.06623000  0.43409000  1.0 0.0915150101
H  H3  1  0.36377000  0.56531000  0.00439000  1.0 0.1047055457
H  H4  1  0.43409000  0.49271000  0.00697000  1.0 0.0915150101
H  H5  1  0.06653000  0.00439000  0.56531000  1.0 0.1047055457
H  H6  1  0.06623000  0.00697000  0.49271000  1.0 0.0915150101
H  H7  1  0.56531000  0.36377000  0.06653000  1.0 0.1047055457
H  H8  1  0.49271000  0.43409000  0.06623000  1.0 0.0915150101
H  H9  1  0.06653000  0.36377000  0.00439000  1.0 0.1047055457
H  H10  1  0.06623000  0.43409000  0.00697000  1.0 0.0915150101
H  H11  1  0.56531000  0.00439000  0.36377000  1.0 0.1047055457
H  H12  1  0.49271000  0.00697000  0.43409000  1.0 0.0915150101
H  H13  1  0.00439000  0.56531000  0.06653000  1.0 0.1047055457
H  H14  1  0.00697000  0.49271000  0.06623000  1.0 0.0915150101
H  H15  1  0.36377000  0.06653000  0.56531000  1.0 0.1047055457
H  H16  1  0.43409000  0.06623000  0.49271000  1.0 0.0915150101
H  H17  1  0.36377000  0.00439000  0.06653000  1.0 0.1047055457
H  H18  1  0.43409000  0.00697000  0.06623000  1.0 0.0915150101
H  H19  1  0.00439000  0.36377000  0.56531000  1.0 0.1053956557
H  H20  1  0.00697000  0.43409000  0.49271000  1.0 0.0915150101
H  H21  1  0.56531000  0.06653000  0.00439000  1.0 0.1047055457
H  H22  1  0.49271000  0.06623000  0.00697000  1.0 0.0915150101
H  H23  1  0.06653000  0.56531000  0.36377000  1.0 0.1047055457
H  H24  1  0.06623000  0.49271000  0.43409000  1.0 0.0915150101
H  H25  1  0.99561000  0.43469000  0.63623000  1.0 0.1053956557
H  H26  1  0.99303000  0.50729000  0.56591000  1.0 0.0915150101
H  H27  1  0.63623000  0.93347000  0.99561000  1.0 0.1053956557
H  H28  1  0.56591000  0.93377000  0.99303000  1.0 0.0915150101
H  H29  1  0.93347000  0.63623000  0.43469000  1.0 0.1047055457
H  H30  1  0.93377000  0.56591000  0.50729000  1.0 0.0915150101
H  H31  1  0.43469000  0.99561000  0.93347000  1.0 0.1053956557
H  H32  1  0.50729000  0.99303000  0.93377000  1.0 0.0915150101
H  H33  1  0.93347000  0.43469000  0.99561000  1.0 0.1053956557
H  H34  1  0.93377000  0.50729000  0.99303000  1.0 0.0915150101
H  H35  1  0.43469000  0.93347000  0.63623000  1.0 0.1053956557
H  H36  1  0.50729000  0.93377000  0.56591000  1.0 0.0915150101
H  H37  1  0.99561000  0.63623000  0.93347000  1.0 0.1053956557
H  H38  1  0.99303000  0.56591000  0.93377000  1.0 0.0915150101
H  H39  1  0.63623000  0.99561000  0.43469000  1.0 0.1047055457
H  H40  1  0.56591000  0.99303000  0.50729000  1.0 0.0915150101
H  H41  1  0.63623000  0.43469000  0.93347000  1.0 0.1047055457
H  H42  1  0.56591000  0.50729000  0.93377000  1.0 0.0915150101
H  H43  1  0.99561000  0.93347000  0.43469000  1.0 0.1047055457
H  H44  1  0.99303000  0.93377000  0.50729000  1.0 0.0915150101
H  H45  1  0.43469000  0.63623000  0.99561000  1.0 0.1053956557
H  H46  1  0.50729000  0.56591000  0.99303000  1.0 0.0915150101
H  H47  1  0.93347000  0.99561000  0.63623000  1.0 0.1047055457
H  H48  1  0.93377000  0.99303000  0.56591000  1.0 0.0915150101
H  H49  1  0.99561000  0.93347000  0.63623000  1.0 0.1047055457
H  H50  1  0.99303000  0.93377000  0.56591000  1.0 0.0915150101
H  H51  1  0.63623000  0.43469000  0.99561000  1.0 0.1047055457
H  H52  1  0.56591000  0.50729000  0.99303000  1.0 0.0915150101
H  H53  1  0.93347000  0.99561000  0.43469000  1.0 0.1047055457
H  H54  1  0.93377000  0.99303000  0.50729000  1.0 0.0915150101
H  H55  1  0.43469000  0.63623000  0.93347000  1.0 0.1053956557
H  H56  1  0.50729000  0.56591000  0.93377000  1.0 0.0915150101
H  H57  1  0.93347000  0.63623000  0.99561000  1.0 0.1053956557
H  H58  1  0.93377000  0.56591000  0.99303000  1.0 0.0915150101
H  H59  1  0.43469000  0.99561000  0.63623000  1.0 0.1047055457
H  H60  1  0.50729000  0.99303000  0.56591000  1.0 0.0915150101
H  H61  1  0.99561000  0.43469000  0.93347000  1.0 0.1053956557
H  H62  1  0.99303000  0.50729000  0.93377000  1.0 0.0915150101
H  H63  1  0.63623000  0.93347000  0.43469000  1.0 0.1047055457
H  H64  1  0.56591000  0.93377000  0.50729000  1.0 0.0915150101
H  H65  1  0.63623000  0.99561000  0.93347000  1.0 0.1053956557
H  H66  1  0.56591000  0.99303000  0.93377000  1.0 0.0915150101
H  H67  1  0.99561000  0.63623000  0.43469000  1.0 0.1047055457
H  H68  1  0.99303000  0.56591000  0.50729000  1.0 0.0915150101
H  H69  1  0.43469000  0.93347000  0.99561000  1.0 0.1053956557
H  H70  1  0.50729000  0.93377000  0.99303000  1.0 0.0915150101
H  H71  1  0.93347000  0.43469000  0.63623000  1.0 0.1053956557
H  H72  1  0.93377000  0.50729000  0.56591000  1.0 0.0915150101
H  H73  1  0.00439000  0.56531000  0.36377000  1.0 0.1047055457
H  H74  1  0.00697000  0.49271000  0.43409000  1.0 0.0915150101
H  H75  1  0.36377000  0.06653000  0.00439000  1.0 0.1047055457
H  H76  1  0.43409000  0.06623000  0.00697000  1.0 0.0915150101
H  H77  1  0.06653000  0.36377000  0.56531000  1.0 0.1053956557
H  H78  1  0.06623000  0.43409000  0.49271000  1.0 0.0915150101
H  H79  1  0.56531000  0.00439000  0.06653000  1.0 0.1047055457
H  H80  1  0.49271000  0.00697000  0.06623000  1.0 0.0915150101
H  H81  1  0.06653000  0.56531000  0.00439000  1.0 0.1047055457
H  H82  1  0.06623000  0.49271000  0.00697000  1.0 0.0915150101
H  H83  1  0.56531000  0.06653000  0.36377000  1.0 0.1047055457
H  H84  1  0.49271000  0.06623000  0.43409000  1.0 0.0915150101
H  H85  1  0.00439000  0.36377000  0.06653000  1.0 0.1047055457
H  H86  1  0.00697000  0.43409000  0.06623000  1.0 0.0915150101
H  H87  1  0.36377000  0.00439000  0.56531000  1.0 0.1047055457
H  H88  1  0.43409000  0.00697000  0.49271000  1.0 0.0915150101
H  H89  1  0.36377000  0.56531000  0.06653000  1.0 0.1053956557
H  H90  1  0.43409000  0.49271000  0.06623000  1.0 0.0915150101
H  H91  1  0.00439000  0.06653000  0.56531000  1.0 0.1047055457
H  H92  1  0.00697000  0.06623000  0.49271000  1.0 0.0915150101
H  H93  1  0.56531000  0.36377000  0.00439000  1.0 0.1047055457
H  H94  1  0.49271000  0.43409000  0.00697000  1.0 0.0915150101
H  H95  1  0.06653000  0.00439000  0.36377000  1.0 0.1047055457
H  H96  1  0.06623000  0.00697000  0.43409000  1.0 0.0915150101
H  H97  1  0.04259000  0.95741000  0.22915000  1.0 0.1388295723
H  H98  1  0.08179000  0.91821000  0.36389000  1.0 0.1255395092
H  H99  1  0.12900000  0.87100000  0.31356000  1.0 0.1219566608
H  H100  1  0.22915000  0.77085000  0.04259000  1.0 0.1388295723
H  H101  1  0.36389000  0.63611000  0.08179000  1.0 0.1255395092
H  H102  1  0.31356000  0.68644000  0.12900000  1.0 0.1255395092
H  H103  1  0.95741000  0.04259000  0.77085000  1.0 0.1388295723
H  H104  1  0.91821000  0.08179000  0.63611000  1.0 0.1255395092
H  H105  1  0.87100000  0.12900000  0.68644000  1.0 0.1255395092
H  H106  1  0.77085000  0.22915000  0.95741000  1.0 0.1388295723
H  H107  1  0.63611000  0.36389000  0.91821000  1.0 0.1255395092
H  H108  1  0.68644000  0.31356000  0.87100000  1.0 0.1219566608
H  H109  1  0.95741000  0.22915000  0.04259000  1.0 0.1388295723
H  H110  1  0.91821000  0.36389000  0.08179000  1.0 0.1255395092
H  H111  1  0.87100000  0.31356000  0.12900000  1.0 0.1219566608
H  H112  1  0.77085000  0.04259000  0.22915000  1.0 0.1388295723
H  H113  1  0.63611000  0.08179000  0.36389000  1.0 0.1255395092
H  H114  1  0.68644000  0.12900000  0.31356000  1.0 0.1255395092
H  H115  1  0.04259000  0.77085000  0.95741000  1.0 0.1388295723
H  H116  1  0.08179000  0.63611000  0.91821000  1.0 0.1255395092
H  H117  1  0.12900000  0.68644000  0.87100000  1.0 0.1219566608
H  H118  1  0.22915000  0.95741000  0.77085000  1.0 0.1388295723
H  H119  1  0.36389000  0.91821000  0.63611000  1.0 0.1255395092
H  H120  1  0.31356000  0.87100000  0.68644000  1.0 0.1219566608
H  H121  1  0.22915000  0.04259000  0.95741000  1.0 0.1388295723
H  H122  1  0.36389000  0.08179000  0.91821000  1.0 0.1255395092
H  H123  1  0.31356000  0.12900000  0.87100000  1.0 0.1219566608
H  H124  1  0.04259000  0.22915000  0.77085000  1.0 0.1388295723
H  H125  1  0.08179000  0.36389000  0.63611000  1.0 0.1255395092
H  H126  1  0.12900000  0.31356000  0.68644000  1.0 0.1255395092
H  H127  1  0.77085000  0.95741000  0.04259000  1.0 0.1388295723
H  H128  1  0.63611000  0.91821000  0.08179000  1.0 0.1255395092
H  H129  1  0.68644000  0.87100000  0.12900000  1.0 0.1255395092
H  H130  1  0.95741000  0.77085000  0.22915000  1.0 0.1388295723
H  H131  1  0.91821000  0.63611000  0.36389000  1.0 0.1255395092
H  H132  1  0.87100000  0.68644000  0.31356000  1.0 0.1255395092
H  H133  1  0.95741000  0.22915000  0.77085000  1.0 0.1388295723
H  H134  1  0.91821000  0.36389000  0.63611000  1.0 0.1255395092
H  H135  1  0.87100000  0.31356000  0.68644000  1.0 0.1255395092
H  H136  1  0.77085000  0.04259000  0.95741000  1.0 0.1388295723
H  H137  1  0.63611000  0.08179000  0.91821000  1.0 0.1255395092
H  H138  1  0.68644000  0.12900000  0.87100000  1.0 0.1219566608
H  H139  1  0.04259000  0.77085000  0.22915000  1.0 0.1388295723
H  H140  1  0.08179000  0.63611000  0.36389000  1.0 0.1255395092
H  H141  1  0.12900000  0.68644000  0.31356000  1.0 0.1219566608
H  H142  1  0.22915000  0.95741000  0.04259000  1.0 0.1388295723
H  H143  1  0.36389000  0.91821000  0.08179000  1.0 0.1255395092
H  H144  1  0.31356000  0.87100000  0.12900000  1.0 0.1255395092
H  H145  1  0.04259000  0.22915000  0.95741000  1.0 0.1388295723
H  H146  1  0.08179000  0.36389000  0.91821000  1.0 0.1255395092
H  H147  1  0.12900000  0.31356000  0.87100000  1.0 0.1219566608
H  H148  1  0.22915000  0.04259000  0.77085000  1.0 0.1388295723
H  H149  1  0.36389000  0.08179000  0.63611000  1.0 0.1255395092
H  H150  1  0.31356000  0.12900000  0.68644000  1.0 0.1255395092
H  H151  1  0.95741000  0.77085000  0.04259000  1.0 0.1388295723
H  H152  1  0.91821000  0.63611000  0.08179000  1.0 0.1255395092
H  H153  1  0.87100000  0.68644000  0.12900000  1.0 0.1219566608
H  H154  1  0.77085000  0.95741000  0.22915000  1.0 0.1388295723
H  H155  1  0.63611000  0.91821000  0.36389000  1.0 0.1255395092
H  H156  1  0.68644000  0.87100000  0.31356000  1.0 0.1255395092
H  H157  1  0.77085000  0.22915000  0.04259000  1.0 0.1388295723
H  H158  1  0.63611000  0.36389000  0.08179000  1.0 0.1255395092
H  H159  1  0.68644000  0.31356000  0.12900000  1.0 0.1219566608
H  H160  1  0.95741000  0.04259000  0.22915000  1.0 0.1388295723
H  H161  1  0.91821000  0.08179000  0.36389000  1.0 0.1255395092
H  H162  1  0.87100000  0.12900000  0.31356000  1.0 0.1255395092
H  H163  1  0.22915000  0.77085000  0.95741000  1.0 0.1388295723
H  H164  1  0.36389000  0.63611000  0.91821000  1.0 0.1255395092
H  H165  1  0.31356000  0.68644000  0.87100000  1.0 0.1219566608
H  H166  1  0.04259000  0.95741000  0.77085000  1.0 0.1388295723
H  H167  1  0.08179000  0.91821000  0.63611000  1.0 0.1255395092
H  H168  1  0.12900000  0.87100000  0.68644000  1.0 0.1219566608
C  C1  1  0.00293000  0.03929000  0.39235000  1.0 -0.0953267705
C  C2  1  0.00382000  0.03940000  0.43526000  1.0 -0.0897399233
C  C3  1  0.39235000  0.56543000  0.00293000  1.0 -0.0897399233
C  C4  1  0.43526000  0.52152000  0.00382000  1.0 -0.0897399233
C  C5  1  0.03929000  0.00293000  0.56543000  1.0 -0.0897399233
C  C6  1  0.03940000  0.00382000  0.52152000  1.0 -0.0897399233
C  C7  1  0.56543000  0.39235000  0.03929000  1.0 -0.0953267705
C  C8  1  0.52152000  0.43526000  0.03940000  1.0 -0.0897399233
C  C9  1  0.03929000  0.39235000  0.00293000  1.0 -0.0953267705
C  C10  1  0.03940000  0.43526000  0.00382000  1.0 -0.0897399233
C  C11  1  0.56543000  0.00293000  0.39235000  1.0 -0.0953267705
C  C12  1  0.52152000  0.00382000  0.43526000  1.0 -0.0897399233
C  C13  1  0.00293000  0.56543000  0.03929000  1.0 -0.0953267705
C  C14  1  0.00382000  0.52152000  0.03940000  1.0 -0.0897399233
C  C15  1  0.39235000  0.03929000  0.56543000  1.0 -0.0953267705
C  C16  1  0.43526000  0.03940000  0.52152000  1.0 -0.0897399233
C  C17  1  0.39235000  0.00293000  0.03929000  1.0 -0.0953267705
C  C18  1  0.43526000  0.00382000  0.03940000  1.0 -0.0897399233
C  C19  1  0.00293000  0.39235000  0.56543000  1.0 -0.0897399233
C  C20  1  0.00382000  0.43526000  0.52152000  1.0 -0.0897399233
C  C21  1  0.56543000  0.03929000  0.00293000  1.0 -0.0953267705
C  C22  1  0.52152000  0.03940000  0.00382000  1.0 -0.0897399233
C  C23  1  0.03929000  0.56543000  0.39235000  1.0 -0.0897399233
C  C24  1  0.03940000  0.52152000  0.43526000  1.0 -0.0897399233
C  C25  1  0.99707000  0.43457000  0.60765000  1.0 -0.0897399233
C  C26  1  0.99618000  0.47848000  0.56474000  1.0 -0.0897399233
C  C27  1  0.60765000  0.96071000  0.99707000  1.0 -0.0897399233
C  C28  1  0.56474000  0.96060000  0.99618000  1.0 -0.0897399233
C  C29  1  0.96071000  0.60765000  0.43457000  1.0 -0.0897399233
C  C30  1  0.96060000  0.56474000  0.47848000  1.0 -0.0897399233
C  C31  1  0.43457000  0.99707000  0.96071000  1.0 -0.0953267705
C  C32  1  0.47848000  0.99618000  0.96060000  1.0 -0.0775467932
C  C33  1  0.96071000  0.43457000  0.99707000  1.0 -0.0897399233
C  C34  1  0.96060000  0.47848000  0.99618000  1.0 -0.0775467932
C  C35  1  0.43457000  0.96071000  0.60765000  1.0 -0.0897399233
C  C36  1  0.47848000  0.96060000  0.56474000  1.0 -0.0897399233
C  C37  1  0.99707000  0.60765000  0.96071000  1.0 -0.0897399233
C  C38  1  0.99618000  0.56474000  0.96060000  1.0 -0.0897399233
C  C39  1  0.60765000  0.99707000  0.43457000  1.0 -0.0897399233
C  C40  1  0.56474000  0.99618000  0.47848000  1.0 -0.0897399233
C  C41  1  0.60765000  0.43457000  0.96071000  1.0 -0.0897399233
C  C42  1  0.56474000  0.47848000  0.96060000  1.0 -0.0897399233
C  C43  1  0.99707000  0.96071000  0.43457000  1.0 -0.0897399233
C  C44  1  0.99618000  0.96060000  0.47848000  1.0 -0.0897399233
C  C45  1  0.43457000  0.60765000  0.99707000  1.0 -0.0897399233
C  C46  1  0.47848000  0.56474000  0.99618000  1.0 -0.0897399233
C  C47  1  0.96071000  0.99707000  0.60765000  1.0 -0.0897399233
C  C48  1  0.96060000  0.99618000  0.56474000  1.0 -0.0897399233
C  C49  1  0.99707000  0.96071000  0.60765000  1.0 -0.0897399233
C  C50  1  0.99618000  0.96060000  0.56474000  1.0 -0.0897399233
C  C51  1  0.60765000  0.43457000  0.99707000  1.0 -0.0897399233
C  C52  1  0.56474000  0.47848000  0.99618000  1.0 -0.0897399233
C  C53  1  0.96071000  0.99707000  0.43457000  1.0 -0.0897399233
C  C54  1  0.96060000  0.99618000  0.47848000  1.0 -0.0897399233
C  C55  1  0.43457000  0.60765000  0.96071000  1.0 -0.0897399233
C  C56  1  0.47848000  0.56474000  0.96060000  1.0 -0.0897399233
C  C57  1  0.96071000  0.60765000  0.99707000  1.0 -0.0897399233
C  C58  1  0.96060000  0.56474000  0.99618000  1.0 -0.0897399233
C  C59  1  0.43457000  0.99707000  0.60765000  1.0 -0.0953267705
C  C60  1  0.47848000  0.99618000  0.56474000  1.0 -0.0897399233
C  C61  1  0.99707000  0.43457000  0.96071000  1.0 -0.0897399233
C  C62  1  0.99618000  0.47848000  0.96060000  1.0 -0.0897399233
C  C63  1  0.60765000  0.96071000  0.43457000  1.0 -0.0897399233
C  C64  1  0.56474000  0.96060000  0.47848000  1.0 -0.0897399233
C  C65  1  0.60765000  0.99707000  0.96071000  1.0 -0.0953267705
C  C66  1  0.56474000  0.99618000  0.96060000  1.0 -0.0775467932
C  C67  1  0.99707000  0.60765000  0.43457000  1.0 -0.0897399233
C  C68  1  0.99618000  0.56474000  0.47848000  1.0 -0.0897399233
C  C69  1  0.43457000  0.96071000  0.99707000  1.0 -0.0897399233
C  C70  1  0.47848000  0.96060000  0.99618000  1.0 -0.0897399233
C  C71  1  0.96071000  0.43457000  0.60765000  1.0 -0.0897399233
C  C72  1  0.96060000  0.47848000  0.56474000  1.0 -0.0897399233
C  C73  1  0.00293000  0.56543000  0.39235000  1.0 -0.0897399233
C  C74  1  0.00382000  0.52152000  0.43526000  1.0 -0.0897399233
C  C75  1  0.39235000  0.03929000  0.00293000  1.0 -0.0953267705
C  C76  1  0.43526000  0.03940000  0.00382000  1.0 -0.0897399233
C  C77  1  0.03929000  0.39235000  0.56543000  1.0 -0.0897399233
C  C78  1  0.03940000  0.43526000  0.52152000  1.0 -0.0897399233
C  C79  1  0.56543000  0.00293000  0.03929000  1.0 -0.0953267705
C  C80  1  0.52152000  0.00382000  0.03940000  1.0 -0.0897399233
C  C81  1  0.03929000  0.56543000  0.00293000  1.0 -0.0897399233
C  C82  1  0.03940000  0.52152000  0.00382000  1.0 -0.0897399233
C  C83  1  0.56543000  0.03929000  0.39235000  1.0 -0.0897399233
C  C84  1  0.52152000  0.03940000  0.43526000  1.0 -0.0897399233
C  C85  1  0.00293000  0.39235000  0.03929000  1.0 -0.0953267705
C  C86  1  0.00382000  0.43526000  0.03940000  1.0 -0.0897399233
C  C87  1  0.39235000  0.00293000  0.56543000  1.0 -0.0897399233
C  C88  1  0.43526000  0.00382000  0.52152000  1.0 -0.0897399233
C  C89  1  0.39235000  0.56543000  0.03929000  1.0 -0.0953267705
C  C90  1  0.43526000  0.52152000  0.03940000  1.0 -0.0897399233
C  C91  1  0.00293000  0.03929000  0.56543000  1.0 -0.0897399233
C  C92  1  0.00382000  0.03940000  0.52152000  1.0 -0.0897399233
C  C93  1  0.56543000  0.39235000  0.00293000  1.0 -0.0897399233
C  C94  1  0.52152000  0.43526000  0.00382000  1.0 -0.0897399233
C  C95  1  0.03929000  0.00293000  0.39235000  1.0 -0.0953267705
C  C96  1  0.03940000  0.00382000  0.43526000  1.0 -0.0775467932
C  C97  1  0.00000000  0.00000000  0.39384000  1.0 0.0823198919
C  C98  1  0.00000000  0.00000000  0.47742000  1.0 0.0083070685
C  C99  1  0.39384000  0.60616000  0.00000000  1.0 0.0823198919
C  C100  1  0.47742000  0.52258000  0.00000000  1.0 0.0083070685
C  C101  1  0.00000000  0.00000000  0.60616000  1.0 0.0823198919
C  C102  1  0.00000000  0.00000000  0.52258000  1.0 0.0083070685
C  C103  1  0.60616000  0.39384000  0.00000000  1.0 0.0823198919
C  C104  1  0.52258000  0.47742000  0.00000000  1.0 0.0083070685
C  C105  1  0.00000000  0.39384000  0.00000000  1.0 0.0823198919
C  C106  1  0.00000000  0.47742000  0.00000000  1.0 0.0083070685
C  C107  1  0.60616000  0.00000000  0.39384000  1.0 0.0823198919
C  C108  1  0.52258000  0.00000000  0.47742000  1.0 0.0083070685
C  C109  1  0.00000000  0.60616000  0.00000000  1.0 0.0823198919
C  C110  1  0.00000000  0.52258000  0.00000000  1.0 0.0083070685
C  C111  1  0.39384000  0.00000000  0.60616000  1.0 0.0823198919
C  C112  1  0.47742000  0.00000000  0.52258000  1.0 0.0083070685
C  C113  1  0.39384000  0.00000000  0.00000000  1.0 0.0823198919
C  C114  1  0.47742000  0.00000000  0.00000000  1.0 0.0083070685
C  C115  1  0.00000000  0.39384000  0.60616000  1.0 0.0823198919
C  C116  1  0.00000000  0.47742000  0.52258000  1.0 0.0083070685
C  C117  1  0.60616000  0.00000000  0.00000000  1.0 0.0823198919
C  C118  1  0.52258000  0.00000000  0.00000000  1.0 0.0083070685
C  C119  1  0.00000000  0.60616000  0.39384000  1.0 0.0823198919
C  C120  1  0.00000000  0.52258000  0.47742000  1.0 0.0083070685
C  C121  1  0.12261000  0.87739000  0.23427000  1.0 0.5822047277
C  C122  1  0.09090000  0.90910000  0.26604000  1.0 -0.0327455055
C  C123  1  0.05044000  0.94956000  0.25596000  1.0 -0.1281453642
C  C124  1  0.02206000  0.97794000  0.28604000  1.0 -0.0226841219
C  C125  1  0.03436000  0.96564000  0.32616000  1.0 0.1219566608
C  C126  1  0.07409000  0.92591000  0.33703000  1.0 -0.202586829
C  C127  1  0.10187000  0.89813000  0.30689000  1.0 -0.0775467932
C  C128  1  0.23427000  0.76573000  0.12261000  1.0 0.5822047277
C  C129  1  0.26604000  0.73396000  0.09090000  1.0 -0.0327455055
C  C130  1  0.25596000  0.74404000  0.05044000  1.0 -0.1281453642
C  C131  1  0.28604000  0.71396000  0.02206000  1.0 -0.0226841219
C  C132  1  0.32616000  0.67384000  0.03436000  1.0 0.1219566608
C  C133  1  0.33703000  0.66297000  0.07409000  1.0 -0.20531432
C  C134  1  0.30689000  0.69311000  0.10187000  1.0 -0.0741987523
C  C135  1  0.87739000  0.12261000  0.76573000  1.0 0.5822047277
C  C136  1  0.90910000  0.09090000  0.73396000  1.0 -0.0327455055
C  C137  1  0.94956000  0.05044000  0.74404000  1.0 -0.1281453642
C  C138  1  0.97794000  0.02206000  0.71396000  1.0 -0.0226841219
C  C139  1  0.96564000  0.03436000  0.67384000  1.0 0.1219566608
C  C140  1  0.92591000  0.07409000  0.66297000  1.0 -0.202586829
C  C141  1  0.89813000  0.10187000  0.69311000  1.0 -0.0775467932
C  C142  1  0.76573000  0.23427000  0.87739000  1.0 0.5822047277
C  C143  1  0.73396000  0.26604000  0.90910000  1.0 -0.0327455055
C  C144  1  0.74404000  0.25596000  0.94956000  1.0 -0.1281453642
C  C145  1  0.71396000  0.28604000  0.97794000  1.0 -0.0226841219
C  C146  1  0.67384000  0.32616000  0.96564000  1.0 0.1219566608
C  C147  1  0.66297000  0.33703000  0.92591000  1.0 -0.202586829
C  C148  1  0.69311000  0.30689000  0.89813000  1.0 -0.0775467932
C  C149  1  0.87739000  0.23427000  0.12261000  1.0 0.5822047277
C  C150  1  0.90910000  0.26604000  0.09090000  1.0 -0.0327455055
C  C151  1  0.94956000  0.25596000  0.05044000  1.0 -0.1281453642
C  C152  1  0.97794000  0.28604000  0.02206000  1.0 -0.0226841219
C  C153  1  0.96564000  0.32616000  0.03436000  1.0 0.1219566608
C  C154  1  0.92591000  0.33703000  0.07409000  1.0 -0.202586829
C  C155  1  0.89813000  0.30689000  0.10187000  1.0 -0.0775467932
C  C156  1  0.76573000  0.12261000  0.23427000  1.0 0.5822047277
C  C157  1  0.73396000  0.09090000  0.26604000  1.0 -0.0327455055
C  C158  1  0.74404000  0.05044000  0.25596000  1.0 -0.1281453642
C  C159  1  0.71396000  0.02206000  0.28604000  1.0 -0.0226841219
C  C160  1  0.67384000  0.03436000  0.32616000  1.0 0.1219566608
C  C161  1  0.66297000  0.07409000  0.33703000  1.0 -0.202586829
C  C162  1  0.69311000  0.10187000  0.30689000  1.0 -0.0775467932
C  C163  1  0.12261000  0.76573000  0.87739000  1.0 0.5822047277
C  C164  1  0.09090000  0.73396000  0.90910000  1.0 -0.0327455055
C  C165  1  0.05044000  0.74404000  0.94956000  1.0 -0.1281453642
C  C166  1  0.02206000  0.71396000  0.97794000  1.0 -0.0226841219
C  C167  1  0.03436000  0.67384000  0.96564000  1.0 0.1219566608
C  C168  1  0.07409000  0.66297000  0.92591000  1.0 -0.20531432
C  C169  1  0.10187000  0.69311000  0.89813000  1.0 -0.0741987523
C  C170  1  0.23427000  0.87739000  0.76573000  1.0 0.5822047277
C  C171  1  0.26604000  0.90910000  0.73396000  1.0 -0.0327455055
C  C172  1  0.25596000  0.94956000  0.74404000  1.0 -0.1281453642
C  C173  1  0.28604000  0.97794000  0.71396000  1.0 -0.0226841219
C  C174  1  0.32616000  0.96564000  0.67384000  1.0 0.1219566608
C  C175  1  0.33703000  0.92591000  0.66297000  1.0 -0.20531432
C  C176  1  0.30689000  0.89813000  0.69311000  1.0 -0.0741987523
C  C177  1  0.23427000  0.12261000  0.87739000  1.0 0.5822047277
C  C178  1  0.26604000  0.09090000  0.90910000  1.0 -0.0327455055
C  C179  1  0.25596000  0.05044000  0.94956000  1.0 -0.1281453642
C  C180  1  0.28604000  0.02206000  0.97794000  1.0 -0.0226841219
C  C181  1  0.32616000  0.03436000  0.96564000  1.0 0.1219566608
C  C182  1  0.33703000  0.07409000  0.92591000  1.0 -0.202586829
C  C183  1  0.30689000  0.10187000  0.89813000  1.0 -0.0775467932
C  C184  1  0.12261000  0.23427000  0.76573000  1.0 0.5822047277
C  C185  1  0.09090000  0.26604000  0.73396000  1.0 -0.0327455055
C  C186  1  0.05044000  0.25596000  0.74404000  1.0 -0.1281453642
C  C187  1  0.02206000  0.28604000  0.71396000  1.0 -0.0226841219
C  C188  1  0.03436000  0.32616000  0.67384000  1.0 0.1219566608
C  C189  1  0.07409000  0.33703000  0.66297000  1.0 -0.202586829
C  C190  1  0.10187000  0.30689000  0.69311000  1.0 -0.0741987523
C  C191  1  0.76573000  0.87739000  0.12261000  1.0 0.5822047277
C  C192  1  0.73396000  0.90910000  0.09090000  1.0 -0.0327455055
C  C193  1  0.74404000  0.94956000  0.05044000  1.0 -0.1281453642
C  C194  1  0.71396000  0.97794000  0.02206000  1.0 -0.0226841219
C  C195  1  0.67384000  0.96564000  0.03436000  1.0 0.1219566608
C  C196  1  0.66297000  0.92591000  0.07409000  1.0 -0.202586829
C  C197  1  0.69311000  0.89813000  0.10187000  1.0 -0.0775467932
C  C198  1  0.87739000  0.76573000  0.23427000  1.0 0.5822047277
C  C199  1  0.90910000  0.73396000  0.26604000  1.0 -0.0327455055
C  C200  1  0.94956000  0.74404000  0.25596000  1.0 -0.1281453642
C  C201  1  0.97794000  0.71396000  0.28604000  1.0 -0.0226841219
C  C202  1  0.96564000  0.67384000  0.32616000  1.0 0.1219566608
C  C203  1  0.92591000  0.66297000  0.33703000  1.0 -0.202586829
C  C204  1  0.89813000  0.69311000  0.30689000  1.0 -0.0775467932
C  C205  1  0.87739000  0.23427000  0.76573000  1.0 0.5822047277
C  C206  1  0.90910000  0.26604000  0.73396000  1.0 -0.0327455055
C  C207  1  0.94956000  0.25596000  0.74404000  1.0 -0.1281453642
C  C208  1  0.97794000  0.28604000  0.71396000  1.0 -0.0226841219
C  C209  1  0.96564000  0.32616000  0.67384000  1.0 0.1219566608
C  C210  1  0.92591000  0.33703000  0.66297000  1.0 -0.202586829
C  C211  1  0.89813000  0.30689000  0.69311000  1.0 -0.0741987523
C  C212  1  0.76573000  0.12261000  0.87739000  1.0 0.5822047277
C  C213  1  0.73396000  0.09090000  0.90910000  1.0 -0.0327455055
C  C214  1  0.74404000  0.05044000  0.94956000  1.0 -0.1281453642
C  C215  1  0.71396000  0.02206000  0.97794000  1.0 -0.0226841219
C  C216  1  0.67384000  0.03436000  0.96564000  1.0 0.1219566608
C  C217  1  0.66297000  0.07409000  0.92591000  1.0 -0.20531432
C  C218  1  0.69311000  0.10187000  0.89813000  1.0 -0.0741987523
C  C219  1  0.12261000  0.76573000  0.23427000  1.0 0.5822047277
C  C220  1  0.09090000  0.73396000  0.26604000  1.0 -0.0327455055
C  C221  1  0.05044000  0.74404000  0.25596000  1.0 -0.1281453642
C  C222  1  0.02206000  0.71396000  0.28604000  1.0 -0.0226841219
C  C223  1  0.03436000  0.67384000  0.32616000  1.0 0.1219566608
C  C224  1  0.07409000  0.66297000  0.33703000  1.0 -0.20531432
C  C225  1  0.10187000  0.69311000  0.30689000  1.0 -0.0741987523
C  C226  1  0.23427000  0.87739000  0.12261000  1.0 0.5822047277
C  C227  1  0.26604000  0.90910000  0.09090000  1.0 -0.0327455055
C  C228  1  0.25596000  0.94956000  0.05044000  1.0 -0.1281453642
C  C229  1  0.28604000  0.97794000  0.02206000  1.0 -0.0226841219
C  C230  1  0.32616000  0.96564000  0.03436000  1.0 0.1219566608
C  C231  1  0.33703000  0.92591000  0.07409000  1.0 -0.202586829
C  C232  1  0.30689000  0.89813000  0.10187000  1.0 -0.0775467932
C  C233  1  0.12261000  0.23427000  0.87739000  1.0 0.5822047277
C  C234  1  0.09090000  0.26604000  0.90910000  1.0 -0.0327455055
C  C235  1  0.05044000  0.25596000  0.94956000  1.0 -0.1281453642
C  C236  1  0.02206000  0.28604000  0.97794000  1.0 -0.0226841219
C  C237  1  0.03436000  0.32616000  0.96564000  1.0 0.1219566608
C  C238  1  0.07409000  0.33703000  0.92591000  1.0 -0.202586829
C  C239  1  0.10187000  0.30689000  0.89813000  1.0 -0.0775467932
C  C240  1  0.23427000  0.12261000  0.76573000  1.0 0.5822047277
C  C241  1  0.26604000  0.09090000  0.73396000  1.0 -0.0327455055
C  C242  1  0.25596000  0.05044000  0.74404000  1.0 -0.1281453642
C  C243  1  0.28604000  0.02206000  0.71396000  1.0 -0.0226841219
C  C244  1  0.32616000  0.03436000  0.67384000  1.0 0.1219566608
C  C245  1  0.33703000  0.07409000  0.66297000  1.0 -0.202586829
C  C246  1  0.30689000  0.10187000  0.69311000  1.0 -0.0775467932
C  C247  1  0.87739000  0.76573000  0.12261000  1.0 0.5822047277
C  C248  1  0.90910000  0.73396000  0.09090000  1.0 -0.0327455055
C  C249  1  0.94956000  0.74404000  0.05044000  1.0 -0.1281453642
C  C250  1  0.97794000  0.71396000  0.02206000  1.0 -0.0226841219
C  C251  1  0.96564000  0.67384000  0.03436000  1.0 0.1219566608
C  C252  1  0.92591000  0.66297000  0.07409000  1.0 -0.202586829
C  C253  1  0.89813000  0.69311000  0.10187000  1.0 -0.0741987523
C  C254  1  0.76573000  0.87739000  0.23427000  1.0 0.5822047277
C  C255  1  0.73396000  0.90910000  0.26604000  1.0 -0.0327455055
C  C256  1  0.74404000  0.94956000  0.25596000  1.0 -0.1281453642
C  C257  1  0.71396000  0.97794000  0.28604000  1.0 -0.0226841219
C  C258  1  0.67384000  0.96564000  0.32616000  1.0 0.1219566608
C  C259  1  0.66297000  0.92591000  0.33703000  1.0 -0.202586829
C  C260  1  0.69311000  0.89813000  0.30689000  1.0 -0.0741987523
C  C261  1  0.76573000  0.23427000  0.12261000  1.0 0.5822047277
C  C262  1  0.73396000  0.26604000  0.09090000  1.0 -0.0327455055
C  C263  1  0.74404000  0.25596000  0.05044000  1.0 -0.1281453642
C  C264  1  0.71396000  0.28604000  0.02206000  1.0 -0.0226841219
C  C265  1  0.67384000  0.32616000  0.03436000  1.0 0.1219566608
C  C266  1  0.66297000  0.33703000  0.07409000  1.0 -0.202586829
C  C267  1  0.69311000  0.30689000  0.10187000  1.0 -0.0775467932
C  C268  1  0.87739000  0.12261000  0.23427000  1.0 0.5822047277
C  C269  1  0.90910000  0.09090000  0.26604000  1.0 -0.0327455055
C  C270  1  0.94956000  0.05044000  0.25596000  1.0 -0.1281453642
C  C271  1  0.97794000  0.02206000  0.28604000  1.0 -0.0226841219
C  C272  1  0.96564000  0.03436000  0.32616000  1.0 0.1219566608
C  C273  1  0.92591000  0.07409000  0.33703000  1.0 -0.202586829
C  C274  1  0.89813000  0.10187000  0.30689000  1.0 -0.0775467932
C  C275  1  0.23427000  0.76573000  0.87739000  1.0 0.5822047277
C  C276  1  0.26604000  0.73396000  0.90910000  1.0 -0.0327455055
C  C277  1  0.25596000  0.74404000  0.94956000  1.0 -0.1281453642
C  C278  1  0.28604000  0.71396000  0.97794000  1.0 -0.0226841219
C  C279  1  0.32616000  0.67384000  0.96564000  1.0 0.1219566608
C  C280  1  0.33703000  0.66297000  0.92591000  1.0 -0.202586829
C  C281  1  0.30689000  0.69311000  0.89813000  1.0 -0.0775467932
C  C282  1  0.12261000  0.87739000  0.76573000  1.0 0.5822047277
C  C283  1  0.09090000  0.90910000  0.73396000  1.0 -0.0327455055
C  C284  1  0.05044000  0.94956000  0.74404000  1.0 -0.1281453642
C  C285  1  0.02206000  0.97794000  0.71396000  1.0 -0.0226841219
C  C286  1  0.03436000  0.96564000  0.67384000  1.0 0.1219566608
C  C287  1  0.07409000  0.92591000  0.66297000  1.0 -0.20531432
C  C288  1  0.10187000  0.89813000  0.69311000  1.0 -0.0741987523
N  N1  1  0.00000000  0.00000000  0.35076000  1.0 -0.1940557011
N  N2  1  0.35076000  0.64924000  0.00000000  1.0 -0.1940557011
N  N3  1  0.00000000  0.00000000  0.64924000  1.0 -0.1940557011
N  N4  1  0.64924000  0.35076000  0.00000000  1.0 -0.202586829
N  N5  1  0.00000000  0.35076000  0.00000000  1.0 -0.1940557011
N  N6  1  0.64924000  0.00000000  0.35076000  1.0 -0.1940557011
N  N7  1  0.00000000  0.64924000  0.00000000  1.0 -0.1940557011
N  N8  1  0.35076000  0.00000000  0.64924000  1.0 -0.1940557011
N  N9  1  0.35076000  0.00000000  0.00000000  1.0 -0.202586829
N  N10  1  0.00000000  0.35076000  0.64924000  1.0 -0.202586829
N  N11  1  0.64924000  0.00000000  0.00000000  1.0 -0.1940557011
N  N12  1  0.00000000  0.64924000  0.35076000  1.0 -0.202586829
O  O1  1  0.11096000  0.88904000  0.19806000  1.0 -0.5619615304
O  O2  1  0.15851000  0.84149000  0.24533000  1.0 -0.5538403925
O  O3  1  0.19806000  0.80194000  0.11096000  1.0 -0.5619615304
O  O4  1  0.24533000  0.75467000  0.15851000  1.0 -0.5538403925
O  O5  1  0.88904000  0.11096000  0.80194000  1.0 -0.5619615304
O  O6  1  0.84149000  0.15851000  0.75467000  1.0 -0.5538403925
O  O7  1  0.80194000  0.19806000  0.88904000  1.0 -0.5619615304
O  O8  1  0.75467000  0.24533000  0.84149000  1.0 -0.5538403925
O  O9  1  0.88904000  0.19806000  0.11096000  1.0 -0.5619615304
O  O10  1  0.84149000  0.24533000  0.15851000  1.0 -0.5619615304
O  O11  1  0.80194000  0.11096000  0.19806000  1.0 -0.5619615304
O  O12  1  0.75467000  0.15851000  0.24533000  1.0 -0.5538403925
O  O13  1  0.11096000  0.80194000  0.88904000  1.0 -0.5619615304
O  O14  1  0.15851000  0.75467000  0.84149000  1.0 -0.5538403925
O  O15  1  0.19806000  0.88904000  0.80194000  1.0 -0.5619615304
O  O16  1  0.24533000  0.84149000  0.75467000  1.0 -0.5538403925
O  O17  1  0.19806000  0.11096000  0.88904000  1.0 -0.5619615304
O  O18  1  0.24533000  0.15851000  0.84149000  1.0 -0.5538403925
O  O19  1  0.11096000  0.19806000  0.80194000  1.0 -0.5619615304
O  O20  1  0.15851000  0.24533000  0.75467000  1.0 -0.5538403925
O  O21  1  0.80194000  0.88904000  0.11096000  1.0 -0.5619615304
O  O22  1  0.75467000  0.84149000  0.15851000  1.0 -0.5538403925
O  O23  1  0.88904000  0.80194000  0.19806000  1.0 -0.5619615304
O  O24  1  0.84149000  0.75467000  0.24533000  1.0 -0.5538403925
O  O25  1  0.88904000  0.19806000  0.80194000  1.0 -0.5619615304
O  O26  1  0.84149000  0.24533000  0.75467000  1.0 -0.5538403925
O  O27  1  0.80194000  0.11096000  0.88904000  1.0 -0.5619615304
O  O28  1  0.75467000  0.15851000  0.84149000  1.0 -0.5538403925
O  O29  1  0.11096000  0.80194000  0.19806000  1.0 -0.5619615304
O  O30  1  0.15851000  0.75467000  0.24533000  1.0 -0.5619615304
O  O31  1  0.19806000  0.88904000  0.11096000  1.0 -0.5619615304
O  O32  1  0.24533000  0.84149000  0.15851000  1.0 -0.5619615304
O  O33  1  0.11096000  0.19806000  0.88904000  1.0 -0.5619615304
O  O34  1  0.15851000  0.24533000  0.84149000  1.0 -0.5538403925
O  O35  1  0.19806000  0.11096000  0.80194000  1.0 -0.5619615304
O  O36  1  0.24533000  0.15851000  0.75467000  1.0 -0.5538403925
O  O37  1  0.88904000  0.80194000  0.11096000  1.0 -0.5619615304
O  O38  1  0.84149000  0.75467000  0.15851000  1.0 -0.5538403925
O  O39  1  0.80194000  0.88904000  0.19806000  1.0 -0.5619615304
O  O40  1  0.75467000  0.84149000  0.24533000  1.0 -0.5538403925
O  O41  1  0.80194000  0.19806000  0.11096000  1.0 -0.5619615304
O  O42  1  0.75467000  0.24533000  0.15851000  1.0 -0.5538403925
O  O43  1  0.88904000  0.11096000  0.19806000  1.0 -0.5619615304
O  O44  1  0.84149000  0.15851000  0.24533000  1.0 -0.5619615304
O  O45  1  0.19806000  0.80194000  0.88904000  1.0 -0.5619615304
O  O46  1  0.24533000  0.75467000  0.84149000  1.0 -0.5538403925
O  O47  1  0.11096000  0.88904000  0.80194000  1.0 -0.5619615304
O  O48  1  0.15851000  0.84149000  0.75467000  1.0 -0.5538403925
