# DDEC6 charges by PACMAN v1.1 (https://github.com/mtap-research/PACMAN-charge/)
data_XUJBEM_ASR_pacman
_symmetry_space_group_name_H-M   'P 1'
_cell_length_a   33.53100000
_cell_length_b   33.53100000
_cell_length_c   33.53100000
_cell_angle_alpha   60.00000000
_cell_angle_beta   60.00000000
_cell_angle_gamma   60.00000000
_symmetry_Int_Tables_number   1
_chemical_formula_structural   CdH14C24NO4
_chemical_formula_sum   'Cd12 H168 C288 N12 O48'
_cell_volume   26657.81312197
_cell_formula_units_Z   12
loop_
 _symmetry_equiv_pos_site_id
 _symmetry_equiv_pos_as_xyz
  1  'x, y, z'
loop_
 _atom_site_type_symbol
 _atom_site_label
 _atom_site_symmetry_multiplicity
 _atom_site_fract_x
 _atom_site_fract_y
 _atom_site_fract_z
 _atom_site_occupancy
 _atom_site_charge
Cd  Cd1  1  0.14606000  0.85394000  0.14606000  1.0 1.0281040388
Cd  Cd2  1  0.21210000  0.78790000  0.21210000  1.0 1.0281040388
Cd  Cd3  1  0.85394000  0.14606000  0.85394000  1.0 1.0281040388
Cd  Cd4  1  0.78790000  0.21210000  0.78790000  1.0 1.0281040388
Cd  Cd5  1  0.85394000  0.14606000  0.14606000  1.0 1.0281040388
Cd  Cd6  1  0.78790000  0.21210000  0.21210000  1.0 1.0281040388
Cd  Cd7  1  0.14606000  0.85394000  0.85394000  1.0 1.0281040388
Cd  Cd8  1  0.21210000  0.78790000  0.78790000  1.0 1.0281040388
Cd  Cd9  1  0.14606000  0.14606000  0.85394000  1.0 1.0281040388
Cd  Cd10  1  0.21210000  0.21210000  0.78790000  1.0 1.0281040388
Cd  Cd11  1  0.85394000  0.85394000  0.14606000  1.0 1.0281040388
Cd  Cd12  1  0.78790000  0.78790000  0.21210000  1.0 1.0281040388
H  H1  1  0.01152000  0.06492000  0.35980000  1.0 0.1033735908
H  H2  1  0.00929000  0.06727000  0.43245000  1.0 0.0875885685
H  H3  1  0.35980000  0.56376000  0.01152000  1.0 0.1033735908
H  H4  1  0.43245000  0.49099000  0.00929000  1.0 0.0875885685
H  H5  1  0.06492000  0.01152000  0.56376000  1.0 0.1033735908
H  H6  1  0.06727000  0.00929000  0.49099000  1.0 0.0875885685
H  H7  1  0.56376000  0.35980000  0.06492000  1.0 0.1033735908
H  H8  1  0.49099000  0.43245000  0.06727000  1.0 0.0875885685
H  H9  1  0.06492000  0.35980000  0.01152000  1.0 0.1033735908
H  H10  1  0.06727000  0.43245000  0.00929000  1.0 0.0875885685
H  H11  1  0.56376000  0.01152000  0.35980000  1.0 0.1033735908
H  H12  1  0.49099000  0.00929000  0.43245000  1.0 0.0875885685
H  H13  1  0.01152000  0.56376000  0.06492000  1.0 0.1033735908
H  H14  1  0.00929000  0.49099000  0.06727000  1.0 0.0875885685
H  H15  1  0.35980000  0.06492000  0.56376000  1.0 0.1033735908
H  H16  1  0.43245000  0.06727000  0.49099000  1.0 0.0875885685
H  H17  1  0.35980000  0.01152000  0.06492000  1.0 0.1033735908
H  H18  1  0.43245000  0.00929000  0.06727000  1.0 0.0875885685
H  H19  1  0.01152000  0.35980000  0.56376000  1.0 0.1033735908
H  H20  1  0.00929000  0.43245000  0.49099000  1.0 0.0875885685
H  H21  1  0.56376000  0.06492000  0.01152000  1.0 0.1033735908
H  H22  1  0.49099000  0.06727000  0.00929000  1.0 0.0875885685
H  H23  1  0.06492000  0.56376000  0.35980000  1.0 0.1033735908
H  H24  1  0.06727000  0.49099000  0.43245000  1.0 0.0875885685
H  H25  1  0.98848000  0.43624000  0.64020000  1.0 0.1033735908
H  H26  1  0.99071000  0.50901000  0.56755000  1.0 0.0875885685
H  H27  1  0.64020000  0.93508000  0.98848000  1.0 0.1033735908
H  H28  1  0.56755000  0.93273000  0.99071000  1.0 0.0875885685
H  H29  1  0.93508000  0.64020000  0.43624000  1.0 0.1033735908
H  H30  1  0.93273000  0.56755000  0.50901000  1.0 0.0875885685
H  H31  1  0.43624000  0.98848000  0.93508000  1.0 0.1033735908
H  H32  1  0.50901000  0.99071000  0.93273000  1.0 0.0875885685
H  H33  1  0.93508000  0.43624000  0.98848000  1.0 0.1033735908
H  H34  1  0.93273000  0.50901000  0.99071000  1.0 0.0875885685
H  H35  1  0.43624000  0.93508000  0.64020000  1.0 0.1033735908
H  H36  1  0.50901000  0.93273000  0.56755000  1.0 0.0875885685
H  H37  1  0.98848000  0.64020000  0.93508000  1.0 0.1033735908
H  H38  1  0.99071000  0.56755000  0.93273000  1.0 0.0875885685
H  H39  1  0.64020000  0.98848000  0.43624000  1.0 0.1033735908
H  H40  1  0.56755000  0.99071000  0.50901000  1.0 0.0875885685
H  H41  1  0.64020000  0.43624000  0.93508000  1.0 0.1033735908
H  H42  1  0.56755000  0.50901000  0.93273000  1.0 0.0875885685
H  H43  1  0.98848000  0.93508000  0.43624000  1.0 0.1033735908
H  H44  1  0.99071000  0.93273000  0.50901000  1.0 0.0875885685
H  H45  1  0.43624000  0.64020000  0.98848000  1.0 0.1033735908
H  H46  1  0.50901000  0.56755000  0.99071000  1.0 0.0875885685
H  H47  1  0.93508000  0.98848000  0.64020000  1.0 0.1033735908
H  H48  1  0.93273000  0.99071000  0.56755000  1.0 0.0875885685
H  H49  1  0.98848000  0.93508000  0.64020000  1.0 0.1033735908
H  H50  1  0.99071000  0.93273000  0.56755000  1.0 0.0875885685
H  H51  1  0.64020000  0.43624000  0.98848000  1.0 0.1033735908
H  H52  1  0.56755000  0.50901000  0.99071000  1.0 0.0875885685
H  H53  1  0.93508000  0.98848000  0.43624000  1.0 0.1033735908
H  H54  1  0.93273000  0.99071000  0.50901000  1.0 0.0875885685
H  H55  1  0.43624000  0.64020000  0.93508000  1.0 0.1033735908
H  H56  1  0.50901000  0.56755000  0.93273000  1.0 0.0875885685
H  H57  1  0.93508000  0.64020000  0.98848000  1.0 0.1033735908
H  H58  1  0.93273000  0.56755000  0.99071000  1.0 0.0875885685
H  H59  1  0.43624000  0.98848000  0.64020000  1.0 0.1033735908
H  H60  1  0.50901000  0.99071000  0.56755000  1.0 0.0875885685
H  H61  1  0.98848000  0.43624000  0.93508000  1.0 0.1033735908
H  H62  1  0.99071000  0.50901000  0.93273000  1.0 0.0875885685
H  H63  1  0.64020000  0.93508000  0.43624000  1.0 0.1033735908
H  H64  1  0.56755000  0.93273000  0.50901000  1.0 0.0875885685
H  H65  1  0.64020000  0.98848000  0.93508000  1.0 0.1033735908
H  H66  1  0.56755000  0.99071000  0.93273000  1.0 0.0875885685
H  H67  1  0.98848000  0.64020000  0.43624000  1.0 0.1033735908
H  H68  1  0.99071000  0.56755000  0.50901000  1.0 0.0875885685
H  H69  1  0.43624000  0.93508000  0.98848000  1.0 0.1033735908
H  H70  1  0.50901000  0.93273000  0.99071000  1.0 0.0875885685
H  H71  1  0.93508000  0.43624000  0.64020000  1.0 0.1033735908
H  H72  1  0.93273000  0.50901000  0.56755000  1.0 0.0875885685
H  H73  1  0.01152000  0.56376000  0.35980000  1.0 0.1033735908
H  H74  1  0.00929000  0.49099000  0.43245000  1.0 0.0875885685
H  H75  1  0.35980000  0.06492000  0.01152000  1.0 0.1033735908
H  H76  1  0.43245000  0.06727000  0.00929000  1.0 0.0875885685
H  H77  1  0.06492000  0.35980000  0.56376000  1.0 0.1033735908
H  H78  1  0.06727000  0.43245000  0.49099000  1.0 0.0875885685
H  H79  1  0.56376000  0.01152000  0.06492000  1.0 0.1033735908
H  H80  1  0.49099000  0.00929000  0.06727000  1.0 0.0875885685
H  H81  1  0.06492000  0.56376000  0.01152000  1.0 0.1033735908
H  H82  1  0.06727000  0.49099000  0.00929000  1.0 0.0875885685
H  H83  1  0.56376000  0.06492000  0.35980000  1.0 0.1033735908
H  H84  1  0.49099000  0.06727000  0.43245000  1.0 0.0875885685
H  H85  1  0.01152000  0.35980000  0.06492000  1.0 0.1033735908
H  H86  1  0.00929000  0.43245000  0.06727000  1.0 0.0875885685
H  H87  1  0.35980000  0.01152000  0.56376000  1.0 0.1033735908
H  H88  1  0.43245000  0.00929000  0.49099000  1.0 0.0875885685
H  H89  1  0.35980000  0.56376000  0.06492000  1.0 0.1033735908
H  H90  1  0.43245000  0.49099000  0.06727000  1.0 0.0875885685
H  H91  1  0.01152000  0.06492000  0.56376000  1.0 0.1033735908
H  H92  1  0.00929000  0.06727000  0.49099000  1.0 0.0875885685
H  H93  1  0.56376000  0.35980000  0.01152000  1.0 0.1033735908
H  H94  1  0.49099000  0.43245000  0.00929000  1.0 0.0875885685
H  H95  1  0.06492000  0.01152000  0.35980000  1.0 0.1033735908
H  H96  1  0.06727000  0.00929000  0.43245000  1.0 0.0875885685
H  H97  1  0.04334000  0.95666000  0.23100000  1.0 0.1367306757
H  H98  1  0.08059000  0.91941000  0.36451000  1.0 0.1280075969
H  H99  1  0.12886000  0.87114000  0.31480000  1.0 0.1208364826
H  H100  1  0.23100000  0.76900000  0.04334000  1.0 0.1367306757
H  H101  1  0.36451000  0.63549000  0.08059000  1.0 0.1280075969
H  H102  1  0.31480000  0.68520000  0.12886000  1.0 0.1208364826
H  H103  1  0.95666000  0.04334000  0.76900000  1.0 0.1367306757
H  H104  1  0.91941000  0.08059000  0.63549000  1.0 0.1280075969
H  H105  1  0.87114000  0.12886000  0.68520000  1.0 0.1208364826
H  H106  1  0.76900000  0.23100000  0.95666000  1.0 0.1367306757
H  H107  1  0.63549000  0.36451000  0.91941000  1.0 0.1280075969
H  H108  1  0.68520000  0.31480000  0.87114000  1.0 0.1208364826
H  H109  1  0.95666000  0.23100000  0.04334000  1.0 0.1367306757
H  H110  1  0.91941000  0.36451000  0.08059000  1.0 0.1280075969
H  H111  1  0.87114000  0.31480000  0.12886000  1.0 0.1208364826
H  H112  1  0.76900000  0.04334000  0.23100000  1.0 0.1367306757
H  H113  1  0.63549000  0.08059000  0.36451000  1.0 0.1280075969
H  H114  1  0.68520000  0.12886000  0.31480000  1.0 0.1208364826
H  H115  1  0.04334000  0.76900000  0.95666000  1.0 0.1367306757
H  H116  1  0.08059000  0.63549000  0.91941000  1.0 0.1280075969
H  H117  1  0.12886000  0.68520000  0.87114000  1.0 0.1208364826
H  H118  1  0.23100000  0.95666000  0.76900000  1.0 0.1367306757
H  H119  1  0.36451000  0.91941000  0.63549000  1.0 0.1280075969
H  H120  1  0.31480000  0.87114000  0.68520000  1.0 0.1208364826
H  H121  1  0.23100000  0.04334000  0.95666000  1.0 0.1367306757
H  H122  1  0.36451000  0.08059000  0.91941000  1.0 0.1280075969
H  H123  1  0.31480000  0.12886000  0.87114000  1.0 0.1208364826
H  H124  1  0.04334000  0.23100000  0.76900000  1.0 0.1367306757
H  H125  1  0.08059000  0.36451000  0.63549000  1.0 0.1280075969
H  H126  1  0.12886000  0.31480000  0.68520000  1.0 0.1208364826
H  H127  1  0.76900000  0.95666000  0.04334000  1.0 0.1367306757
H  H128  1  0.63549000  0.91941000  0.08059000  1.0 0.1280075969
H  H129  1  0.68520000  0.87114000  0.12886000  1.0 0.1208364826
H  H130  1  0.95666000  0.76900000  0.23100000  1.0 0.1367306757
H  H131  1  0.91941000  0.63549000  0.36451000  1.0 0.1280075969
H  H132  1  0.87114000  0.68520000  0.31480000  1.0 0.1208364826
H  H133  1  0.95666000  0.23100000  0.76900000  1.0 0.1367306757
H  H134  1  0.91941000  0.36451000  0.63549000  1.0 0.1280075969
H  H135  1  0.87114000  0.31480000  0.68520000  1.0 0.1208364826
H  H136  1  0.76900000  0.04334000  0.95666000  1.0 0.1367306757
H  H137  1  0.63549000  0.08059000  0.91941000  1.0 0.1280075969
H  H138  1  0.68520000  0.12886000  0.87114000  1.0 0.1208364826
H  H139  1  0.04334000  0.76900000  0.23100000  1.0 0.1367306757
H  H140  1  0.08059000  0.63549000  0.36451000  1.0 0.1280075969
H  H141  1  0.12886000  0.68520000  0.31480000  1.0 0.1208364826
H  H142  1  0.23100000  0.95666000  0.04334000  1.0 0.1367306757
H  H143  1  0.36451000  0.91941000  0.08059000  1.0 0.1280075969
H  H144  1  0.31480000  0.87114000  0.12886000  1.0 0.1208364826
H  H145  1  0.04334000  0.23100000  0.95666000  1.0 0.1367306757
H  H146  1  0.08059000  0.36451000  0.91941000  1.0 0.1280075969
H  H147  1  0.12886000  0.31480000  0.87114000  1.0 0.1208364826
H  H148  1  0.23100000  0.04334000  0.76900000  1.0 0.1367306757
H  H149  1  0.36451000  0.08059000  0.63549000  1.0 0.1280075969
H  H150  1  0.31480000  0.12886000  0.68520000  1.0 0.1208364826
H  H151  1  0.95666000  0.76900000  0.04334000  1.0 0.1367306757
H  H152  1  0.91941000  0.63549000  0.08059000  1.0 0.1280075969
H  H153  1  0.87114000  0.68520000  0.12886000  1.0 0.1208364826
H  H154  1  0.76900000  0.95666000  0.23100000  1.0 0.1367306757
H  H155  1  0.63549000  0.91941000  0.36451000  1.0 0.1280075969
H  H156  1  0.68520000  0.87114000  0.31480000  1.0 0.1208364826
H  H157  1  0.76900000  0.23100000  0.04334000  1.0 0.1367306757
H  H158  1  0.63549000  0.36451000  0.08059000  1.0 0.1280075969
H  H159  1  0.68520000  0.31480000  0.12886000  1.0 0.1208364826
H  H160  1  0.95666000  0.04334000  0.23100000  1.0 0.1367306757
H  H161  1  0.91941000  0.08059000  0.36451000  1.0 0.1280075969
H  H162  1  0.87114000  0.12886000  0.31480000  1.0 0.1208364826
H  H163  1  0.23100000  0.76900000  0.95666000  1.0 0.1367306757
H  H164  1  0.36451000  0.63549000  0.91941000  1.0 0.1280075969
H  H165  1  0.31480000  0.68520000  0.87114000  1.0 0.1208364826
H  H166  1  0.04334000  0.95666000  0.76900000  1.0 0.1367306757
H  H167  1  0.08059000  0.91941000  0.63549000  1.0 0.1280075969
H  H168  1  0.12886000  0.87114000  0.68520000  1.0 0.1208364826
C  C1  1  0.00670000  0.03990000  0.38970000  1.0 -0.0908950252
C  C2  1  0.00594000  0.04094000  0.43326000  1.0 -0.0908950252
C  C3  1  0.38970000  0.56370000  0.00670000  1.0 -0.0908950252
C  C4  1  0.43326000  0.51986000  0.00594000  1.0 -0.0908950252
C  C5  1  0.03990000  0.00670000  0.56370000  1.0 -0.0908950252
C  C6  1  0.04094000  0.00594000  0.51986000  1.0 -0.0908950252
C  C7  1  0.56370000  0.38970000  0.03990000  1.0 -0.0908950252
C  C8  1  0.51986000  0.43326000  0.04094000  1.0 -0.0908950252
C  C9  1  0.03990000  0.38970000  0.00670000  1.0 -0.0908950252
C  C10  1  0.04094000  0.43326000  0.00594000  1.0 -0.0908950252
C  C11  1  0.56370000  0.00670000  0.38970000  1.0 -0.0908950252
C  C12  1  0.51986000  0.00594000  0.43326000  1.0 -0.0908950252
C  C13  1  0.00670000  0.56370000  0.03990000  1.0 -0.0908950252
C  C14  1  0.00594000  0.51986000  0.04094000  1.0 -0.0908950252
C  C15  1  0.38970000  0.03990000  0.56370000  1.0 -0.0908950252
C  C16  1  0.43326000  0.04094000  0.51986000  1.0 -0.0908950252
C  C17  1  0.38970000  0.00670000  0.03990000  1.0 -0.0908950252
C  C18  1  0.43326000  0.00594000  0.04094000  1.0 -0.0908950252
C  C19  1  0.00670000  0.38970000  0.56370000  1.0 -0.0908950252
C  C20  1  0.00594000  0.43326000  0.51986000  1.0 -0.0908950252
C  C21  1  0.56370000  0.03990000  0.00670000  1.0 -0.0908950252
C  C22  1  0.51986000  0.04094000  0.00594000  1.0 -0.0908950252
C  C23  1  0.03990000  0.56370000  0.38970000  1.0 -0.0908950252
C  C24  1  0.04094000  0.51986000  0.43326000  1.0 -0.0908950252
C  C25  1  0.99330000  0.43630000  0.61030000  1.0 -0.0908950252
C  C26  1  0.99406000  0.48014000  0.56674000  1.0 -0.0908950252
C  C27  1  0.61030000  0.96010000  0.99330000  1.0 -0.0908950252
C  C28  1  0.56674000  0.95906000  0.99406000  1.0 -0.0908950252
C  C29  1  0.96010000  0.61030000  0.43630000  1.0 -0.0908950252
C  C30  1  0.95906000  0.56674000  0.48014000  1.0 -0.0908950252
C  C31  1  0.43630000  0.99330000  0.96010000  1.0 -0.0908950252
C  C32  1  0.48014000  0.99406000  0.95906000  1.0 -0.0908950252
C  C33  1  0.96010000  0.43630000  0.99330000  1.0 -0.0908950252
C  C34  1  0.95906000  0.48014000  0.99406000  1.0 -0.0908950252
C  C35  1  0.43630000  0.96010000  0.61030000  1.0 -0.0908950252
C  C36  1  0.48014000  0.95906000  0.56674000  1.0 -0.0908950252
C  C37  1  0.99330000  0.61030000  0.96010000  1.0 -0.0908950252
C  C38  1  0.99406000  0.56674000  0.95906000  1.0 -0.0908950252
C  C39  1  0.61030000  0.99330000  0.43630000  1.0 -0.0908950252
C  C40  1  0.56674000  0.99406000  0.48014000  1.0 -0.0908950252
C  C41  1  0.61030000  0.43630000  0.96010000  1.0 -0.0908950252
C  C42  1  0.56674000  0.48014000  0.95906000  1.0 -0.0908950252
C  C43  1  0.99330000  0.96010000  0.43630000  1.0 -0.0908950252
C  C44  1  0.99406000  0.95906000  0.48014000  1.0 -0.0908950252
C  C45  1  0.43630000  0.61030000  0.99330000  1.0 -0.0908950252
C  C46  1  0.48014000  0.56674000  0.99406000  1.0 -0.0908950252
C  C47  1  0.96010000  0.99330000  0.61030000  1.0 -0.0908950252
C  C48  1  0.95906000  0.99406000  0.56674000  1.0 -0.0908950252
C  C49  1  0.99330000  0.96010000  0.61030000  1.0 -0.0908950252
C  C50  1  0.99406000  0.95906000  0.56674000  1.0 -0.0908950252
C  C51  1  0.61030000  0.43630000  0.99330000  1.0 -0.0908950252
C  C52  1  0.56674000  0.48014000  0.99406000  1.0 -0.0908950252
C  C53  1  0.96010000  0.99330000  0.43630000  1.0 -0.0908950252
C  C54  1  0.95906000  0.99406000  0.48014000  1.0 -0.0908950252
C  C55  1  0.43630000  0.61030000  0.96010000  1.0 -0.0908950252
C  C56  1  0.48014000  0.56674000  0.95906000  1.0 -0.0908950252
C  C57  1  0.96010000  0.61030000  0.99330000  1.0 -0.0908950252
C  C58  1  0.95906000  0.56674000  0.99406000  1.0 -0.0908950252
C  C59  1  0.43630000  0.99330000  0.61030000  1.0 -0.0908950252
C  C60  1  0.48014000  0.99406000  0.56674000  1.0 -0.0908950252
C  C61  1  0.99330000  0.43630000  0.96010000  1.0 -0.0908950252
C  C62  1  0.99406000  0.48014000  0.95906000  1.0 -0.0908950252
C  C63  1  0.61030000  0.96010000  0.43630000  1.0 -0.0908950252
C  C64  1  0.56674000  0.95906000  0.48014000  1.0 -0.0908950252
C  C65  1  0.61030000  0.99330000  0.96010000  1.0 -0.0908950252
C  C66  1  0.56674000  0.99406000  0.95906000  1.0 -0.0908950252
C  C67  1  0.99330000  0.61030000  0.43630000  1.0 -0.0908950252
C  C68  1  0.99406000  0.56674000  0.48014000  1.0 -0.0908950252
C  C69  1  0.43630000  0.96010000  0.99330000  1.0 -0.0908950252
C  C70  1  0.48014000  0.95906000  0.99406000  1.0 -0.0908950252
C  C71  1  0.96010000  0.43630000  0.61030000  1.0 -0.0908950252
C  C72  1  0.95906000  0.48014000  0.56674000  1.0 -0.0908950252
C  C73  1  0.00670000  0.56370000  0.38970000  1.0 -0.0908950252
C  C74  1  0.00594000  0.51986000  0.43326000  1.0 -0.0908950252
C  C75  1  0.38970000  0.03990000  0.00670000  1.0 -0.0908950252
C  C76  1  0.43326000  0.04094000  0.00594000  1.0 -0.0908950252
C  C77  1  0.03990000  0.38970000  0.56370000  1.0 -0.0908950252
C  C78  1  0.04094000  0.43326000  0.51986000  1.0 -0.0908950252
C  C79  1  0.56370000  0.00670000  0.03990000  1.0 -0.0908950252
C  C80  1  0.51986000  0.00594000  0.04094000  1.0 -0.0908950252
C  C81  1  0.03990000  0.56370000  0.00670000  1.0 -0.0908950252
C  C82  1  0.04094000  0.51986000  0.00594000  1.0 -0.0908950252
C  C83  1  0.56370000  0.03990000  0.38970000  1.0 -0.0908950252
C  C84  1  0.51986000  0.04094000  0.43326000  1.0 -0.0908950252
C  C85  1  0.00670000  0.38970000  0.03990000  1.0 -0.0908950252
C  C86  1  0.00594000  0.43326000  0.04094000  1.0 -0.0908950252
C  C87  1  0.38970000  0.00670000  0.56370000  1.0 -0.0908950252
C  C88  1  0.43326000  0.00594000  0.51986000  1.0 -0.0908950252
C  C89  1  0.38970000  0.56370000  0.03990000  1.0 -0.0908950252
C  C90  1  0.43326000  0.51986000  0.04094000  1.0 -0.0908950252
C  C91  1  0.00670000  0.03990000  0.56370000  1.0 -0.0908950252
C  C92  1  0.00594000  0.04094000  0.51986000  1.0 -0.0908950252
C  C93  1  0.56370000  0.38970000  0.00670000  1.0 -0.0908950252
C  C94  1  0.51986000  0.43326000  0.00594000  1.0 -0.0908950252
C  C95  1  0.03990000  0.00670000  0.38970000  1.0 -0.0908950252
C  C96  1  0.04094000  0.00594000  0.43326000  1.0 -0.0908950252
C  C97  1  0.00000000  0.00000000  0.39564000  1.0 0.0845049054
C  C98  1  0.00000000  0.00000000  0.47728000  1.0 0.0390873432
C  C99  1  0.39564000  0.60436000  0.00000000  1.0 0.0845049054
C  C100  1  0.47728000  0.52272000  0.00000000  1.0 0.0390873432
C  C101  1  0.00000000  0.00000000  0.60436000  1.0 0.0845049054
C  C102  1  0.00000000  0.00000000  0.52272000  1.0 0.0390873432
C  C103  1  0.60436000  0.39564000  0.00000000  1.0 0.0845049054
C  C104  1  0.52272000  0.47728000  0.00000000  1.0 0.0390873432
C  C105  1  0.00000000  0.39564000  0.00000000  1.0 0.0845049054
C  C106  1  0.00000000  0.47728000  0.00000000  1.0 0.0390873432
C  C107  1  0.60436000  0.00000000  0.39564000  1.0 0.0845049054
C  C108  1  0.52272000  0.00000000  0.47728000  1.0 0.0390873432
C  C109  1  0.00000000  0.60436000  0.00000000  1.0 0.0845049054
C  C110  1  0.00000000  0.52272000  0.00000000  1.0 0.0390873432
C  C111  1  0.39564000  0.00000000  0.60436000  1.0 0.0845049054
C  C112  1  0.47728000  0.00000000  0.52272000  1.0 0.0390873432
C  C113  1  0.39564000  0.00000000  0.00000000  1.0 0.0845049054
C  C114  1  0.47728000  0.00000000  0.00000000  1.0 0.0390873432
C  C115  1  0.00000000  0.39564000  0.60436000  1.0 0.0845049054
C  C116  1  0.00000000  0.47728000  0.52272000  1.0 0.0390873432
C  C117  1  0.60436000  0.00000000  0.00000000  1.0 0.0845049054
C  C118  1  0.52272000  0.00000000  0.00000000  1.0 0.0390873432
C  C119  1  0.00000000  0.60436000  0.39564000  1.0 0.0845049054
C  C120  1  0.00000000  0.52272000  0.47728000  1.0 0.0390873432
C  C121  1  0.12241000  0.87759000  0.23719000  1.0 0.5980113961
C  C122  1  0.09087000  0.90913000  0.26821000  1.0 -0.0535712814
C  C123  1  0.05064000  0.94936000  0.25776000  1.0 -0.123723227
C  C124  1  0.02128000  0.97872000  0.28722000  1.0 -0.0253158451
C  C125  1  0.03389000  0.96611000  0.32781000  1.0 0.1280075969
C  C126  1  0.07306000  0.92694000  0.33782000  1.0 -0.201980474
C  C127  1  0.10197000  0.89803000  0.30797000  1.0 -0.0730618904
C  C128  1  0.23719000  0.76281000  0.12241000  1.0 0.5980113961
C  C129  1  0.26821000  0.73179000  0.09087000  1.0 -0.0535712814
C  C130  1  0.25776000  0.74224000  0.05064000  1.0 -0.123723227
C  C131  1  0.28722000  0.71278000  0.02128000  1.0 -0.0237438579
C  C132  1  0.32781000  0.67219000  0.03389000  1.0 0.1367306757
C  C133  1  0.33782000  0.66218000  0.07306000  1.0 -0.201980474
C  C134  1  0.30797000  0.69203000  0.10197000  1.0 -0.0730618904
C  C135  1  0.87759000  0.12241000  0.76281000  1.0 0.5980113961
C  C136  1  0.90913000  0.09087000  0.73179000  1.0 -0.0535712814
C  C137  1  0.94936000  0.05064000  0.74224000  1.0 -0.123723227
C  C138  1  0.97872000  0.02128000  0.71278000  1.0 -0.0237438579
C  C139  1  0.96611000  0.03389000  0.67219000  1.0 0.1367306757
C  C140  1  0.92694000  0.07306000  0.66218000  1.0 -0.201980474
C  C141  1  0.89803000  0.10197000  0.69203000  1.0 -0.0730618904
C  C142  1  0.76281000  0.23719000  0.87759000  1.0 0.5980113961
C  C143  1  0.73179000  0.26821000  0.90913000  1.0 -0.0535712814
C  C144  1  0.74224000  0.25776000  0.94936000  1.0 -0.123723227
C  C145  1  0.71278000  0.28722000  0.97872000  1.0 -0.0253158451
C  C146  1  0.67219000  0.32781000  0.96611000  1.0 0.1367306757
C  C147  1  0.66218000  0.33782000  0.92694000  1.0 -0.201980474
C  C148  1  0.69203000  0.30797000  0.89803000  1.0 -0.0730618904
C  C149  1  0.87759000  0.23719000  0.12241000  1.0 0.5980113961
C  C150  1  0.90913000  0.26821000  0.09087000  1.0 -0.0535712814
C  C151  1  0.94936000  0.25776000  0.05064000  1.0 -0.123723227
C  C152  1  0.97872000  0.28722000  0.02128000  1.0 -0.0237438579
C  C153  1  0.96611000  0.32781000  0.03389000  1.0 0.1367306757
C  C154  1  0.92694000  0.33782000  0.07306000  1.0 -0.2051579975
C  C155  1  0.89803000  0.30797000  0.10197000  1.0 -0.0730618904
C  C156  1  0.76281000  0.12241000  0.23719000  1.0 0.5980113961
C  C157  1  0.73179000  0.09087000  0.26821000  1.0 -0.0535712814
C  C158  1  0.74224000  0.05064000  0.25776000  1.0 -0.123723227
C  C159  1  0.71278000  0.02128000  0.28722000  1.0 -0.0237438579
C  C160  1  0.67219000  0.03389000  0.32781000  1.0 0.1367306757
C  C161  1  0.66218000  0.07306000  0.33782000  1.0 -0.201980474
C  C162  1  0.69203000  0.10197000  0.30797000  1.0 -0.0730618904
C  C163  1  0.12241000  0.76281000  0.87759000  1.0 0.5980113961
C  C164  1  0.09087000  0.73179000  0.90913000  1.0 -0.0535712814
C  C165  1  0.05064000  0.74224000  0.94936000  1.0 -0.123723227
C  C166  1  0.02128000  0.71278000  0.97872000  1.0 -0.0253158451
C  C167  1  0.03389000  0.67219000  0.96611000  1.0 0.1367306757
C  C168  1  0.07306000  0.66218000  0.92694000  1.0 -0.2051579975
C  C169  1  0.10197000  0.69203000  0.89803000  1.0 -0.0730618904
C  C170  1  0.23719000  0.87759000  0.76281000  1.0 0.5980113961
C  C171  1  0.26821000  0.90913000  0.73179000  1.0 -0.0535712814
C  C172  1  0.25776000  0.94936000  0.74224000  1.0 -0.123723227
C  C173  1  0.28722000  0.97872000  0.71278000  1.0 -0.0237438579
C  C174  1  0.32781000  0.96611000  0.67219000  1.0 0.1367306757
C  C175  1  0.33782000  0.92694000  0.66218000  1.0 -0.201980474
C  C176  1  0.30797000  0.89803000  0.69203000  1.0 -0.0730618904
C  C177  1  0.23719000  0.12241000  0.87759000  1.0 0.5980113961
C  C178  1  0.26821000  0.09087000  0.90913000  1.0 -0.0535712814
C  C179  1  0.25776000  0.05064000  0.94936000  1.0 -0.123723227
C  C180  1  0.28722000  0.02128000  0.97872000  1.0 -0.0253158451
C  C181  1  0.32781000  0.03389000  0.96611000  1.0 0.1367306757
C  C182  1  0.33782000  0.07306000  0.92694000  1.0 -0.201980474
C  C183  1  0.30797000  0.10197000  0.89803000  1.0 -0.0730618904
C  C184  1  0.12241000  0.23719000  0.76281000  1.0 0.5980113961
C  C185  1  0.09087000  0.26821000  0.73179000  1.0 -0.0535712814
C  C186  1  0.05064000  0.25776000  0.74224000  1.0 -0.123723227
C  C187  1  0.02128000  0.28722000  0.71278000  1.0 -0.0237438579
C  C188  1  0.03389000  0.32781000  0.67219000  1.0 0.1367306757
C  C189  1  0.07306000  0.33782000  0.66218000  1.0 -0.201980474
C  C190  1  0.10197000  0.30797000  0.69203000  1.0 -0.0730618904
C  C191  1  0.76281000  0.87759000  0.12241000  1.0 0.5980113961
C  C192  1  0.73179000  0.90913000  0.09087000  1.0 -0.0535712814
C  C193  1  0.74224000  0.94936000  0.05064000  1.0 -0.123723227
C  C194  1  0.71278000  0.97872000  0.02128000  1.0 -0.0237438579
C  C195  1  0.67219000  0.96611000  0.03389000  1.0 0.1367306757
C  C196  1  0.66218000  0.92694000  0.07306000  1.0 -0.201980474
C  C197  1  0.69203000  0.89803000  0.10197000  1.0 -0.0730618904
C  C198  1  0.87759000  0.76281000  0.23719000  1.0 0.5980113961
C  C199  1  0.90913000  0.73179000  0.26821000  1.0 -0.0535712814
C  C200  1  0.94936000  0.74224000  0.25776000  1.0 -0.123723227
C  C201  1  0.97872000  0.71278000  0.28722000  1.0 -0.0237438579
C  C202  1  0.96611000  0.67219000  0.32781000  1.0 0.1367306757
C  C203  1  0.92694000  0.66218000  0.33782000  1.0 -0.201980474
C  C204  1  0.89803000  0.69203000  0.30797000  1.0 -0.0730618904
C  C205  1  0.87759000  0.23719000  0.76281000  1.0 0.5980113961
C  C206  1  0.90913000  0.26821000  0.73179000  1.0 -0.0535712814
C  C207  1  0.94936000  0.25776000  0.74224000  1.0 -0.123723227
C  C208  1  0.97872000  0.28722000  0.71278000  1.0 -0.0237438579
C  C209  1  0.96611000  0.32781000  0.67219000  1.0 0.1367306757
C  C210  1  0.92694000  0.33782000  0.66218000  1.0 -0.201980474
C  C211  1  0.89803000  0.30797000  0.69203000  1.0 -0.0730618904
C  C212  1  0.76281000  0.12241000  0.87759000  1.0 0.5980113961
C  C213  1  0.73179000  0.09087000  0.90913000  1.0 -0.0535712814
C  C214  1  0.74224000  0.05064000  0.94936000  1.0 -0.123723227
C  C215  1  0.71278000  0.02128000  0.97872000  1.0 -0.0253158451
C  C216  1  0.67219000  0.03389000  0.96611000  1.0 0.1367306757
C  C217  1  0.66218000  0.07306000  0.92694000  1.0 -0.2051579975
C  C218  1  0.69203000  0.10197000  0.89803000  1.0 -0.0730618904
C  C219  1  0.12241000  0.76281000  0.23719000  1.0 0.5980113961
C  C220  1  0.09087000  0.73179000  0.26821000  1.0 -0.0535712814
C  C221  1  0.05064000  0.74224000  0.25776000  1.0 -0.123723227
C  C222  1  0.02128000  0.71278000  0.28722000  1.0 -0.0237438579
C  C223  1  0.03389000  0.67219000  0.32781000  1.0 0.1367306757
C  C224  1  0.07306000  0.66218000  0.33782000  1.0 -0.201980474
C  C225  1  0.10197000  0.69203000  0.30797000  1.0 -0.0730618904
C  C226  1  0.23719000  0.87759000  0.12241000  1.0 0.5980113961
C  C227  1  0.26821000  0.90913000  0.09087000  1.0 -0.0535712814
C  C228  1  0.25776000  0.94936000  0.05064000  1.0 -0.123723227
C  C229  1  0.28722000  0.97872000  0.02128000  1.0 -0.0237438579
C  C230  1  0.32781000  0.96611000  0.03389000  1.0 0.1367306757
C  C231  1  0.33782000  0.92694000  0.07306000  1.0 -0.201980474
C  C232  1  0.30797000  0.89803000  0.10197000  1.0 -0.0730618904
C  C233  1  0.12241000  0.23719000  0.87759000  1.0 0.5980113961
C  C234  1  0.09087000  0.26821000  0.90913000  1.0 -0.0535712814
C  C235  1  0.05064000  0.25776000  0.94936000  1.0 -0.123723227
C  C236  1  0.02128000  0.28722000  0.97872000  1.0 -0.0253158451
C  C237  1  0.03389000  0.32781000  0.96611000  1.0 0.1367306757
C  C238  1  0.07306000  0.33782000  0.92694000  1.0 -0.2051579975
C  C239  1  0.10197000  0.30797000  0.89803000  1.0 -0.0730618904
C  C240  1  0.23719000  0.12241000  0.76281000  1.0 0.5980113961
C  C241  1  0.26821000  0.09087000  0.73179000  1.0 -0.0535712814
C  C242  1  0.25776000  0.05064000  0.74224000  1.0 -0.123723227
C  C243  1  0.28722000  0.02128000  0.71278000  1.0 -0.0237438579
C  C244  1  0.32781000  0.03389000  0.67219000  1.0 0.1367306757
C  C245  1  0.33782000  0.07306000  0.66218000  1.0 -0.201980474
C  C246  1  0.30797000  0.10197000  0.69203000  1.0 -0.0730618904
C  C247  1  0.87759000  0.76281000  0.12241000  1.0 0.5980113961
C  C248  1  0.90913000  0.73179000  0.09087000  1.0 -0.0535712814
C  C249  1  0.94936000  0.74224000  0.05064000  1.0 -0.123723227
C  C250  1  0.97872000  0.71278000  0.02128000  1.0 -0.0237438579
C  C251  1  0.96611000  0.67219000  0.03389000  1.0 0.1367306757
C  C252  1  0.92694000  0.66218000  0.07306000  1.0 -0.201980474
C  C253  1  0.89803000  0.69203000  0.10197000  1.0 -0.0730618904
C  C254  1  0.76281000  0.87759000  0.23719000  1.0 0.5980113961
C  C255  1  0.73179000  0.90913000  0.26821000  1.0 -0.0535712814
C  C256  1  0.74224000  0.94936000  0.25776000  1.0 -0.123723227
C  C257  1  0.71278000  0.97872000  0.28722000  1.0 -0.0237438579
C  C258  1  0.67219000  0.96611000  0.32781000  1.0 0.1367306757
C  C259  1  0.66218000  0.92694000  0.33782000  1.0 -0.201980474
C  C260  1  0.69203000  0.89803000  0.30797000  1.0 -0.0730618904
C  C261  1  0.76281000  0.23719000  0.12241000  1.0 0.5980113961
C  C262  1  0.73179000  0.26821000  0.09087000  1.0 -0.0535712814
C  C263  1  0.74224000  0.25776000  0.05064000  1.0 -0.123723227
C  C264  1  0.71278000  0.28722000  0.02128000  1.0 -0.0237438579
C  C265  1  0.67219000  0.32781000  0.03389000  1.0 0.1367306757
C  C266  1  0.66218000  0.33782000  0.07306000  1.0 -0.201980474
C  C267  1  0.69203000  0.30797000  0.10197000  1.0 -0.0730618904
C  C268  1  0.87759000  0.12241000  0.23719000  1.0 0.5980113961
C  C269  1  0.90913000  0.09087000  0.26821000  1.0 -0.0535712814
C  C270  1  0.94936000  0.05064000  0.25776000  1.0 -0.123723227
C  C271  1  0.97872000  0.02128000  0.28722000  1.0 -0.0253158451
C  C272  1  0.96611000  0.03389000  0.32781000  1.0 0.1367306757
C  C273  1  0.92694000  0.07306000  0.33782000  1.0 -0.201980474
C  C274  1  0.89803000  0.10197000  0.30797000  1.0 -0.0730618904
C  C275  1  0.23719000  0.76281000  0.87759000  1.0 0.5980113961
C  C276  1  0.26821000  0.73179000  0.90913000  1.0 -0.0535712814
C  C277  1  0.25776000  0.74224000  0.94936000  1.0 -0.123723227
C  C278  1  0.28722000  0.71278000  0.97872000  1.0 -0.0253158451
C  C279  1  0.32781000  0.67219000  0.96611000  1.0 0.1367306757
C  C280  1  0.33782000  0.66218000  0.92694000  1.0 -0.2051579975
C  C281  1  0.30797000  0.69203000  0.89803000  1.0 -0.0730618904
C  C282  1  0.12241000  0.87759000  0.76281000  1.0 0.5980113961
C  C283  1  0.09087000  0.90913000  0.73179000  1.0 -0.0535712814
C  C284  1  0.05064000  0.94936000  0.74224000  1.0 -0.123723227
C  C285  1  0.02128000  0.97872000  0.71278000  1.0 -0.0237438579
C  C286  1  0.03389000  0.96611000  0.67219000  1.0 0.1367306757
C  C287  1  0.07306000  0.92694000  0.66218000  1.0 -0.201980474
C  C288  1  0.10197000  0.89803000  0.69203000  1.0 -0.0730618904
N  N1  1  0.00000000  0.00000000  0.35238000  1.0 -0.201980474
N  N2  1  0.35238000  0.64762000  0.00000000  1.0 -0.201980474
N  N3  1  0.00000000  0.00000000  0.64762000  1.0 -0.201980474
N  N4  1  0.64762000  0.35238000  0.00000000  1.0 -0.201980474
N  N5  1  0.00000000  0.35238000  0.00000000  1.0 -0.201980474
N  N6  1  0.64762000  0.00000000  0.35238000  1.0 -0.201980474
N  N7  1  0.00000000  0.64762000  0.00000000  1.0 -0.201980474
N  N8  1  0.35238000  0.00000000  0.64762000  1.0 -0.201980474
N  N9  1  0.35238000  0.00000000  0.00000000  1.0 -0.201980474
N  N10  1  0.00000000  0.35238000  0.64762000  1.0 -0.201980474
N  N11  1  0.64762000  0.00000000  0.00000000  1.0 -0.201980474
N  N12  1  0.00000000  0.64762000  0.35238000  1.0 -0.201980474
O  O1  1  0.11038000  0.88962000  0.20068000  1.0 -0.5845226375
O  O2  1  0.15783000  0.84217000  0.24829000  1.0 -0.5512593644
O  O3  1  0.20068000  0.79932000  0.11038000  1.0 -0.5845226375
O  O4  1  0.24829000  0.75171000  0.15783000  1.0 -0.5512593644
O  O5  1  0.88962000  0.11038000  0.79932000  1.0 -0.5845226375
O  O6  1  0.84217000  0.15783000  0.75171000  1.0 -0.5512593644
O  O7  1  0.79932000  0.20068000  0.88962000  1.0 -0.5845226375
O  O8  1  0.75171000  0.24829000  0.84217000  1.0 -0.5512593644
O  O9  1  0.88962000  0.20068000  0.11038000  1.0 -0.5845226375
O  O10  1  0.84217000  0.24829000  0.15783000  1.0 -0.5512593644
O  O11  1  0.79932000  0.11038000  0.20068000  1.0 -0.5845226375
O  O12  1  0.75171000  0.15783000  0.24829000  1.0 -0.5512593644
O  O13  1  0.11038000  0.79932000  0.88962000  1.0 -0.5845226375
O  O14  1  0.15783000  0.75171000  0.84217000  1.0 -0.5512593644
O  O15  1  0.20068000  0.88962000  0.79932000  1.0 -0.5845226375
O  O16  1  0.24829000  0.84217000  0.75171000  1.0 -0.5512593644
O  O17  1  0.20068000  0.11038000  0.88962000  1.0 -0.5845226375
O  O18  1  0.24829000  0.15783000  0.84217000  1.0 -0.5512593644
O  O19  1  0.11038000  0.20068000  0.79932000  1.0 -0.5845226375
O  O20  1  0.15783000  0.24829000  0.75171000  1.0 -0.5512593644
O  O21  1  0.79932000  0.88962000  0.11038000  1.0 -0.5845226375
O  O22  1  0.75171000  0.84217000  0.15783000  1.0 -0.5512593644
O  O23  1  0.88962000  0.79932000  0.20068000  1.0 -0.585803964
O  O24  1  0.84217000  0.75171000  0.24829000  1.0 -0.5512593644
O  O25  1  0.88962000  0.20068000  0.79932000  1.0 -0.5845226375
O  O26  1  0.84217000  0.24829000  0.75171000  1.0 -0.5512593644
O  O27  1  0.79932000  0.11038000  0.88962000  1.0 -0.5845226375
O  O28  1  0.75171000  0.15783000  0.84217000  1.0 -0.5512593644
O  O29  1  0.11038000  0.79932000  0.20068000  1.0 -0.585803964
O  O30  1  0.15783000  0.75171000  0.24829000  1.0 -0.5512593644
O  O31  1  0.20068000  0.88962000  0.11038000  1.0 -0.5845226375
O  O32  1  0.24829000  0.84217000  0.15783000  1.0 -0.5512593644
O  O33  1  0.11038000  0.20068000  0.88962000  1.0 -0.5845226375
O  O34  1  0.15783000  0.24829000  0.84217000  1.0 -0.5512593644
O  O35  1  0.20068000  0.11038000  0.79932000  1.0 -0.5845226375
O  O36  1  0.24829000  0.15783000  0.75171000  1.0 -0.5512593644
O  O37  1  0.88962000  0.79932000  0.11038000  1.0 -0.5845226375
O  O38  1  0.84217000  0.75171000  0.15783000  1.0 -0.5512593644
O  O39  1  0.79932000  0.88962000  0.20068000  1.0 -0.5845226375
O  O40  1  0.75171000  0.84217000  0.24829000  1.0 -0.5512593644
O  O41  1  0.79932000  0.20068000  0.11038000  1.0 -0.5845226375
O  O42  1  0.75171000  0.24829000  0.15783000  1.0 -0.5512593644
O  O43  1  0.88962000  0.11038000  0.20068000  1.0 -0.5845226375
O  O44  1  0.84217000  0.15783000  0.24829000  1.0 -0.5512593644
O  O45  1  0.20068000  0.79932000  0.88962000  1.0 -0.5845226375
O  O46  1  0.24829000  0.75171000  0.84217000  1.0 -0.5512593644
O  O47  1  0.11038000  0.88962000  0.79932000  1.0 -0.5845226375
O  O48  1  0.15783000  0.84217000  0.75171000  1.0 -0.5512593644
