# DDEC6 charges by PACMAN v1.1 (https://github.com/mtap-research/PACMAN-charge/)
data_XUJBIQ_ASR_pacman
_symmetry_space_group_name_H-M   'P 1'
_cell_length_a   33.15620000
_cell_length_b   33.15620000
_cell_length_c   33.15620000
_cell_angle_alpha   60.00000000
_cell_angle_beta   60.00000000
_cell_angle_gamma   60.00000000
_symmetry_Int_Tables_number   1
_chemical_formula_structural   FeH14C24NO4
_chemical_formula_sum   'Fe12 H168 C288 N12 O48'
_cell_volume   25773.84747706
_cell_formula_units_Z   12
loop_
 _symmetry_equiv_pos_site_id
 _symmetry_equiv_pos_as_xyz
  1  'x, y, z'
loop_
 _atom_site_type_symbol
 _atom_site_label
 _atom_site_symmetry_multiplicity
 _atom_site_fract_x
 _atom_site_fract_y
 _atom_site_fract_z
 _atom_site_occupancy
 _atom_site_charge
Fe  Fe1  1  0.14771000  0.85229000  0.14771000  1.0 0.9897754233
Fe  Fe2  1  0.20868000  0.79132000  0.20868000  1.0 0.9897754233
Fe  Fe3  1  0.85229000  0.14771000  0.85229000  1.0 0.9897754233
Fe  Fe4  1  0.79132000  0.20868000  0.79132000  1.0 0.9897754233
Fe  Fe5  1  0.85229000  0.14771000  0.14771000  1.0 0.9897754233
Fe  Fe6  1  0.79132000  0.20868000  0.20868000  1.0 0.9897754233
Fe  Fe7  1  0.14771000  0.85229000  0.85229000  1.0 0.9841581206
Fe  Fe8  1  0.20868000  0.79132000  0.79132000  1.0 0.9897754233
Fe  Fe9  1  0.14771000  0.14771000  0.85229000  1.0 0.9841581206
Fe  Fe10  1  0.20868000  0.20868000  0.79132000  1.0 0.9897754233
Fe  Fe11  1  0.85229000  0.85229000  0.14771000  1.0 0.9897754233
Fe  Fe12  1  0.79132000  0.79132000  0.20868000  1.0 0.9897754233
H  H1  1  0.00904000  0.06658000  0.36224000  1.0 0.1041021496
H  H2  1  0.01045000  0.06433000  0.43245000  1.0 0.0875049623
H  H3  1  0.36224000  0.56214000  0.00904000  1.0 0.1041021496
H  H4  1  0.43245000  0.49277000  0.01045000  1.0 0.0875049623
H  H5  1  0.06658000  0.00904000  0.56214000  1.0 0.1041021496
H  H6  1  0.06433000  0.01045000  0.49277000  1.0 0.0875049623
H  H7  1  0.56214000  0.36224000  0.06658000  1.0 0.1041021496
H  H8  1  0.49277000  0.43245000  0.06433000  1.0 0.0875049623
H  H9  1  0.06658000  0.36224000  0.00904000  1.0 0.1041021496
H  H10  1  0.06433000  0.43245000  0.01045000  1.0 0.0875049623
H  H11  1  0.56214000  0.00904000  0.36224000  1.0 0.1041021496
H  H12  1  0.49277000  0.01045000  0.43245000  1.0 0.0875049623
H  H13  1  0.00904000  0.56214000  0.06658000  1.0 0.1041021496
H  H14  1  0.01045000  0.49277000  0.06433000  1.0 0.0875049623
H  H15  1  0.36224000  0.06658000  0.56214000  1.0 0.1041021496
H  H16  1  0.43245000  0.06433000  0.49277000  1.0 0.0875049623
H  H17  1  0.36224000  0.00904000  0.06658000  1.0 0.1041021496
H  H18  1  0.43245000  0.01045000  0.06433000  1.0 0.0875049623
H  H19  1  0.00904000  0.36224000  0.56214000  1.0 0.1041021496
H  H20  1  0.01045000  0.43245000  0.49277000  1.0 0.0875049623
H  H21  1  0.56214000  0.06658000  0.00904000  1.0 0.1041021496
H  H22  1  0.49277000  0.06433000  0.01045000  1.0 0.0875049623
H  H23  1  0.06658000  0.56214000  0.36224000  1.0 0.1041021496
H  H24  1  0.06433000  0.49277000  0.43245000  1.0 0.0875049623
H  H25  1  0.99096000  0.43786000  0.63776000  1.0 0.1041021496
H  H26  1  0.98955000  0.50723000  0.56755000  1.0 0.0875049623
H  H27  1  0.63776000  0.93342000  0.99096000  1.0 0.1041021496
H  H28  1  0.56755000  0.93567000  0.98955000  1.0 0.0875049623
H  H29  1  0.93342000  0.63776000  0.43786000  1.0 0.1041021496
H  H30  1  0.93567000  0.56755000  0.50723000  1.0 0.0875049623
H  H31  1  0.43786000  0.99096000  0.93342000  1.0 0.1041021496
H  H32  1  0.50723000  0.98955000  0.93567000  1.0 0.0875049623
H  H33  1  0.93342000  0.43786000  0.99096000  1.0 0.1041021496
H  H34  1  0.93567000  0.50723000  0.98955000  1.0 0.0875049623
H  H35  1  0.43786000  0.93342000  0.63776000  1.0 0.1041021496
H  H36  1  0.50723000  0.93567000  0.56755000  1.0 0.0875049623
H  H37  1  0.99096000  0.63776000  0.93342000  1.0 0.1041021496
H  H38  1  0.98955000  0.56755000  0.93567000  1.0 0.0875049623
H  H39  1  0.63776000  0.99096000  0.43786000  1.0 0.1041021496
H  H40  1  0.56755000  0.98955000  0.50723000  1.0 0.0875049623
H  H41  1  0.63776000  0.43786000  0.93342000  1.0 0.1041021496
H  H42  1  0.56755000  0.50723000  0.93567000  1.0 0.0875049623
H  H43  1  0.99096000  0.93342000  0.43786000  1.0 0.1041021496
H  H44  1  0.98955000  0.93567000  0.50723000  1.0 0.0875049623
H  H45  1  0.43786000  0.63776000  0.99096000  1.0 0.1041021496
H  H46  1  0.50723000  0.56755000  0.98955000  1.0 0.0875049623
H  H47  1  0.93342000  0.99096000  0.63776000  1.0 0.1041021496
H  H48  1  0.93567000  0.98955000  0.56755000  1.0 0.0875049623
H  H49  1  0.99096000  0.93342000  0.63776000  1.0 0.1041021496
H  H50  1  0.98955000  0.93567000  0.56755000  1.0 0.0875049623
H  H51  1  0.63776000  0.43786000  0.99096000  1.0 0.1041021496
H  H52  1  0.56755000  0.50723000  0.98955000  1.0 0.0875049623
H  H53  1  0.93342000  0.99096000  0.43786000  1.0 0.1041021496
H  H54  1  0.93567000  0.98955000  0.50723000  1.0 0.0875049623
H  H55  1  0.43786000  0.63776000  0.93342000  1.0 0.1041021496
H  H56  1  0.50723000  0.56755000  0.93567000  1.0 0.0875049623
H  H57  1  0.93342000  0.63776000  0.99096000  1.0 0.1041021496
H  H58  1  0.93567000  0.56755000  0.98955000  1.0 0.0875049623
H  H59  1  0.43786000  0.99096000  0.63776000  1.0 0.1041021496
H  H60  1  0.50723000  0.98955000  0.56755000  1.0 0.0875049623
H  H61  1  0.99096000  0.43786000  0.93342000  1.0 0.1041021496
H  H62  1  0.98955000  0.50723000  0.93567000  1.0 0.0875049623
H  H63  1  0.63776000  0.93342000  0.43786000  1.0 0.1041021496
H  H64  1  0.56755000  0.93567000  0.50723000  1.0 0.0875049623
H  H65  1  0.63776000  0.99096000  0.93342000  1.0 0.1041021496
H  H66  1  0.56755000  0.98955000  0.93567000  1.0 0.0875049623
H  H67  1  0.99096000  0.63776000  0.43786000  1.0 0.1041021496
H  H68  1  0.98955000  0.56755000  0.50723000  1.0 0.0875049623
H  H69  1  0.43786000  0.93342000  0.99096000  1.0 0.1041021496
H  H70  1  0.50723000  0.93567000  0.98955000  1.0 0.0875049623
H  H71  1  0.93342000  0.43786000  0.63776000  1.0 0.1041021496
H  H72  1  0.93567000  0.50723000  0.56755000  1.0 0.0875049623
H  H73  1  0.00904000  0.56214000  0.36224000  1.0 0.1041021496
H  H74  1  0.01045000  0.49277000  0.43245000  1.0 0.0875049623
H  H75  1  0.36224000  0.06658000  0.00904000  1.0 0.1041021496
H  H76  1  0.43245000  0.06433000  0.01045000  1.0 0.0875049623
H  H77  1  0.06658000  0.36224000  0.56214000  1.0 0.1041021496
H  H78  1  0.06433000  0.43245000  0.49277000  1.0 0.0875049623
H  H79  1  0.56214000  0.00904000  0.06658000  1.0 0.1041021496
H  H80  1  0.49277000  0.01045000  0.06433000  1.0 0.0875049623
H  H81  1  0.06658000  0.56214000  0.00904000  1.0 0.1041021496
H  H82  1  0.06433000  0.49277000  0.01045000  1.0 0.0875049623
H  H83  1  0.56214000  0.06658000  0.36224000  1.0 0.1041021496
H  H84  1  0.49277000  0.06433000  0.43245000  1.0 0.0875049623
H  H85  1  0.00904000  0.36224000  0.06658000  1.0 0.1041021496
H  H86  1  0.01045000  0.43245000  0.06433000  1.0 0.0875049623
H  H87  1  0.36224000  0.00904000  0.56214000  1.0 0.1041021496
H  H88  1  0.43245000  0.01045000  0.49277000  1.0 0.0875049623
H  H89  1  0.36224000  0.56214000  0.06658000  1.0 0.1041021496
H  H90  1  0.43245000  0.49277000  0.06433000  1.0 0.0875049623
H  H91  1  0.00904000  0.06658000  0.56214000  1.0 0.1041021496
H  H92  1  0.01045000  0.06433000  0.49277000  1.0 0.0875049623
H  H93  1  0.56214000  0.36224000  0.00904000  1.0 0.1041021496
H  H94  1  0.49277000  0.43245000  0.01045000  1.0 0.0875049623
H  H95  1  0.06658000  0.00904000  0.36224000  1.0 0.1041021496
H  H96  1  0.06433000  0.01045000  0.43245000  1.0 0.0875049623
H  H97  1  0.04343000  0.95657000  0.22755000  1.0 0.1426614698
H  H98  1  0.08233000  0.91767000  0.36275000  1.0 0.1341815909
H  H99  1  0.12859000  0.87141000  0.31283000  1.0 0.1232363208
H  H100  1  0.22755000  0.77245000  0.04343000  1.0 0.1426614698
H  H101  1  0.36275000  0.63725000  0.08233000  1.0 0.1341815909
H  H102  1  0.31283000  0.68717000  0.12859000  1.0 0.1232363208
H  H103  1  0.95657000  0.04343000  0.77245000  1.0 0.1426614698
H  H104  1  0.91767000  0.08233000  0.63725000  1.0 0.1341815909
H  H105  1  0.87141000  0.12859000  0.68717000  1.0 0.1232363208
H  H106  1  0.77245000  0.22755000  0.95657000  1.0 0.1426614698
H  H107  1  0.63725000  0.36275000  0.91767000  1.0 0.1341815909
H  H108  1  0.68717000  0.31283000  0.87141000  1.0 0.1232363208
H  H109  1  0.95657000  0.22755000  0.04343000  1.0 0.1426614698
H  H110  1  0.91767000  0.36275000  0.08233000  1.0 0.1341815909
H  H111  1  0.87141000  0.31283000  0.12859000  1.0 0.1232363208
H  H112  1  0.77245000  0.04343000  0.22755000  1.0 0.1426614698
H  H113  1  0.63725000  0.08233000  0.36275000  1.0 0.1341815909
H  H114  1  0.68717000  0.12859000  0.31283000  1.0 0.1232363208
H  H115  1  0.04343000  0.77245000  0.95657000  1.0 0.1426614698
H  H116  1  0.08233000  0.63725000  0.91767000  1.0 0.1341815909
H  H117  1  0.12859000  0.68717000  0.87141000  1.0 0.1232363208
H  H118  1  0.22755000  0.95657000  0.77245000  1.0 0.1426614698
H  H119  1  0.36275000  0.91767000  0.63725000  1.0 0.1341815909
H  H120  1  0.31283000  0.87141000  0.68717000  1.0 0.1232363208
H  H121  1  0.22755000  0.04343000  0.95657000  1.0 0.1426614698
H  H122  1  0.36275000  0.08233000  0.91767000  1.0 0.1341815909
H  H123  1  0.31283000  0.12859000  0.87141000  1.0 0.1232363208
H  H124  1  0.04343000  0.22755000  0.77245000  1.0 0.1426614698
H  H125  1  0.08233000  0.36275000  0.63725000  1.0 0.1341815909
H  H126  1  0.12859000  0.31283000  0.68717000  1.0 0.1232363208
H  H127  1  0.77245000  0.95657000  0.04343000  1.0 0.1426614698
H  H128  1  0.63725000  0.91767000  0.08233000  1.0 0.1341815909
H  H129  1  0.68717000  0.87141000  0.12859000  1.0 0.1232363208
H  H130  1  0.95657000  0.77245000  0.22755000  1.0 0.1426614698
H  H131  1  0.91767000  0.63725000  0.36275000  1.0 0.1341815909
H  H132  1  0.87141000  0.68717000  0.31283000  1.0 0.1232363208
H  H133  1  0.95657000  0.22755000  0.77245000  1.0 0.1426614698
H  H134  1  0.91767000  0.36275000  0.63725000  1.0 0.1341815909
H  H135  1  0.87141000  0.31283000  0.68717000  1.0 0.1232363208
H  H136  1  0.77245000  0.04343000  0.95657000  1.0 0.1426614698
H  H137  1  0.63725000  0.08233000  0.91767000  1.0 0.1341815909
H  H138  1  0.68717000  0.12859000  0.87141000  1.0 0.1232363208
H  H139  1  0.04343000  0.77245000  0.22755000  1.0 0.1426614698
H  H140  1  0.08233000  0.63725000  0.36275000  1.0 0.1341815909
H  H141  1  0.12859000  0.68717000  0.31283000  1.0 0.1232363208
H  H142  1  0.22755000  0.95657000  0.04343000  1.0 0.1426614698
H  H143  1  0.36275000  0.91767000  0.08233000  1.0 0.1341815909
H  H144  1  0.31283000  0.87141000  0.12859000  1.0 0.1232363208
H  H145  1  0.04343000  0.22755000  0.95657000  1.0 0.1426614698
H  H146  1  0.08233000  0.36275000  0.91767000  1.0 0.1341815909
H  H147  1  0.12859000  0.31283000  0.87141000  1.0 0.1232363208
H  H148  1  0.22755000  0.04343000  0.77245000  1.0 0.1426614698
H  H149  1  0.36275000  0.08233000  0.63725000  1.0 0.1341815909
H  H150  1  0.31283000  0.12859000  0.68717000  1.0 0.1232363208
H  H151  1  0.95657000  0.77245000  0.04343000  1.0 0.1426614698
H  H152  1  0.91767000  0.63725000  0.08233000  1.0 0.1341815909
H  H153  1  0.87141000  0.68717000  0.12859000  1.0 0.1232363208
H  H154  1  0.77245000  0.95657000  0.22755000  1.0 0.1426614698
H  H155  1  0.63725000  0.91767000  0.36275000  1.0 0.1341815909
H  H156  1  0.68717000  0.87141000  0.31283000  1.0 0.1232363208
H  H157  1  0.77245000  0.22755000  0.04343000  1.0 0.1426614698
H  H158  1  0.63725000  0.36275000  0.08233000  1.0 0.1341815909
H  H159  1  0.68717000  0.31283000  0.12859000  1.0 0.1232363208
H  H160  1  0.95657000  0.04343000  0.22755000  1.0 0.1426614698
H  H161  1  0.91767000  0.08233000  0.36275000  1.0 0.1341815909
H  H162  1  0.87141000  0.12859000  0.31283000  1.0 0.1232363208
H  H163  1  0.22755000  0.77245000  0.95657000  1.0 0.1426614698
H  H164  1  0.36275000  0.63725000  0.91767000  1.0 0.1341815909
H  H165  1  0.31283000  0.68717000  0.87141000  1.0 0.1232363208
H  H166  1  0.04343000  0.95657000  0.77245000  1.0 0.1426614698
H  H167  1  0.08233000  0.91767000  0.63725000  1.0 0.1341815909
H  H168  1  0.12859000  0.87141000  0.68717000  1.0 0.1232363208
C  C1  1  0.00563000  0.03977000  0.39121000  1.0 -0.0933732345
C  C2  1  0.00596000  0.03804000  0.43398000  1.0 -0.0713770846
C  C3  1  0.39121000  0.56339000  0.00563000  1.0 -0.0933732345
C  C4  1  0.43398000  0.52202000  0.00596000  1.0 -0.0713770846
C  C5  1  0.03977000  0.00563000  0.56339000  1.0 -0.0933732345
C  C6  1  0.03804000  0.00596000  0.52202000  1.0 -0.0713770846
C  C7  1  0.56339000  0.39121000  0.03977000  1.0 -0.0933732345
C  C8  1  0.52202000  0.43398000  0.03804000  1.0 -0.0713770846
C  C9  1  0.03977000  0.39121000  0.00563000  1.0 -0.0933732345
C  C10  1  0.03804000  0.43398000  0.00596000  1.0 -0.0713770846
C  C11  1  0.56339000  0.00563000  0.39121000  1.0 -0.0933732345
C  C12  1  0.52202000  0.00596000  0.43398000  1.0 -0.0713770846
C  C13  1  0.00563000  0.56339000  0.03977000  1.0 -0.0933732345
C  C14  1  0.00596000  0.52202000  0.03804000  1.0 -0.0713770846
C  C15  1  0.39121000  0.03977000  0.56339000  1.0 -0.0933732345
C  C16  1  0.43398000  0.03804000  0.52202000  1.0 -0.0713770846
C  C17  1  0.39121000  0.00563000  0.03977000  1.0 -0.0933732345
C  C18  1  0.43398000  0.00596000  0.03804000  1.0 -0.0713770846
C  C19  1  0.00563000  0.39121000  0.56339000  1.0 -0.0933732345
C  C20  1  0.00596000  0.43398000  0.52202000  1.0 -0.0713770846
C  C21  1  0.56339000  0.03977000  0.00563000  1.0 -0.0933732345
C  C22  1  0.52202000  0.03804000  0.00596000  1.0 -0.0713770846
C  C23  1  0.03977000  0.56339000  0.39121000  1.0 -0.0933732345
C  C24  1  0.03804000  0.52202000  0.43398000  1.0 -0.0713770846
C  C25  1  0.99437000  0.43661000  0.60879000  1.0 -0.0933732345
C  C26  1  0.99404000  0.47798000  0.56602000  1.0 -0.0713770846
C  C27  1  0.60879000  0.96023000  0.99437000  1.0 -0.0933732345
C  C28  1  0.56602000  0.96196000  0.99404000  1.0 -0.0713770846
C  C29  1  0.96023000  0.60879000  0.43661000  1.0 -0.0933732345
C  C30  1  0.96196000  0.56602000  0.47798000  1.0 -0.0713770846
C  C31  1  0.43661000  0.99437000  0.96023000  1.0 -0.0933732345
C  C32  1  0.47798000  0.99404000  0.96196000  1.0 -0.0713770846
C  C33  1  0.96023000  0.43661000  0.99437000  1.0 -0.0933732345
C  C34  1  0.96196000  0.47798000  0.99404000  1.0 -0.0713770846
C  C35  1  0.43661000  0.96023000  0.60879000  1.0 -0.0933732345
C  C36  1  0.47798000  0.96196000  0.56602000  1.0 -0.0713770846
C  C37  1  0.99437000  0.60879000  0.96023000  1.0 -0.0933732345
C  C38  1  0.99404000  0.56602000  0.96196000  1.0 -0.0713770846
C  C39  1  0.60879000  0.99437000  0.43661000  1.0 -0.0933732345
C  C40  1  0.56602000  0.99404000  0.47798000  1.0 -0.0713770846
C  C41  1  0.60879000  0.43661000  0.96023000  1.0 -0.0933732345
C  C42  1  0.56602000  0.47798000  0.96196000  1.0 -0.0713770846
C  C43  1  0.99437000  0.96023000  0.43661000  1.0 -0.0933732345
C  C44  1  0.99404000  0.96196000  0.47798000  1.0 -0.0713770846
C  C45  1  0.43661000  0.60879000  0.99437000  1.0 -0.0933732345
C  C46  1  0.47798000  0.56602000  0.99404000  1.0 -0.0713770846
C  C47  1  0.96023000  0.99437000  0.60879000  1.0 -0.0933732345
C  C48  1  0.96196000  0.99404000  0.56602000  1.0 -0.0713770846
C  C49  1  0.99437000  0.96023000  0.60879000  1.0 -0.0933732345
C  C50  1  0.99404000  0.96196000  0.56602000  1.0 -0.0713770846
C  C51  1  0.60879000  0.43661000  0.99437000  1.0 -0.0933732345
C  C52  1  0.56602000  0.47798000  0.99404000  1.0 -0.0713770846
C  C53  1  0.96023000  0.99437000  0.43661000  1.0 -0.0933732345
C  C54  1  0.96196000  0.99404000  0.47798000  1.0 -0.0713770846
C  C55  1  0.43661000  0.60879000  0.96023000  1.0 -0.0933732345
C  C56  1  0.47798000  0.56602000  0.96196000  1.0 -0.0713770846
C  C57  1  0.96023000  0.60879000  0.99437000  1.0 -0.0933732345
C  C58  1  0.96196000  0.56602000  0.99404000  1.0 -0.0713770846
C  C59  1  0.43661000  0.99437000  0.60879000  1.0 -0.0933732345
C  C60  1  0.47798000  0.99404000  0.56602000  1.0 -0.0713770846
C  C61  1  0.99437000  0.43661000  0.96023000  1.0 -0.0933732345
C  C62  1  0.99404000  0.47798000  0.96196000  1.0 -0.0713770846
C  C63  1  0.60879000  0.96023000  0.43661000  1.0 -0.0933732345
C  C64  1  0.56602000  0.96196000  0.47798000  1.0 -0.0713770846
C  C65  1  0.60879000  0.99437000  0.96023000  1.0 -0.0933732345
C  C66  1  0.56602000  0.99404000  0.96196000  1.0 -0.0713770846
C  C67  1  0.99437000  0.60879000  0.43661000  1.0 -0.0933732345
C  C68  1  0.99404000  0.56602000  0.47798000  1.0 -0.0713770846
C  C69  1  0.43661000  0.96023000  0.99437000  1.0 -0.0933732345
C  C70  1  0.47798000  0.96196000  0.99404000  1.0 -0.0713770846
C  C71  1  0.96023000  0.43661000  0.60879000  1.0 -0.0933732345
C  C72  1  0.96196000  0.47798000  0.56602000  1.0 -0.0713770846
C  C73  1  0.00563000  0.56339000  0.39121000  1.0 -0.0933732345
C  C74  1  0.00596000  0.52202000  0.43398000  1.0 -0.0713770846
C  C75  1  0.39121000  0.03977000  0.00563000  1.0 -0.0933732345
C  C76  1  0.43398000  0.03804000  0.00596000  1.0 -0.0713770846
C  C77  1  0.03977000  0.39121000  0.56339000  1.0 -0.0933732345
C  C78  1  0.03804000  0.43398000  0.52202000  1.0 -0.0713770846
C  C79  1  0.56339000  0.00563000  0.03977000  1.0 -0.0933732345
C  C80  1  0.52202000  0.00596000  0.03804000  1.0 -0.0713770846
C  C81  1  0.03977000  0.56339000  0.00563000  1.0 -0.0933732345
C  C82  1  0.03804000  0.52202000  0.00596000  1.0 -0.0713770846
C  C83  1  0.56339000  0.03977000  0.39121000  1.0 -0.0933732345
C  C84  1  0.52202000  0.03804000  0.43398000  1.0 -0.0713770846
C  C85  1  0.00563000  0.39121000  0.03977000  1.0 -0.0933732345
C  C86  1  0.00596000  0.43398000  0.03804000  1.0 -0.0713770846
C  C87  1  0.39121000  0.00563000  0.56339000  1.0 -0.0933732345
C  C88  1  0.43398000  0.00596000  0.52202000  1.0 -0.0713770846
C  C89  1  0.39121000  0.56339000  0.03977000  1.0 -0.0933732345
C  C90  1  0.43398000  0.52202000  0.03804000  1.0 -0.0713770846
C  C91  1  0.00563000  0.03977000  0.56339000  1.0 -0.0933732345
C  C92  1  0.00596000  0.03804000  0.52202000  1.0 -0.0713770846
C  C93  1  0.56339000  0.39121000  0.00563000  1.0 -0.0933732345
C  C94  1  0.52202000  0.43398000  0.00596000  1.0 -0.0713770846
C  C95  1  0.03977000  0.00563000  0.39121000  1.0 -0.0933732345
C  C96  1  0.03804000  0.00596000  0.43398000  1.0 -0.0713770846
C  C97  1  0.00000000  0.00000000  0.39382000  1.0 0.0686497237
C  C98  1  0.00000000  0.00000000  0.47834000  1.0 -0.0397963311
C  C99  1  0.39382000  0.60618000  0.00000000  1.0 0.0686497237
C  C100  1  0.47834000  0.52166000  0.00000000  1.0 -0.0397963311
C  C101  1  0.00000000  0.00000000  0.60618000  1.0 0.0686497237
C  C102  1  0.00000000  0.00000000  0.52166000  1.0 -0.0397963311
C  C103  1  0.60618000  0.39382000  0.00000000  1.0 0.0686497237
C  C104  1  0.52166000  0.47834000  0.00000000  1.0 -0.0397963311
C  C105  1  0.00000000  0.39382000  0.00000000  1.0 0.0686497237
C  C106  1  0.00000000  0.47834000  0.00000000  1.0 -0.0397963311
C  C107  1  0.60618000  0.00000000  0.39382000  1.0 0.0686497237
C  C108  1  0.52166000  0.00000000  0.47834000  1.0 -0.0397963311
C  C109  1  0.00000000  0.60618000  0.00000000  1.0 0.0686497237
C  C110  1  0.00000000  0.52166000  0.00000000  1.0 -0.0397963311
C  C111  1  0.39382000  0.00000000  0.60618000  1.0 0.0686497237
C  C112  1  0.47834000  0.00000000  0.52166000  1.0 -0.0397963311
C  C113  1  0.39382000  0.00000000  0.00000000  1.0 0.0686497237
C  C114  1  0.47834000  0.00000000  0.00000000  1.0 -0.0397963311
C  C115  1  0.00000000  0.39382000  0.60618000  1.0 0.0686497237
C  C116  1  0.00000000  0.47834000  0.52166000  1.0 -0.0397963311
C  C117  1  0.60618000  0.00000000  0.00000000  1.0 0.0686497237
C  C118  1  0.52166000  0.00000000  0.00000000  1.0 -0.0397963311
C  C119  1  0.00000000  0.60618000  0.39382000  1.0 0.0686497237
C  C120  1  0.00000000  0.52166000  0.47834000  1.0 -0.0397963311
C  C121  1  0.12300000  0.87700000  0.23328000  1.0 0.5858257121
C  C122  1  0.09134000  0.90866000  0.26520000  1.0 -0.0474530581
C  C123  1  0.05092000  0.94908000  0.25458000  1.0 -0.1394221272
C  C124  1  0.02141000  0.97859000  0.28487000  1.0 -0.025714556
C  C125  1  0.03492000  0.96508000  0.32576000  1.0 0.1232363208
C  C126  1  0.07426000  0.92574000  0.33588000  1.0 -0.1867369998
C  C127  1  0.10139000  0.89861000  0.30597000  1.0 -0.0802635036
C  C128  1  0.23328000  0.76672000  0.12300000  1.0 0.5858257121
C  C129  1  0.26520000  0.73480000  0.09134000  1.0 -0.0474530581
C  C130  1  0.25458000  0.74542000  0.05092000  1.0 -0.1394221272
C  C131  1  0.28487000  0.71513000  0.02141000  1.0 -0.025714556
C  C132  1  0.32576000  0.67424000  0.03492000  1.0 0.1232363208
C  C133  1  0.33588000  0.66412000  0.07426000  1.0 -0.1867369998
C  C134  1  0.30597000  0.69403000  0.10139000  1.0 -0.0802635036
C  C135  1  0.87700000  0.12300000  0.76672000  1.0 0.5858257121
C  C136  1  0.90866000  0.09134000  0.73480000  1.0 -0.0474530581
C  C137  1  0.94908000  0.05092000  0.74542000  1.0 -0.1394221272
C  C138  1  0.97859000  0.02141000  0.71513000  1.0 -0.025714556
C  C139  1  0.96508000  0.03492000  0.67424000  1.0 0.1232363208
C  C140  1  0.92574000  0.07426000  0.66412000  1.0 -0.1867369998
C  C141  1  0.89861000  0.10139000  0.69403000  1.0 -0.0802635036
C  C142  1  0.76672000  0.23328000  0.87700000  1.0 0.5858257121
C  C143  1  0.73480000  0.26520000  0.90866000  1.0 -0.0474530581
C  C144  1  0.74542000  0.25458000  0.94908000  1.0 -0.1394221272
C  C145  1  0.71513000  0.28487000  0.97859000  1.0 -0.025714556
C  C146  1  0.67424000  0.32576000  0.96508000  1.0 0.1232363208
C  C147  1  0.66412000  0.33588000  0.92574000  1.0 -0.1867369998
C  C148  1  0.69403000  0.30597000  0.89861000  1.0 -0.0802635036
C  C149  1  0.87700000  0.23328000  0.12300000  1.0 0.5858257121
C  C150  1  0.90866000  0.26520000  0.09134000  1.0 -0.0474530581
C  C151  1  0.94908000  0.25458000  0.05092000  1.0 -0.1394221272
C  C152  1  0.97859000  0.28487000  0.02141000  1.0 -0.025714556
C  C153  1  0.96508000  0.32576000  0.03492000  1.0 0.1232363208
C  C154  1  0.92574000  0.33588000  0.07426000  1.0 -0.1867369998
C  C155  1  0.89861000  0.30597000  0.10139000  1.0 -0.0802635036
C  C156  1  0.76672000  0.12300000  0.23328000  1.0 0.5858257121
C  C157  1  0.73480000  0.09134000  0.26520000  1.0 -0.0474530581
C  C158  1  0.74542000  0.05092000  0.25458000  1.0 -0.1394221272
C  C159  1  0.71513000  0.02141000  0.28487000  1.0 -0.025714556
C  C160  1  0.67424000  0.03492000  0.32576000  1.0 0.1232363208
C  C161  1  0.66412000  0.07426000  0.33588000  1.0 -0.1867369998
C  C162  1  0.69403000  0.10139000  0.30597000  1.0 -0.0802635036
C  C163  1  0.12300000  0.76672000  0.87700000  1.0 0.5845604162
C  C164  1  0.09134000  0.73480000  0.90866000  1.0 -0.0474530581
C  C165  1  0.05092000  0.74542000  0.94908000  1.0 -0.1394221272
C  C166  1  0.02141000  0.71513000  0.97859000  1.0 -0.025714556
C  C167  1  0.03492000  0.67424000  0.96508000  1.0 0.1232363208
C  C168  1  0.07426000  0.66412000  0.92574000  1.0 -0.1867369998
C  C169  1  0.10139000  0.69403000  0.89861000  1.0 -0.0802635036
C  C170  1  0.23328000  0.87700000  0.76672000  1.0 0.5845604162
C  C171  1  0.26520000  0.90866000  0.73480000  1.0 -0.0474530581
C  C172  1  0.25458000  0.94908000  0.74542000  1.0 -0.1394221272
C  C173  1  0.28487000  0.97859000  0.71513000  1.0 -0.025714556
C  C174  1  0.32576000  0.96508000  0.67424000  1.0 0.1232363208
C  C175  1  0.33588000  0.92574000  0.66412000  1.0 -0.1867369998
C  C176  1  0.30597000  0.89861000  0.69403000  1.0 -0.0802635036
C  C177  1  0.23328000  0.12300000  0.87700000  1.0 0.5858257121
C  C178  1  0.26520000  0.09134000  0.90866000  1.0 -0.0474530581
C  C179  1  0.25458000  0.05092000  0.94908000  1.0 -0.1394221272
C  C180  1  0.28487000  0.02141000  0.97859000  1.0 -0.025714556
C  C181  1  0.32576000  0.03492000  0.96508000  1.0 0.1232363208
C  C182  1  0.33588000  0.07426000  0.92574000  1.0 -0.1867369998
C  C183  1  0.30597000  0.10139000  0.89861000  1.0 -0.0802635036
C  C184  1  0.12300000  0.23328000  0.76672000  1.0 0.5858257121
C  C185  1  0.09134000  0.26520000  0.73480000  1.0 -0.0474530581
C  C186  1  0.05092000  0.25458000  0.74542000  1.0 -0.1394221272
C  C187  1  0.02141000  0.28487000  0.71513000  1.0 -0.025714556
C  C188  1  0.03492000  0.32576000  0.67424000  1.0 0.1232363208
C  C189  1  0.07426000  0.33588000  0.66412000  1.0 -0.1867369998
C  C190  1  0.10139000  0.30597000  0.69403000  1.0 -0.0802635036
C  C191  1  0.76672000  0.87700000  0.12300000  1.0 0.5858257121
C  C192  1  0.73480000  0.90866000  0.09134000  1.0 -0.0474530581
C  C193  1  0.74542000  0.94908000  0.05092000  1.0 -0.1394221272
C  C194  1  0.71513000  0.97859000  0.02141000  1.0 -0.025714556
C  C195  1  0.67424000  0.96508000  0.03492000  1.0 0.1232363208
C  C196  1  0.66412000  0.92574000  0.07426000  1.0 -0.1867369998
C  C197  1  0.69403000  0.89861000  0.10139000  1.0 -0.0802635036
C  C198  1  0.87700000  0.76672000  0.23328000  1.0 0.5858257121
C  C199  1  0.90866000  0.73480000  0.26520000  1.0 -0.0474530581
C  C200  1  0.94908000  0.74542000  0.25458000  1.0 -0.1394221272
C  C201  1  0.97859000  0.71513000  0.28487000  1.0 -0.025714556
C  C202  1  0.96508000  0.67424000  0.32576000  1.0 0.1232363208
C  C203  1  0.92574000  0.66412000  0.33588000  1.0 -0.1867369998
C  C204  1  0.89861000  0.69403000  0.30597000  1.0 -0.0802635036
C  C205  1  0.87700000  0.23328000  0.76672000  1.0 0.5858257121
C  C206  1  0.90866000  0.26520000  0.73480000  1.0 -0.0474530581
C  C207  1  0.94908000  0.25458000  0.74542000  1.0 -0.1394221272
C  C208  1  0.97859000  0.28487000  0.71513000  1.0 -0.025714556
C  C209  1  0.96508000  0.32576000  0.67424000  1.0 0.1232363208
C  C210  1  0.92574000  0.33588000  0.66412000  1.0 -0.1867369998
C  C211  1  0.89861000  0.30597000  0.69403000  1.0 -0.0802635036
C  C212  1  0.76672000  0.12300000  0.87700000  1.0 0.5858257121
C  C213  1  0.73480000  0.09134000  0.90866000  1.0 -0.0474530581
C  C214  1  0.74542000  0.05092000  0.94908000  1.0 -0.1394221272
C  C215  1  0.71513000  0.02141000  0.97859000  1.0 -0.025714556
C  C216  1  0.67424000  0.03492000  0.96508000  1.0 0.1232363208
C  C217  1  0.66412000  0.07426000  0.92574000  1.0 -0.1867369998
C  C218  1  0.69403000  0.10139000  0.89861000  1.0 -0.0802635036
C  C219  1  0.12300000  0.76672000  0.23328000  1.0 0.5858257121
C  C220  1  0.09134000  0.73480000  0.26520000  1.0 -0.0474530581
C  C221  1  0.05092000  0.74542000  0.25458000  1.0 -0.1394221272
C  C222  1  0.02141000  0.71513000  0.28487000  1.0 -0.025714556
C  C223  1  0.03492000  0.67424000  0.32576000  1.0 0.1232363208
C  C224  1  0.07426000  0.66412000  0.33588000  1.0 -0.1867369998
C  C225  1  0.10139000  0.69403000  0.30597000  1.0 -0.0802635036
C  C226  1  0.23328000  0.87700000  0.12300000  1.0 0.5858257121
C  C227  1  0.26520000  0.90866000  0.09134000  1.0 -0.0474530581
C  C228  1  0.25458000  0.94908000  0.05092000  1.0 -0.1394221272
C  C229  1  0.28487000  0.97859000  0.02141000  1.0 -0.025714556
C  C230  1  0.32576000  0.96508000  0.03492000  1.0 0.1232363208
C  C231  1  0.33588000  0.92574000  0.07426000  1.0 -0.1867369998
C  C232  1  0.30597000  0.89861000  0.10139000  1.0 -0.0802635036
C  C233  1  0.12300000  0.23328000  0.87700000  1.0 0.5845604162
C  C234  1  0.09134000  0.26520000  0.90866000  1.0 -0.0474530581
C  C235  1  0.05092000  0.25458000  0.94908000  1.0 -0.1394221272
C  C236  1  0.02141000  0.28487000  0.97859000  1.0 -0.025714556
C  C237  1  0.03492000  0.32576000  0.96508000  1.0 0.1232363208
C  C238  1  0.07426000  0.33588000  0.92574000  1.0 -0.1867369998
C  C239  1  0.10139000  0.30597000  0.89861000  1.0 -0.0802635036
C  C240  1  0.23328000  0.12300000  0.76672000  1.0 0.5858257121
C  C241  1  0.26520000  0.09134000  0.73480000  1.0 -0.0474530581
C  C242  1  0.25458000  0.05092000  0.74542000  1.0 -0.1394221272
C  C243  1  0.28487000  0.02141000  0.71513000  1.0 -0.025714556
C  C244  1  0.32576000  0.03492000  0.67424000  1.0 0.1232363208
C  C245  1  0.33588000  0.07426000  0.66412000  1.0 -0.1867369998
C  C246  1  0.30597000  0.10139000  0.69403000  1.0 -0.0802635036
C  C247  1  0.87700000  0.76672000  0.12300000  1.0 0.5858257121
C  C248  1  0.90866000  0.73480000  0.09134000  1.0 -0.0474530581
C  C249  1  0.94908000  0.74542000  0.05092000  1.0 -0.1394221272
C  C250  1  0.97859000  0.71513000  0.02141000  1.0 -0.025714556
C  C251  1  0.96508000  0.67424000  0.03492000  1.0 0.1232363208
C  C252  1  0.92574000  0.66412000  0.07426000  1.0 -0.1839015563
C  C253  1  0.89861000  0.69403000  0.10139000  1.0 -0.0802635036
C  C254  1  0.76672000  0.87700000  0.23328000  1.0 0.5858257121
C  C255  1  0.73480000  0.90866000  0.26520000  1.0 -0.0474530581
C  C256  1  0.74542000  0.94908000  0.25458000  1.0 -0.1394221272
C  C257  1  0.71513000  0.97859000  0.28487000  1.0 -0.025714556
C  C258  1  0.67424000  0.96508000  0.32576000  1.0 0.1232363208
C  C259  1  0.66412000  0.92574000  0.33588000  1.0 -0.1867369998
C  C260  1  0.69403000  0.89861000  0.30597000  1.0 -0.0802635036
C  C261  1  0.76672000  0.23328000  0.12300000  1.0 0.5858257121
C  C262  1  0.73480000  0.26520000  0.09134000  1.0 -0.0474530581
C  C263  1  0.74542000  0.25458000  0.05092000  1.0 -0.1394221272
C  C264  1  0.71513000  0.28487000  0.02141000  1.0 -0.025714556
C  C265  1  0.67424000  0.32576000  0.03492000  1.0 0.1232363208
C  C266  1  0.66412000  0.33588000  0.07426000  1.0 -0.1867369998
C  C267  1  0.69403000  0.30597000  0.10139000  1.0 -0.0802635036
C  C268  1  0.87700000  0.12300000  0.23328000  1.0 0.5858257121
C  C269  1  0.90866000  0.09134000  0.26520000  1.0 -0.0474530581
C  C270  1  0.94908000  0.05092000  0.25458000  1.0 -0.1394221272
C  C271  1  0.97859000  0.02141000  0.28487000  1.0 -0.025714556
C  C272  1  0.96508000  0.03492000  0.32576000  1.0 0.1232363208
C  C273  1  0.92574000  0.07426000  0.33588000  1.0 -0.1867369998
C  C274  1  0.89861000  0.10139000  0.30597000  1.0 -0.0802635036
C  C275  1  0.23328000  0.76672000  0.87700000  1.0 0.5858257121
C  C276  1  0.26520000  0.73480000  0.90866000  1.0 -0.0474530581
C  C277  1  0.25458000  0.74542000  0.94908000  1.0 -0.1394221272
C  C278  1  0.28487000  0.71513000  0.97859000  1.0 -0.025714556
C  C279  1  0.32576000  0.67424000  0.96508000  1.0 0.1232363208
C  C280  1  0.33588000  0.66412000  0.92574000  1.0 -0.1867369998
C  C281  1  0.30597000  0.69403000  0.89861000  1.0 -0.0802635036
C  C282  1  0.12300000  0.87700000  0.76672000  1.0 0.5858257121
C  C283  1  0.09134000  0.90866000  0.73480000  1.0 -0.0474530581
C  C284  1  0.05092000  0.94908000  0.74542000  1.0 -0.1394221272
C  C285  1  0.02141000  0.97859000  0.71513000  1.0 -0.025714556
C  C286  1  0.03492000  0.96508000  0.67424000  1.0 0.1232363208
C  C287  1  0.07426000  0.92574000  0.66412000  1.0 -0.1867369998
C  C288  1  0.10139000  0.89861000  0.69403000  1.0 -0.0802635036
N  N1  1  0.00000000  0.00000000  0.35022000  1.0 -0.2027331496
N  N2  1  0.35022000  0.64978000  0.00000000  1.0 -0.2027331496
N  N3  1  0.00000000  0.00000000  0.64978000  1.0 -0.2027331496
N  N4  1  0.64978000  0.35022000  0.00000000  1.0 -0.2027331496
N  N5  1  0.00000000  0.35022000  0.00000000  1.0 -0.2027331496
N  N6  1  0.64978000  0.00000000  0.35022000  1.0 -0.2027331496
N  N7  1  0.00000000  0.64978000  0.00000000  1.0 -0.2027331496
N  N8  1  0.35022000  0.00000000  0.64978000  1.0 -0.2027331496
N  N9  1  0.35022000  0.00000000  0.00000000  1.0 -0.2027331496
N  N10  1  0.00000000  0.35022000  0.64978000  1.0 -0.2027331496
N  N11  1  0.64978000  0.00000000  0.00000000  1.0 -0.2027331496
N  N12  1  0.00000000  0.64978000  0.35022000  1.0 -0.2027331496
O  O1  1  0.11153000  0.88847000  0.19655000  1.0 -0.5546582292
O  O2  1  0.15883000  0.84117000  0.24399000  1.0 -0.5341329256
O  O3  1  0.19655000  0.80345000  0.11153000  1.0 -0.5546582292
O  O4  1  0.24399000  0.75601000  0.15883000  1.0 -0.5341329256
O  O5  1  0.88847000  0.11153000  0.80345000  1.0 -0.5568641205
O  O6  1  0.84117000  0.15883000  0.75601000  1.0 -0.5361212968
O  O7  1  0.80345000  0.19655000  0.88847000  1.0 -0.5546582292
O  O8  1  0.75601000  0.24399000  0.84117000  1.0 -0.5361212968
O  O9  1  0.88847000  0.19655000  0.11153000  1.0 -0.5568641205
O  O10  1  0.84117000  0.24399000  0.15883000  1.0 -0.5361212968
O  O11  1  0.80345000  0.11153000  0.19655000  1.0 -0.5568641205
O  O12  1  0.75601000  0.15883000  0.24399000  1.0 -0.5361212968
O  O13  1  0.11153000  0.80345000  0.88847000  1.0 -0.5546582292
O  O14  1  0.15883000  0.75601000  0.84117000  1.0 -0.5341329256
O  O15  1  0.19655000  0.88847000  0.80345000  1.0 -0.5546582292
O  O16  1  0.24399000  0.84117000  0.75601000  1.0 -0.5341329256
O  O17  1  0.19655000  0.11153000  0.88847000  1.0 -0.5568641205
O  O18  1  0.24399000  0.15883000  0.84117000  1.0 -0.5361212968
O  O19  1  0.11153000  0.19655000  0.80345000  1.0 -0.5546582292
O  O20  1  0.15883000  0.24399000  0.75601000  1.0 -0.5341329256
O  O21  1  0.80345000  0.88847000  0.11153000  1.0 -0.5568641205
O  O22  1  0.75601000  0.84117000  0.15883000  1.0 -0.5341329256
O  O23  1  0.88847000  0.80345000  0.19655000  1.0 -0.5546582292
O  O24  1  0.84117000  0.75601000  0.24399000  1.0 -0.5341329256
O  O25  1  0.88847000  0.19655000  0.80345000  1.0 -0.5546582292
O  O26  1  0.84117000  0.24399000  0.75601000  1.0 -0.5361212968
O  O27  1  0.80345000  0.11153000  0.88847000  1.0 -0.5568641205
O  O28  1  0.75601000  0.15883000  0.84117000  1.0 -0.5361212968
O  O29  1  0.11153000  0.80345000  0.19655000  1.0 -0.5546582292
O  O30  1  0.15883000  0.75601000  0.24399000  1.0 -0.5341329256
O  O31  1  0.19655000  0.88847000  0.11153000  1.0 -0.5546582292
O  O32  1  0.24399000  0.84117000  0.15883000  1.0 -0.5341329256
O  O33  1  0.11153000  0.19655000  0.88847000  1.0 -0.5568641205
O  O34  1  0.15883000  0.24399000  0.84117000  1.0 -0.5341329256
O  O35  1  0.19655000  0.11153000  0.80345000  1.0 -0.5546582292
O  O36  1  0.24399000  0.15883000  0.75601000  1.0 -0.5361212968
O  O37  1  0.88847000  0.80345000  0.11153000  1.0 -0.5546582292
O  O38  1  0.84117000  0.75601000  0.15883000  1.0 -0.5361212968
O  O39  1  0.80345000  0.88847000  0.19655000  1.0 -0.5568641205
O  O40  1  0.75601000  0.84117000  0.24399000  1.0 -0.5361212968
O  O41  1  0.80345000  0.19655000  0.11153000  1.0 -0.5568641205
O  O42  1  0.75601000  0.24399000  0.15883000  1.0 -0.5361212968
O  O43  1  0.88847000  0.11153000  0.19655000  1.0 -0.5568641205
O  O44  1  0.84117000  0.15883000  0.24399000  1.0 -0.5361212968
O  O45  1  0.19655000  0.80345000  0.88847000  1.0 -0.5546582292
O  O46  1  0.24399000  0.75601000  0.84117000  1.0 -0.5341329256
O  O47  1  0.11153000  0.88847000  0.80345000  1.0 -0.5546582292
O  O48  1  0.15883000  0.84117000  0.75601000  1.0 -0.5341329256
