# DDEC6 charges by PACMAN v1.1 (https://github.com/mtap-research/PACMAN-charge/)
data_XUKMIC01_ASR_pacman
_symmetry_space_group_name_H-M   'P 1'
_cell_length_a   26.57280000
_cell_length_b   26.57280000
_cell_length_c   17.80720000
_cell_angle_alpha   90.00000000
_cell_angle_beta   90.00000000
_cell_angle_gamma   120.00000000
_symmetry_Int_Tables_number   1
_chemical_formula_structural   CuH44(C31N2)2
_chemical_formula_sum   'Cu6 H264 C372 N24'
_cell_volume   10889.32364528
_cell_formula_units_Z   6
loop_
 _symmetry_equiv_pos_site_id
 _symmetry_equiv_pos_as_xyz
  1  'x, y, z'
loop_
 _atom_site_type_symbol
 _atom_site_label
 _atom_site_symmetry_multiplicity
 _atom_site_fract_x
 _atom_site_fract_y
 _atom_site_fract_z
 _atom_site_occupancy
 _atom_site_charge
Cu  Cu1  1  0.66710000  0.66710000  0.50000000  1.0 0.2623698281
Cu  Cu2  1  0.00000000  0.33290000  0.50000000  1.0 0.266074756
Cu  Cu3  1  0.33290000  0.00000000  0.50000000  1.0 0.2623698281
Cu  Cu4  1  0.33290000  0.33290000  0.50000000  1.0 0.2623698281
Cu  Cu5  1  0.00000000  0.66710000  0.50000000  1.0 0.266074756
Cu  Cu6  1  0.66710000  0.00000000  0.50000000  1.0 0.2623698281
H  H1  1  0.19539000  0.76003000  0.96979000  1.0 0.1004565601
H  H2  1  0.24410000  0.93292000  0.96258000  1.0 0.1092688443
H  H3  1  0.26741000  0.90800000  0.02751000  1.0 0.1004565601
H  H4  1  0.15357000  0.79348000  0.87315000  1.0 0.1004565601
H  H5  1  0.17201000  0.86065000  0.86614000  1.0 0.1004565601
H  H6  1  0.13635000  0.90327000  0.96612000  1.0 0.1092688443
H  H7  1  0.23145000  0.85771000  0.79689000  1.0 0.1092688443
H  H8  1  0.31166000  0.87699000  0.72234000  1.0 0.1092688443
H  H9  1  0.40377000  0.88847000  0.90935000  1.0 0.1193344197
H  H10  1  0.32356000  0.86919000  0.98390000  1.0 0.1193344197
H  H11  1  0.56046000  0.97130000  0.74325000  1.0 0.1315060538
H  H12  1  0.64134000  0.00249000  0.66482000  1.0 0.1004565601
H  H13  1  0.53484000  0.91846000  0.48946000  1.0 0.1004565601
H  H14  1  0.45396000  0.88727000  0.56790000  1.0 0.1315060538
H  H15  1  0.05555000  0.72995000  0.85559000  1.0 0.1193344197
H  H16  1  0.97852000  0.70717000  0.77309000  1.0 0.1092688443
H  H17  1  0.96917000  0.84614000  0.84868000  1.0 0.1193344197
H  H18  1  0.04620000  0.86891000  0.93118000  1.0 0.1193344197
H  H19  1  0.82821000  0.65550000  0.62542000  1.0 0.1315060538
H  H20  1  0.74796000  0.62647000  0.54644000  1.0 0.1004565601
H  H21  1  0.75081000  0.77778000  0.58849000  1.0 0.1092688443
H  H22  1  0.83106000  0.80681000  0.66748000  1.0 0.1315060538
H  H23  1  0.56464000  0.80461000  0.96979000  1.0 0.1004565601
H  H24  1  0.68882000  0.75590000  0.96258000  1.0 0.1092688443
H  H25  1  0.64059000  0.73259000  0.02751000  1.0 0.1004565601
H  H26  1  0.63991000  0.84643000  0.87315000  1.0 0.1004565601
H  H27  1  0.68864000  0.82799000  0.86614000  1.0 0.1004565601
H  H28  1  0.76692000  0.86365000  0.96612000  1.0 0.1092688443
H  H29  1  0.62626000  0.76855000  0.79689000  1.0 0.1092688443
H  H30  1  0.56533000  0.68834000  0.72234000  1.0 0.1092688443
H  H31  1  0.48470000  0.59623000  0.90935000  1.0 0.1193344197
H  H32  1  0.54563000  0.67644000  0.98390000  1.0 0.1193344197
H  H33  1  0.41084000  0.43954000  0.74325000  1.0 0.1315060538
H  H34  1  0.36115000  0.35866000  0.66482000  1.0 0.1004565601
H  H35  1  0.38362000  0.46516000  0.48946000  1.0 0.1004565601
H  H36  1  0.43331000  0.54604000  0.56790000  1.0 0.1315060538
H  H37  1  0.67440000  0.94445000  0.85559000  1.0 0.1193344197
H  H38  1  0.72865000  0.02148000  0.77309000  1.0 0.1092688443
H  H39  1  0.87697000  0.03083000  0.84868000  1.0 0.1193344197
H  H40  1  0.82271000  0.95380000  0.93118000  1.0 0.1193344197
H  H41  1  0.82729000  0.17179000  0.62542000  1.0 0.1315060538
H  H42  1  0.87851000  0.25204000  0.54644000  1.0 0.1004565601
H  H43  1  0.02697000  0.24919000  0.58849000  1.0 0.1092688443
H  H44  1  0.97575000  0.16894000  0.66748000  1.0 0.1315060538
H  H45  1  0.23997000  0.43536000  0.96979000  1.0 0.1004565601
H  H46  1  0.06708000  0.31118000  0.96258000  1.0 0.1092688443
H  H47  1  0.09200000  0.35941000  0.02751000  1.0 0.1004565601
H  H48  1  0.20652000  0.36009000  0.87315000  1.0 0.1004565601
H  H49  1  0.13935000  0.31136000  0.86614000  1.0 0.1004565601
H  H50  1  0.09673000  0.23308000  0.96612000  1.0 0.1092688443
H  H51  1  0.14229000  0.37374000  0.79689000  1.0 0.1092688443
H  H52  1  0.12301000  0.43467000  0.72234000  1.0 0.1092688443
H  H53  1  0.11153000  0.51530000  0.90935000  1.0 0.1193344197
H  H54  1  0.13081000  0.45437000  0.98390000  1.0 0.1193344197
H  H55  1  0.02870000  0.58916000  0.74325000  1.0 0.1315060538
H  H56  1  0.99751000  0.63885000  0.66482000  1.0 0.1004565601
H  H57  1  0.08154000  0.61638000  0.48946000  1.0 0.1004565601
H  H58  1  0.11273000  0.56669000  0.56790000  1.0 0.1315060538
H  H59  1  0.27005000  0.32560000  0.85559000  1.0 0.1193344197
H  H60  1  0.29283000  0.27135000  0.77309000  1.0 0.1092688443
H  H61  1  0.15386000  0.12303000  0.84868000  1.0 0.1193344197
H  H62  1  0.13109000  0.17729000  0.93118000  1.0 0.1193344197
H  H63  1  0.34450000  0.17271000  0.62542000  1.0 0.1315060538
H  H64  1  0.37353000  0.12149000  0.54644000  1.0 0.1004565601
H  H65  1  0.22222000  0.97303000  0.58849000  1.0 0.1092688443
H  H66  1  0.19319000  0.02425000  0.66748000  1.0 0.1315060538
H  H67  1  0.80461000  0.23997000  0.96979000  1.0 0.1004565601
H  H68  1  0.75590000  0.06708000  0.96258000  1.0 0.1092688443
H  H69  1  0.73259000  0.09200000  0.02751000  1.0 0.1004565601
H  H70  1  0.84643000  0.20652000  0.87315000  1.0 0.1004565601
H  H71  1  0.82799000  0.13935000  0.86614000  1.0 0.1004565601
H  H72  1  0.86365000  0.09673000  0.96612000  1.0 0.1092688443
H  H73  1  0.76855000  0.14229000  0.79689000  1.0 0.1092688443
H  H74  1  0.68834000  0.12301000  0.72234000  1.0 0.1092688443
H  H75  1  0.59623000  0.11153000  0.90935000  1.0 0.1193344197
H  H76  1  0.67644000  0.13081000  0.98390000  1.0 0.1193344197
H  H77  1  0.43954000  0.02870000  0.74325000  1.0 0.1315060538
H  H78  1  0.35866000  0.99751000  0.66482000  1.0 0.1004565601
H  H79  1  0.46516000  0.08154000  0.48946000  1.0 0.1004565601
H  H80  1  0.54604000  0.11273000  0.56790000  1.0 0.1315060538
H  H81  1  0.94445000  0.27005000  0.85559000  1.0 0.1193344197
H  H82  1  0.02148000  0.29283000  0.77309000  1.0 0.1092688443
H  H83  1  0.03083000  0.15386000  0.84868000  1.0 0.1193344197
H  H84  1  0.95380000  0.13109000  0.93118000  1.0 0.1193344197
H  H85  1  0.17179000  0.34450000  0.62542000  1.0 0.1315060538
H  H86  1  0.25204000  0.37353000  0.54644000  1.0 0.1004565601
H  H87  1  0.24919000  0.22222000  0.58849000  1.0 0.1092688443
H  H88  1  0.16894000  0.19319000  0.66748000  1.0 0.1315060538
H  H89  1  0.43536000  0.19539000  0.96979000  1.0 0.1004565601
H  H90  1  0.31118000  0.24410000  0.96258000  1.0 0.1092688443
H  H91  1  0.35941000  0.26741000  0.02751000  1.0 0.1004565601
H  H92  1  0.36009000  0.15357000  0.87315000  1.0 0.1004565601
H  H93  1  0.31136000  0.17201000  0.86614000  1.0 0.1004565601
H  H94  1  0.23308000  0.13635000  0.96612000  1.0 0.1092688443
H  H95  1  0.37374000  0.23145000  0.79689000  1.0 0.1092688443
H  H96  1  0.43467000  0.31166000  0.72234000  1.0 0.1092688443
H  H97  1  0.51530000  0.40377000  0.90935000  1.0 0.1193344197
H  H98  1  0.45437000  0.32356000  0.98390000  1.0 0.1193344197
H  H99  1  0.58916000  0.56046000  0.74325000  1.0 0.1315060538
H  H100  1  0.63885000  0.64134000  0.66482000  1.0 0.1004565601
H  H101  1  0.61638000  0.53484000  0.48946000  1.0 0.1004565601
H  H102  1  0.56669000  0.45396000  0.56790000  1.0 0.1315060538
H  H103  1  0.32560000  0.05555000  0.85559000  1.0 0.1193344197
H  H104  1  0.27135000  0.97852000  0.77309000  1.0 0.1092688443
H  H105  1  0.12303000  0.96917000  0.84868000  1.0 0.1193344197
H  H106  1  0.17729000  0.04620000  0.93118000  1.0 0.1193344197
H  H107  1  0.17271000  0.82821000  0.62542000  1.0 0.1315060538
H  H108  1  0.12149000  0.74796000  0.54644000  1.0 0.1004565601
H  H109  1  0.97303000  0.75081000  0.58849000  1.0 0.1092688443
H  H110  1  0.02425000  0.83106000  0.66748000  1.0 0.1315060538
H  H111  1  0.76003000  0.56464000  0.96979000  1.0 0.1004565601
H  H112  1  0.93292000  0.68882000  0.96258000  1.0 0.1092688443
H  H113  1  0.90800000  0.64059000  0.02751000  1.0 0.1004565601
H  H114  1  0.79348000  0.63991000  0.87315000  1.0 0.1004565601
H  H115  1  0.86065000  0.68864000  0.86614000  1.0 0.1004565601
H  H116  1  0.90327000  0.76692000  0.96612000  1.0 0.1092688443
H  H117  1  0.85771000  0.62626000  0.79689000  1.0 0.1092688443
H  H118  1  0.87699000  0.56533000  0.72234000  1.0 0.1092688443
H  H119  1  0.88847000  0.48470000  0.90935000  1.0 0.1193344197
H  H120  1  0.86919000  0.54563000  0.98390000  1.0 0.1193344197
H  H121  1  0.97130000  0.41084000  0.74325000  1.0 0.1315060538
H  H122  1  0.00249000  0.36115000  0.66482000  1.0 0.1004565601
H  H123  1  0.91846000  0.38362000  0.48946000  1.0 0.1004565601
H  H124  1  0.88727000  0.43331000  0.56790000  1.0 0.1315060538
H  H125  1  0.72995000  0.67440000  0.85559000  1.0 0.1193344197
H  H126  1  0.70717000  0.72865000  0.77309000  1.0 0.1092688443
H  H127  1  0.84614000  0.87697000  0.84868000  1.0 0.1193344197
H  H128  1  0.86891000  0.82271000  0.93118000  1.0 0.1193344197
H  H129  1  0.65550000  0.82729000  0.62542000  1.0 0.1315060538
H  H130  1  0.62647000  0.87851000  0.54644000  1.0 0.1004565601
H  H131  1  0.77778000  0.02697000  0.58849000  1.0 0.1092688443
H  H132  1  0.80681000  0.97575000  0.66748000  1.0 0.1315060538
H  H133  1  0.43536000  0.23997000  0.03021000  1.0 0.1004565601
H  H134  1  0.31118000  0.06708000  0.03742000  1.0 0.1092688443
H  H135  1  0.35941000  0.09200000  0.97249000  1.0 0.1004565601
H  H136  1  0.36009000  0.20652000  0.12685000  1.0 0.1004565601
H  H137  1  0.31136000  0.13935000  0.13386000  1.0 0.1004565601
H  H138  1  0.23308000  0.09673000  0.03388000  1.0 0.1092688443
H  H139  1  0.37374000  0.14229000  0.20311000  1.0 0.1092688443
H  H140  1  0.43467000  0.12301000  0.27766000  1.0 0.1092688443
H  H141  1  0.51530000  0.11153000  0.09065000  1.0 0.1193344197
H  H142  1  0.45437000  0.13081000  0.01610000  1.0 0.1092688443
H  H143  1  0.58916000  0.02870000  0.25675000  1.0 0.1315060538
H  H144  1  0.63885000  0.99751000  0.33518000  1.0 0.1004565601
H  H145  1  0.61638000  0.08154000  0.51054000  1.0 0.1004565601
H  H146  1  0.56669000  0.11273000  0.43210000  1.0 0.1315060538
H  H147  1  0.32560000  0.27005000  0.14441000  1.0 0.1193344197
H  H148  1  0.27135000  0.29283000  0.22691000  1.0 0.1092688443
H  H149  1  0.12303000  0.15386000  0.15132000  1.0 0.1193344197
H  H150  1  0.17729000  0.13109000  0.06882000  1.0 0.1193344197
H  H151  1  0.17271000  0.34450000  0.37458000  1.0 0.1315060538
H  H152  1  0.12149000  0.37353000  0.45356000  1.0 0.1004565601
H  H153  1  0.97303000  0.22222000  0.41151000  1.0 0.1092688443
H  H154  1  0.02425000  0.19319000  0.33252000  1.0 0.1315060538
H  H155  1  0.76003000  0.19539000  0.03021000  1.0 0.1004565601
H  H156  1  0.93292000  0.24410000  0.03742000  1.0 0.1092688443
H  H157  1  0.90800000  0.26741000  0.97249000  1.0 0.1004565601
H  H158  1  0.79348000  0.15357000  0.12685000  1.0 0.1004565601
H  H159  1  0.86065000  0.17201000  0.13386000  1.0 0.1004565601
H  H160  1  0.90327000  0.13635000  0.03388000  1.0 0.1092688443
H  H161  1  0.85771000  0.23145000  0.20311000  1.0 0.1092688443
H  H162  1  0.87699000  0.31166000  0.27766000  1.0 0.1092688443
H  H163  1  0.88847000  0.40377000  0.09065000  1.0 0.1193344197
H  H164  1  0.86919000  0.32356000  0.01610000  1.0 0.1193344197
H  H165  1  0.97130000  0.56046000  0.25675000  1.0 0.1315060538
H  H166  1  0.00249000  0.64134000  0.33518000  1.0 0.1004565601
H  H167  1  0.91846000  0.53484000  0.51054000  1.0 0.1004565601
H  H168  1  0.88727000  0.45396000  0.43210000  1.0 0.1315060538
H  H169  1  0.72995000  0.05555000  0.14441000  1.0 0.1193344197
H  H170  1  0.70717000  0.97852000  0.22691000  1.0 0.1092688443
H  H171  1  0.84614000  0.96917000  0.15132000  1.0 0.1193344197
H  H172  1  0.86891000  0.04620000  0.06882000  1.0 0.1193344197
H  H173  1  0.65550000  0.82821000  0.37458000  1.0 0.1315060538
H  H174  1  0.62647000  0.74796000  0.45356000  1.0 0.1004565601
H  H175  1  0.77778000  0.75081000  0.41151000  1.0 0.1092688443
H  H176  1  0.80681000  0.83106000  0.33252000  1.0 0.1315060538
H  H177  1  0.80461000  0.56464000  0.03021000  1.0 0.1004565601
H  H178  1  0.75590000  0.68882000  0.03742000  1.0 0.1092688443
H  H179  1  0.73259000  0.64059000  0.97249000  1.0 0.1004565601
H  H180  1  0.84643000  0.63991000  0.12685000  1.0 0.1004565601
H  H181  1  0.82799000  0.68864000  0.13386000  1.0 0.1004565601
H  H182  1  0.86365000  0.76692000  0.03388000  1.0 0.1092688443
H  H183  1  0.76855000  0.62626000  0.20311000  1.0 0.1092688443
H  H184  1  0.68834000  0.56533000  0.27766000  1.0 0.1092688443
H  H185  1  0.59623000  0.48470000  0.09065000  1.0 0.1193344197
H  H186  1  0.67644000  0.54563000  0.01610000  1.0 0.1193344197
H  H187  1  0.43954000  0.41084000  0.25675000  1.0 0.1315060538
H  H188  1  0.35866000  0.36115000  0.33518000  1.0 0.1004565601
H  H189  1  0.46516000  0.38362000  0.51054000  1.0 0.1004565601
H  H190  1  0.54604000  0.43331000  0.43210000  1.0 0.1315060538
H  H191  1  0.94445000  0.67440000  0.14441000  1.0 0.1193344197
H  H192  1  0.02148000  0.72865000  0.22691000  1.0 0.1092688443
H  H193  1  0.03083000  0.87697000  0.15132000  1.0 0.1193344197
H  H194  1  0.95380000  0.82271000  0.06882000  1.0 0.1193344197
H  H195  1  0.17179000  0.82729000  0.37458000  1.0 0.1315060538
H  H196  1  0.25204000  0.87851000  0.45356000  1.0 0.1004565601
H  H197  1  0.24919000  0.02697000  0.41151000  1.0 0.1092688443
H  H198  1  0.16894000  0.97575000  0.33252000  1.0 0.1315060538
H  H199  1  0.56464000  0.76003000  0.03021000  1.0 0.1004565601
H  H200  1  0.68882000  0.93292000  0.03742000  1.0 0.1092688443
H  H201  1  0.64059000  0.90800000  0.97249000  1.0 0.1004565601
H  H202  1  0.63991000  0.79348000  0.12685000  1.0 0.1004565601
H  H203  1  0.68864000  0.86065000  0.13386000  1.0 0.1004565601
H  H204  1  0.76692000  0.90327000  0.03388000  1.0 0.1092688443
H  H205  1  0.62626000  0.85771000  0.20311000  1.0 0.1092688443
H  H206  1  0.56533000  0.87699000  0.27766000  1.0 0.1092688443
H  H207  1  0.48470000  0.88847000  0.09065000  1.0 0.1193344197
H  H208  1  0.54563000  0.86919000  0.01610000  1.0 0.1193344197
H  H209  1  0.41084000  0.97130000  0.25675000  1.0 0.1315060538
H  H210  1  0.36115000  0.00249000  0.33518000  1.0 0.1004565601
H  H211  1  0.38362000  0.91846000  0.51054000  1.0 0.1004565601
H  H212  1  0.43331000  0.88727000  0.43210000  1.0 0.1315060538
H  H213  1  0.67440000  0.72995000  0.14441000  1.0 0.1193344197
H  H214  1  0.72865000  0.70717000  0.22691000  1.0 0.1092688443
H  H215  1  0.87697000  0.84614000  0.15132000  1.0 0.1193344197
H  H216  1  0.82271000  0.86891000  0.06882000  1.0 0.1193344197
H  H217  1  0.82729000  0.65550000  0.37458000  1.0 0.1315060538
H  H218  1  0.87851000  0.62647000  0.45356000  1.0 0.1004565601
H  H219  1  0.02697000  0.77778000  0.41151000  1.0 0.1092688443
H  H220  1  0.97575000  0.80681000  0.33252000  1.0 0.1315060538
H  H221  1  0.23997000  0.80461000  0.03021000  1.0 0.1004565601
H  H222  1  0.06708000  0.75590000  0.03742000  1.0 0.1092688443
H  H223  1  0.09200000  0.73259000  0.97249000  1.0 0.1004565601
H  H224  1  0.20652000  0.84643000  0.12685000  1.0 0.1004565601
H  H225  1  0.13935000  0.82799000  0.13386000  1.0 0.1004565601
H  H226  1  0.09673000  0.86365000  0.03388000  1.0 0.1092688443
H  H227  1  0.14229000  0.76855000  0.20311000  1.0 0.1092688443
H  H228  1  0.12301000  0.68834000  0.27766000  1.0 0.1092688443
H  H229  1  0.11153000  0.59623000  0.09065000  1.0 0.1193344197
H  H230  1  0.13081000  0.67644000  0.01610000  1.0 0.1193344197
H  H231  1  0.02870000  0.43954000  0.25675000  1.0 0.1315060538
H  H232  1  0.99751000  0.35866000  0.33518000  1.0 0.1004565601
H  H233  1  0.08154000  0.46516000  0.51054000  1.0 0.1004565601
H  H234  1  0.11273000  0.54604000  0.43210000  1.0 0.1315060538
H  H235  1  0.27005000  0.94445000  0.14441000  1.0 0.1193344197
H  H236  1  0.29283000  0.02148000  0.22691000  1.0 0.1092688443
H  H237  1  0.15386000  0.03083000  0.15132000  1.0 0.1193344197
H  H238  1  0.13109000  0.95380000  0.06882000  1.0 0.1193344197
H  H239  1  0.34450000  0.17179000  0.37458000  1.0 0.1315060538
H  H240  1  0.37353000  0.25204000  0.45356000  1.0 0.1004565601
H  H241  1  0.22222000  0.24919000  0.41151000  1.0 0.1092688443
H  H242  1  0.19319000  0.16894000  0.33252000  1.0 0.1315060538
H  H243  1  0.19539000  0.43536000  0.03021000  1.0 0.1004565601
H  H244  1  0.24410000  0.31118000  0.03742000  1.0 0.1092688443
H  H245  1  0.26741000  0.35941000  0.97249000  1.0 0.1004565601
H  H246  1  0.15357000  0.36009000  0.12685000  1.0 0.1004565601
H  H247  1  0.17201000  0.31136000  0.13386000  1.0 0.1004565601
H  H248  1  0.13635000  0.23308000  0.03388000  1.0 0.1092688443
H  H249  1  0.23145000  0.37374000  0.20311000  1.0 0.1092688443
H  H250  1  0.31166000  0.43467000  0.27766000  1.0 0.1092688443
H  H251  1  0.40377000  0.51530000  0.09065000  1.0 0.1193344197
H  H252  1  0.32356000  0.45437000  0.01610000  1.0 0.1193344197
H  H253  1  0.56046000  0.58916000  0.25675000  1.0 0.1315060538
H  H254  1  0.64134000  0.63885000  0.33518000  1.0 0.1004565601
H  H255  1  0.53484000  0.61638000  0.51054000  1.0 0.1004565601
H  H256  1  0.45396000  0.56669000  0.43210000  1.0 0.1315060538
H  H257  1  0.05555000  0.32560000  0.14441000  1.0 0.1193344197
H  H258  1  0.97852000  0.27135000  0.22691000  1.0 0.1092688443
H  H259  1  0.96917000  0.12303000  0.15132000  1.0 0.1193344197
H  H260  1  0.04620000  0.17729000  0.06882000  1.0 0.1193344197
H  H261  1  0.82821000  0.17271000  0.37458000  1.0 0.1315060538
H  H262  1  0.74796000  0.12149000  0.45356000  1.0 0.1004565601
H  H263  1  0.75081000  0.97303000  0.41151000  1.0 0.1092688443
H  H264  1  0.83106000  0.02425000  0.33252000  1.0 0.1315060538
C  C1  1  0.21880000  0.84590000  0.94680000  1.0 0.1591417831
C  C2  1  0.23360000  0.89900000  0.99530000  1.0 -0.299074798
C  C3  1  0.16440000  0.82920000  0.90220000  1.0 -0.299074798
C  C4  1  0.11270000  0.81860000  0.95530000  1.0 0.1706890747
C  C5  1  0.27000000  0.86170000  0.89740000  1.0 0.0490128739
C  C6  1  0.26640000  0.86390000  0.81970000  1.0 -0.1508948116
C  C7  1  0.31410000  0.87540000  0.77540000  1.0 -0.1713509965
C  C8  1  0.36530000  0.88460000  0.80880000  1.0 0.1315060538
C  C9  1  0.36880000  0.88220000  0.88650000  1.0 -0.1508948116
C  C10  1  0.32110000  0.87070000  0.93080000  1.0 -0.1508948116
C  C11  1  0.41680000  0.89960000  0.75570000  1.0 -0.0726977496
C  C12  1  0.45690000  0.91010000  0.71330000  1.0 -0.1081808218
C  C13  1  0.49960000  0.92630000  0.66290000  1.0 0.1437992483
C  C14  1  0.55530000  0.96060000  0.69170000  1.0 -0.1968481549
C  C15  1  0.60330000  0.97910000  0.64510000  1.0 0.0490128739
C  C16  1  0.54000000  0.92910000  0.54100000  1.0 0.0490128739
C  C17  1  0.49200000  0.91070000  0.58760000  1.0 -0.1968481549
C  C18  1  0.05810000  0.80160000  0.90110000  1.0 0.0575969859
C  C19  1  0.03800000  0.75350000  0.85420000  1.0 -0.1508948116
C  C20  1  0.99230000  0.74000000  0.80520000  1.0 -0.1295071265
C  C21  1  0.96660000  0.77450000  0.80310000  1.0 0.1004565601
C  C22  1  0.98670000  0.82250000  0.85010000  1.0 -0.1387493991
C  C23  1  0.03250000  0.83610000  0.89910000  1.0 -0.1594415253
C  C24  1  0.92370000  0.76260000  0.75560000  1.0 -0.0968901237
C  C25  1  0.88280000  0.75040000  0.70710000  1.0 -0.1165776248
C  C26  1  0.83720000  0.73390000  0.65390000  1.0 0.1706890747
C  C27  1  0.81250000  0.68030000  0.61790000  1.0 -0.1968481549
C  C28  1  0.76480000  0.66310000  0.57100000  1.0 0.0395543303
C  C29  1  0.76650000  0.75290000  0.59600000  1.0 0.0490128739
C  C30  1  0.81420000  0.77020000  0.64290000  1.0 -0.1822612778
C  C31  1  0.62710000  0.78120000  0.94680000  1.0 0.1591417831
C  C32  1  0.66540000  0.76640000  0.99530000  1.0 -0.3051322806
C  C33  1  0.66480000  0.83560000  0.90220000  1.0 -0.299074798
C  C34  1  0.70590000  0.88730000  0.95530000  1.0 0.1706890747
C  C35  1  0.59170000  0.73000000  0.89740000  1.0 0.0490128739
C  C36  1  0.59750000  0.73360000  0.81970000  1.0 -0.1508948116
C  C37  1  0.56130000  0.68590000  0.77540000  1.0 -0.1713509965
C  C38  1  0.51930000  0.63470000  0.80880000  1.0 0.1315060538
C  C39  1  0.51340000  0.63120000  0.88650000  1.0 -0.1508948116
C  C40  1  0.54960000  0.67890000  0.93080000  1.0 -0.1508948116
C  C41  1  0.48280000  0.58320000  0.75570000  1.0 -0.0726977496
C  C42  1  0.45320000  0.54310000  0.71330000  1.0 -0.1081808218
C  C43  1  0.42670000  0.50040000  0.66290000  1.0 0.1437992483
C  C44  1  0.40530000  0.44470000  0.69170000  1.0 -0.1968481549
C  C45  1  0.37580000  0.39670000  0.64510000  1.0 0.0490128739
C  C46  1  0.38910000  0.46000000  0.54100000  1.0 0.0490128739
C  C47  1  0.41870000  0.50800000  0.58760000  1.0 -0.1968481549
C  C48  1  0.74350000  0.94190000  0.90110000  1.0 0.0575969859
C  C49  1  0.71550000  0.96200000  0.85420000  1.0 -0.1508948116
C  C50  1  0.74770000  0.00770000  0.80520000  1.0 -0.1295071265
C  C51  1  0.80790000  0.03340000  0.80310000  1.0 0.1004565601
C  C52  1  0.83580000  0.01330000  0.85010000  1.0 -0.1387493991
C  C53  1  0.80360000  0.96750000  0.89910000  1.0 -0.1594415253
C  C54  1  0.83890000  0.07630000  0.75560000  1.0 -0.0968901237
C  C55  1  0.86760000  0.11720000  0.70710000  1.0 -0.1165776248
C  C56  1  0.89670000  0.16280000  0.65390000  1.0 0.1706890747
C  C57  1  0.86780000  0.18750000  0.61790000  1.0 -0.1947708717
C  C58  1  0.89830000  0.23520000  0.57100000  1.0 0.0395543303
C  C59  1  0.98640000  0.23350000  0.59600000  1.0 0.0490128739
C  C60  1  0.95600000  0.18580000  0.64290000  1.0 -0.1822612778
C  C61  1  0.15410000  0.37290000  0.94680000  1.0 0.1591417831
C  C62  1  0.10100000  0.33460000  0.99530000  1.0 -0.3051322806
C  C63  1  0.17080000  0.33520000  0.90220000  1.0 -0.299074798
C  C64  1  0.18140000  0.29410000  0.95530000  1.0 0.1706890747
C  C65  1  0.13830000  0.40830000  0.89740000  1.0 0.0490128739
C  C66  1  0.13610000  0.40250000  0.81970000  1.0 -0.1508948116
C  C67  1  0.12460000  0.43870000  0.77540000  1.0 -0.1713509965
C  C68  1  0.11540000  0.48070000  0.80880000  1.0 0.1315060538
C  C69  1  0.11780000  0.48660000  0.88650000  1.0 -0.1508948116
C  C70  1  0.12930000  0.45040000  0.93080000  1.0 -0.1508948116
C  C71  1  0.10040000  0.51720000  0.75570000  1.0 -0.0726977496
C  C72  1  0.08990000  0.54680000  0.71330000  1.0 -0.1081808218
C  C73  1  0.07370000  0.57330000  0.66290000  1.0 0.1437992483
C  C74  1  0.03940000  0.59470000  0.69170000  1.0 -0.1968481549
C  C75  1  0.02090000  0.62420000  0.64510000  1.0 0.0490128739
C  C76  1  0.07090000  0.61090000  0.54100000  1.0 0.0490128739
C  C77  1  0.08930000  0.58130000  0.58760000  1.0 -0.1968481549
C  C78  1  0.19840000  0.25650000  0.90110000  1.0 0.0575969859
C  C79  1  0.24650000  0.28450000  0.85420000  1.0 -0.1508948116
C  C80  1  0.26000000  0.25230000  0.80520000  1.0 -0.1295071265
C  C81  1  0.22550000  0.19210000  0.80310000  1.0 0.1004565601
C  C82  1  0.17750000  0.16420000  0.85010000  1.0 -0.1387493991
C  C83  1  0.16390000  0.19640000  0.89910000  1.0 -0.1594415253
C  C84  1  0.23740000  0.16110000  0.75560000  1.0 -0.0968901237
C  C85  1  0.24960000  0.13240000  0.70710000  1.0 -0.1165776248
C  C86  1  0.26610000  0.10330000  0.65390000  1.0 0.1706890747
C  C87  1  0.31970000  0.13220000  0.61790000  1.0 -0.1968481549
C  C88  1  0.33690000  0.10170000  0.57100000  1.0 0.0395543303
C  C89  1  0.24710000  0.01360000  0.59600000  1.0 0.0490128739
C  C90  1  0.22980000  0.04400000  0.64290000  1.0 -0.1822612778
C  C91  1  0.78120000  0.15410000  0.94680000  1.0 0.1591417831
C  C92  1  0.76640000  0.10100000  0.99530000  1.0 -0.299074798
C  C93  1  0.83560000  0.17080000  0.90220000  1.0 -0.299074798
C  C94  1  0.88730000  0.18140000  0.95530000  1.0 0.1706890747
C  C95  1  0.73000000  0.13830000  0.89740000  1.0 0.0490128739
C  C96  1  0.73360000  0.13610000  0.81970000  1.0 -0.1508948116
C  C97  1  0.68590000  0.12460000  0.77540000  1.0 -0.1713509965
C  C98  1  0.63470000  0.11540000  0.80880000  1.0 0.1315060538
C  C99  1  0.63120000  0.11780000  0.88650000  1.0 -0.1508948116
C  C100  1  0.67890000  0.12930000  0.93080000  1.0 -0.1508948116
C  C101  1  0.58320000  0.10040000  0.75570000  1.0 -0.0726977496
C  C102  1  0.54310000  0.08990000  0.71330000  1.0 -0.1081808218
C  C103  1  0.50040000  0.07370000  0.66290000  1.0 0.1437992483
C  C104  1  0.44470000  0.03940000  0.69170000  1.0 -0.1968481549
C  C105  1  0.39670000  0.02090000  0.64510000  1.0 0.0490128739
C  C106  1  0.46000000  0.07090000  0.54100000  1.0 0.0490128739
C  C107  1  0.50800000  0.08930000  0.58760000  1.0 -0.1968481549
C  C108  1  0.94190000  0.19840000  0.90110000  1.0 0.0575969859
C  C109  1  0.96200000  0.24650000  0.85420000  1.0 -0.1508948116
C  C110  1  0.00770000  0.26000000  0.80520000  1.0 -0.1295071265
C  C111  1  0.03340000  0.22550000  0.80310000  1.0 0.1004565601
C  C112  1  0.01330000  0.17750000  0.85010000  1.0 -0.1387493991
C  C113  1  0.96750000  0.16390000  0.89910000  1.0 -0.1594415253
C  C114  1  0.07630000  0.23740000  0.75560000  1.0 -0.0968901237
C  C115  1  0.11720000  0.24960000  0.70710000  1.0 -0.1165776248
C  C116  1  0.16280000  0.26610000  0.65390000  1.0 0.1706890747
C  C117  1  0.18750000  0.31970000  0.61790000  1.0 -0.1947708717
C  C118  1  0.23520000  0.33690000  0.57100000  1.0 0.0395543303
C  C119  1  0.23350000  0.24710000  0.59600000  1.0 0.0490128739
C  C120  1  0.18580000  0.22980000  0.64290000  1.0 -0.1822612778
C  C121  1  0.37290000  0.21880000  0.94680000  1.0 0.1591417831
C  C122  1  0.33460000  0.23360000  0.99530000  1.0 -0.3051322806
C  C123  1  0.33520000  0.16440000  0.90220000  1.0 -0.299074798
C  C124  1  0.29410000  0.11270000  0.95530000  1.0 0.1706890747
C  C125  1  0.40830000  0.27000000  0.89740000  1.0 0.0490128739
C  C126  1  0.40250000  0.26640000  0.81970000  1.0 -0.1508948116
C  C127  1  0.43870000  0.31410000  0.77540000  1.0 -0.1713509965
C  C128  1  0.48070000  0.36530000  0.80880000  1.0 0.1315060538
C  C129  1  0.48660000  0.36880000  0.88650000  1.0 -0.1508948116
C  C130  1  0.45040000  0.32110000  0.93080000  1.0 -0.1508948116
C  C131  1  0.51720000  0.41680000  0.75570000  1.0 -0.0726977496
C  C132  1  0.54680000  0.45690000  0.71330000  1.0 -0.1081808218
C  C133  1  0.57330000  0.49960000  0.66290000  1.0 0.1437992483
C  C134  1  0.59470000  0.55530000  0.69170000  1.0 -0.1968481549
C  C135  1  0.62420000  0.60330000  0.64510000  1.0 0.0490128739
C  C136  1  0.61090000  0.54000000  0.54100000  1.0 0.0490128739
C  C137  1  0.58130000  0.49200000  0.58760000  1.0 -0.1968481549
C  C138  1  0.25650000  0.05810000  0.90110000  1.0 0.0575969859
C  C139  1  0.28450000  0.03800000  0.85420000  1.0 -0.1508948116
C  C140  1  0.25230000  0.99230000  0.80520000  1.0 -0.1295071265
C  C141  1  0.19210000  0.96660000  0.80310000  1.0 0.1004565601
C  C142  1  0.16420000  0.98670000  0.85010000  1.0 -0.1387493991
C  C143  1  0.19640000  0.03250000  0.89910000  1.0 -0.1594415253
C  C144  1  0.16110000  0.92370000  0.75560000  1.0 -0.0968901237
C  C145  1  0.13240000  0.88280000  0.70710000  1.0 -0.1165776248
C  C146  1  0.10330000  0.83720000  0.65390000  1.0 0.1706890747
C  C147  1  0.13220000  0.81250000  0.61790000  1.0 -0.1968481549
C  C148  1  0.10170000  0.76480000  0.57100000  1.0 0.0395543303
C  C149  1  0.01360000  0.76650000  0.59600000  1.0 0.0490128739
C  C150  1  0.04400000  0.81420000  0.64290000  1.0 -0.1822612778
C  C151  1  0.84590000  0.62710000  0.94680000  1.0 0.1591417831
C  C152  1  0.89900000  0.66540000  0.99530000  1.0 -0.299074798
C  C153  1  0.82920000  0.66480000  0.90220000  1.0 -0.299074798
C  C154  1  0.81860000  0.70590000  0.95530000  1.0 0.1706890747
C  C155  1  0.86170000  0.59170000  0.89740000  1.0 0.0490128739
C  C156  1  0.86390000  0.59750000  0.81970000  1.0 -0.1508948116
C  C157  1  0.87540000  0.56130000  0.77540000  1.0 -0.1713509965
C  C158  1  0.88460000  0.51930000  0.80880000  1.0 0.1315060538
C  C159  1  0.88220000  0.51340000  0.88650000  1.0 -0.1508948116
C  C160  1  0.87070000  0.54960000  0.93080000  1.0 -0.1508948116
C  C161  1  0.89960000  0.48280000  0.75570000  1.0 -0.0726977496
C  C162  1  0.91010000  0.45320000  0.71330000  1.0 -0.1081808218
C  C163  1  0.92630000  0.42670000  0.66290000  1.0 0.1437992483
C  C164  1  0.96060000  0.40530000  0.69170000  1.0 -0.1968481549
C  C165  1  0.97910000  0.37580000  0.64510000  1.0 0.0490128739
C  C166  1  0.92910000  0.38910000  0.54100000  1.0 0.0490128739
C  C167  1  0.91070000  0.41870000  0.58760000  1.0 -0.1968481549
C  C168  1  0.80160000  0.74350000  0.90110000  1.0 0.0575969859
C  C169  1  0.75350000  0.71550000  0.85420000  1.0 -0.1508948116
C  C170  1  0.74000000  0.74770000  0.80520000  1.0 -0.1295071265
C  C171  1  0.77450000  0.80790000  0.80310000  1.0 0.1004565601
C  C172  1  0.82250000  0.83580000  0.85010000  1.0 -0.1387493991
C  C173  1  0.83610000  0.80360000  0.89910000  1.0 -0.1594415253
C  C174  1  0.76260000  0.83890000  0.75560000  1.0 -0.0968901237
C  C175  1  0.75040000  0.86760000  0.70710000  1.0 -0.1165776248
C  C176  1  0.73390000  0.89670000  0.65390000  1.0 0.1706890747
C  C177  1  0.68030000  0.86780000  0.61790000  1.0 -0.1947708717
C  C178  1  0.66310000  0.89830000  0.57100000  1.0 0.0395543303
C  C179  1  0.75290000  0.98640000  0.59600000  1.0 0.0490128739
C  C180  1  0.77020000  0.95600000  0.64290000  1.0 -0.1822612778
C  C181  1  0.37290000  0.15410000  0.05320000  1.0 0.1591417831
C  C182  1  0.33460000  0.10100000  0.00470000  1.0 -0.299074798
C  C183  1  0.33520000  0.17080000  0.09780000  1.0 -0.299074798
C  C184  1  0.29410000  0.18140000  0.04470000  1.0 0.1706890747
C  C185  1  0.40830000  0.13830000  0.10260000  1.0 0.0490128739
C  C186  1  0.40250000  0.13610000  0.18030000  1.0 -0.1508948116
C  C187  1  0.43870000  0.12460000  0.22460000  1.0 -0.1713509965
C  C188  1  0.48070000  0.11540000  0.19120000  1.0 0.1315060538
C  C189  1  0.48660000  0.11780000  0.11350000  1.0 -0.1508948116
C  C190  1  0.45040000  0.12930000  0.06920000  1.0 -0.1508948116
C  C191  1  0.51720000  0.10040000  0.24430000  1.0 -0.0726977496
C  C192  1  0.54680000  0.08990000  0.28670000  1.0 -0.1081808218
C  C193  1  0.57330000  0.07370000  0.33710000  1.0 0.1437992483
C  C194  1  0.59470000  0.03940000  0.30830000  1.0 -0.1968481549
C  C195  1  0.62420000  0.02090000  0.35490000  1.0 0.0490128739
C  C196  1  0.61090000  0.07090000  0.45900000  1.0 0.0490128739
C  C197  1  0.58130000  0.08930000  0.41240000  1.0 -0.1947708717
C  C198  1  0.25650000  0.19840000  0.09890000  1.0 0.0575969859
C  C199  1  0.28450000  0.24650000  0.14580000  1.0 -0.1508948116
C  C200  1  0.25230000  0.26000000  0.19480000  1.0 -0.1295071265
C  C201  1  0.19210000  0.22550000  0.19690000  1.0 0.1004565601
C  C202  1  0.16420000  0.17750000  0.14990000  1.0 -0.1387493991
C  C203  1  0.19640000  0.16390000  0.10090000  1.0 -0.1594415253
C  C204  1  0.16110000  0.23740000  0.24440000  1.0 -0.0968901237
C  C205  1  0.13240000  0.24960000  0.29290000  1.0 -0.1165776248
C  C206  1  0.10330000  0.26610000  0.34610000  1.0 0.1706890747
C  C207  1  0.13220000  0.31970000  0.38210000  1.0 -0.1947708717
C  C208  1  0.10170000  0.33690000  0.42900000  1.0 0.0395543303
C  C209  1  0.01360000  0.24710000  0.40400000  1.0 0.0490128739
C  C210  1  0.04400000  0.22980000  0.35710000  1.0 -0.1822612778
C  C211  1  0.84590000  0.21880000  0.05320000  1.0 0.1591417831
C  C212  1  0.89900000  0.23360000  0.00470000  1.0 -0.3051322806
C  C213  1  0.82920000  0.16440000  0.09780000  1.0 -0.299074798
C  C214  1  0.81860000  0.11270000  0.04470000  1.0 0.1706890747
C  C215  1  0.86170000  0.27000000  0.10260000  1.0 0.0490128739
C  C216  1  0.86390000  0.26640000  0.18030000  1.0 -0.1508948116
C  C217  1  0.87540000  0.31410000  0.22460000  1.0 -0.1713509965
C  C218  1  0.88460000  0.36530000  0.19120000  1.0 0.1315060538
C  C219  1  0.88220000  0.36880000  0.11350000  1.0 -0.1508948116
C  C220  1  0.87070000  0.32110000  0.06920000  1.0 -0.1508948116
C  C221  1  0.89960000  0.41680000  0.24430000  1.0 -0.0726977496
C  C222  1  0.91010000  0.45690000  0.28670000  1.0 -0.1081808218
C  C223  1  0.92630000  0.49960000  0.33710000  1.0 0.1437992483
C  C224  1  0.96060000  0.55530000  0.30830000  1.0 -0.1968481549
C  C225  1  0.97910000  0.60330000  0.35490000  1.0 0.0490128739
C  C226  1  0.92910000  0.54000000  0.45900000  1.0 0.0490128739
C  C227  1  0.91070000  0.49200000  0.41240000  1.0 -0.1947708717
C  C228  1  0.80160000  0.05810000  0.09890000  1.0 0.0575969859
C  C229  1  0.75350000  0.03800000  0.14580000  1.0 -0.1508948116
C  C230  1  0.74000000  0.99230000  0.19480000  1.0 -0.1295071265
C  C231  1  0.77450000  0.96660000  0.19690000  1.0 0.1004565601
C  C232  1  0.82250000  0.98670000  0.14990000  1.0 -0.1387493991
C  C233  1  0.83610000  0.03250000  0.10090000  1.0 -0.1594415253
C  C234  1  0.76260000  0.92370000  0.24440000  1.0 -0.0968901237
C  C235  1  0.75040000  0.88280000  0.29290000  1.0 -0.1165776248
C  C236  1  0.73390000  0.83720000  0.34610000  1.0 0.1706890747
C  C237  1  0.68030000  0.81250000  0.38210000  1.0 -0.1947708717
C  C238  1  0.66310000  0.76480000  0.42900000  1.0 0.0395543303
C  C239  1  0.75290000  0.76650000  0.40400000  1.0 0.0490128739
C  C240  1  0.77020000  0.81420000  0.35710000  1.0 -0.1822612778
C  C241  1  0.78120000  0.62710000  0.05320000  1.0 0.1591417831
C  C242  1  0.76640000  0.66540000  0.00470000  1.0 -0.299074798
C  C243  1  0.83560000  0.66480000  0.09780000  1.0 -0.299074798
C  C244  1  0.88730000  0.70590000  0.04470000  1.0 0.1706890747
C  C245  1  0.73000000  0.59170000  0.10260000  1.0 0.0490128739
C  C246  1  0.73360000  0.59750000  0.18030000  1.0 -0.1508948116
C  C247  1  0.68590000  0.56130000  0.22460000  1.0 -0.1713509965
C  C248  1  0.63470000  0.51930000  0.19120000  1.0 0.1315060538
C  C249  1  0.63120000  0.51340000  0.11350000  1.0 -0.1508948116
C  C250  1  0.67890000  0.54960000  0.06920000  1.0 -0.1508948116
C  C251  1  0.58320000  0.48280000  0.24430000  1.0 -0.0726977496
C  C252  1  0.54310000  0.45320000  0.28670000  1.0 -0.1081808218
C  C253  1  0.50040000  0.42670000  0.33710000  1.0 0.1437992483
C  C254  1  0.44470000  0.40530000  0.30830000  1.0 -0.1968481549
C  C255  1  0.39670000  0.37580000  0.35490000  1.0 0.0490128739
C  C256  1  0.46000000  0.38910000  0.45900000  1.0 0.0490128739
C  C257  1  0.50800000  0.41870000  0.41240000  1.0 -0.1968481549
C  C258  1  0.94190000  0.74350000  0.09890000  1.0 0.0575969859
C  C259  1  0.96200000  0.71550000  0.14580000  1.0 -0.1508948116
C  C260  1  0.00770000  0.74770000  0.19480000  1.0 -0.1295071265
C  C261  1  0.03340000  0.80790000  0.19690000  1.0 0.1004565601
C  C262  1  0.01330000  0.83580000  0.14990000  1.0 -0.1387493991
C  C263  1  0.96750000  0.80360000  0.10090000  1.0 -0.1594415253
C  C264  1  0.07630000  0.83890000  0.24440000  1.0 -0.0968901237
C  C265  1  0.11720000  0.86760000  0.29290000  1.0 -0.1165776248
C  C266  1  0.16280000  0.89670000  0.34610000  1.0 0.1706890747
C  C267  1  0.18750000  0.86780000  0.38210000  1.0 -0.1968481549
C  C268  1  0.23520000  0.89830000  0.42900000  1.0 0.0395543303
C  C269  1  0.23350000  0.98640000  0.40400000  1.0 0.0490128739
C  C270  1  0.18580000  0.95600000  0.35710000  1.0 -0.1822612778
C  C271  1  0.62710000  0.84590000  0.05320000  1.0 0.1591417831
C  C272  1  0.66540000  0.89900000  0.00470000  1.0 -0.3051322806
C  C273  1  0.66480000  0.82920000  0.09780000  1.0 -0.299074798
C  C274  1  0.70590000  0.81860000  0.04470000  1.0 0.1706890747
C  C275  1  0.59170000  0.86170000  0.10260000  1.0 0.0490128739
C  C276  1  0.59750000  0.86390000  0.18030000  1.0 -0.1508948116
C  C277  1  0.56130000  0.87540000  0.22460000  1.0 -0.1713509965
C  C278  1  0.51930000  0.88460000  0.19120000  1.0 0.1315060538
C  C279  1  0.51340000  0.88220000  0.11350000  1.0 -0.1508948116
C  C280  1  0.54960000  0.87070000  0.06920000  1.0 -0.1508948116
C  C281  1  0.48280000  0.89960000  0.24430000  1.0 -0.0726977496
C  C282  1  0.45320000  0.91010000  0.28670000  1.0 -0.1081808218
C  C283  1  0.42670000  0.92630000  0.33710000  1.0 0.1437992483
C  C284  1  0.40530000  0.96060000  0.30830000  1.0 -0.1968481549
C  C285  1  0.37580000  0.97910000  0.35490000  1.0 0.0490128739
C  C286  1  0.38910000  0.92910000  0.45900000  1.0 0.0490128739
C  C287  1  0.41870000  0.91070000  0.41240000  1.0 -0.1968481549
C  C288  1  0.74350000  0.80160000  0.09890000  1.0 0.0575969859
C  C289  1  0.71550000  0.75350000  0.14580000  1.0 -0.1508948116
C  C290  1  0.74770000  0.74000000  0.19480000  1.0 -0.1295071265
C  C291  1  0.80790000  0.77450000  0.19690000  1.0 0.1004565601
C  C292  1  0.83580000  0.82250000  0.14990000  1.0 -0.1387493991
C  C293  1  0.80360000  0.83610000  0.10090000  1.0 -0.1594415253
C  C294  1  0.83890000  0.76260000  0.24440000  1.0 -0.0968901237
C  C295  1  0.86760000  0.75040000  0.29290000  1.0 -0.1165776248
C  C296  1  0.89670000  0.73390000  0.34610000  1.0 0.1706890747
C  C297  1  0.86780000  0.68030000  0.38210000  1.0 -0.1968481549
C  C298  1  0.89830000  0.66310000  0.42900000  1.0 0.0395543303
C  C299  1  0.98640000  0.75290000  0.40400000  1.0 0.0490128739
C  C300  1  0.95600000  0.77020000  0.35710000  1.0 -0.1822612778
C  C301  1  0.15410000  0.78120000  0.05320000  1.0 0.1591417831
C  C302  1  0.10100000  0.76640000  0.00470000  1.0 -0.299074798
C  C303  1  0.17080000  0.83560000  0.09780000  1.0 -0.299074798
C  C304  1  0.18140000  0.88730000  0.04470000  1.0 0.1706890747
C  C305  1  0.13830000  0.73000000  0.10260000  1.0 0.0490128739
C  C306  1  0.13610000  0.73360000  0.18030000  1.0 -0.1508948116
C  C307  1  0.12460000  0.68590000  0.22460000  1.0 -0.1713509965
C  C308  1  0.11540000  0.63470000  0.19120000  1.0 0.1315060538
C  C309  1  0.11780000  0.63120000  0.11350000  1.0 -0.1508948116
C  C310  1  0.12930000  0.67890000  0.06920000  1.0 -0.1508948116
C  C311  1  0.10040000  0.58320000  0.24430000  1.0 -0.0726977496
C  C312  1  0.08990000  0.54310000  0.28670000  1.0 -0.1081808218
C  C313  1  0.07370000  0.50040000  0.33710000  1.0 0.1437992483
C  C314  1  0.03940000  0.44470000  0.30830000  1.0 -0.1968481549
C  C315  1  0.02090000  0.39670000  0.35490000  1.0 0.0490128739
C  C316  1  0.07090000  0.46000000  0.45900000  1.0 0.0490128739
C  C317  1  0.08930000  0.50800000  0.41240000  1.0 -0.1968481549
C  C318  1  0.19840000  0.94190000  0.09890000  1.0 0.0575969859
C  C319  1  0.24650000  0.96200000  0.14580000  1.0 -0.1508948116
C  C320  1  0.26000000  0.00770000  0.19480000  1.0 -0.1295071265
C  C321  1  0.22550000  0.03340000  0.19690000  1.0 0.1004565601
C  C322  1  0.17750000  0.01330000  0.14990000  1.0 -0.1387493991
C  C323  1  0.16390000  0.96750000  0.10090000  1.0 -0.1594415253
C  C324  1  0.23740000  0.07630000  0.24440000  1.0 -0.0968901237
C  C325  1  0.24960000  0.11720000  0.29290000  1.0 -0.1165776248
C  C326  1  0.26610000  0.16280000  0.34610000  1.0 0.1706890747
C  C327  1  0.31970000  0.18750000  0.38210000  1.0 -0.1947708717
C  C328  1  0.33690000  0.23520000  0.42900000  1.0 0.0395543303
C  C329  1  0.24710000  0.23350000  0.40400000  1.0 0.0490128739
C  C330  1  0.22980000  0.18580000  0.35710000  1.0 -0.1822612778
C  C331  1  0.21880000  0.37290000  0.05320000  1.0 0.1591417831
C  C332  1  0.23360000  0.33460000  0.00470000  1.0 -0.3051322806
C  C333  1  0.16440000  0.33520000  0.09780000  1.0 -0.299074798
C  C334  1  0.11270000  0.29410000  0.04470000  1.0 0.1706890747
C  C335  1  0.27000000  0.40830000  0.10260000  1.0 0.0490128739
C  C336  1  0.26640000  0.40250000  0.18030000  1.0 -0.1508948116
C  C337  1  0.31410000  0.43870000  0.22460000  1.0 -0.1713509965
C  C338  1  0.36530000  0.48070000  0.19120000  1.0 0.1315060538
C  C339  1  0.36880000  0.48660000  0.11350000  1.0 -0.1508948116
C  C340  1  0.32110000  0.45040000  0.06920000  1.0 -0.1508948116
C  C341  1  0.41680000  0.51720000  0.24430000  1.0 -0.0726977496
C  C342  1  0.45690000  0.54680000  0.28670000  1.0 -0.1081808218
C  C343  1  0.49960000  0.57330000  0.33710000  1.0 0.1437992483
C  C344  1  0.55530000  0.59470000  0.30830000  1.0 -0.1968481549
C  C345  1  0.60330000  0.62420000  0.35490000  1.0 0.0490128739
C  C346  1  0.54000000  0.61090000  0.45900000  1.0 0.0490128739
C  C347  1  0.49200000  0.58130000  0.41240000  1.0 -0.1968481549
C  C348  1  0.05810000  0.25650000  0.09890000  1.0 0.0575969859
C  C349  1  0.03800000  0.28450000  0.14580000  1.0 -0.1508948116
C  C350  1  0.99230000  0.25230000  0.19480000  1.0 -0.1295071265
C  C351  1  0.96660000  0.19210000  0.19690000  1.0 0.1004565601
C  C352  1  0.98670000  0.16420000  0.14990000  1.0 -0.1387493991
C  C353  1  0.03250000  0.19640000  0.10090000  1.0 -0.1594415253
C  C354  1  0.92370000  0.16110000  0.24440000  1.0 -0.0968901237
C  C355  1  0.88280000  0.13240000  0.29290000  1.0 -0.1165776248
C  C356  1  0.83720000  0.10330000  0.34610000  1.0 0.1706890747
C  C357  1  0.81250000  0.13220000  0.38210000  1.0 -0.1947708717
C  C358  1  0.76480000  0.10170000  0.42900000  1.0 0.0395543303
C  C359  1  0.76650000  0.01360000  0.40400000  1.0 0.0490128739
C  C360  1  0.81420000  0.04400000  0.35710000  1.0 -0.1822612778
C  C361  1  0.20500000  0.79500000  0.00000000  1.0 -0.2935747711
C  C362  1  0.12920000  0.87080000  0.00000000  1.0 -0.3461095103
C  C363  1  0.59000000  0.79500000  0.00000000  1.0 -0.2935747711
C  C364  1  0.74160000  0.87080000  0.00000000  1.0 -0.3461095103
C  C365  1  0.20500000  0.41000000  0.00000000  1.0 -0.2935747711
C  C366  1  0.12920000  0.25840000  0.00000000  1.0 -0.3461095103
C  C367  1  0.79500000  0.20500000  0.00000000  1.0 -0.2935747711
C  C368  1  0.87080000  0.12920000  0.00000000  1.0 -0.3461095103
C  C369  1  0.41000000  0.20500000  0.00000000  1.0 -0.2935747711
C  C370  1  0.25840000  0.12920000  0.00000000  1.0 -0.3461095103
C  C371  1  0.79500000  0.59000000  0.00000000  1.0 -0.2935747711
C  C372  1  0.87080000  0.74160000  0.00000000  1.0 -0.3461095103
N  N1  1  0.59570000  0.96340000  0.56980000  1.0 -0.2438138111
N  N2  1  0.74180000  0.69940000  0.56000000  1.0 -0.2488968281
N  N3  1  0.36770000  0.40430000  0.56980000  1.0 -0.2438138111
N  N4  1  0.95760000  0.25820000  0.56000000  1.0 -0.2488968281
N  N5  1  0.03660000  0.63230000  0.56980000  1.0 -0.2438138111
N  N6  1  0.30060000  0.04240000  0.56000000  1.0 -0.2488968281
N  N7  1  0.40430000  0.03660000  0.56980000  1.0 -0.2438138111
N  N8  1  0.25820000  0.30060000  0.56000000  1.0 -0.2488968281
N  N9  1  0.63230000  0.59570000  0.56980000  1.0 -0.2438138111
N  N10  1  0.04240000  0.74180000  0.56000000  1.0 -0.2488968281
N  N11  1  0.96340000  0.36770000  0.56980000  1.0 -0.2438138111
N  N12  1  0.69940000  0.95760000  0.56000000  1.0 -0.2488968281
N  N13  1  0.63230000  0.03660000  0.43020000  1.0 -0.2438138111
N  N14  1  0.04240000  0.30060000  0.44000000  1.0 -0.2488968281
N  N15  1  0.96340000  0.59570000  0.43020000  1.0 -0.2438138111
N  N16  1  0.69940000  0.74180000  0.44000000  1.0 -0.2488968281
N  N17  1  0.40430000  0.36770000  0.43020000  1.0 -0.2438138111
N  N18  1  0.25820000  0.95760000  0.44000000  1.0 -0.2488968281
N  N19  1  0.36770000  0.96340000  0.43020000  1.0 -0.2438138111
N  N20  1  0.95760000  0.69940000  0.44000000  1.0 -0.2488968281
N  N21  1  0.03660000  0.40430000  0.43020000  1.0 -0.2438138111
N  N22  1  0.30060000  0.25820000  0.44000000  1.0 -0.2488968281
N  N23  1  0.59570000  0.63230000  0.43020000  1.0 -0.2438138111
N  N24  1  0.74180000  0.04240000  0.44000000  1.0 -0.2488968281
