# DDEC6 charges by PACMAN v1.1 (https://github.com/mtap-research/PACMAN-charge/)
data_XUKMUO_FSR_pacman
_symmetry_space_group_name_H-M   'P 1'
_cell_length_a   26.15800000
_cell_length_b   26.15800000
_cell_length_c   18.10500000
_cell_angle_alpha   90.00000000
_cell_angle_beta   90.00000000
_cell_angle_gamma   120.00000000
_symmetry_Int_Tables_number   1
_chemical_formula_structural   CuH44(C31N2)2
_chemical_formula_sum   'Cu6 H264 C372 N24'
_cell_volume   10728.48088441
_cell_formula_units_Z   6
loop_
 _symmetry_equiv_pos_site_id
 _symmetry_equiv_pos_as_xyz
  1  'x, y, z'
loop_
 _atom_site_type_symbol
 _atom_site_label
 _atom_site_symmetry_multiplicity
 _atom_site_fract_x
 _atom_site_fract_y
 _atom_site_fract_z
 _atom_site_occupancy
 _atom_site_charge
Cu  Cu1  1  0.66680000  0.00000000  0.50000000  1.0 0.3729168404
Cu  Cu2  1  0.33320000  0.33320000  0.50000000  1.0 0.3729168404
Cu  Cu3  1  0.00000000  0.66680000  0.50000000  1.0 0.3759744872
Cu  Cu4  1  0.33320000  0.00000000  0.50000000  1.0 0.3729168404
Cu  Cu5  1  0.66680000  0.66680000  0.50000000  1.0 0.3729168404
Cu  Cu6  1  0.00000000  0.33320000  0.50000000  1.0 0.3729168404
H  H1  1  0.15684000  0.79573000  0.12556000  1.0 0.0939047221
H  H2  1  0.17575000  0.86383000  0.13159000  1.0 0.1007065653
H  H3  1  0.26998000  0.91041000  0.97132000  1.0 0.1007065653
H  H4  1  0.24458000  0.93454000  0.03422000  1.0 0.1104163775
H  H5  1  0.19591000  0.76133000  0.03124000  1.0 0.0939047221
H  H6  1  0.13769000  0.90599000  0.03075000  1.0 0.1007065653
H  H7  1  0.23151000  0.85334000  0.19785000  1.0 0.1104163775
H  H8  1  0.31312000  0.87589000  0.27257000  1.0 0.1104163775
H  H9  1  0.41021000  0.89249000  0.09029000  1.0 0.1202703197
H  H10  1  0.32860000  0.86995000  0.01557000  1.0 0.1202703197
H  H11  1  0.56856000  0.97336000  0.25712000  1.0 0.1294580851
H  H12  1  0.64821000  0.00426000  0.33840000  1.0 0.1104163775
H  H13  1  0.53441000  0.92154000  0.50706000  1.0 0.1007065653
H  H14  1  0.45476000  0.89063000  0.42578000  1.0 0.1294580851
H  H15  1  0.04698000  0.86929000  0.06536000  1.0 0.1104163775
H  H16  1  0.97087000  0.84986000  0.14850000  1.0 0.1202703197
H  H17  1  0.98056000  0.71058000  0.22979000  1.0 0.1104163775
H  H18  1  0.05667000  0.73001000  0.14666000  1.0 0.1202703197
H  H19  1  0.82709000  0.65395000  0.37330000  1.0 0.1294580851
H  H20  1  0.74702000  0.62451000  0.45351000  1.0 0.1007065653
H  H21  1  0.75009000  0.77880000  0.41617000  1.0 0.1104163775
H  H22  1  0.83016000  0.80823000  0.33595000  1.0 0.1294580851
H  H23  1  0.63889000  0.84316000  0.12556000  1.0 0.0939047221
H  H24  1  0.68808000  0.82425000  0.13159000  1.0 0.1007065653
H  H25  1  0.64043000  0.73002000  0.97132000  1.0 0.1007065653
H  H26  1  0.68996000  0.75542000  0.03422000  1.0 0.1104163775
H  H27  1  0.56542000  0.80409000  0.03124000  1.0 0.0939047221
H  H28  1  0.76830000  0.86231000  0.03075000  1.0 0.1007065653
H  H29  1  0.62183000  0.76849000  0.19785000  1.0 0.1104163775
H  H30  1  0.56277000  0.68688000  0.27257000  1.0 0.1104163775
H  H31  1  0.48228000  0.58979000  0.09029000  1.0 0.1202703197
H  H32  1  0.54135000  0.67140000  0.01557000  1.0 0.1202703197
H  H33  1  0.40480000  0.43144000  0.25712000  1.0 0.1294580851
H  H34  1  0.35605000  0.35179000  0.33840000  1.0 0.1104163775
H  H35  1  0.38713000  0.46559000  0.50706000  1.0 0.1007065653
H  H36  1  0.43587000  0.54524000  0.42578000  1.0 0.1294580851
H  H37  1  0.82231000  0.95302000  0.06536000  1.0 0.1104163775
H  H38  1  0.87899000  0.02913000  0.14850000  1.0 0.1202703197
H  H39  1  0.73002000  0.01944000  0.22979000  1.0 0.1104163775
H  H40  1  0.67334000  0.94333000  0.14666000  1.0 0.1202703197
H  H41  1  0.82686000  0.17291000  0.37330000  1.0 0.1294580851
H  H42  1  0.87749000  0.25298000  0.45351000  1.0 0.1007065653
H  H43  1  0.02871000  0.24991000  0.41617000  1.0 0.1104163775
H  H44  1  0.97807000  0.16984000  0.33595000  1.0 0.1294580851
H  H45  1  0.20427000  0.36111000  0.12556000  1.0 0.0939047221
H  H46  1  0.13617000  0.31192000  0.13159000  1.0 0.1007065653
H  H47  1  0.08959000  0.35957000  0.97132000  1.0 0.1007065653
H  H48  1  0.06546000  0.31004000  0.03422000  1.0 0.1104163775
H  H49  1  0.23867000  0.43458000  0.03124000  1.0 0.0939047221
H  H50  1  0.09401000  0.23170000  0.03075000  1.0 0.1007065653
H  H51  1  0.14666000  0.37817000  0.19785000  1.0 0.1104163775
H  H52  1  0.12411000  0.43723000  0.27257000  1.0 0.1104163775
H  H53  1  0.10751000  0.51772000  0.09029000  1.0 0.1202703197
H  H54  1  0.13005000  0.45865000  0.01557000  1.0 0.1202703197
H  H55  1  0.02664000  0.59520000  0.25712000  1.0 0.1294580851
H  H56  1  0.99574000  0.64395000  0.33840000  1.0 0.1104163775
H  H57  1  0.07846000  0.61287000  0.50706000  1.0 0.1007065653
H  H58  1  0.10937000  0.56413000  0.42578000  1.0 0.1294580851
H  H59  1  0.13071000  0.17769000  0.06536000  1.0 0.1104163775
H  H60  1  0.15014000  0.12101000  0.14850000  1.0 0.1202703197
H  H61  1  0.28942000  0.26998000  0.22979000  1.0 0.1104163775
H  H62  1  0.26999000  0.32666000  0.14666000  1.0 0.1202703197
H  H63  1  0.34605000  0.17314000  0.37330000  1.0 0.1294580851
H  H64  1  0.37549000  0.12251000  0.45351000  1.0 0.1007065653
H  H65  1  0.22120000  0.97129000  0.41617000  1.0 0.1104163775
H  H66  1  0.19177000  0.02193000  0.33595000  1.0 0.1294580851
H  H67  1  0.84316000  0.20427000  0.12556000  1.0 0.0939047221
H  H68  1  0.82425000  0.13617000  0.13159000  1.0 0.1007065653
H  H69  1  0.73002000  0.08959000  0.97132000  1.0 0.1007065653
H  H70  1  0.75542000  0.06546000  0.03422000  1.0 0.1104163775
H  H71  1  0.80409000  0.23867000  0.03124000  1.0 0.0939047221
H  H72  1  0.86231000  0.09401000  0.03075000  1.0 0.1007065653
H  H73  1  0.76849000  0.14666000  0.19785000  1.0 0.1104163775
H  H74  1  0.68688000  0.12411000  0.27257000  1.0 0.1104163775
H  H75  1  0.58979000  0.10751000  0.09029000  1.0 0.1202703197
H  H76  1  0.67140000  0.13005000  0.01557000  1.0 0.1202703197
H  H77  1  0.43144000  0.02664000  0.25712000  1.0 0.1294580851
H  H78  1  0.35179000  0.99574000  0.33840000  1.0 0.1104163775
H  H79  1  0.46559000  0.07846000  0.50706000  1.0 0.1007065653
H  H80  1  0.54524000  0.10937000  0.42578000  1.0 0.1294580851
H  H81  1  0.95302000  0.13071000  0.06536000  1.0 0.1104163775
H  H82  1  0.02913000  0.15014000  0.14850000  1.0 0.1202703197
H  H83  1  0.01944000  0.28942000  0.22979000  1.0 0.1104163775
H  H84  1  0.94333000  0.26999000  0.14666000  1.0 0.1202703197
H  H85  1  0.17291000  0.34605000  0.37330000  1.0 0.1294580851
H  H86  1  0.25298000  0.37549000  0.45351000  1.0 0.1007065653
H  H87  1  0.24991000  0.22120000  0.41617000  1.0 0.1104163775
H  H88  1  0.16984000  0.19177000  0.33595000  1.0 0.1294580851
H  H89  1  0.36111000  0.15684000  0.12556000  1.0 0.0939047221
H  H90  1  0.31192000  0.17575000  0.13159000  1.0 0.1007065653
H  H91  1  0.35957000  0.26998000  0.97132000  1.0 0.1007065653
H  H92  1  0.31004000  0.24458000  0.03422000  1.0 0.1104163775
H  H93  1  0.43458000  0.19591000  0.03124000  1.0 0.0939047221
H  H94  1  0.23170000  0.13769000  0.03075000  1.0 0.1007065653
H  H95  1  0.37817000  0.23151000  0.19785000  1.0 0.1104163775
H  H96  1  0.43723000  0.31312000  0.27257000  1.0 0.1104163775
H  H97  1  0.51772000  0.41021000  0.09029000  1.0 0.1202703197
H  H98  1  0.45865000  0.32860000  0.01557000  1.0 0.1202703197
H  H99  1  0.59520000  0.56856000  0.25712000  1.0 0.1294580851
H  H100  1  0.64395000  0.64821000  0.33840000  1.0 0.1104163775
H  H101  1  0.61287000  0.53441000  0.50706000  1.0 0.1007065653
H  H102  1  0.56413000  0.45476000  0.42578000  1.0 0.1294580851
H  H103  1  0.17769000  0.04698000  0.06536000  1.0 0.1104163775
H  H104  1  0.12101000  0.97087000  0.14850000  1.0 0.1202703197
H  H105  1  0.26998000  0.98056000  0.22979000  1.0 0.1104163775
H  H106  1  0.32666000  0.05667000  0.14666000  1.0 0.1202703197
H  H107  1  0.17314000  0.82709000  0.37330000  1.0 0.1294580851
H  H108  1  0.12251000  0.74702000  0.45351000  1.0 0.1007065653
H  H109  1  0.97129000  0.75009000  0.41617000  1.0 0.1104163775
H  H110  1  0.02193000  0.83016000  0.33595000  1.0 0.1294580851
H  H111  1  0.79573000  0.63889000  0.12556000  1.0 0.0939047221
H  H112  1  0.86383000  0.68808000  0.13159000  1.0 0.1007065653
H  H113  1  0.91041000  0.64043000  0.97132000  1.0 0.1007065653
H  H114  1  0.93454000  0.68996000  0.03422000  1.0 0.1104163775
H  H115  1  0.76133000  0.56542000  0.03124000  1.0 0.0939047221
H  H116  1  0.90599000  0.76830000  0.03075000  1.0 0.1007065653
H  H117  1  0.85334000  0.62183000  0.19785000  1.0 0.1104163775
H  H118  1  0.87589000  0.56277000  0.27257000  1.0 0.1104163775
H  H119  1  0.89249000  0.48228000  0.09029000  1.0 0.1202703197
H  H120  1  0.86995000  0.54135000  0.01557000  1.0 0.1202703197
H  H121  1  0.97336000  0.40480000  0.25712000  1.0 0.1294580851
H  H122  1  0.00426000  0.35605000  0.33840000  1.0 0.1104163775
H  H123  1  0.92154000  0.38713000  0.50706000  1.0 0.1007065653
H  H124  1  0.89063000  0.43587000  0.42578000  1.0 0.1294580851
H  H125  1  0.86929000  0.82231000  0.06536000  1.0 0.1104163775
H  H126  1  0.84986000  0.87899000  0.14850000  1.0 0.1202703197
H  H127  1  0.71058000  0.73002000  0.22979000  1.0 0.1104163775
H  H128  1  0.73001000  0.67334000  0.14666000  1.0 0.1202703197
H  H129  1  0.65395000  0.82686000  0.37330000  1.0 0.1294580851
H  H130  1  0.62451000  0.87749000  0.45351000  1.0 0.1007065653
H  H131  1  0.77880000  0.02871000  0.41617000  1.0 0.1104163775
H  H132  1  0.80823000  0.97807000  0.33595000  1.0 0.1294580851
H  H133  1  0.36111000  0.20427000  0.87444000  1.0 0.0939047221
H  H134  1  0.31192000  0.13617000  0.86841000  1.0 0.1007065653
H  H135  1  0.35957000  0.08959000  0.02868000  1.0 0.1007065653
H  H136  1  0.31004000  0.06546000  0.96578000  1.0 0.1104163775
H  H137  1  0.43458000  0.23867000  0.96876000  1.0 0.0939047221
H  H138  1  0.23170000  0.09401000  0.96925000  1.0 0.1007065653
H  H139  1  0.37817000  0.14666000  0.80215000  1.0 0.1104163775
H  H140  1  0.43723000  0.12411000  0.72743000  1.0 0.1104163775
H  H141  1  0.51772000  0.10751000  0.90971000  1.0 0.1202703197
H  H142  1  0.45865000  0.13005000  0.98443000  1.0 0.1202703197
H  H143  1  0.59520000  0.02664000  0.74288000  1.0 0.1294580851
H  H144  1  0.64395000  0.99574000  0.66160000  1.0 0.1104163775
H  H145  1  0.61287000  0.07846000  0.49294000  1.0 0.1007065653
H  H146  1  0.56413000  0.10937000  0.57422000  1.0 0.1294580851
H  H147  1  0.17769000  0.13071000  0.93464000  1.0 0.1104163775
H  H148  1  0.12101000  0.15014000  0.85150000  1.0 0.1202703197
H  H149  1  0.26998000  0.28942000  0.77021000  1.0 0.1104163775
H  H150  1  0.32666000  0.26999000  0.85334000  1.0 0.1202703197
H  H151  1  0.17314000  0.34605000  0.62670000  1.0 0.1294580851
H  H152  1  0.12251000  0.37549000  0.54649000  1.0 0.1007065653
H  H153  1  0.97129000  0.22120000  0.58383000  1.0 0.1104163775
H  H154  1  0.02193000  0.19177000  0.66405000  1.0 0.1294580851
H  H155  1  0.79573000  0.15684000  0.87444000  1.0 0.0939047221
H  H156  1  0.86383000  0.17575000  0.86841000  1.0 0.1007065653
H  H157  1  0.91041000  0.26998000  0.02868000  1.0 0.1007065653
H  H158  1  0.93454000  0.24458000  0.96578000  1.0 0.1104163775
H  H159  1  0.76133000  0.19591000  0.96876000  1.0 0.0939047221
H  H160  1  0.90599000  0.13769000  0.96925000  1.0 0.1007065653
H  H161  1  0.85334000  0.23151000  0.80215000  1.0 0.1104163775
H  H162  1  0.87589000  0.31312000  0.72743000  1.0 0.1104163775
H  H163  1  0.89249000  0.41021000  0.90971000  1.0 0.1202703197
H  H164  1  0.86995000  0.32860000  0.98443000  1.0 0.1202703197
H  H165  1  0.97336000  0.56856000  0.74288000  1.0 0.1294580851
H  H166  1  0.00426000  0.64821000  0.66160000  1.0 0.1104163775
H  H167  1  0.92154000  0.53441000  0.49294000  1.0 0.1007065653
H  H168  1  0.89063000  0.45476000  0.57422000  1.0 0.1294580851
H  H169  1  0.86929000  0.04698000  0.93464000  1.0 0.1104163775
H  H170  1  0.84986000  0.97087000  0.85150000  1.0 0.1202703197
H  H171  1  0.71058000  0.98056000  0.77021000  1.0 0.1104163775
H  H172  1  0.73001000  0.05667000  0.85334000  1.0 0.1202703197
H  H173  1  0.65395000  0.82709000  0.62670000  1.0 0.1294580851
H  H174  1  0.62451000  0.74702000  0.54649000  1.0 0.1007065653
H  H175  1  0.77880000  0.75009000  0.58383000  1.0 0.1104163775
H  H176  1  0.80823000  0.83016000  0.66405000  1.0 0.1294580851
H  H177  1  0.84316000  0.63889000  0.87444000  1.0 0.0939047221
H  H178  1  0.82425000  0.68808000  0.86841000  1.0 0.1007065653
H  H179  1  0.73002000  0.64043000  0.02868000  1.0 0.1007065653
H  H180  1  0.75542000  0.68996000  0.96578000  1.0 0.1104163775
H  H181  1  0.80409000  0.56542000  0.96876000  1.0 0.0939047221
H  H182  1  0.86231000  0.76830000  0.96925000  1.0 0.1007065653
H  H183  1  0.76849000  0.62183000  0.80215000  1.0 0.1104163775
H  H184  1  0.68688000  0.56277000  0.72743000  1.0 0.1104163775
H  H185  1  0.58979000  0.48228000  0.90971000  1.0 0.1202703197
H  H186  1  0.67140000  0.54135000  0.98443000  1.0 0.1202703197
H  H187  1  0.43144000  0.40480000  0.74288000  1.0 0.1294580851
H  H188  1  0.35179000  0.35605000  0.66160000  1.0 0.1104163775
H  H189  1  0.46559000  0.38713000  0.49294000  1.0 0.1007065653
H  H190  1  0.54524000  0.43587000  0.57422000  1.0 0.1294580851
H  H191  1  0.95302000  0.82231000  0.93464000  1.0 0.1104163775
H  H192  1  0.02913000  0.87899000  0.85150000  1.0 0.1202703197
H  H193  1  0.01944000  0.73002000  0.77021000  1.0 0.1104163775
H  H194  1  0.94333000  0.67334000  0.85334000  1.0 0.1202703197
H  H195  1  0.17291000  0.82686000  0.62670000  1.0 0.1294580851
H  H196  1  0.25298000  0.87749000  0.54649000  1.0 0.1007065653
H  H197  1  0.24991000  0.02871000  0.58383000  1.0 0.1104163775
H  H198  1  0.16984000  0.97807000  0.66405000  1.0 0.1294580851
H  H199  1  0.63889000  0.79573000  0.87444000  1.0 0.0939047221
H  H200  1  0.68808000  0.86383000  0.86841000  1.0 0.1007065653
H  H201  1  0.64043000  0.91041000  0.02868000  1.0 0.1007065653
H  H202  1  0.68996000  0.93454000  0.96578000  1.0 0.1104163775
H  H203  1  0.56542000  0.76133000  0.96876000  1.0 0.0939047221
H  H204  1  0.76830000  0.90599000  0.96925000  1.0 0.1007065653
H  H205  1  0.62183000  0.85334000  0.80215000  1.0 0.1104163775
H  H206  1  0.56277000  0.87589000  0.72743000  1.0 0.1104163775
H  H207  1  0.48228000  0.89249000  0.90971000  1.0 0.1202703197
H  H208  1  0.54135000  0.86995000  0.98443000  1.0 0.1202703197
H  H209  1  0.40480000  0.97336000  0.74288000  1.0 0.1294580851
H  H210  1  0.35605000  0.00426000  0.66160000  1.0 0.1104163775
H  H211  1  0.38713000  0.92154000  0.49294000  1.0 0.1007065653
H  H212  1  0.43587000  0.89063000  0.57422000  1.0 0.1294580851
H  H213  1  0.82231000  0.86929000  0.93464000  1.0 0.1104163775
H  H214  1  0.87899000  0.84986000  0.85150000  1.0 0.1202703197
H  H215  1  0.73002000  0.71058000  0.77021000  1.0 0.1104163775
H  H216  1  0.67334000  0.73001000  0.85334000  1.0 0.1202703197
H  H217  1  0.82686000  0.65395000  0.62670000  1.0 0.1294580851
H  H218  1  0.87749000  0.62451000  0.54649000  1.0 0.1007065653
H  H219  1  0.02871000  0.77880000  0.58383000  1.0 0.1104163775
H  H220  1  0.97807000  0.80823000  0.66405000  1.0 0.1294580851
H  H221  1  0.20427000  0.84316000  0.87444000  1.0 0.0939047221
H  H222  1  0.13617000  0.82425000  0.86841000  1.0 0.1007065653
H  H223  1  0.08959000  0.73002000  0.02868000  1.0 0.1007065653
H  H224  1  0.06546000  0.75542000  0.96578000  1.0 0.1104163775
H  H225  1  0.23867000  0.80409000  0.96876000  1.0 0.0939047221
H  H226  1  0.09401000  0.86231000  0.96925000  1.0 0.1007065653
H  H227  1  0.14666000  0.76849000  0.80215000  1.0 0.1104163775
H  H228  1  0.12411000  0.68688000  0.72743000  1.0 0.1104163775
H  H229  1  0.10751000  0.58979000  0.90971000  1.0 0.1202703197
H  H230  1  0.13005000  0.67140000  0.98443000  1.0 0.1202703197
H  H231  1  0.02664000  0.43144000  0.74288000  1.0 0.1294580851
H  H232  1  0.99574000  0.35179000  0.66160000  1.0 0.1104163775
H  H233  1  0.07846000  0.46559000  0.49294000  1.0 0.1007065653
H  H234  1  0.10937000  0.54524000  0.57422000  1.0 0.1294580851
H  H235  1  0.13071000  0.95302000  0.93464000  1.0 0.1104163775
H  H236  1  0.15014000  0.02913000  0.85150000  1.0 0.1202703197
H  H237  1  0.28942000  0.01944000  0.77021000  1.0 0.1104163775
H  H238  1  0.26999000  0.94333000  0.85334000  1.0 0.1202703197
H  H239  1  0.34605000  0.17291000  0.62670000  1.0 0.1294580851
H  H240  1  0.37549000  0.25298000  0.54649000  1.0 0.1007065653
H  H241  1  0.22120000  0.24991000  0.58383000  1.0 0.1104163775
H  H242  1  0.19177000  0.16984000  0.66405000  1.0 0.1294580851
H  H243  1  0.15684000  0.36111000  0.87444000  1.0 0.0939047221
H  H244  1  0.17575000  0.31192000  0.86841000  1.0 0.1007065653
H  H245  1  0.26998000  0.35957000  0.02868000  1.0 0.1007065653
H  H246  1  0.24458000  0.31004000  0.96578000  1.0 0.1104163775
H  H247  1  0.19591000  0.43458000  0.96876000  1.0 0.0939047221
H  H248  1  0.13769000  0.23170000  0.96925000  1.0 0.1007065653
H  H249  1  0.23151000  0.37817000  0.80215000  1.0 0.1104163775
H  H250  1  0.31312000  0.43723000  0.72743000  1.0 0.1104163775
H  H251  1  0.41021000  0.51772000  0.90971000  1.0 0.1202703197
H  H252  1  0.32860000  0.45865000  0.98443000  1.0 0.1202703197
H  H253  1  0.56856000  0.59520000  0.74288000  1.0 0.1294580851
H  H254  1  0.64821000  0.64395000  0.66160000  1.0 0.1104163775
H  H255  1  0.53441000  0.61287000  0.49294000  1.0 0.1007065653
H  H256  1  0.45476000  0.56413000  0.57422000  1.0 0.1294580851
H  H257  1  0.04698000  0.17769000  0.93464000  1.0 0.1104163775
H  H258  1  0.97087000  0.12101000  0.85150000  1.0 0.1202703197
H  H259  1  0.98056000  0.26998000  0.77021000  1.0 0.1104163775
H  H260  1  0.05667000  0.32666000  0.85334000  1.0 0.1202703197
H  H261  1  0.82709000  0.17314000  0.62670000  1.0 0.1294580851
H  H262  1  0.74702000  0.12251000  0.54649000  1.0 0.1007065653
H  H263  1  0.75009000  0.97129000  0.58383000  1.0 0.1104163775
H  H264  1  0.83016000  0.02193000  0.66405000  1.0 0.1294580851
C  C1  1  0.22320000  0.84830000  0.05110000  1.0 0.1540848721
C  C2  1  0.16690000  0.83150000  0.09630000  1.0 -0.2876586806
C  C3  1  0.23500000  0.90010000  0.00240000  1.0 -0.2973601908
C  C4  1  0.11220000  0.81960000  0.05050000  1.0 0.1674709429
C  C5  1  0.27240000  0.85950000  0.09970000  1.0 0.0404978492
C  C6  1  0.26780000  0.86130000  0.17600000  1.0 -0.1510883991
C  C7  1  0.31630000  0.87470000  0.22040000  1.0 -0.1613421938
C  C8  1  0.36930000  0.88630000  0.18850000  1.0 0.1294580851
C  C9  1  0.37390000  0.88450000  0.11210000  1.0 -0.1430135883
C  C10  1  0.32550000  0.87120000  0.06770000  1.0 -0.1510883991
C  C11  1  0.42170000  0.90230000  0.23120000  1.0 -0.0873181736
C  C12  1  0.45820000  0.91340000  0.28280000  1.0 -0.110201589
C  C13  1  0.50420000  0.92910000  0.33380000  1.0 0.1607388565
C  C14  1  0.56160000  0.96280000  0.30790000  1.0 -0.1886401205
C  C15  1  0.60890000  0.98120000  0.35610000  1.0 0.0404978492
C  C16  1  0.54130000  0.93200000  0.45630000  1.0 0.0404978492
C  C17  1  0.49400000  0.91370000  0.40800000  1.0 -0.2018428933
C  C18  1  0.05900000  0.80150000  0.09820000  1.0 0.0510060523
C  C19  1  0.03350000  0.83710000  0.09870000  1.0 -0.1613421938
C  C20  1  0.98830000  0.82550000  0.14810000  1.0 -0.1430135883
C  C21  1  0.96860000  0.77840000  0.19700000  1.0 0.1202703197
C  C22  1  0.99400000  0.74280000  0.19640000  1.0 -0.1430135883
C  C23  1  0.03930000  0.75440000  0.14700000  1.0 -0.1430135883
C  C24  1  0.88190000  0.74980000  0.29650000  1.0 -0.1286794732
C  C25  1  0.92300000  0.76330000  0.24870000  1.0 -0.110201589
C  C26  1  0.83610000  0.73390000  0.34710000  1.0 0.1674709429
C  C27  1  0.81150000  0.67930000  0.38200000  1.0 -0.1886401205
C  C28  1  0.76390000  0.66180000  0.42960000  1.0 0.0325394089
C  C29  1  0.76570000  0.75350000  0.40750000  1.0 0.0404978492
C  C30  1  0.81330000  0.77090000  0.35980000  1.0 -0.1797638166
C  C31  1  0.62510000  0.77680000  0.05110000  1.0 0.1540848721
C  C32  1  0.66460000  0.83310000  0.09630000  1.0 -0.2876586806
C  C33  1  0.66510000  0.76500000  0.00240000  1.0 -0.2973601908
C  C34  1  0.70740000  0.88780000  0.05050000  1.0 0.1674709429
C  C35  1  0.58710000  0.72760000  0.09970000  1.0 0.0404978492
C  C36  1  0.59350000  0.73220000  0.17600000  1.0 -0.1510883991
C  C37  1  0.55840000  0.68370000  0.22040000  1.0 -0.1613421938
C  C38  1  0.51700000  0.63070000  0.18850000  1.0 0.1294580851
C  C39  1  0.51060000  0.62610000  0.11210000  1.0 -0.1430135883
C  C40  1  0.54570000  0.67450000  0.06770000  1.0 -0.1510883991
C  C41  1  0.48060000  0.57830000  0.23120000  1.0 -0.0873181736
C  C42  1  0.45520000  0.54180000  0.28280000  1.0 -0.1047805439
C  C43  1  0.42490000  0.49580000  0.33380000  1.0 0.1607388565
C  C44  1  0.40120000  0.43840000  0.30790000  1.0 -0.1886401205
C  C45  1  0.37230000  0.39110000  0.35610000  1.0 0.0404978492
C  C46  1  0.39070000  0.45870000  0.45630000  1.0 0.0404978492
C  C47  1  0.41970000  0.50600000  0.40800000  1.0 -0.2018428933
C  C48  1  0.74250000  0.94100000  0.09820000  1.0 0.0510060523
C  C49  1  0.80360000  0.96650000  0.09870000  1.0 -0.1510883991
C  C50  1  0.83720000  0.01170000  0.14810000  1.0 -0.1430135883
C  C51  1  0.80980000  0.03140000  0.19700000  1.0 0.1202703197
C  C52  1  0.74880000  0.00600000  0.19640000  1.0 -0.1430135883
C  C53  1  0.71510000  0.96070000  0.14700000  1.0 -0.1510883991
C  C54  1  0.86790000  0.11810000  0.29650000  1.0 -0.1286794732
C  C55  1  0.84030000  0.07700000  0.24870000  1.0 -0.110201589
C  C56  1  0.89780000  0.16390000  0.34710000  1.0 0.1674709429
C  C57  1  0.86780000  0.18850000  0.38200000  1.0 -0.1886401205
C  C58  1  0.89790000  0.23610000  0.42960000  1.0 0.0325394089
C  C59  1  0.98780000  0.23430000  0.40750000  1.0 0.0404978492
C  C60  1  0.95760000  0.18670000  0.35980000  1.0 -0.1797638166
C  C61  1  0.15170000  0.37490000  0.05110000  1.0 0.1540848721
C  C62  1  0.16850000  0.33540000  0.09630000  1.0 -0.2876586806
C  C63  1  0.09990000  0.33490000  0.00240000  1.0 -0.2973601908
C  C64  1  0.18040000  0.29260000  0.05050000  1.0 0.1674709429
C  C65  1  0.14050000  0.41290000  0.09970000  1.0 0.0404978492
C  C66  1  0.13870000  0.40650000  0.17600000  1.0 -0.1510883991
C  C67  1  0.12530000  0.44160000  0.22040000  1.0 -0.1613421938
C  C68  1  0.11370000  0.48300000  0.18850000  1.0 0.1294580851
C  C69  1  0.11550000  0.48940000  0.11210000  1.0 -0.1430135883
C  C70  1  0.12880000  0.45430000  0.06770000  1.0 -0.1510883991
C  C71  1  0.09770000  0.51940000  0.23120000  1.0 -0.0873181736
C  C72  1  0.08660000  0.54480000  0.28280000  1.0 -0.110201589
C  C73  1  0.07090000  0.57510000  0.33380000  1.0 0.1607388565
C  C74  1  0.03720000  0.59880000  0.30790000  1.0 -0.1886401205
C  C75  1  0.01880000  0.62770000  0.35610000  1.0 0.0404978492
C  C76  1  0.06800000  0.60930000  0.45630000  1.0 0.0404978492
C  C77  1  0.08630000  0.58030000  0.40800000  1.0 -0.2018428933
C  C78  1  0.19850000  0.25750000  0.09820000  1.0 0.0510060523
C  C79  1  0.16290000  0.19640000  0.09870000  1.0 -0.1510883991
C  C80  1  0.17450000  0.16280000  0.14810000  1.0 -0.1430135883
C  C81  1  0.22160000  0.19020000  0.19700000  1.0 0.1202703197
C  C82  1  0.25720000  0.25120000  0.19640000  1.0 -0.1430135883
C  C83  1  0.24560000  0.28490000  0.14700000  1.0 -0.1430135883
C  C84  1  0.25020000  0.13210000  0.29650000  1.0 -0.1286794732
C  C85  1  0.23670000  0.15970000  0.24870000  1.0 -0.110201589
C  C86  1  0.26610000  0.10220000  0.34710000  1.0 0.1674709429
C  C87  1  0.32070000  0.13220000  0.38200000  1.0 -0.1886401205
C  C88  1  0.33820000  0.10210000  0.42960000  1.0 0.0325394089
C  C89  1  0.24650000  0.01220000  0.40750000  1.0 0.0404978492
C  C90  1  0.22910000  0.04240000  0.35980000  1.0 -0.1797638166
C  C91  1  0.77680000  0.15170000  0.05110000  1.0 0.1540848721
C  C92  1  0.83310000  0.16850000  0.09630000  1.0 -0.2876586806
C  C93  1  0.76500000  0.09990000  0.00240000  1.0 -0.2973601908
C  C94  1  0.88780000  0.18040000  0.05050000  1.0 0.1674709429
C  C95  1  0.72760000  0.14050000  0.09970000  1.0 0.0404978492
C  C96  1  0.73220000  0.13870000  0.17600000  1.0 -0.1510883991
C  C97  1  0.68370000  0.12530000  0.22040000  1.0 -0.1613421938
C  C98  1  0.63070000  0.11370000  0.18850000  1.0 0.1294580851
C  C99  1  0.62610000  0.11550000  0.11210000  1.0 -0.1430135883
C  C100  1  0.67450000  0.12880000  0.06770000  1.0 -0.1510883991
C  C101  1  0.57830000  0.09770000  0.23120000  1.0 -0.0873181736
C  C102  1  0.54180000  0.08660000  0.28280000  1.0 -0.110201589
C  C103  1  0.49580000  0.07090000  0.33380000  1.0 0.1607388565
C  C104  1  0.43840000  0.03720000  0.30790000  1.0 -0.1886401205
C  C105  1  0.39110000  0.01880000  0.35610000  1.0 0.0404978492
C  C106  1  0.45870000  0.06800000  0.45630000  1.0 0.0404978492
C  C107  1  0.50600000  0.08630000  0.40800000  1.0 -0.2018428933
C  C108  1  0.94100000  0.19850000  0.09820000  1.0 0.0510060523
C  C109  1  0.96650000  0.16290000  0.09870000  1.0 -0.1510883991
C  C110  1  0.01170000  0.17450000  0.14810000  1.0 -0.1430135883
C  C111  1  0.03140000  0.22160000  0.19700000  1.0 0.1202703197
C  C112  1  0.00600000  0.25720000  0.19640000  1.0 -0.1430135883
C  C113  1  0.96070000  0.24560000  0.14700000  1.0 -0.1430135883
C  C114  1  0.11810000  0.25020000  0.29650000  1.0 -0.1286794732
C  C115  1  0.07700000  0.23670000  0.24870000  1.0 -0.110201589
C  C116  1  0.16390000  0.26610000  0.34710000  1.0 0.1674709429
C  C117  1  0.18850000  0.32070000  0.38200000  1.0 -0.1886401205
C  C118  1  0.23610000  0.33820000  0.42960000  1.0 0.0325394089
C  C119  1  0.23430000  0.24650000  0.40750000  1.0 0.0404978492
C  C120  1  0.18670000  0.22910000  0.35980000  1.0 -0.1797638166
C  C121  1  0.37490000  0.22320000  0.05110000  1.0 0.1540848721
C  C122  1  0.33540000  0.16690000  0.09630000  1.0 -0.2876586806
C  C123  1  0.33490000  0.23500000  0.00240000  1.0 -0.2973601908
C  C124  1  0.29260000  0.11220000  0.05050000  1.0 0.1674709429
C  C125  1  0.41290000  0.27240000  0.09970000  1.0 0.0404978492
C  C126  1  0.40650000  0.26780000  0.17600000  1.0 -0.1510883991
C  C127  1  0.44160000  0.31630000  0.22040000  1.0 -0.1613421938
C  C128  1  0.48300000  0.36930000  0.18850000  1.0 0.1294580851
C  C129  1  0.48940000  0.37390000  0.11210000  1.0 -0.1430135883
C  C130  1  0.45430000  0.32550000  0.06770000  1.0 -0.1510883991
C  C131  1  0.51940000  0.42170000  0.23120000  1.0 -0.0873181736
C  C132  1  0.54480000  0.45820000  0.28280000  1.0 -0.110201589
C  C133  1  0.57510000  0.50420000  0.33380000  1.0 0.1607388565
C  C134  1  0.59880000  0.56160000  0.30790000  1.0 -0.1886401205
C  C135  1  0.62770000  0.60890000  0.35610000  1.0 0.0404978492
C  C136  1  0.60930000  0.54130000  0.45630000  1.0 0.0404978492
C  C137  1  0.58030000  0.49400000  0.40800000  1.0 -0.2018428933
C  C138  1  0.25750000  0.05900000  0.09820000  1.0 0.0510060523
C  C139  1  0.19640000  0.03350000  0.09870000  1.0 -0.1510883991
C  C140  1  0.16280000  0.98830000  0.14810000  1.0 -0.1430135883
C  C141  1  0.19020000  0.96860000  0.19700000  1.0 0.1202703197
C  C142  1  0.25120000  0.99400000  0.19640000  1.0 -0.1430135883
C  C143  1  0.28490000  0.03930000  0.14700000  1.0 -0.1430135883
C  C144  1  0.13210000  0.88190000  0.29650000  1.0 -0.1286794732
C  C145  1  0.15970000  0.92300000  0.24870000  1.0 -0.110201589
C  C146  1  0.10220000  0.83610000  0.34710000  1.0 0.1674709429
C  C147  1  0.13220000  0.81150000  0.38200000  1.0 -0.1886401205
C  C148  1  0.10210000  0.76390000  0.42960000  1.0 0.0325394089
C  C149  1  0.01220000  0.76570000  0.40750000  1.0 0.0404978492
C  C150  1  0.04240000  0.81330000  0.35980000  1.0 -0.1797638166
C  C151  1  0.84830000  0.62510000  0.05110000  1.0 0.1540848721
C  C152  1  0.83150000  0.66460000  0.09630000  1.0 -0.2876586806
C  C153  1  0.90010000  0.66510000  0.00240000  1.0 -0.2973601908
C  C154  1  0.81960000  0.70740000  0.05050000  1.0 0.1674709429
C  C155  1  0.85950000  0.58710000  0.09970000  1.0 0.0404978492
C  C156  1  0.86130000  0.59350000  0.17600000  1.0 -0.1510883991
C  C157  1  0.87470000  0.55840000  0.22040000  1.0 -0.1613421938
C  C158  1  0.88630000  0.51700000  0.18850000  1.0 0.1294580851
C  C159  1  0.88450000  0.51060000  0.11210000  1.0 -0.1430135883
C  C160  1  0.87120000  0.54570000  0.06770000  1.0 -0.1510883991
C  C161  1  0.90230000  0.48060000  0.23120000  1.0 -0.0873181736
C  C162  1  0.91340000  0.45520000  0.28280000  1.0 -0.110201589
C  C163  1  0.92910000  0.42490000  0.33380000  1.0 0.1607388565
C  C164  1  0.96280000  0.40120000  0.30790000  1.0 -0.1886401205
C  C165  1  0.98120000  0.37230000  0.35610000  1.0 0.0404978492
C  C166  1  0.93200000  0.39070000  0.45630000  1.0 0.0404978492
C  C167  1  0.91370000  0.41970000  0.40800000  1.0 -0.2018428933
C  C168  1  0.80150000  0.74250000  0.09820000  1.0 0.0510060523
C  C169  1  0.83710000  0.80360000  0.09870000  1.0 -0.1510883991
C  C170  1  0.82550000  0.83720000  0.14810000  1.0 -0.1430135883
C  C171  1  0.77840000  0.80980000  0.19700000  1.0 0.1202703197
C  C172  1  0.74280000  0.74880000  0.19640000  1.0 -0.1430135883
C  C173  1  0.75440000  0.71510000  0.14700000  1.0 -0.1430135883
C  C174  1  0.74980000  0.86790000  0.29650000  1.0 -0.1286794732
C  C175  1  0.76330000  0.84030000  0.24870000  1.0 -0.110201589
C  C176  1  0.73390000  0.89780000  0.34710000  1.0 0.1674709429
C  C177  1  0.67930000  0.86780000  0.38200000  1.0 -0.1886401205
C  C178  1  0.66180000  0.89790000  0.42960000  1.0 0.0325394089
C  C179  1  0.75350000  0.98780000  0.40750000  1.0 0.0404978492
C  C180  1  0.77090000  0.95760000  0.35980000  1.0 -0.1797638166
C  C181  1  0.37490000  0.15170000  0.94890000  1.0 0.1540848721
C  C182  1  0.33540000  0.16850000  0.90370000  1.0 -0.2876586806
C  C183  1  0.33490000  0.09990000  0.99760000  1.0 -0.2973601908
C  C184  1  0.29260000  0.18040000  0.94950000  1.0 0.1674709429
C  C185  1  0.41290000  0.14050000  0.90030000  1.0 0.0404978492
C  C186  1  0.40650000  0.13870000  0.82400000  1.0 -0.1510883991
C  C187  1  0.44160000  0.12530000  0.77960000  1.0 -0.1613421938
C  C188  1  0.48300000  0.11370000  0.81150000  1.0 0.1294580851
C  C189  1  0.48940000  0.11550000  0.88790000  1.0 -0.1430135883
C  C190  1  0.45430000  0.12880000  0.93230000  1.0 -0.1510883991
C  C191  1  0.51940000  0.09770000  0.76880000  1.0 -0.0873181736
C  C192  1  0.54480000  0.08660000  0.71720000  1.0 -0.110201589
C  C193  1  0.57510000  0.07090000  0.66620000  1.0 0.1607388565
C  C194  1  0.59880000  0.03720000  0.69210000  1.0 -0.1886401205
C  C195  1  0.62770000  0.01880000  0.64390000  1.0 0.0404978492
C  C196  1  0.60930000  0.06800000  0.54370000  1.0 0.0404978492
C  C197  1  0.58030000  0.08630000  0.59200000  1.0 -0.2018428933
C  C198  1  0.25750000  0.19850000  0.90180000  1.0 0.0510060523
C  C199  1  0.19640000  0.16290000  0.90130000  1.0 -0.1510883991
C  C200  1  0.16280000  0.17450000  0.85190000  1.0 -0.1430135883
C  C201  1  0.19020000  0.22160000  0.80300000  1.0 0.1202703197
C  C202  1  0.25120000  0.25720000  0.80360000  1.0 -0.1430135883
C  C203  1  0.28490000  0.24560000  0.85300000  1.0 -0.1430135883
C  C204  1  0.13210000  0.25020000  0.70350000  1.0 -0.1286794732
C  C205  1  0.15970000  0.23670000  0.75130000  1.0 -0.110201589
C  C206  1  0.10220000  0.26610000  0.65290000  1.0 0.1674709429
C  C207  1  0.13220000  0.32070000  0.61800000  1.0 -0.1886401205
C  C208  1  0.10210000  0.33820000  0.57040000  1.0 0.0325394089
C  C209  1  0.01220000  0.24650000  0.59250000  1.0 0.0404978492
C  C210  1  0.04240000  0.22910000  0.64020000  1.0 -0.1797638166
C  C211  1  0.84830000  0.22320000  0.94890000  1.0 0.1540848721
C  C212  1  0.83150000  0.16690000  0.90370000  1.0 -0.2876586806
C  C213  1  0.90010000  0.23500000  0.99760000  1.0 -0.2973601908
C  C214  1  0.81960000  0.11220000  0.94950000  1.0 0.1674709429
C  C215  1  0.85950000  0.27240000  0.90030000  1.0 0.0404978492
C  C216  1  0.86130000  0.26780000  0.82400000  1.0 -0.1510883991
C  C217  1  0.87470000  0.31630000  0.77960000  1.0 -0.1613421938
C  C218  1  0.88630000  0.36930000  0.81150000  1.0 0.1294580851
C  C219  1  0.88450000  0.37390000  0.88790000  1.0 -0.1430135883
C  C220  1  0.87120000  0.32550000  0.93230000  1.0 -0.1510883991
C  C221  1  0.90230000  0.42170000  0.76880000  1.0 -0.0873181736
C  C222  1  0.91340000  0.45820000  0.71720000  1.0 -0.110201589
C  C223  1  0.92910000  0.50420000  0.66620000  1.0 0.1607388565
C  C224  1  0.96280000  0.56160000  0.69210000  1.0 -0.1886401205
C  C225  1  0.98120000  0.60890000  0.64390000  1.0 0.0404978492
C  C226  1  0.93200000  0.54130000  0.54370000  1.0 0.0404978492
C  C227  1  0.91370000  0.49400000  0.59200000  1.0 -0.2018428933
C  C228  1  0.80150000  0.05900000  0.90180000  1.0 0.0510060523
C  C229  1  0.83710000  0.03350000  0.90130000  1.0 -0.1510883991
C  C230  1  0.82550000  0.98830000  0.85190000  1.0 -0.1430135883
C  C231  1  0.77840000  0.96860000  0.80300000  1.0 0.1202703197
C  C232  1  0.74280000  0.99400000  0.80360000  1.0 -0.1430135883
C  C233  1  0.75440000  0.03930000  0.85300000  1.0 -0.1430135883
C  C234  1  0.74980000  0.88190000  0.70350000  1.0 -0.1286794732
C  C235  1  0.76330000  0.92300000  0.75130000  1.0 -0.110201589
C  C236  1  0.73390000  0.83610000  0.65290000  1.0 0.1674709429
C  C237  1  0.67930000  0.81150000  0.61800000  1.0 -0.1886401205
C  C238  1  0.66180000  0.76390000  0.57040000  1.0 0.0325394089
C  C239  1  0.75350000  0.76570000  0.59250000  1.0 0.0404978492
C  C240  1  0.77090000  0.81330000  0.64020000  1.0 -0.1797638166
C  C241  1  0.77680000  0.62510000  0.94890000  1.0 0.1540848721
C  C242  1  0.83310000  0.66460000  0.90370000  1.0 -0.2876586806
C  C243  1  0.76500000  0.66510000  0.99760000  1.0 -0.2973601908
C  C244  1  0.88780000  0.70740000  0.94950000  1.0 0.1674709429
C  C245  1  0.72760000  0.58710000  0.90030000  1.0 0.0404978492
C  C246  1  0.73220000  0.59350000  0.82400000  1.0 -0.1510883991
C  C247  1  0.68370000  0.55840000  0.77960000  1.0 -0.1613421938
C  C248  1  0.63070000  0.51700000  0.81150000  1.0 0.1294580851
C  C249  1  0.62610000  0.51060000  0.88790000  1.0 -0.1430135883
C  C250  1  0.67450000  0.54570000  0.93230000  1.0 -0.1510883991
C  C251  1  0.57830000  0.48060000  0.76880000  1.0 -0.0873181736
C  C252  1  0.54180000  0.45520000  0.71720000  1.0 -0.110201589
C  C253  1  0.49580000  0.42490000  0.66620000  1.0 0.1607388565
C  C254  1  0.43840000  0.40120000  0.69210000  1.0 -0.1886401205
C  C255  1  0.39110000  0.37230000  0.64390000  1.0 0.0404978492
C  C256  1  0.45870000  0.39070000  0.54370000  1.0 0.0404978492
C  C257  1  0.50600000  0.41970000  0.59200000  1.0 -0.2018428933
C  C258  1  0.94100000  0.74250000  0.90180000  1.0 0.0510060523
C  C259  1  0.96650000  0.80360000  0.90130000  1.0 -0.1510883991
C  C260  1  0.01170000  0.83720000  0.85190000  1.0 -0.1430135883
C  C261  1  0.03140000  0.80980000  0.80300000  1.0 0.1202703197
C  C262  1  0.00600000  0.74880000  0.80360000  1.0 -0.1430135883
C  C263  1  0.96070000  0.71510000  0.85300000  1.0 -0.1430135883
C  C264  1  0.11810000  0.86790000  0.70350000  1.0 -0.1286794732
C  C265  1  0.07700000  0.84030000  0.75130000  1.0 -0.110201589
C  C266  1  0.16390000  0.89780000  0.65290000  1.0 0.1674709429
C  C267  1  0.18850000  0.86780000  0.61800000  1.0 -0.1886401205
C  C268  1  0.23610000  0.89790000  0.57040000  1.0 0.0325394089
C  C269  1  0.23430000  0.98780000  0.59250000  1.0 0.0404978492
C  C270  1  0.18670000  0.95760000  0.64020000  1.0 -0.1797638166
C  C271  1  0.62510000  0.84830000  0.94890000  1.0 0.1540848721
C  C272  1  0.66460000  0.83150000  0.90370000  1.0 -0.2876586806
C  C273  1  0.66510000  0.90010000  0.99760000  1.0 -0.2973601908
C  C274  1  0.70740000  0.81960000  0.94950000  1.0 0.1674709429
C  C275  1  0.58710000  0.85950000  0.90030000  1.0 0.0404978492
C  C276  1  0.59350000  0.86130000  0.82400000  1.0 -0.1510883991
C  C277  1  0.55840000  0.87470000  0.77960000  1.0 -0.1613421938
C  C278  1  0.51700000  0.88630000  0.81150000  1.0 0.1294580851
C  C279  1  0.51060000  0.88450000  0.88790000  1.0 -0.1430135883
C  C280  1  0.54570000  0.87120000  0.93230000  1.0 -0.1510883991
C  C281  1  0.48060000  0.90230000  0.76880000  1.0 -0.0873181736
C  C282  1  0.45520000  0.91340000  0.71720000  1.0 -0.110201589
C  C283  1  0.42490000  0.92910000  0.66620000  1.0 0.1607388565
C  C284  1  0.40120000  0.96280000  0.69210000  1.0 -0.1886401205
C  C285  1  0.37230000  0.98120000  0.64390000  1.0 0.0404978492
C  C286  1  0.39070000  0.93200000  0.54370000  1.0 0.0404978492
C  C287  1  0.41970000  0.91370000  0.59200000  1.0 -0.2018428933
C  C288  1  0.74250000  0.80150000  0.90180000  1.0 0.0510060523
C  C289  1  0.80360000  0.83710000  0.90130000  1.0 -0.1510883991
C  C290  1  0.83720000  0.82550000  0.85190000  1.0 -0.1430135883
C  C291  1  0.80980000  0.77840000  0.80300000  1.0 0.1202703197
C  C292  1  0.74880000  0.74280000  0.80360000  1.0 -0.1430135883
C  C293  1  0.71510000  0.75440000  0.85300000  1.0 -0.1430135883
C  C294  1  0.86790000  0.74980000  0.70350000  1.0 -0.1286794732
C  C295  1  0.84030000  0.76330000  0.75130000  1.0 -0.110201589
C  C296  1  0.89780000  0.73390000  0.65290000  1.0 0.1674709429
C  C297  1  0.86780000  0.67930000  0.61800000  1.0 -0.1886401205
C  C298  1  0.89790000  0.66180000  0.57040000  1.0 0.0325394089
C  C299  1  0.98780000  0.75350000  0.59250000  1.0 0.0404978492
C  C300  1  0.95760000  0.77090000  0.64020000  1.0 -0.1797638166
C  C301  1  0.15170000  0.77680000  0.94890000  1.0 0.1540848721
C  C302  1  0.16850000  0.83310000  0.90370000  1.0 -0.2876586806
C  C303  1  0.09990000  0.76500000  0.99760000  1.0 -0.2973601908
C  C304  1  0.18040000  0.88780000  0.94950000  1.0 0.1674709429
C  C305  1  0.14050000  0.72760000  0.90030000  1.0 0.0404978492
C  C306  1  0.13870000  0.73220000  0.82400000  1.0 -0.1510883991
C  C307  1  0.12530000  0.68370000  0.77960000  1.0 -0.1613421938
C  C308  1  0.11370000  0.63070000  0.81150000  1.0 0.1294580851
C  C309  1  0.11550000  0.62610000  0.88790000  1.0 -0.1430135883
C  C310  1  0.12880000  0.67450000  0.93230000  1.0 -0.1510883991
C  C311  1  0.09770000  0.57830000  0.76880000  1.0 -0.0873181736
C  C312  1  0.08660000  0.54180000  0.71720000  1.0 -0.110201589
C  C313  1  0.07090000  0.49580000  0.66620000  1.0 0.1607388565
C  C314  1  0.03720000  0.43840000  0.69210000  1.0 -0.1886401205
C  C315  1  0.01880000  0.39110000  0.64390000  1.0 0.0404978492
C  C316  1  0.06800000  0.45870000  0.54370000  1.0 0.0404978492
C  C317  1  0.08630000  0.50600000  0.59200000  1.0 -0.2018428933
C  C318  1  0.19850000  0.94100000  0.90180000  1.0 0.0510060523
C  C319  1  0.16290000  0.96650000  0.90130000  1.0 -0.1613421938
C  C320  1  0.17450000  0.01170000  0.85190000  1.0 -0.1430135883
C  C321  1  0.22160000  0.03140000  0.80300000  1.0 0.1202703197
C  C322  1  0.25720000  0.00600000  0.80360000  1.0 -0.1430135883
C  C323  1  0.24560000  0.96070000  0.85300000  1.0 -0.1510883991
C  C324  1  0.25020000  0.11810000  0.70350000  1.0 -0.1286794732
C  C325  1  0.23670000  0.07700000  0.75130000  1.0 -0.110201589
C  C326  1  0.26610000  0.16390000  0.65290000  1.0 0.1674709429
C  C327  1  0.32070000  0.18850000  0.61800000  1.0 -0.1886401205
C  C328  1  0.33820000  0.23610000  0.57040000  1.0 0.0325394089
C  C329  1  0.24650000  0.23430000  0.59250000  1.0 0.0404978492
C  C330  1  0.22910000  0.18670000  0.64020000  1.0 -0.1797638166
C  C331  1  0.22320000  0.37490000  0.94890000  1.0 0.1540848721
C  C332  1  0.16690000  0.33540000  0.90370000  1.0 -0.2876586806
C  C333  1  0.23500000  0.33490000  0.99760000  1.0 -0.2973601908
C  C334  1  0.11220000  0.29260000  0.94950000  1.0 0.1674709429
C  C335  1  0.27240000  0.41290000  0.90030000  1.0 0.0404978492
C  C336  1  0.26780000  0.40650000  0.82400000  1.0 -0.1510883991
C  C337  1  0.31630000  0.44160000  0.77960000  1.0 -0.1613421938
C  C338  1  0.36930000  0.48300000  0.81150000  1.0 0.1294580851
C  C339  1  0.37390000  0.48940000  0.88790000  1.0 -0.1430135883
C  C340  1  0.32550000  0.45430000  0.93230000  1.0 -0.1510883991
C  C341  1  0.42170000  0.51940000  0.76880000  1.0 -0.0873181736
C  C342  1  0.45820000  0.54480000  0.71720000  1.0 -0.110201589
C  C343  1  0.50420000  0.57510000  0.66620000  1.0 0.1607388565
C  C344  1  0.56160000  0.59880000  0.69210000  1.0 -0.1886401205
C  C345  1  0.60890000  0.62770000  0.64390000  1.0 0.0404978492
C  C346  1  0.54130000  0.60930000  0.54370000  1.0 0.0404978492
C  C347  1  0.49400000  0.58030000  0.59200000  1.0 -0.2018428933
C  C348  1  0.05900000  0.25750000  0.90180000  1.0 0.0510060523
C  C349  1  0.03350000  0.19640000  0.90130000  1.0 -0.1613421938
C  C350  1  0.98830000  0.16280000  0.85190000  1.0 -0.1430135883
C  C351  1  0.96860000  0.19020000  0.80300000  1.0 0.1202703197
C  C352  1  0.99400000  0.25120000  0.80360000  1.0 -0.1430135883
C  C353  1  0.03930000  0.28490000  0.85300000  1.0 -0.1510883991
C  C354  1  0.88190000  0.13210000  0.70350000  1.0 -0.1286794732
C  C355  1  0.92300000  0.15970000  0.75130000  1.0 -0.110201589
C  C356  1  0.83610000  0.10220000  0.65290000  1.0 0.1674709429
C  C357  1  0.81150000  0.13220000  0.61800000  1.0 -0.1886401205
C  C358  1  0.76390000  0.10210000  0.57040000  1.0 0.0325394089
C  C359  1  0.76570000  0.01220000  0.59250000  1.0 0.0404978492
C  C360  1  0.81330000  0.04240000  0.64020000  1.0 -0.1797638166
C  C361  1  0.20430000  0.79570000  0.00000000  1.0 -0.279065777
C  C362  1  0.12880000  0.87120000  0.00000000  1.0 -0.3403533887
C  C363  1  0.59140000  0.79570000  0.00000000  1.0 -0.279065777
C  C364  1  0.74240000  0.87120000  0.00000000  1.0 -0.3403533887
C  C365  1  0.20430000  0.40860000  0.00000000  1.0 -0.279065777
C  C366  1  0.12880000  0.25760000  0.00000000  1.0 -0.3403533887
C  C367  1  0.79570000  0.20430000  0.00000000  1.0 -0.279065777
C  C368  1  0.87120000  0.12880000  0.00000000  1.0 -0.3403533887
C  C369  1  0.40860000  0.20430000  0.00000000  1.0 -0.279065777
C  C370  1  0.25760000  0.12880000  0.00000000  1.0 -0.3403533887
C  C371  1  0.79570000  0.59140000  0.00000000  1.0 -0.279065777
C  C372  1  0.87120000  0.74240000  0.00000000  1.0 -0.3403533887
N  N1  1  0.59880000  0.96580000  0.43040000  1.0 -0.257053131
N  N2  1  0.74100000  0.69890000  0.44240000  1.0 -0.257053131
N  N3  1  0.36700000  0.40120000  0.43040000  1.0 -0.257053131
N  N4  1  0.95790000  0.25900000  0.44240000  1.0 -0.257053131
N  N5  1  0.03420000  0.63300000  0.43040000  1.0 -0.257053131
N  N6  1  0.30110000  0.04210000  0.44240000  1.0 -0.257053131
N  N7  1  0.40120000  0.03420000  0.43040000  1.0 -0.257053131
N  N8  1  0.25900000  0.30110000  0.44240000  1.0 -0.257053131
N  N9  1  0.63300000  0.59880000  0.43040000  1.0 -0.257053131
N  N10  1  0.04210000  0.74100000  0.44240000  1.0 -0.257053131
N  N11  1  0.96580000  0.36700000  0.43040000  1.0 -0.257053131
N  N12  1  0.69890000  0.95790000  0.44240000  1.0 -0.257053131
N  N13  1  0.63300000  0.03420000  0.56960000  1.0 -0.257053131
N  N14  1  0.04210000  0.30110000  0.55760000  1.0 -0.257053131
N  N15  1  0.96580000  0.59880000  0.56960000  1.0 -0.257053131
N  N16  1  0.69890000  0.74100000  0.55760000  1.0 -0.257053131
N  N17  1  0.40120000  0.36700000  0.56960000  1.0 -0.257053131
N  N18  1  0.25900000  0.95790000  0.55760000  1.0 -0.257053131
N  N19  1  0.36700000  0.96580000  0.56960000  1.0 -0.257053131
N  N20  1  0.95790000  0.69890000  0.55760000  1.0 -0.257053131
N  N21  1  0.03420000  0.40120000  0.56960000  1.0 -0.257053131
N  N22  1  0.30110000  0.25900000  0.55760000  1.0 -0.257053131
N  N23  1  0.59880000  0.63300000  0.56960000  1.0 -0.257053131
N  N24  1  0.74100000  0.04210000  0.55760000  1.0 -0.257053131
