# DDEC6 charges by PACMAN v1.1 (https://github.com/mtap-research/PACMAN-charge/)
data_XUKMIC02_FSR_pacman
_symmetry_space_group_name_H-M   'P 1'
_cell_length_a   26.61030000
_cell_length_b   26.61030000
_cell_length_c   17.92400000
_cell_angle_alpha   90.00000000
_cell_angle_beta   90.00000000
_cell_angle_gamma   120.00000000
_symmetry_Int_Tables_number   1
_chemical_formula_structural   CuH44(C31N2)2
_chemical_formula_sum   'Cu6 H264 C372 N24'
_cell_volume   10991.70612184
_cell_formula_units_Z   6
loop_
 _symmetry_equiv_pos_site_id
 _symmetry_equiv_pos_as_xyz
  1  'x, y, z'
loop_
 _atom_site_type_symbol
 _atom_site_label
 _atom_site_symmetry_multiplicity
 _atom_site_fract_x
 _atom_site_fract_y
 _atom_site_fract_z
 _atom_site_occupancy
 _atom_site_charge
Cu  Cu1  1  0.00000000  0.66729000  0.50000000  1.0 0.276150288
Cu  Cu2  1  0.66729000  0.00000000  0.50000000  1.0 0.2746758777
Cu  Cu3  1  0.33271000  0.33271000  0.50000000  1.0 0.2746758777
Cu  Cu4  1  0.00000000  0.33271000  0.50000000  1.0 0.2746758777
Cu  Cu5  1  0.33271000  0.00000000  0.50000000  1.0 0.2746758777
Cu  Cu6  1  0.66729000  0.66729000  0.50000000  1.0 0.2746758777
H  H1  1  0.24442000  0.31403000  0.03727000  1.0 0.1096558864
H  H2  1  0.26726000  0.36153000  0.97456000  1.0 0.1012295193
H  H3  1  0.13644000  0.23361000  0.03261000  1.0 0.1096558864
H  H4  1  0.20423000  0.35792000  0.87090000  1.0 0.1012295193
H  H5  1  0.13813000  0.31064000  0.86850000  1.0 0.1096558864
H  H6  1  0.24023000  0.43597000  0.97125000  1.0 0.1012295193
H  H7  1  0.13840000  0.46050000  0.98037000  1.0 0.1207560726
H  H8  1  0.10904000  0.51270000  0.91562000  1.0 0.1368964233
H  H9  1  0.12571000  0.44300000  0.72520000  1.0 0.1096558864
H  H10  1  0.13957000  0.37405000  0.79641000  1.0 0.1096558864
H  H11  1  0.02907000  0.59417000  0.74302000  1.0 0.1314714321
H  H12  1  0.99821000  0.64160000  0.66258000  1.0 0.1096558864
H  H13  1  0.07929000  0.61324000  0.49249000  1.0 0.1012295193
H  H14  1  0.11015000  0.56581000  0.57293000  1.0 0.1314714321
H  H15  1  0.26988000  0.32539000  0.85390000  1.0 0.1207560726
H  H16  1  0.29150000  0.26759000  0.77365000  1.0 0.1096558864
H  H17  1  0.15334000  0.12606000  0.84761000  1.0 0.1207560726
H  H18  1  0.13305000  0.17640000  0.93294000  1.0 0.1207560726
H  H19  1  0.19395000  0.02352000  0.66382000  1.0 0.1368964233
H  H20  1  0.22418000  0.97416000  0.58584000  1.0 0.1096558864
H  H21  1  0.37310000  0.12258000  0.54651000  1.0 0.1012295193
H  H22  1  0.34288000  0.17194000  0.62450000  1.0 0.1314714321
H  H23  1  0.06961000  0.75558000  0.03727000  1.0 0.1096558864
H  H24  1  0.09427000  0.73274000  0.97456000  1.0 0.1012295193
H  H25  1  0.09717000  0.86356000  0.03261000  1.0 0.1096558864
H  H26  1  0.15369000  0.79577000  0.87090000  1.0 0.1012295193
H  H27  1  0.17251000  0.86187000  0.86850000  1.0 0.1096558864
H  H28  1  0.19574000  0.75977000  0.97125000  1.0 0.1012295193
H  H29  1  0.32210000  0.86160000  0.98037000  1.0 0.1207560726
H  H30  1  0.40366000  0.89096000  0.91562000  1.0 0.1368964233
H  H31  1  0.31729000  0.87429000  0.72520000  1.0 0.1096558864
H  H32  1  0.23448000  0.86043000  0.79641000  1.0 0.1096558864
H  H33  1  0.56510000  0.97093000  0.74302000  1.0 0.1314714321
H  H34  1  0.64339000  0.00179000  0.66258000  1.0 0.1096558864
H  H35  1  0.53395000  0.92071000  0.49249000  1.0 0.1012295193
H  H36  1  0.45566000  0.88985000  0.57293000  1.0 0.1314714321
H  H37  1  0.05551000  0.73012000  0.85390000  1.0 0.1207560726
H  H38  1  0.97609000  0.70850000  0.77365000  1.0 0.1096558864
H  H39  1  0.97272000  0.84666000  0.84761000  1.0 0.1207560726
H  H40  1  0.04335000  0.86695000  0.93294000  1.0 0.1207560726
H  H41  1  0.82957000  0.80605000  0.66382000  1.0 0.1368964233
H  H42  1  0.74998000  0.77582000  0.58584000  1.0 0.1096558864
H  H43  1  0.74948000  0.62690000  0.54651000  1.0 0.1012295193
H  H44  1  0.82906000  0.65712000  0.62450000  1.0 0.1314714321
H  H45  1  0.68597000  0.93039000  0.03727000  1.0 0.1096558864
H  H46  1  0.63847000  0.90573000  0.97456000  1.0 0.1012295193
H  H47  1  0.76639000  0.90283000  0.03261000  1.0 0.1096558864
H  H48  1  0.64208000  0.84631000  0.87090000  1.0 0.1012295193
H  H49  1  0.68936000  0.82749000  0.86850000  1.0 0.1096558864
H  H50  1  0.56403000  0.80426000  0.97125000  1.0 0.1012295193
H  H51  1  0.53950000  0.67790000  0.98037000  1.0 0.1207560726
H  H52  1  0.48730000  0.59634000  0.91562000  1.0 0.1368964233
H  H53  1  0.55700000  0.68271000  0.72520000  1.0 0.1096558864
H  H54  1  0.62595000  0.76552000  0.79641000  1.0 0.1096558864
H  H55  1  0.40583000  0.43490000  0.74302000  1.0 0.1314714321
H  H56  1  0.35840000  0.35661000  0.66258000  1.0 0.1096558864
H  H57  1  0.38676000  0.46605000  0.49249000  1.0 0.1012295193
H  H58  1  0.43419000  0.54434000  0.57293000  1.0 0.1314714321
H  H59  1  0.67461000  0.94449000  0.85390000  1.0 0.1207560726
H  H60  1  0.73241000  0.02391000  0.77365000  1.0 0.1096558864
H  H61  1  0.87394000  0.02728000  0.84761000  1.0 0.1207560726
H  H62  1  0.82360000  0.95665000  0.93294000  1.0 0.1207560726
H  H63  1  0.97648000  0.17043000  0.66382000  1.0 0.1368964233
H  H64  1  0.02584000  0.25002000  0.58584000  1.0 0.1096558864
H  H65  1  0.87742000  0.25052000  0.54651000  1.0 0.1012295193
H  H66  1  0.82806000  0.17094000  0.62450000  1.0 0.1314714321
H  H67  1  0.75558000  0.68597000  0.03727000  1.0 0.1096558864
H  H68  1  0.73274000  0.63847000  0.97456000  1.0 0.1012295193
H  H69  1  0.86356000  0.76639000  0.03261000  1.0 0.1096558864
H  H70  1  0.79577000  0.64208000  0.87090000  1.0 0.1012295193
H  H71  1  0.86187000  0.68936000  0.86850000  1.0 0.1096558864
H  H72  1  0.75977000  0.56403000  0.97125000  1.0 0.1012295193
H  H73  1  0.86160000  0.53950000  0.98037000  1.0 0.1207560726
H  H74  1  0.89096000  0.48730000  0.91562000  1.0 0.1368964233
H  H75  1  0.87429000  0.55700000  0.72520000  1.0 0.1096558864
H  H76  1  0.86043000  0.62595000  0.79641000  1.0 0.1096558864
H  H77  1  0.97093000  0.40583000  0.74302000  1.0 0.1314714321
H  H78  1  0.00179000  0.35840000  0.66258000  1.0 0.1096558864
H  H79  1  0.92071000  0.38676000  0.49249000  1.0 0.1012295193
H  H80  1  0.88985000  0.43419000  0.57293000  1.0 0.1314714321
H  H81  1  0.73012000  0.67461000  0.85390000  1.0 0.1207560726
H  H82  1  0.70850000  0.73241000  0.77365000  1.0 0.1096558864
H  H83  1  0.84666000  0.87394000  0.84761000  1.0 0.1207560726
H  H84  1  0.86695000  0.82360000  0.93294000  1.0 0.1207560726
H  H85  1  0.80605000  0.97648000  0.66382000  1.0 0.1368964233
H  H86  1  0.77582000  0.02584000  0.58584000  1.0 0.1096558864
H  H87  1  0.62690000  0.87742000  0.54651000  1.0 0.1012295193
H  H88  1  0.65712000  0.82806000  0.62450000  1.0 0.1314714321
H  H89  1  0.93039000  0.24442000  0.03727000  1.0 0.1096558864
H  H90  1  0.90573000  0.26726000  0.97456000  1.0 0.1012295193
H  H91  1  0.90283000  0.13644000  0.03261000  1.0 0.1096558864
H  H92  1  0.84631000  0.20423000  0.87090000  1.0 0.1012295193
H  H93  1  0.82749000  0.13813000  0.86850000  1.0 0.1096558864
H  H94  1  0.80426000  0.24023000  0.97125000  1.0 0.1012295193
H  H95  1  0.67790000  0.13840000  0.98037000  1.0 0.1207560726
H  H96  1  0.59634000  0.10904000  0.91562000  1.0 0.1368964233
H  H97  1  0.68271000  0.12571000  0.72520000  1.0 0.1096558864
H  H98  1  0.76552000  0.13957000  0.79641000  1.0 0.1096558864
H  H99  1  0.43490000  0.02907000  0.74302000  1.0 0.1314714321
H  H100  1  0.35661000  0.99821000  0.66258000  1.0 0.1096558864
H  H101  1  0.46605000  0.07929000  0.49249000  1.0 0.1012295193
H  H102  1  0.54434000  0.11015000  0.57293000  1.0 0.1314714321
H  H103  1  0.94449000  0.26988000  0.85390000  1.0 0.1207560726
H  H104  1  0.02391000  0.29150000  0.77365000  1.0 0.1096558864
H  H105  1  0.02728000  0.15334000  0.84761000  1.0 0.1207560726
H  H106  1  0.95665000  0.13305000  0.93294000  1.0 0.1207560726
H  H107  1  0.17043000  0.19395000  0.66382000  1.0 0.1368964233
H  H108  1  0.25002000  0.22418000  0.58584000  1.0 0.1096558864
H  H109  1  0.25052000  0.37310000  0.54651000  1.0 0.1012295193
H  H110  1  0.17094000  0.34288000  0.62450000  1.0 0.1314714321
H  H111  1  0.31403000  0.06961000  0.03727000  1.0 0.1096558864
H  H112  1  0.36153000  0.09427000  0.97456000  1.0 0.1012295193
H  H113  1  0.23361000  0.09717000  0.03261000  1.0 0.1096558864
H  H114  1  0.35792000  0.15369000  0.87090000  1.0 0.1012295193
H  H115  1  0.31064000  0.17251000  0.86850000  1.0 0.1096558864
H  H116  1  0.43597000  0.19574000  0.97125000  1.0 0.1012295193
H  H117  1  0.46050000  0.32210000  0.98037000  1.0 0.1207560726
H  H118  1  0.51270000  0.40366000  0.91562000  1.0 0.1368964233
H  H119  1  0.44300000  0.31729000  0.72520000  1.0 0.1096558864
H  H120  1  0.37405000  0.23448000  0.79641000  1.0 0.1096558864
H  H121  1  0.59417000  0.56510000  0.74302000  1.0 0.1314714321
H  H122  1  0.64160000  0.64339000  0.66258000  1.0 0.1096558864
H  H123  1  0.61324000  0.53395000  0.49249000  1.0 0.1012295193
H  H124  1  0.56581000  0.45566000  0.57293000  1.0 0.1314714321
H  H125  1  0.32539000  0.05551000  0.85390000  1.0 0.1207560726
H  H126  1  0.26759000  0.97609000  0.77365000  1.0 0.1096558864
H  H127  1  0.12606000  0.97272000  0.84761000  1.0 0.1207560726
H  H128  1  0.17640000  0.04335000  0.93294000  1.0 0.1207560726
H  H129  1  0.02352000  0.82957000  0.66382000  1.0 0.1368964233
H  H130  1  0.97416000  0.74998000  0.58584000  1.0 0.1096558864
H  H131  1  0.12258000  0.74948000  0.54651000  1.0 0.1012295193
H  H132  1  0.17194000  0.82906000  0.62450000  1.0 0.1314714321
H  H133  1  0.93039000  0.68597000  0.96273000  1.0 0.1096558864
H  H134  1  0.90573000  0.63847000  0.02544000  1.0 0.1012295193
H  H135  1  0.90283000  0.76639000  0.96739000  1.0 0.1096558864
H  H136  1  0.84631000  0.64208000  0.12910000  1.0 0.1012295193
H  H137  1  0.82749000  0.68936000  0.13150000  1.0 0.1096558864
H  H138  1  0.80426000  0.56403000  0.02875000  1.0 0.1012295193
H  H139  1  0.67790000  0.53950000  0.01963000  1.0 0.1207560726
H  H140  1  0.59634000  0.48730000  0.08438000  1.0 0.1368964233
H  H141  1  0.68271000  0.55700000  0.27480000  1.0 0.1096558864
H  H142  1  0.76552000  0.62595000  0.20359000  1.0 0.1096558864
H  H143  1  0.43490000  0.40583000  0.25698000  1.0 0.1314714321
H  H144  1  0.35661000  0.35840000  0.33742000  1.0 0.1096558864
H  H145  1  0.46605000  0.38676000  0.50751000  1.0 0.1012295193
H  H146  1  0.54434000  0.43419000  0.42707000  1.0 0.1314714321
H  H147  1  0.94449000  0.67461000  0.14610000  1.0 0.1207560726
H  H148  1  0.02391000  0.73241000  0.22635000  1.0 0.1096558864
H  H149  1  0.02728000  0.87394000  0.15239000  1.0 0.1207560726
H  H150  1  0.95665000  0.82360000  0.06706000  1.0 0.1207560726
H  H151  1  0.17043000  0.97648000  0.33618000  1.0 0.1368964233
H  H152  1  0.25002000  0.02584000  0.41416000  1.0 0.1096558864
H  H153  1  0.25052000  0.87742000  0.45349000  1.0 0.1012295193
H  H154  1  0.17094000  0.82806000  0.37550000  1.0 0.1314714321
H  H155  1  0.31403000  0.24442000  0.96273000  1.0 0.1096558864
H  H156  1  0.36153000  0.26726000  0.02544000  1.0 0.1012295193
H  H157  1  0.23361000  0.13644000  0.96739000  1.0 0.1096558864
H  H158  1  0.35792000  0.20423000  0.12910000  1.0 0.1012295193
H  H159  1  0.31064000  0.13813000  0.13150000  1.0 0.1096558864
H  H160  1  0.43597000  0.24023000  0.02875000  1.0 0.1012295193
H  H161  1  0.46050000  0.13840000  0.01963000  1.0 0.1207560726
H  H162  1  0.51270000  0.10904000  0.08438000  1.0 0.1368964233
H  H163  1  0.44300000  0.12571000  0.27480000  1.0 0.1096558864
H  H164  1  0.37405000  0.13957000  0.20359000  1.0 0.1096558864
H  H165  1  0.59417000  0.02907000  0.25698000  1.0 0.1314714321
H  H166  1  0.64160000  0.99821000  0.33742000  1.0 0.1096558864
H  H167  1  0.61324000  0.07929000  0.50751000  1.0 0.1012295193
H  H168  1  0.56581000  0.11015000  0.42707000  1.0 0.1314714321
H  H169  1  0.32539000  0.26988000  0.14610000  1.0 0.1207560726
H  H170  1  0.26759000  0.29150000  0.22635000  1.0 0.1096558864
H  H171  1  0.12606000  0.15334000  0.15239000  1.0 0.1207560726
H  H172  1  0.17640000  0.13305000  0.06706000  1.0 0.1207560726
H  H173  1  0.02352000  0.19395000  0.33618000  1.0 0.1368964233
H  H174  1  0.97416000  0.22418000  0.41416000  1.0 0.1096558864
H  H175  1  0.12258000  0.37310000  0.45349000  1.0 0.1012295193
H  H176  1  0.17194000  0.34288000  0.37550000  1.0 0.1314714321
H  H177  1  0.75558000  0.06961000  0.96273000  1.0 0.1096558864
H  H178  1  0.73274000  0.09427000  0.02544000  1.0 0.1012295193
H  H179  1  0.86356000  0.09717000  0.96739000  1.0 0.1096558864
H  H180  1  0.79577000  0.15369000  0.12910000  1.0 0.1012295193
H  H181  1  0.86187000  0.17251000  0.13150000  1.0 0.1096558864
H  H182  1  0.75977000  0.19574000  0.02875000  1.0 0.1012295193
H  H183  1  0.86160000  0.32210000  0.01963000  1.0 0.1207560726
H  H184  1  0.89096000  0.40366000  0.08438000  1.0 0.1368964233
H  H185  1  0.87429000  0.31729000  0.27480000  1.0 0.1096558864
H  H186  1  0.86043000  0.23448000  0.20359000  1.0 0.1096558864
H  H187  1  0.97093000  0.56510000  0.25698000  1.0 0.1314714321
H  H188  1  0.00179000  0.64339000  0.33742000  1.0 0.1096558864
H  H189  1  0.92071000  0.53395000  0.50751000  1.0 0.1012295193
H  H190  1  0.88985000  0.45566000  0.42707000  1.0 0.1314714321
H  H191  1  0.73012000  0.05551000  0.14610000  1.0 0.1207560726
H  H192  1  0.70850000  0.97609000  0.22635000  1.0 0.1096558864
H  H193  1  0.84666000  0.97272000  0.15239000  1.0 0.1207560726
H  H194  1  0.86695000  0.04335000  0.06706000  1.0 0.1207560726
H  H195  1  0.80605000  0.82957000  0.33618000  1.0 0.1368964233
H  H196  1  0.77582000  0.74998000  0.41416000  1.0 0.1096558864
H  H197  1  0.62690000  0.74948000  0.45349000  1.0 0.1012295193
H  H198  1  0.65712000  0.82906000  0.37550000  1.0 0.1314714321
H  H199  1  0.06961000  0.31403000  0.96273000  1.0 0.1096558864
H  H200  1  0.09427000  0.36153000  0.02544000  1.0 0.1012295193
H  H201  1  0.09717000  0.23361000  0.96739000  1.0 0.1096558864
H  H202  1  0.15369000  0.35792000  0.12910000  1.0 0.1012295193
H  H203  1  0.17251000  0.31064000  0.13150000  1.0 0.1096558864
H  H204  1  0.19574000  0.43597000  0.02875000  1.0 0.1012295193
H  H205  1  0.32210000  0.46050000  0.01963000  1.0 0.1207560726
H  H206  1  0.40366000  0.51270000  0.08438000  1.0 0.1368964233
H  H207  1  0.31729000  0.44300000  0.27480000  1.0 0.1096558864
H  H208  1  0.23448000  0.37405000  0.20359000  1.0 0.1096558864
H  H209  1  0.56510000  0.59417000  0.25698000  1.0 0.1314714321
H  H210  1  0.64339000  0.64160000  0.33742000  1.0 0.1096558864
H  H211  1  0.53395000  0.61324000  0.50751000  1.0 0.1012295193
H  H212  1  0.45566000  0.56581000  0.42707000  1.0 0.1314714321
H  H213  1  0.05551000  0.32539000  0.14610000  1.0 0.1207560726
H  H214  1  0.97609000  0.26759000  0.22635000  1.0 0.1096558864
H  H215  1  0.97272000  0.12606000  0.15239000  1.0 0.1207560726
H  H216  1  0.04335000  0.17640000  0.06706000  1.0 0.1207560726
H  H217  1  0.82957000  0.02352000  0.33618000  1.0 0.1368964233
H  H218  1  0.74998000  0.97416000  0.41416000  1.0 0.1096558864
H  H219  1  0.74948000  0.12258000  0.45349000  1.0 0.1012295193
H  H220  1  0.82906000  0.17194000  0.37550000  1.0 0.1314714321
H  H221  1  0.68597000  0.75558000  0.96273000  1.0 0.1096558864
H  H222  1  0.63847000  0.73274000  0.02544000  1.0 0.1012295193
H  H223  1  0.76639000  0.86356000  0.96739000  1.0 0.1096558864
H  H224  1  0.64208000  0.79577000  0.12910000  1.0 0.1012295193
H  H225  1  0.68936000  0.86187000  0.13150000  1.0 0.1096558864
H  H226  1  0.56403000  0.75977000  0.02875000  1.0 0.1012295193
H  H227  1  0.53950000  0.86160000  0.01963000  1.0 0.1207560726
H  H228  1  0.48730000  0.89096000  0.08438000  1.0 0.1368964233
H  H229  1  0.55700000  0.87429000  0.27480000  1.0 0.1096558864
H  H230  1  0.62595000  0.86043000  0.20359000  1.0 0.1096558864
H  H231  1  0.40583000  0.97093000  0.25698000  1.0 0.1314714321
H  H232  1  0.35840000  0.00179000  0.33742000  1.0 0.1096558864
H  H233  1  0.38676000  0.92071000  0.50751000  1.0 0.1012295193
H  H234  1  0.43419000  0.88985000  0.42707000  1.0 0.1314714321
H  H235  1  0.67461000  0.73012000  0.14610000  1.0 0.1207560726
H  H236  1  0.73241000  0.70850000  0.22635000  1.0 0.1096558864
H  H237  1  0.87394000  0.84666000  0.15239000  1.0 0.1207560726
H  H238  1  0.82360000  0.86695000  0.06706000  1.0 0.1207560726
H  H239  1  0.97648000  0.80605000  0.33618000  1.0 0.1368964233
H  H240  1  0.02584000  0.77582000  0.41416000  1.0 0.1096558864
H  H241  1  0.87742000  0.62690000  0.45349000  1.0 0.1012295193
H  H242  1  0.82806000  0.65712000  0.37550000  1.0 0.1314714321
H  H243  1  0.24442000  0.93039000  0.96273000  1.0 0.1096558864
H  H244  1  0.26726000  0.90573000  0.02544000  1.0 0.1012295193
H  H245  1  0.13644000  0.90283000  0.96739000  1.0 0.1096558864
H  H246  1  0.20423000  0.84631000  0.12910000  1.0 0.1012295193
H  H247  1  0.13813000  0.82749000  0.13150000  1.0 0.1096558864
H  H248  1  0.24023000  0.80426000  0.02875000  1.0 0.1012295193
H  H249  1  0.13840000  0.67790000  0.01963000  1.0 0.1207560726
H  H250  1  0.10904000  0.59634000  0.08438000  1.0 0.1368964233
H  H251  1  0.12571000  0.68271000  0.27480000  1.0 0.1096558864
H  H252  1  0.13957000  0.76552000  0.20359000  1.0 0.1096558864
H  H253  1  0.02907000  0.43490000  0.25698000  1.0 0.1314714321
H  H254  1  0.99821000  0.35661000  0.33742000  1.0 0.1096558864
H  H255  1  0.07929000  0.46605000  0.50751000  1.0 0.1012295193
H  H256  1  0.11015000  0.54434000  0.42707000  1.0 0.1314714321
H  H257  1  0.26988000  0.94449000  0.14610000  1.0 0.1207560726
H  H258  1  0.29150000  0.02391000  0.22635000  1.0 0.1096558864
H  H259  1  0.15334000  0.02728000  0.15239000  1.0 0.1207560726
H  H260  1  0.13305000  0.95665000  0.06706000  1.0 0.1207560726
H  H261  1  0.19395000  0.17043000  0.33618000  1.0 0.1368964233
H  H262  1  0.22418000  0.25002000  0.41416000  1.0 0.1096558864
H  H263  1  0.37310000  0.25052000  0.45349000  1.0 0.1012295193
H  H264  1  0.34288000  0.17094000  0.37550000  1.0 0.1314714321
C  C1  1  0.18230000  0.29460000  0.95350000  1.0 0.1824039239
C  C2  1  0.23380000  0.33660000  0.00510000  1.0 -0.3052468878
C  C3  1  0.17030000  0.33450000  0.90140000  1.0 -0.3052468878
C  C4  1  0.15590000  0.37390000  0.94710000  1.0 0.1631348983
C  C5  1  0.14040000  0.40980000  0.89490000  1.0 0.051019826
C  C6  1  0.13270000  0.45460000  0.92920000  1.0 -0.1417524705
C  C7  1  0.11780000  0.48740000  0.89060000  1.0 -0.1187447341
C  C8  1  0.11520000  0.48480000  0.81770000  1.0 0.0936896596
C  C9  1  0.12570000  0.44360000  0.77710000  1.0 -0.1884802475
C  C10  1  0.13600000  0.40330000  0.81980000  1.0 -0.1650135648
C  C11  1  0.09870000  0.51930000  0.75630000  1.0 -0.0536181415
C  C12  1  0.08970000  0.54250000  0.71490000  1.0 -0.0866873805
C  C13  1  0.07270000  0.57530000  0.66600000  1.0 0.1368964233
C  C14  1  0.03910000  0.59800000  0.69280000  1.0 -0.205147354
C  C15  1  0.02060000  0.62640000  0.64460000  1.0 0.051019826
C  C16  1  0.06920000  0.60940000  0.54270000  1.0 0.0421389365
C  C17  1  0.08770000  0.58100000  0.59090000  1.0 -0.2027150764
C  C18  1  0.19660000  0.25530000  0.90180000  1.0 0.051019826
C  C19  1  0.24680000  0.28520000  0.85340000  1.0 -0.1567970471
C  C20  1  0.25930000  0.25020000  0.80490000  1.0 -0.1417524705
C  C21  1  0.22490000  0.19250000  0.80430000  1.0 0.1096558864
C  C22  1  0.17730000  0.16610000  0.85060000  1.0 -0.1417524705
C  C23  1  0.16400000  0.19590000  0.90020000  1.0 -0.1521823976
C  C24  1  0.23700000  0.15930000  0.75240000  1.0 -0.1023295057
C  C25  1  0.24860000  0.13150000  0.70580000  1.0 -0.1257997149
C  C26  1  0.26540000  0.10260000  0.65190000  1.0 0.167373063
C  C27  1  0.22990000  0.04340000  0.64030000  1.0 -0.1884802475
C  C28  1  0.24800000  0.01380000  0.59360000  1.0 0.0421389365
C  C29  1  0.33720000  0.10270000  0.57000000  1.0 0.0421389365
C  C30  1  0.31910000  0.13230000  0.61670000  1.0 -0.2027150764
C  C31  1  0.11230000  0.81770000  0.95350000  1.0 0.1824039239
C  C32  1  0.10280000  0.76620000  0.00510000  1.0 -0.3052468878
C  C33  1  0.16420000  0.82970000  0.90140000  1.0 -0.3052468878
C  C34  1  0.21800000  0.84410000  0.94710000  1.0 0.1631348983
C  C35  1  0.26940000  0.85960000  0.89490000  1.0 0.051019826
C  C36  1  0.32190000  0.86730000  0.92920000  1.0 -0.1417524705
C  C37  1  0.36960000  0.88220000  0.89060000  1.0 -0.1187447341
C  C38  1  0.36960000  0.88480000  0.81770000  1.0 0.0936896596
C  C39  1  0.31790000  0.87430000  0.77710000  1.0 -0.1884802475
C  C40  1  0.26730000  0.86400000  0.81980000  1.0 -0.1650135648
C  C41  1  0.42060000  0.90130000  0.75630000  1.0 -0.0536181415
C  C42  1  0.45280000  0.91030000  0.71490000  1.0 -0.0866873805
C  C43  1  0.50260000  0.92730000  0.66600000  1.0 0.1368964233
C  C44  1  0.55890000  0.96090000  0.69280000  1.0 -0.205147354
C  C45  1  0.60580000  0.97940000  0.64460000  1.0 0.051019826
C  C46  1  0.54020000  0.93080000  0.54270000  1.0 0.0421389365
C  C47  1  0.49330000  0.91230000  0.59090000  1.0 -0.2027150764
C  C48  1  0.05870000  0.80340000  0.90180000  1.0 0.051019826
C  C49  1  0.03840000  0.75320000  0.85340000  1.0 -0.1567970471
C  C50  1  0.99090000  0.74070000  0.80490000  1.0 -0.1417524705
C  C51  1  0.96760000  0.77510000  0.80430000  1.0 0.1096558864
C  C52  1  0.98880000  0.82270000  0.85060000  1.0 -0.1417524705
C  C53  1  0.03190000  0.83600000  0.90020000  1.0 -0.1521823976
C  C54  1  0.92230000  0.76300000  0.75240000  1.0 -0.1023295057
C  C55  1  0.88290000  0.75140000  0.70580000  1.0 -0.1257997149
C  C56  1  0.83720000  0.73460000  0.65190000  1.0 0.167373063
C  C57  1  0.81350000  0.77010000  0.64030000  1.0 -0.1884802475
C  C58  1  0.76580000  0.75200000  0.59360000  1.0 0.0421389365
C  C59  1  0.76550000  0.66280000  0.57000000  1.0 0.0421389365
C  C60  1  0.81320000  0.68090000  0.61670000  1.0 -0.2027150764
C  C61  1  0.70540000  0.88770000  0.95350000  1.0 0.1824039239
C  C62  1  0.66340000  0.89720000  0.00510000  1.0 -0.3052468878
C  C63  1  0.66550000  0.83580000  0.90140000  1.0 -0.3052468878
C  C64  1  0.62610000  0.78200000  0.94710000  1.0 0.1631348983
C  C65  1  0.59020000  0.73060000  0.89490000  1.0 0.051019826
C  C66  1  0.54540000  0.67810000  0.92920000  1.0 -0.1417524705
C  C67  1  0.51260000  0.63040000  0.89060000  1.0 -0.1187447341
C  C68  1  0.51520000  0.63040000  0.81770000  1.0 0.0936896596
C  C69  1  0.55640000  0.68210000  0.77710000  1.0 -0.1884802475
C  C70  1  0.59670000  0.73270000  0.81980000  1.0 -0.1650135648
C  C71  1  0.48070000  0.57940000  0.75630000  1.0 -0.0536181415
C  C72  1  0.45750000  0.54720000  0.71490000  1.0 -0.0866873805
C  C73  1  0.42470000  0.49740000  0.66600000  1.0 0.1368964233
C  C74  1  0.40200000  0.44110000  0.69280000  1.0 -0.205147354
C  C75  1  0.37360000  0.39420000  0.64460000  1.0 0.051019826
C  C76  1  0.39060000  0.45980000  0.54270000  1.0 0.0421389365
C  C77  1  0.41900000  0.50670000  0.59090000  1.0 -0.2027150764
C  C78  1  0.74470000  0.94130000  0.90180000  1.0 0.051019826
C  C79  1  0.71480000  0.96160000  0.85340000  1.0 -0.1567970471
C  C80  1  0.74980000  0.00910000  0.80490000  1.0 -0.1417524705
C  C81  1  0.80750000  0.03240000  0.80430000  1.0 0.1096558864
C  C82  1  0.83390000  0.01120000  0.85060000  1.0 -0.1417524705
C  C83  1  0.80410000  0.96810000  0.90020000  1.0 -0.1521823976
C  C84  1  0.84070000  0.07770000  0.75240000  1.0 -0.1023295057
C  C85  1  0.86850000  0.11710000  0.70580000  1.0 -0.1257997149
C  C86  1  0.89740000  0.16280000  0.65190000  1.0 0.167373063
C  C87  1  0.95660000  0.18650000  0.64030000  1.0 -0.1884802475
C  C88  1  0.98620000  0.23420000  0.59360000  1.0 0.0421389365
C  C89  1  0.89730000  0.23450000  0.57000000  1.0 0.0421389365
C  C90  1  0.86770000  0.18680000  0.61670000  1.0 -0.2027150764
C  C91  1  0.81770000  0.70540000  0.95350000  1.0 0.1824039239
C  C92  1  0.76620000  0.66340000  0.00510000  1.0 -0.3052468878
C  C93  1  0.82970000  0.66550000  0.90140000  1.0 -0.3052468878
C  C94  1  0.84410000  0.62610000  0.94710000  1.0 0.1631348983
C  C95  1  0.85960000  0.59020000  0.89490000  1.0 0.051019826
C  C96  1  0.86730000  0.54540000  0.92920000  1.0 -0.1417524705
C  C97  1  0.88220000  0.51260000  0.89060000  1.0 -0.1187447341
C  C98  1  0.88480000  0.51520000  0.81770000  1.0 0.0936896596
C  C99  1  0.87430000  0.55640000  0.77710000  1.0 -0.1884802475
C  C100  1  0.86400000  0.59670000  0.81980000  1.0 -0.1650135648
C  C101  1  0.90130000  0.48070000  0.75630000  1.0 -0.0536181415
C  C102  1  0.91030000  0.45750000  0.71490000  1.0 -0.0866873805
C  C103  1  0.92730000  0.42470000  0.66600000  1.0 0.1368964233
C  C104  1  0.96090000  0.40200000  0.69280000  1.0 -0.205147354
C  C105  1  0.97940000  0.37360000  0.64460000  1.0 0.051019826
C  C106  1  0.93080000  0.39060000  0.54270000  1.0 0.0421389365
C  C107  1  0.91230000  0.41900000  0.59090000  1.0 -0.2027150764
C  C108  1  0.80340000  0.74470000  0.90180000  1.0 0.051019826
C  C109  1  0.75320000  0.71480000  0.85340000  1.0 -0.1521823976
C  C110  1  0.74070000  0.74980000  0.80490000  1.0 -0.1417524705
C  C111  1  0.77510000  0.80750000  0.80430000  1.0 0.1096558864
C  C112  1  0.82270000  0.83390000  0.85060000  1.0 -0.1417524705
C  C113  1  0.83600000  0.80410000  0.90020000  1.0 -0.1521823976
C  C114  1  0.76300000  0.84070000  0.75240000  1.0 -0.1023295057
C  C115  1  0.75140000  0.86850000  0.70580000  1.0 -0.1257997149
C  C116  1  0.73460000  0.89740000  0.65190000  1.0 0.167373063
C  C117  1  0.77010000  0.95660000  0.64030000  1.0 -0.1884802475
C  C118  1  0.75200000  0.98620000  0.59360000  1.0 0.0421389365
C  C119  1  0.66280000  0.89730000  0.57000000  1.0 0.0421389365
C  C120  1  0.68090000  0.86770000  0.61670000  1.0 -0.2027150764
C  C121  1  0.88770000  0.18230000  0.95350000  1.0 0.1824039239
C  C122  1  0.89720000  0.23380000  0.00510000  1.0 -0.3052468878
C  C123  1  0.83580000  0.17030000  0.90140000  1.0 -0.3052468878
C  C124  1  0.78200000  0.15590000  0.94710000  1.0 0.1631348983
C  C125  1  0.73060000  0.14040000  0.89490000  1.0 0.051019826
C  C126  1  0.67810000  0.13270000  0.92920000  1.0 -0.1417524705
C  C127  1  0.63040000  0.11780000  0.89060000  1.0 -0.1187447341
C  C128  1  0.63040000  0.11520000  0.81770000  1.0 0.0936896596
C  C129  1  0.68210000  0.12570000  0.77710000  1.0 -0.1884802475
C  C130  1  0.73270000  0.13600000  0.81980000  1.0 -0.1650135648
C  C131  1  0.57940000  0.09870000  0.75630000  1.0 -0.0536181415
C  C132  1  0.54720000  0.08970000  0.71490000  1.0 -0.0866873805
C  C133  1  0.49740000  0.07270000  0.66600000  1.0 0.1368964233
C  C134  1  0.44110000  0.03910000  0.69280000  1.0 -0.2027150764
C  C135  1  0.39420000  0.02060000  0.64460000  1.0 0.051019826
C  C136  1  0.45980000  0.06920000  0.54270000  1.0 0.0421389365
C  C137  1  0.50670000  0.08770000  0.59090000  1.0 -0.2027150764
C  C138  1  0.94130000  0.19660000  0.90180000  1.0 0.051019826
C  C139  1  0.96160000  0.24680000  0.85340000  1.0 -0.1521823976
C  C140  1  0.00910000  0.25930000  0.80490000  1.0 -0.1417524705
C  C141  1  0.03240000  0.22490000  0.80430000  1.0 0.1096558864
C  C142  1  0.01120000  0.17730000  0.85060000  1.0 -0.1417524705
C  C143  1  0.96810000  0.16400000  0.90020000  1.0 -0.1521823976
C  C144  1  0.07770000  0.23700000  0.75240000  1.0 -0.1023295057
C  C145  1  0.11710000  0.24860000  0.70580000  1.0 -0.1257997149
C  C146  1  0.16280000  0.26540000  0.65190000  1.0 0.167373063
C  C147  1  0.18650000  0.22990000  0.64030000  1.0 -0.1884802475
C  C148  1  0.23420000  0.24800000  0.59360000  1.0 0.0421389365
C  C149  1  0.23450000  0.33720000  0.57000000  1.0 0.0421389365
C  C150  1  0.18680000  0.31910000  0.61670000  1.0 -0.2027150764
C  C151  1  0.29460000  0.11230000  0.95350000  1.0 0.1824039239
C  C152  1  0.33660000  0.10280000  0.00510000  1.0 -0.3052468878
C  C153  1  0.33450000  0.16420000  0.90140000  1.0 -0.3052468878
C  C154  1  0.37390000  0.21800000  0.94710000  1.0 0.1631348983
C  C155  1  0.40980000  0.26940000  0.89490000  1.0 0.051019826
C  C156  1  0.45460000  0.32190000  0.92920000  1.0 -0.1417524705
C  C157  1  0.48740000  0.36960000  0.89060000  1.0 -0.1187447341
C  C158  1  0.48480000  0.36960000  0.81770000  1.0 0.0936896596
C  C159  1  0.44360000  0.31790000  0.77710000  1.0 -0.1884802475
C  C160  1  0.40330000  0.26730000  0.81980000  1.0 -0.1650135648
C  C161  1  0.51930000  0.42060000  0.75630000  1.0 -0.0536181415
C  C162  1  0.54250000  0.45280000  0.71490000  1.0 -0.0866873805
C  C163  1  0.57530000  0.50260000  0.66600000  1.0 0.1368964233
C  C164  1  0.59800000  0.55890000  0.69280000  1.0 -0.205147354
C  C165  1  0.62640000  0.60580000  0.64460000  1.0 0.051019826
C  C166  1  0.60940000  0.54020000  0.54270000  1.0 0.0421389365
C  C167  1  0.58100000  0.49330000  0.59090000  1.0 -0.2027150764
C  C168  1  0.25530000  0.05870000  0.90180000  1.0 0.051019826
C  C169  1  0.28520000  0.03840000  0.85340000  1.0 -0.1521823976
C  C170  1  0.25020000  0.99090000  0.80490000  1.0 -0.1417524705
C  C171  1  0.19250000  0.96760000  0.80430000  1.0 0.1096558864
C  C172  1  0.16610000  0.98880000  0.85060000  1.0 -0.1417524705
C  C173  1  0.19590000  0.03190000  0.90020000  1.0 -0.1521823976
C  C174  1  0.15930000  0.92230000  0.75240000  1.0 -0.1023295057
C  C175  1  0.13150000  0.88290000  0.70580000  1.0 -0.1257997149
C  C176  1  0.10260000  0.83720000  0.65190000  1.0 0.167373063
C  C177  1  0.04340000  0.81350000  0.64030000  1.0 -0.1884802475
C  C178  1  0.01380000  0.76580000  0.59360000  1.0 0.0421389365
C  C179  1  0.10270000  0.76550000  0.57000000  1.0 0.0421389365
C  C180  1  0.13230000  0.81320000  0.61670000  1.0 -0.2027150764
C  C181  1  0.88770000  0.70540000  0.04650000  1.0 0.1824039239
C  C182  1  0.89720000  0.66340000  0.99490000  1.0 -0.3052468878
C  C183  1  0.83580000  0.66550000  0.09860000  1.0 -0.3052468878
C  C184  1  0.78200000  0.62610000  0.05290000  1.0 0.1631348983
C  C185  1  0.73060000  0.59020000  0.10510000  1.0 0.051019826
C  C186  1  0.67810000  0.54540000  0.07080000  1.0 -0.1417524705
C  C187  1  0.63040000  0.51260000  0.10940000  1.0 -0.1187447341
C  C188  1  0.63040000  0.51520000  0.18230000  1.0 0.0936896596
C  C189  1  0.68210000  0.55640000  0.22290000  1.0 -0.1884802475
C  C190  1  0.73270000  0.59670000  0.18020000  1.0 -0.1650135648
C  C191  1  0.57940000  0.48070000  0.24370000  1.0 -0.0536181415
C  C192  1  0.54720000  0.45750000  0.28510000  1.0 -0.0866873805
C  C193  1  0.49740000  0.42470000  0.33400000  1.0 0.1368964233
C  C194  1  0.44110000  0.40200000  0.30720000  1.0 -0.205147354
C  C195  1  0.39420000  0.37360000  0.35540000  1.0 0.051019826
C  C196  1  0.45980000  0.39060000  0.45730000  1.0 0.0421389365
C  C197  1  0.50670000  0.41900000  0.40910000  1.0 -0.2027150764
C  C198  1  0.94130000  0.74470000  0.09820000  1.0 0.051019826
C  C199  1  0.96160000  0.71480000  0.14660000  1.0 -0.1521823976
C  C200  1  0.00910000  0.74980000  0.19510000  1.0 -0.1417524705
C  C201  1  0.03240000  0.80750000  0.19570000  1.0 0.1096558864
C  C202  1  0.01120000  0.83390000  0.14940000  1.0 -0.1417524705
C  C203  1  0.96810000  0.80410000  0.09980000  1.0 -0.1521823976
C  C204  1  0.07770000  0.84070000  0.24760000  1.0 -0.1023295057
C  C205  1  0.11710000  0.86850000  0.29420000  1.0 -0.1257997149
C  C206  1  0.16280000  0.89740000  0.34810000  1.0 0.167373063
C  C207  1  0.18650000  0.95660000  0.35970000  1.0 -0.1884802475
C  C208  1  0.23420000  0.98620000  0.40640000  1.0 0.0421389365
C  C209  1  0.23450000  0.89730000  0.43000000  1.0 0.0421389365
C  C210  1  0.18680000  0.86770000  0.38330000  1.0 -0.2027150764
C  C211  1  0.29460000  0.18230000  0.04650000  1.0 0.1824039239
C  C212  1  0.33660000  0.23380000  0.99490000  1.0 -0.3052468878
C  C213  1  0.33450000  0.17030000  0.09860000  1.0 -0.3052468878
C  C214  1  0.37390000  0.15590000  0.05290000  1.0 0.1631348983
C  C215  1  0.40980000  0.14040000  0.10510000  1.0 0.051019826
C  C216  1  0.45460000  0.13270000  0.07080000  1.0 -0.1417524705
C  C217  1  0.48740000  0.11780000  0.10940000  1.0 -0.1187447341
C  C218  1  0.48480000  0.11520000  0.18230000  1.0 0.0936896596
C  C219  1  0.44360000  0.12570000  0.22290000  1.0 -0.1884802475
C  C220  1  0.40330000  0.13600000  0.18020000  1.0 -0.1650135648
C  C221  1  0.51930000  0.09870000  0.24370000  1.0 -0.0536181415
C  C222  1  0.54250000  0.08970000  0.28510000  1.0 -0.0866873805
C  C223  1  0.57530000  0.07270000  0.33400000  1.0 0.1368964233
C  C224  1  0.59800000  0.03910000  0.30720000  1.0 -0.2027150764
C  C225  1  0.62640000  0.02060000  0.35540000  1.0 0.051019826
C  C226  1  0.60940000  0.06920000  0.45730000  1.0 0.0421389365
C  C227  1  0.58100000  0.08770000  0.40910000  1.0 -0.2027150764
C  C228  1  0.25530000  0.19660000  0.09820000  1.0 0.051019826
C  C229  1  0.28520000  0.24680000  0.14660000  1.0 -0.1521823976
C  C230  1  0.25020000  0.25930000  0.19510000  1.0 -0.1417524705
C  C231  1  0.19250000  0.22490000  0.19570000  1.0 0.1096558864
C  C232  1  0.16610000  0.17730000  0.14940000  1.0 -0.1417524705
C  C233  1  0.19590000  0.16400000  0.09980000  1.0 -0.1521823976
C  C234  1  0.15930000  0.23700000  0.24760000  1.0 -0.1023295057
C  C235  1  0.13150000  0.24860000  0.29420000  1.0 -0.1257997149
C  C236  1  0.10260000  0.26540000  0.34810000  1.0 0.167373063
C  C237  1  0.04340000  0.22990000  0.35970000  1.0 -0.1884802475
C  C238  1  0.01380000  0.24800000  0.40640000  1.0 0.0421389365
C  C239  1  0.10270000  0.33720000  0.43000000  1.0 0.0421389365
C  C240  1  0.13230000  0.31910000  0.38330000  1.0 -0.2027150764
C  C241  1  0.81770000  0.11230000  0.04650000  1.0 0.1824039239
C  C242  1  0.76620000  0.10280000  0.99490000  1.0 -0.3052468878
C  C243  1  0.82970000  0.16420000  0.09860000  1.0 -0.3052468878
C  C244  1  0.84410000  0.21800000  0.05290000  1.0 0.1631348983
C  C245  1  0.85960000  0.26940000  0.10510000  1.0 0.051019826
C  C246  1  0.86730000  0.32190000  0.07080000  1.0 -0.1417524705
C  C247  1  0.88220000  0.36960000  0.10940000  1.0 -0.1187447341
C  C248  1  0.88480000  0.36960000  0.18230000  1.0 0.0936896596
C  C249  1  0.87430000  0.31790000  0.22290000  1.0 -0.1884802475
C  C250  1  0.86400000  0.26730000  0.18020000  1.0 -0.1567970471
C  C251  1  0.90130000  0.42060000  0.24370000  1.0 -0.0536181415
C  C252  1  0.91030000  0.45280000  0.28510000  1.0 -0.0866873805
C  C253  1  0.92730000  0.50260000  0.33400000  1.0 0.1368964233
C  C254  1  0.96090000  0.55890000  0.30720000  1.0 -0.205147354
C  C255  1  0.97940000  0.60580000  0.35540000  1.0 0.051019826
C  C256  1  0.93080000  0.54020000  0.45730000  1.0 0.0421389365
C  C257  1  0.91230000  0.49330000  0.40910000  1.0 -0.2027150764
C  C258  1  0.80340000  0.05870000  0.09820000  1.0 0.051019826
C  C259  1  0.75320000  0.03840000  0.14660000  1.0 -0.1521823976
C  C260  1  0.74070000  0.99090000  0.19510000  1.0 -0.1417524705
C  C261  1  0.77510000  0.96760000  0.19570000  1.0 0.1096558864
C  C262  1  0.82270000  0.98880000  0.14940000  1.0 -0.1417524705
C  C263  1  0.83600000  0.03190000  0.09980000  1.0 -0.1521823976
C  C264  1  0.76300000  0.92230000  0.24760000  1.0 -0.1023295057
C  C265  1  0.75140000  0.88290000  0.29420000  1.0 -0.1257997149
C  C266  1  0.73460000  0.83720000  0.34810000  1.0 0.167373063
C  C267  1  0.77010000  0.81350000  0.35970000  1.0 -0.1884802475
C  C268  1  0.75200000  0.76580000  0.40640000  1.0 0.0421389365
C  C269  1  0.66280000  0.76550000  0.43000000  1.0 0.0421389365
C  C270  1  0.68090000  0.81320000  0.38330000  1.0 -0.2027150764
C  C271  1  0.11230000  0.29460000  0.04650000  1.0 0.1824039239
C  C272  1  0.10280000  0.33660000  0.99490000  1.0 -0.3052468878
C  C273  1  0.16420000  0.33450000  0.09860000  1.0 -0.3052468878
C  C274  1  0.21800000  0.37390000  0.05290000  1.0 0.1631348983
C  C275  1  0.26940000  0.40980000  0.10510000  1.0 0.051019826
C  C276  1  0.32190000  0.45460000  0.07080000  1.0 -0.1417524705
C  C277  1  0.36960000  0.48740000  0.10940000  1.0 -0.1187447341
C  C278  1  0.36960000  0.48480000  0.18230000  1.0 0.0936896596
C  C279  1  0.31790000  0.44360000  0.22290000  1.0 -0.1884802475
C  C280  1  0.26730000  0.40330000  0.18020000  1.0 -0.1650135648
C  C281  1  0.42060000  0.51930000  0.24370000  1.0 -0.0536181415
C  C282  1  0.45280000  0.54250000  0.28510000  1.0 -0.0866873805
C  C283  1  0.50260000  0.57530000  0.33400000  1.0 0.1368964233
C  C284  1  0.55890000  0.59800000  0.30720000  1.0 -0.205147354
C  C285  1  0.60580000  0.62640000  0.35540000  1.0 0.051019826
C  C286  1  0.54020000  0.60940000  0.45730000  1.0 0.0421389365
C  C287  1  0.49330000  0.58100000  0.40910000  1.0 -0.2027150764
C  C288  1  0.05870000  0.25530000  0.09820000  1.0 0.051019826
C  C289  1  0.03840000  0.28520000  0.14660000  1.0 -0.1567970471
C  C290  1  0.99090000  0.25020000  0.19510000  1.0 -0.1417524705
C  C291  1  0.96760000  0.19250000  0.19570000  1.0 0.1096558864
C  C292  1  0.98880000  0.16610000  0.14940000  1.0 -0.1417524705
C  C293  1  0.03190000  0.19590000  0.09980000  1.0 -0.1521823976
C  C294  1  0.92230000  0.15930000  0.24760000  1.0 -0.1023295057
C  C295  1  0.88290000  0.13150000  0.29420000  1.0 -0.1257997149
C  C296  1  0.83720000  0.10260000  0.34810000  1.0 0.167373063
C  C297  1  0.81350000  0.04340000  0.35970000  1.0 -0.1884802475
C  C298  1  0.76580000  0.01380000  0.40640000  1.0 0.0421389365
C  C299  1  0.76550000  0.10270000  0.43000000  1.0 0.0421389365
C  C300  1  0.81320000  0.13230000  0.38330000  1.0 -0.2027150764
C  C301  1  0.70540000  0.81770000  0.04650000  1.0 0.1824039239
C  C302  1  0.66340000  0.76620000  0.99490000  1.0 -0.3052468878
C  C303  1  0.66550000  0.82970000  0.09860000  1.0 -0.3052468878
C  C304  1  0.62610000  0.84410000  0.05290000  1.0 0.1631348983
C  C305  1  0.59020000  0.85960000  0.10510000  1.0 0.051019826
C  C306  1  0.54540000  0.86730000  0.07080000  1.0 -0.1417524705
C  C307  1  0.51260000  0.88220000  0.10940000  1.0 -0.1187447341
C  C308  1  0.51520000  0.88480000  0.18230000  1.0 0.0936896596
C  C309  1  0.55640000  0.87430000  0.22290000  1.0 -0.1884802475
C  C310  1  0.59670000  0.86400000  0.18020000  1.0 -0.1650135648
C  C311  1  0.48070000  0.90130000  0.24370000  1.0 -0.0536181415
C  C312  1  0.45750000  0.91030000  0.28510000  1.0 -0.0866873805
C  C313  1  0.42470000  0.92730000  0.33400000  1.0 0.1368964233
C  C314  1  0.40200000  0.96090000  0.30720000  1.0 -0.205147354
C  C315  1  0.37360000  0.97940000  0.35540000  1.0 0.051019826
C  C316  1  0.39060000  0.93080000  0.45730000  1.0 0.0421389365
C  C317  1  0.41900000  0.91230000  0.40910000  1.0 -0.2027150764
C  C318  1  0.74470000  0.80340000  0.09820000  1.0 0.051019826
C  C319  1  0.71480000  0.75320000  0.14660000  1.0 -0.1521823976
C  C320  1  0.74980000  0.74070000  0.19510000  1.0 -0.1417524705
C  C321  1  0.80750000  0.77510000  0.19570000  1.0 0.1096558864
C  C322  1  0.83390000  0.82270000  0.14940000  1.0 -0.1417524705
C  C323  1  0.80410000  0.83600000  0.09980000  1.0 -0.1521823976
C  C324  1  0.84070000  0.76300000  0.24760000  1.0 -0.1023295057
C  C325  1  0.86850000  0.75140000  0.29420000  1.0 -0.1257997149
C  C326  1  0.89740000  0.73460000  0.34810000  1.0 0.167373063
C  C327  1  0.95660000  0.77010000  0.35970000  1.0 -0.1884802475
C  C328  1  0.98620000  0.75200000  0.40640000  1.0 0.0421389365
C  C329  1  0.89730000  0.66280000  0.43000000  1.0 0.0421389365
C  C330  1  0.86770000  0.68090000  0.38330000  1.0 -0.2027150764
C  C331  1  0.18230000  0.88770000  0.04650000  1.0 0.1824039239
C  C332  1  0.23380000  0.89720000  0.99490000  1.0 -0.3052468878
C  C333  1  0.17030000  0.83580000  0.09860000  1.0 -0.3052468878
C  C334  1  0.15590000  0.78200000  0.05290000  1.0 0.1631348983
C  C335  1  0.14040000  0.73060000  0.10510000  1.0 0.051019826
C  C336  1  0.13270000  0.67810000  0.07080000  1.0 -0.1417524705
C  C337  1  0.11780000  0.63040000  0.10940000  1.0 -0.1187447341
C  C338  1  0.11520000  0.63040000  0.18230000  1.0 0.0936896596
C  C339  1  0.12570000  0.68210000  0.22290000  1.0 -0.1884802475
C  C340  1  0.13600000  0.73270000  0.18020000  1.0 -0.1650135648
C  C341  1  0.09870000  0.57940000  0.24370000  1.0 -0.0536181415
C  C342  1  0.08970000  0.54720000  0.28510000  1.0 -0.0866873805
C  C343  1  0.07270000  0.49740000  0.33400000  1.0 0.1368964233
C  C344  1  0.03910000  0.44110000  0.30720000  1.0 -0.205147354
C  C345  1  0.02060000  0.39420000  0.35540000  1.0 0.051019826
C  C346  1  0.06920000  0.45980000  0.45730000  1.0 0.0421389365
C  C347  1  0.08770000  0.50670000  0.40910000  1.0 -0.2027150764
C  C348  1  0.19660000  0.94130000  0.09820000  1.0 0.051019826
C  C349  1  0.24680000  0.96160000  0.14660000  1.0 -0.1567970471
C  C350  1  0.25930000  0.00910000  0.19510000  1.0 -0.1417524705
C  C351  1  0.22490000  0.03240000  0.19570000  1.0 0.1096558864
C  C352  1  0.17730000  0.01120000  0.14940000  1.0 -0.1417524705
C  C353  1  0.16400000  0.96810000  0.09980000  1.0 -0.1521823976
C  C354  1  0.23700000  0.07770000  0.24760000  1.0 -0.1023295057
C  C355  1  0.24860000  0.11710000  0.29420000  1.0 -0.1257997149
C  C356  1  0.26540000  0.16280000  0.34810000  1.0 0.167373063
C  C357  1  0.22990000  0.18650000  0.35970000  1.0 -0.1884802475
C  C358  1  0.24800000  0.23420000  0.40640000  1.0 0.0421389365
C  C359  1  0.33720000  0.23450000  0.43000000  1.0 0.0421389365
C  C360  1  0.31910000  0.18680000  0.38330000  1.0 -0.2027150764
C  C361  1  0.12920000  0.25840000  0.00000000  1.0 -0.3464558305
C  C362  1  0.20560000  0.41120000  0.00000000  1.0 -0.301295666
C  C363  1  0.12920000  0.87080000  0.00000000  1.0 -0.3464558305
C  C364  1  0.20560000  0.79440000  0.00000000  1.0 -0.301295666
C  C365  1  0.74160000  0.87080000  0.00000000  1.0 -0.3464558305
C  C366  1  0.58880000  0.79440000  0.00000000  1.0 -0.301295666
C  C367  1  0.87080000  0.74160000  0.00000000  1.0 -0.3464558305
C  C368  1  0.79440000  0.58880000  0.00000000  1.0 -0.301295666
C  C369  1  0.87080000  0.12920000  0.00000000  1.0 -0.3464558305
C  C370  1  0.79440000  0.20560000  0.00000000  1.0 -0.301295666
C  C371  1  0.25840000  0.12920000  0.00000000  1.0 -0.3464558305
C  C372  1  0.41120000  0.20560000  0.00000000  1.0 -0.301295666
N  N1  1  0.03570000  0.63210000  0.56960000  1.0 -0.2500808072
N  N2  1  0.30170000  0.04350000  0.55840000  1.0 -0.2500808072
N  N3  1  0.59640000  0.96430000  0.56960000  1.0 -0.2500808072
N  N4  1  0.74180000  0.69830000  0.55840000  1.0 -0.2500808072
N  N5  1  0.36790000  0.40360000  0.56960000  1.0 -0.2500808072
N  N6  1  0.95650000  0.25820000  0.55840000  1.0 -0.2500808072
N  N7  1  0.96430000  0.36790000  0.56960000  1.0 -0.2500808072
N  N8  1  0.69830000  0.95650000  0.55840000  1.0 -0.2500808072
N  N9  1  0.40360000  0.03570000  0.56960000  1.0 -0.2500808072
N  N10  1  0.25820000  0.30170000  0.55840000  1.0 -0.2500808072
N  N11  1  0.63210000  0.59640000  0.56960000  1.0 -0.2500808072
N  N12  1  0.04350000  0.74180000  0.55840000  1.0 -0.2500808072
N  N13  1  0.40360000  0.36790000  0.43040000  1.0 -0.2500808072
N  N14  1  0.25820000  0.95650000  0.44160000  1.0 -0.2500808072
N  N15  1  0.63210000  0.03570000  0.43040000  1.0 -0.2500808072
N  N16  1  0.04350000  0.30170000  0.44160000  1.0 -0.2500808072
N  N17  1  0.96430000  0.59640000  0.43040000  1.0 -0.2500808072
N  N18  1  0.69830000  0.74180000  0.44160000  1.0 -0.2500808072
N  N19  1  0.59640000  0.63210000  0.43040000  1.0 -0.2500808072
N  N20  1  0.74180000  0.04350000  0.44160000  1.0 -0.2500808072
N  N21  1  0.36790000  0.96430000  0.43040000  1.0 -0.2500808072
N  N22  1  0.95650000  0.69830000  0.44160000  1.0 -0.2500808072
N  N23  1  0.03570000  0.40360000  0.43040000  1.0 -0.2500808072
N  N24  1  0.30170000  0.25820000  0.44160000  1.0 -0.2500808072
