# DDEC6 charges by PACMAN v1.1 (https://github.com/mtap-research/PACMAN-charge/)
data_XUKMIC_FSR_pacman
_symmetry_space_group_name_H-M   'P 1'
_cell_length_a   26.74100000
_cell_length_b   26.74100000
_cell_length_c   17.89290000
_cell_angle_alpha   90.00000000
_cell_angle_beta   90.00000000
_cell_angle_gamma   120.00000000
_symmetry_Int_Tables_number   1
_chemical_formula_structural   CuH44(C31N2)2
_chemical_formula_sum   'Cu6 H264 C372 N24'
_cell_volume   11080.68615971
_cell_formula_units_Z   6
loop_
 _symmetry_equiv_pos_site_id
 _symmetry_equiv_pos_as_xyz
  1  'x, y, z'
loop_
 _atom_site_type_symbol
 _atom_site_label
 _atom_site_symmetry_multiplicity
 _atom_site_fract_x
 _atom_site_fract_y
 _atom_site_fract_z
 _atom_site_occupancy
 _atom_site_charge
Cu  Cu1  1  0.66699000  0.00000000  0.00000000  1.0 0.1772371577
Cu  Cu2  1  0.33301000  0.33301000  0.00000000  1.0 0.1772371577
Cu  Cu3  1  0.00000000  0.66699000  0.00000000  1.0 0.1772371577
Cu  Cu4  1  0.33301000  0.00000000  0.00000000  1.0 0.1772371577
Cu  Cu5  1  0.66699000  0.66699000  0.00000000  1.0 0.1772371577
Cu  Cu6  1  0.00000000  0.33301000  0.00000000  1.0 0.1772371577
H  H1  1  0.35871000  0.15398000  0.37451000  1.0 0.1011624223
H  H2  1  0.31127000  0.17185000  0.36897000  1.0 0.1011624223
H  H3  1  0.23418000  0.09741000  0.53245000  1.0 0.1089927225
H  H4  1  0.35899000  0.09257000  0.47324000  1.0 0.1011624223
H  H5  1  0.31091000  0.06754000  0.53516000  1.0 0.118108418
H  H6  1  0.43512000  0.19534000  0.47129000  1.0 0.1011624223
H  H7  1  0.17785000  0.04587000  0.43333000  1.0 0.118108418
H  H8  1  0.12548000  0.97429000  0.35374000  1.0 0.118108418
H  H9  1  0.26686000  0.97534000  0.27276000  1.0 0.1089927225
H  H10  1  0.32569000  0.05575000  0.35296000  1.0 0.118108418
H  H11  1  0.17219000  0.83017000  0.12051000  1.0 0.1382959166
H  H12  1  0.11873000  0.74974000  0.04731000  1.0 0.1011624223
H  H13  1  0.97633000  0.75021000  0.08933000  1.0 0.1011624223
H  H14  1  0.02546000  0.82836000  0.16195000  1.0 0.1382959166
H  H15  1  0.37076000  0.13488000  0.70214000  1.0 0.1089927225
H  H16  1  0.44112000  0.12424000  0.77631000  1.0 0.1089927225
H  H17  1  0.51030000  0.10207000  0.58043000  1.0 0.128308685
H  H18  1  0.45800000  0.14183000  0.52411000  1.0 0.1089927225
H  H19  1  0.56724000  0.10856000  0.92821000  1.0 0.1382959166
H  H20  1  0.61787000  0.08117000  0.00632000  1.0 0.1089927225
H  H21  1  0.64278000  0.00168000  0.84477000  1.0 0.1011624223
H  H22  1  0.59509000  0.02849000  0.76461000  1.0 0.1382959166
H  H23  1  0.79527000  0.64129000  0.37451000  1.0 0.1011624223
H  H24  1  0.86058000  0.68873000  0.36897000  1.0 0.1011624223
H  H25  1  0.86323000  0.76582000  0.53245000  1.0 0.1089927225
H  H26  1  0.73358000  0.64101000  0.47324000  1.0 0.1011624223
H  H27  1  0.75663000  0.68909000  0.53516000  1.0 0.118108418
H  H28  1  0.76022000  0.56488000  0.47129000  1.0 0.1011624223
H  H29  1  0.86802000  0.82215000  0.43333000  1.0 0.118108418
H  H30  1  0.84881000  0.87452000  0.35374000  1.0 0.118108418
H  H31  1  0.70848000  0.73314000  0.27276000  1.0 0.1089927225
H  H32  1  0.73006000  0.67431000  0.35296000  1.0 0.118108418
H  H33  1  0.65798000  0.82781000  0.12051000  1.0 0.1382959166
H  H34  1  0.63101000  0.88127000  0.04731000  1.0 0.1011624223
H  H35  1  0.77388000  0.02367000  0.08933000  1.0 0.1011624223
H  H36  1  0.80290000  0.97454000  0.16195000  1.0 0.1382959166
H  H37  1  0.76412000  0.62924000  0.70214000  1.0 0.1089927225
H  H38  1  0.68312000  0.55888000  0.77631000  1.0 0.1089927225
H  H39  1  0.59177000  0.48970000  0.58043000  1.0 0.128308685
H  H40  1  0.68383000  0.54200000  0.52411000  1.0 0.1089927225
H  H41  1  0.54132000  0.43276000  0.92821000  1.0 0.1382959166
H  H42  1  0.46330000  0.38213000  0.00632000  1.0 0.1089927225
H  H43  1  0.35890000  0.35722000  0.84477000  1.0 0.1011624223
H  H44  1  0.43340000  0.40491000  0.76461000  1.0 0.1382959166
H  H45  1  0.84602000  0.20473000  0.37451000  1.0 0.1011624223
H  H46  1  0.82815000  0.13942000  0.36897000  1.0 0.1011624223
H  H47  1  0.90259000  0.13677000  0.53245000  1.0 0.1089927225
H  H48  1  0.90743000  0.26642000  0.47324000  1.0 0.1011624223
H  H49  1  0.93246000  0.24337000  0.53516000  1.0 0.118108418
H  H50  1  0.80466000  0.23978000  0.47129000  1.0 0.1011624223
H  H51  1  0.95413000  0.13198000  0.43333000  1.0 0.118108418
H  H52  1  0.02571000  0.15119000  0.35374000  1.0 0.118108418
H  H53  1  0.02466000  0.29152000  0.27276000  1.0 0.1089927225
H  H54  1  0.94425000  0.26994000  0.35296000  1.0 0.118108418
H  H55  1  0.16983000  0.34202000  0.12051000  1.0 0.1382959166
H  H56  1  0.25026000  0.36899000  0.04731000  1.0 0.1011624223
H  H57  1  0.24979000  0.22612000  0.08933000  1.0 0.1011624223
H  H58  1  0.17164000  0.19710000  0.16195000  1.0 0.1382959166
H  H59  1  0.86512000  0.23588000  0.70214000  1.0 0.1089927225
H  H60  1  0.87576000  0.31688000  0.77631000  1.0 0.1089927225
H  H61  1  0.89793000  0.40823000  0.58043000  1.0 0.128308685
H  H62  1  0.85817000  0.31617000  0.52411000  1.0 0.1089927225
H  H63  1  0.89144000  0.45868000  0.92821000  1.0 0.1382959166
H  H64  1  0.91883000  0.53670000  0.00632000  1.0 0.1089927225
H  H65  1  0.99832000  0.64110000  0.84477000  1.0 0.1011624223
H  H66  1  0.97151000  0.56660000  0.76461000  1.0 0.1382959166
H  H67  1  0.64129000  0.84602000  0.37451000  1.0 0.1011624223
H  H68  1  0.68873000  0.82815000  0.36897000  1.0 0.1011624223
H  H69  1  0.76582000  0.90259000  0.53245000  1.0 0.1089927225
H  H70  1  0.64101000  0.90743000  0.47324000  1.0 0.1011624223
H  H71  1  0.68909000  0.93246000  0.53516000  1.0 0.118108418
H  H72  1  0.56488000  0.80466000  0.47129000  1.0 0.1011624223
H  H73  1  0.82215000  0.95413000  0.43333000  1.0 0.118108418
H  H74  1  0.87452000  0.02571000  0.35374000  1.0 0.118108418
H  H75  1  0.73314000  0.02466000  0.27276000  1.0 0.1089927225
H  H76  1  0.67431000  0.94425000  0.35296000  1.0 0.118108418
H  H77  1  0.82781000  0.16983000  0.12051000  1.0 0.1382959166
H  H78  1  0.88127000  0.25026000  0.04731000  1.0 0.1011624223
H  H79  1  0.02367000  0.24979000  0.08933000  1.0 0.1011624223
H  H80  1  0.97454000  0.17164000  0.16195000  1.0 0.1382959166
H  H81  1  0.62924000  0.86512000  0.70214000  1.0 0.1089927225
H  H82  1  0.55888000  0.87576000  0.77631000  1.0 0.1089927225
H  H83  1  0.48970000  0.89793000  0.58043000  1.0 0.128308685
H  H84  1  0.54200000  0.85817000  0.52411000  1.0 0.1089927225
H  H85  1  0.43276000  0.89144000  0.92821000  1.0 0.1382959166
H  H86  1  0.38213000  0.91883000  0.00632000  1.0 0.1089927225
H  H87  1  0.35722000  0.99832000  0.84477000  1.0 0.1011624223
H  H88  1  0.40491000  0.97151000  0.76461000  1.0 0.1382959166
H  H89  1  0.20473000  0.35871000  0.37451000  1.0 0.1011624223
H  H90  1  0.13942000  0.31127000  0.36897000  1.0 0.1011624223
H  H91  1  0.13677000  0.23418000  0.53245000  1.0 0.1089927225
H  H92  1  0.26642000  0.35899000  0.47324000  1.0 0.1011624223
H  H93  1  0.24337000  0.31091000  0.53516000  1.0 0.118108418
H  H94  1  0.23978000  0.43512000  0.47129000  1.0 0.1011624223
H  H95  1  0.13198000  0.17785000  0.43333000  1.0 0.118108418
H  H96  1  0.15119000  0.12548000  0.35374000  1.0 0.118108418
H  H97  1  0.29152000  0.26686000  0.27276000  1.0 0.1089927225
H  H98  1  0.26994000  0.32569000  0.35296000  1.0 0.118108418
H  H99  1  0.34202000  0.17219000  0.12051000  1.0 0.1382959166
H  H100  1  0.36899000  0.11873000  0.04731000  1.0 0.1011624223
H  H101  1  0.22612000  0.97633000  0.08933000  1.0 0.1011624223
H  H102  1  0.19710000  0.02546000  0.16195000  1.0 0.1382959166
H  H103  1  0.23588000  0.37076000  0.70214000  1.0 0.1089927225
H  H104  1  0.31688000  0.44112000  0.77631000  1.0 0.1089927225
H  H105  1  0.40823000  0.51030000  0.58043000  1.0 0.128308685
H  H106  1  0.31617000  0.45800000  0.52411000  1.0 0.1089927225
H  H107  1  0.45868000  0.56724000  0.92821000  1.0 0.1382959166
H  H108  1  0.53670000  0.61787000  0.00632000  1.0 0.1089927225
H  H109  1  0.64110000  0.64278000  0.84477000  1.0 0.1011624223
H  H110  1  0.56660000  0.59509000  0.76461000  1.0 0.1382959166
H  H111  1  0.15398000  0.79527000  0.37451000  1.0 0.1011624223
H  H112  1  0.17185000  0.86058000  0.36897000  1.0 0.1011624223
H  H113  1  0.09741000  0.86323000  0.53245000  1.0 0.1089927225
H  H114  1  0.09257000  0.73358000  0.47324000  1.0 0.1011624223
H  H115  1  0.06754000  0.75663000  0.53516000  1.0 0.118108418
H  H116  1  0.19534000  0.76022000  0.47129000  1.0 0.1011624223
H  H117  1  0.04587000  0.86802000  0.43333000  1.0 0.118108418
H  H118  1  0.97429000  0.84881000  0.35374000  1.0 0.118108418
H  H119  1  0.97534000  0.70848000  0.27276000  1.0 0.1089927225
H  H120  1  0.05575000  0.73006000  0.35296000  1.0 0.118108418
H  H121  1  0.83017000  0.65798000  0.12051000  1.0 0.1382959166
H  H122  1  0.74974000  0.63101000  0.04731000  1.0 0.1011624223
H  H123  1  0.75021000  0.77388000  0.08933000  1.0 0.1011624223
H  H124  1  0.82836000  0.80290000  0.16195000  1.0 0.1382959166
H  H125  1  0.13488000  0.76412000  0.70214000  1.0 0.1089927225
H  H126  1  0.12424000  0.68312000  0.77631000  1.0 0.1089927225
H  H127  1  0.10207000  0.59177000  0.58043000  1.0 0.128308685
H  H128  1  0.14183000  0.68383000  0.52411000  1.0 0.1089927225
H  H129  1  0.10856000  0.54132000  0.92821000  1.0 0.1382959166
H  H130  1  0.08117000  0.46330000  0.00632000  1.0 0.1089927225
H  H131  1  0.00168000  0.35890000  0.84477000  1.0 0.1011624223
H  H132  1  0.02849000  0.43340000  0.76461000  1.0 0.1382959166
H  H133  1  0.20473000  0.84602000  0.62549000  1.0 0.1011624223
H  H134  1  0.13942000  0.82815000  0.63103000  1.0 0.1011624223
H  H135  1  0.13677000  0.90259000  0.46755000  1.0 0.1089927225
H  H136  1  0.26642000  0.90743000  0.52676000  1.0 0.1011624223
H  H137  1  0.24337000  0.93246000  0.46484000  1.0 0.118108418
H  H138  1  0.23978000  0.80466000  0.52871000  1.0 0.1011624223
H  H139  1  0.13198000  0.95413000  0.56667000  1.0 0.118108418
H  H140  1  0.15119000  0.02571000  0.64626000  1.0 0.118108418
H  H141  1  0.29152000  0.02466000  0.72724000  1.0 0.1089927225
H  H142  1  0.26994000  0.94425000  0.64704000  1.0 0.118108418
H  H143  1  0.34202000  0.16983000  0.87949000  1.0 0.1382959166
H  H144  1  0.36899000  0.25026000  0.95269000  1.0 0.1011624223
H  H145  1  0.22612000  0.24979000  0.91067000  1.0 0.1011624223
H  H146  1  0.19710000  0.17164000  0.83805000  1.0 0.1382959166
H  H147  1  0.23588000  0.86512000  0.29786000  1.0 0.1089927225
H  H148  1  0.31688000  0.87576000  0.22369000  1.0 0.1089927225
H  H149  1  0.40823000  0.89793000  0.41957000  1.0 0.128308685
H  H150  1  0.31617000  0.85817000  0.47589000  1.0 0.1089927225
H  H151  1  0.45868000  0.89144000  0.07179000  1.0 0.1382959166
H  H152  1  0.53670000  0.91883000  0.99368000  1.0 0.1089927225
H  H153  1  0.64110000  0.99832000  0.15523000  1.0 0.1011624223
H  H154  1  0.56660000  0.97151000  0.23539000  1.0 0.1382959166
H  H155  1  0.15398000  0.35871000  0.62549000  1.0 0.1011624223
H  H156  1  0.17185000  0.31127000  0.63103000  1.0 0.1011624223
H  H157  1  0.09741000  0.23418000  0.46755000  1.0 0.1089927225
H  H158  1  0.09257000  0.35899000  0.52676000  1.0 0.1011624223
H  H159  1  0.06754000  0.31091000  0.46484000  1.0 0.118108418
H  H160  1  0.19534000  0.43512000  0.52871000  1.0 0.1011624223
H  H161  1  0.04587000  0.17785000  0.56667000  1.0 0.118108418
H  H162  1  0.97429000  0.12548000  0.64626000  1.0 0.118108418
H  H163  1  0.97534000  0.26686000  0.72724000  1.0 0.1089927225
H  H164  1  0.05575000  0.32569000  0.64704000  1.0 0.118108418
H  H165  1  0.83017000  0.17219000  0.87949000  1.0 0.1382959166
H  H166  1  0.74974000  0.11873000  0.95269000  1.0 0.1011624223
H  H167  1  0.75021000  0.97633000  0.91067000  1.0 0.1011624223
H  H168  1  0.82836000  0.02546000  0.83805000  1.0 0.1382959166
H  H169  1  0.13488000  0.37076000  0.29786000  1.0 0.1089927225
H  H170  1  0.12424000  0.44112000  0.22369000  1.0 0.1089927225
H  H171  1  0.10207000  0.51030000  0.41957000  1.0 0.128308685
H  H172  1  0.14183000  0.45800000  0.47589000  1.0 0.1089927225
H  H173  1  0.10856000  0.56724000  0.07179000  1.0 0.1382959166
H  H174  1  0.08117000  0.61787000  0.99368000  1.0 0.1089927225
H  H175  1  0.00168000  0.64278000  0.15523000  1.0 0.1011624223
H  H176  1  0.02849000  0.59509000  0.23539000  1.0 0.1382959166
H  H177  1  0.64129000  0.79527000  0.62549000  1.0 0.1011624223
H  H178  1  0.68873000  0.86058000  0.63103000  1.0 0.1011624223
H  H179  1  0.76582000  0.86323000  0.46755000  1.0 0.1089927225
H  H180  1  0.64101000  0.73358000  0.52676000  1.0 0.1011624223
H  H181  1  0.68909000  0.75663000  0.46484000  1.0 0.118108418
H  H182  1  0.56488000  0.76022000  0.52871000  1.0 0.1011624223
H  H183  1  0.82215000  0.86802000  0.56667000  1.0 0.118108418
H  H184  1  0.87452000  0.84881000  0.64626000  1.0 0.118108418
H  H185  1  0.73314000  0.70848000  0.72724000  1.0 0.1089927225
H  H186  1  0.67431000  0.73006000  0.64704000  1.0 0.118108418
H  H187  1  0.82781000  0.65798000  0.87949000  1.0 0.1382959166
H  H188  1  0.88127000  0.63101000  0.95269000  1.0 0.1011624223
H  H189  1  0.02367000  0.77388000  0.91067000  1.0 0.1011624223
H  H190  1  0.97454000  0.80290000  0.83805000  1.0 0.1382959166
H  H191  1  0.62924000  0.76412000  0.29786000  1.0 0.1089927225
H  H192  1  0.55888000  0.68312000  0.22369000  1.0 0.1089927225
H  H193  1  0.48970000  0.59177000  0.41957000  1.0 0.128308685
H  H194  1  0.54200000  0.68383000  0.47589000  1.0 0.1089927225
H  H195  1  0.43276000  0.54132000  0.07179000  1.0 0.1382959166
H  H196  1  0.38213000  0.46330000  0.99368000  1.0 0.1089927225
H  H197  1  0.35722000  0.35890000  0.15523000  1.0 0.1011624223
H  H198  1  0.40491000  0.43340000  0.23539000  1.0 0.1382959166
H  H199  1  0.79527000  0.15398000  0.62549000  1.0 0.1011624223
H  H200  1  0.86058000  0.17185000  0.63103000  1.0 0.1011624223
H  H201  1  0.86323000  0.09741000  0.46755000  1.0 0.1089927225
H  H202  1  0.73358000  0.09257000  0.52676000  1.0 0.1011624223
H  H203  1  0.75663000  0.06754000  0.46484000  1.0 0.118108418
H  H204  1  0.76022000  0.19534000  0.52871000  1.0 0.1011624223
H  H205  1  0.86802000  0.04587000  0.56667000  1.0 0.118108418
H  H206  1  0.84881000  0.97429000  0.64626000  1.0 0.118108418
H  H207  1  0.70848000  0.97534000  0.72724000  1.0 0.1089927225
H  H208  1  0.73006000  0.05575000  0.64704000  1.0 0.118108418
H  H209  1  0.65798000  0.83017000  0.87949000  1.0 0.1382959166
H  H210  1  0.63101000  0.74974000  0.95269000  1.0 0.1011624223
H  H211  1  0.77388000  0.75021000  0.91067000  1.0 0.1011624223
H  H212  1  0.80290000  0.82836000  0.83805000  1.0 0.1382959166
H  H213  1  0.76412000  0.13488000  0.29786000  1.0 0.1089927225
H  H214  1  0.68312000  0.12424000  0.22369000  1.0 0.1089927225
H  H215  1  0.59177000  0.10207000  0.41957000  1.0 0.128308685
H  H216  1  0.68383000  0.14183000  0.47589000  1.0 0.1089927225
H  H217  1  0.54132000  0.10856000  0.07179000  1.0 0.1382959166
H  H218  1  0.46330000  0.08117000  0.99368000  1.0 0.1089927225
H  H219  1  0.35890000  0.00168000  0.15523000  1.0 0.1011624223
H  H220  1  0.43340000  0.02849000  0.23539000  1.0 0.1382959166
H  H221  1  0.84602000  0.64129000  0.62549000  1.0 0.1011624223
H  H222  1  0.82815000  0.68873000  0.63103000  1.0 0.1011624223
H  H223  1  0.90259000  0.76582000  0.46755000  1.0 0.1089927225
H  H224  1  0.90743000  0.64101000  0.52676000  1.0 0.1011624223
H  H225  1  0.93246000  0.68909000  0.46484000  1.0 0.118108418
H  H226  1  0.80466000  0.56488000  0.52871000  1.0 0.1011624223
H  H227  1  0.95413000  0.82215000  0.56667000  1.0 0.118108418
H  H228  1  0.02571000  0.87452000  0.64626000  1.0 0.118108418
H  H229  1  0.02466000  0.73314000  0.72724000  1.0 0.1089927225
H  H230  1  0.94425000  0.67431000  0.64704000  1.0 0.118108418
H  H231  1  0.16983000  0.82781000  0.87949000  1.0 0.1382959166
H  H232  1  0.25026000  0.88127000  0.95269000  1.0 0.1011624223
H  H233  1  0.24979000  0.02367000  0.91067000  1.0 0.1011624223
H  H234  1  0.17164000  0.97454000  0.83805000  1.0 0.1382959166
H  H235  1  0.86512000  0.62924000  0.29786000  1.0 0.1089927225
H  H236  1  0.87576000  0.55888000  0.22369000  1.0 0.1089927225
H  H237  1  0.89793000  0.48970000  0.41957000  1.0 0.128308685
H  H238  1  0.85817000  0.54200000  0.47589000  1.0 0.1089927225
H  H239  1  0.89144000  0.43276000  0.07179000  1.0 0.1382959166
H  H240  1  0.91883000  0.38213000  0.99368000  1.0 0.1089927225
H  H241  1  0.99832000  0.35722000  0.15523000  1.0 0.1011624223
H  H242  1  0.97151000  0.40491000  0.23539000  1.0 0.1382959166
H  H243  1  0.35871000  0.20473000  0.62549000  1.0 0.1011624223
H  H244  1  0.31127000  0.13942000  0.63103000  1.0 0.1011624223
H  H245  1  0.23418000  0.13677000  0.46755000  1.0 0.1089927225
H  H246  1  0.35899000  0.26642000  0.52676000  1.0 0.1011624223
H  H247  1  0.31091000  0.24337000  0.46484000  1.0 0.118108418
H  H248  1  0.43512000  0.23978000  0.52871000  1.0 0.1011624223
H  H249  1  0.17785000  0.13198000  0.56667000  1.0 0.118108418
H  H250  1  0.12548000  0.15119000  0.64626000  1.0 0.118108418
H  H251  1  0.26686000  0.29152000  0.72724000  1.0 0.1089927225
H  H252  1  0.32569000  0.26994000  0.64704000  1.0 0.118108418
H  H253  1  0.17219000  0.34202000  0.87949000  1.0 0.1382959166
H  H254  1  0.11873000  0.36899000  0.95269000  1.0 0.1011624223
H  H255  1  0.97633000  0.22612000  0.91067000  1.0 0.1011624223
H  H256  1  0.02546000  0.19710000  0.83805000  1.0 0.1382959166
H  H257  1  0.37076000  0.23588000  0.29786000  1.0 0.1089927225
H  H258  1  0.44112000  0.31688000  0.22369000  1.0 0.1089927225
H  H259  1  0.51030000  0.40823000  0.41957000  1.0 0.128308685
H  H260  1  0.45800000  0.31617000  0.47589000  1.0 0.1089927225
H  H261  1  0.56724000  0.45868000  0.07179000  1.0 0.1382959166
H  H262  1  0.61787000  0.53670000  0.99368000  1.0 0.1089927225
H  H263  1  0.64278000  0.64110000  0.15523000  1.0 0.1011624223
H  H264  1  0.59509000  0.56660000  0.23539000  1.0 0.1382959166
C  C1  1  0.29450000  0.11290000  0.45340000  1.0 0.1772371577
C  C2  1  0.33460000  0.16430000  0.40360000  1.0 -0.3082316454
C  C3  1  0.33420000  0.10100000  0.50400000  1.0 -0.2880691599
C  C4  1  0.37190000  0.15460000  0.55430000  1.0 0.1698141721
C  C5  1  0.25580000  0.05860000  0.40270000  1.0 0.0407574679
C  C6  1  0.19630000  0.03300000  0.40110000  1.0 -0.14160249
C  C7  1  0.16540000  0.99020000  0.35420000  1.0 -0.1524810669
C  C8  1  0.19040000  0.96760000  0.30450000  1.0 0.118108418
C  C9  1  0.25010000  0.99060000  0.30410000  1.0 -0.1524810669
C  C10  1  0.28570000  0.03850000  0.35310000  1.0 -0.1595158296
C  C11  1  0.15880000  0.91990000  0.25020000  1.0 -0.0875264827
C  C12  1  0.13030000  0.88300000  0.20550000  1.0 -0.1088906364
C  C13  1  0.10420000  0.83830000  0.15470000  1.0 0.1631120048
C  C14  1  0.13240000  0.81430000  0.11650000  1.0 -0.2102394487
C  C15  1  0.09940000  0.76580000  0.07160000  1.0 0.0487858658
C  C16  1  0.01580000  0.76540000  0.09560000  1.0 0.0487858658
C  C17  1  0.04580000  0.81240000  0.13990000  1.0 -0.2009864715
C  C18  1  0.40860000  0.14170000  0.60510000  1.0 0.0407574679
C  C19  1  0.40150000  0.13420000  0.67900000  1.0 -0.1524810669
C  C20  1  0.44280000  0.12460000  0.72440000  1.0 -0.1757694792
C  C21  1  0.48220000  0.11660000  0.68880000  1.0 0.1382959166
C  C22  1  0.48780000  0.11390000  0.60610000  1.0 -0.1651159324
C  C23  1  0.45170000  0.13330000  0.57480000  1.0 -0.1595158296
C  C24  1  0.51800000  0.10250000  0.74290000  1.0 -0.0689143773
C  C25  1  0.54340000  0.08870000  0.78640000  1.0 -0.116769621
C  C26  1  0.57430000  0.06950000  0.83520000  1.0 0.1631120048
C  C27  1  0.58210000  0.08610000  0.90990000  1.0 -0.2009864715
C  C28  1  0.61170000  0.06920000  0.95670000  1.0 -0.0083227858
C  C29  1  0.62660000  0.02290000  0.86350000  1.0 0.0902562801
C  C30  1  0.59780000  0.03930000  0.81450000  1.0 -0.2165925296
C  C31  1  0.81840000  0.70550000  0.45340000  1.0 0.1772371577
C  C32  1  0.82970000  0.66540000  0.40360000  1.0 -0.3082316454
C  C33  1  0.76680000  0.66580000  0.50400000  1.0 -0.2952385779
C  C34  1  0.78270000  0.62810000  0.55430000  1.0 0.1698141721
C  C35  1  0.80280000  0.74420000  0.40270000  1.0 0.0407574679
C  C36  1  0.83670000  0.80370000  0.40110000  1.0 -0.14160249
C  C37  1  0.82480000  0.83460000  0.35420000  1.0 -0.1524810669
C  C38  1  0.77720000  0.80960000  0.30450000  1.0 0.118108418
C  C39  1  0.74050000  0.74990000  0.30410000  1.0 -0.1524810669
C  C40  1  0.75280000  0.71430000  0.35310000  1.0 -0.1595158296
C  C41  1  0.76110000  0.84120000  0.25020000  1.0 -0.0875264827
C  C42  1  0.75270000  0.86970000  0.20550000  1.0 -0.1088906364
C  C43  1  0.73410000  0.89580000  0.15470000  1.0 0.1631120048
C  C44  1  0.68190000  0.86760000  0.11650000  1.0 -0.2102394487
C  C45  1  0.66640000  0.90060000  0.07160000  1.0 0.0487858658
C  C46  1  0.74960000  0.98420000  0.09560000  1.0 0.0487858658
C  C47  1  0.76660000  0.95420000  0.13990000  1.0 -0.2009864715
C  C48  1  0.73310000  0.59140000  0.60510000  1.0 0.0407574679
C  C49  1  0.73270000  0.59850000  0.67900000  1.0 -0.1524810669
C  C50  1  0.68180000  0.55720000  0.72440000  1.0 -0.1757694792
C  C51  1  0.63440000  0.51780000  0.68880000  1.0 0.1382959166
C  C52  1  0.62610000  0.51220000  0.60610000  1.0 -0.1651159324
C  C53  1  0.68160000  0.54830000  0.57480000  1.0 -0.1595158296
C  C54  1  0.58450000  0.48200000  0.74290000  1.0 -0.0689143773
C  C55  1  0.54530000  0.45660000  0.78640000  1.0 -0.116769621
C  C56  1  0.49520000  0.42570000  0.83520000  1.0 0.1631120048
C  C57  1  0.50400000  0.41790000  0.90990000  1.0 -0.2009864715
C  C58  1  0.45750000  0.38830000  0.95670000  1.0 -0.0083227858
C  C59  1  0.39630000  0.37340000  0.86350000  1.0 0.0902562801
C  C60  1  0.44150000  0.40220000  0.81450000  1.0 -0.2165925296
C  C61  1  0.88710000  0.18160000  0.45340000  1.0 0.1772371577
C  C62  1  0.83570000  0.17030000  0.40360000  1.0 -0.3082316454
C  C63  1  0.89900000  0.23320000  0.50400000  1.0 -0.2952385779
C  C64  1  0.84540000  0.21730000  0.55430000  1.0 0.1698141721
C  C65  1  0.94140000  0.19720000  0.40270000  1.0 0.0407574679
C  C66  1  0.96700000  0.16330000  0.40110000  1.0 -0.14160249
C  C67  1  0.00980000  0.17520000  0.35420000  1.0 -0.1524810669
C  C68  1  0.03240000  0.22280000  0.30450000  1.0 0.118108418
C  C69  1  0.00940000  0.25950000  0.30410000  1.0 -0.1524810669
C  C70  1  0.96150000  0.24720000  0.35310000  1.0 -0.1595158296
C  C71  1  0.08010000  0.23890000  0.25020000  1.0 -0.0875264827
C  C72  1  0.11700000  0.24730000  0.20550000  1.0 -0.1088906364
C  C73  1  0.16170000  0.26590000  0.15470000  1.0 0.1631120048
C  C74  1  0.18570000  0.31810000  0.11650000  1.0 -0.2102394487
C  C75  1  0.23420000  0.33360000  0.07160000  1.0 0.0487858658
C  C76  1  0.23460000  0.25040000  0.09560000  1.0 0.0487858658
C  C77  1  0.18760000  0.23340000  0.13990000  1.0 -0.2009864715
C  C78  1  0.85830000  0.26690000  0.60510000  1.0 0.0407574679
C  C79  1  0.86580000  0.26730000  0.67900000  1.0 -0.1524810669
C  C80  1  0.87540000  0.31820000  0.72440000  1.0 -0.1757694792
C  C81  1  0.88340000  0.36560000  0.68880000  1.0 0.1382959166
C  C82  1  0.88610000  0.37390000  0.60610000  1.0 -0.1651159324
C  C83  1  0.86670000  0.31840000  0.57480000  1.0 -0.1595158296
C  C84  1  0.89750000  0.41550000  0.74290000  1.0 -0.0689143773
C  C85  1  0.91130000  0.45470000  0.78640000  1.0 -0.116769621
C  C86  1  0.93050000  0.50480000  0.83520000  1.0 0.1631120048
C  C87  1  0.91390000  0.49600000  0.90990000  1.0 -0.2009864715
C  C88  1  0.93080000  0.54250000  0.95670000  1.0 -0.0083227858
C  C89  1  0.97710000  0.60370000  0.86350000  1.0 0.0902562801
C  C90  1  0.96070000  0.55850000  0.81450000  1.0 -0.2165925296
C  C91  1  0.70550000  0.88710000  0.45340000  1.0 0.1772371577
C  C92  1  0.66540000  0.83570000  0.40360000  1.0 -0.3082316454
C  C93  1  0.66580000  0.89900000  0.50400000  1.0 -0.2952385779
C  C94  1  0.62810000  0.84540000  0.55430000  1.0 0.1698141721
C  C95  1  0.74420000  0.94140000  0.40270000  1.0 0.0407574679
C  C96  1  0.80370000  0.96700000  0.40110000  1.0 -0.14160249
C  C97  1  0.83460000  0.00980000  0.35420000  1.0 -0.1524810669
C  C98  1  0.80960000  0.03240000  0.30450000  1.0 0.118108418
C  C99  1  0.74990000  0.00940000  0.30410000  1.0 -0.1524810669
C  C100  1  0.71430000  0.96150000  0.35310000  1.0 -0.1595158296
C  C101  1  0.84120000  0.08010000  0.25020000  1.0 -0.0875264827
C  C102  1  0.86970000  0.11700000  0.20550000  1.0 -0.1088906364
C  C103  1  0.89580000  0.16170000  0.15470000  1.0 0.1631120048
C  C104  1  0.86760000  0.18570000  0.11650000  1.0 -0.2102394487
C  C105  1  0.90060000  0.23420000  0.07160000  1.0 0.0487858658
C  C106  1  0.98420000  0.23460000  0.09560000  1.0 0.0487858658
C  C107  1  0.95420000  0.18760000  0.13990000  1.0 -0.2009864715
C  C108  1  0.59140000  0.85830000  0.60510000  1.0 0.0407574679
C  C109  1  0.59850000  0.86580000  0.67900000  1.0 -0.1524810669
C  C110  1  0.55720000  0.87540000  0.72440000  1.0 -0.1757694792
C  C111  1  0.51780000  0.88340000  0.68880000  1.0 0.1382959166
C  C112  1  0.51220000  0.88610000  0.60610000  1.0 -0.1651159324
C  C113  1  0.54830000  0.86670000  0.57480000  1.0 -0.1595158296
C  C114  1  0.48200000  0.89750000  0.74290000  1.0 -0.0689143773
C  C115  1  0.45660000  0.91130000  0.78640000  1.0 -0.116769621
C  C116  1  0.42570000  0.93050000  0.83520000  1.0 0.1631120048
C  C117  1  0.41790000  0.91390000  0.90990000  1.0 -0.2009864715
C  C118  1  0.38830000  0.93080000  0.95670000  1.0 -0.0083227858
C  C119  1  0.37340000  0.97710000  0.86350000  1.0 0.0902562801
C  C120  1  0.40220000  0.96070000  0.81450000  1.0 -0.2165925296
C  C121  1  0.18160000  0.29450000  0.45340000  1.0 0.1772371577
C  C122  1  0.17030000  0.33460000  0.40360000  1.0 -0.3082316454
C  C123  1  0.23320000  0.33420000  0.50400000  1.0 -0.2952385779
C  C124  1  0.21730000  0.37190000  0.55430000  1.0 0.1698141721
C  C125  1  0.19720000  0.25580000  0.40270000  1.0 0.0407574679
C  C126  1  0.16330000  0.19630000  0.40110000  1.0 -0.14160249
C  C127  1  0.17520000  0.16540000  0.35420000  1.0 -0.1524810669
C  C128  1  0.22280000  0.19040000  0.30450000  1.0 0.118108418
C  C129  1  0.25950000  0.25010000  0.30410000  1.0 -0.1524810669
C  C130  1  0.24720000  0.28570000  0.35310000  1.0 -0.1595158296
C  C131  1  0.23890000  0.15880000  0.25020000  1.0 -0.0875264827
C  C132  1  0.24730000  0.13030000  0.20550000  1.0 -0.1088906364
C  C133  1  0.26590000  0.10420000  0.15470000  1.0 0.1631120048
C  C134  1  0.31810000  0.13240000  0.11650000  1.0 -0.2102394487
C  C135  1  0.33360000  0.09940000  0.07160000  1.0 0.0487858658
C  C136  1  0.25040000  0.01580000  0.09560000  1.0 0.0487858658
C  C137  1  0.23340000  0.04580000  0.13990000  1.0 -0.2009864715
C  C138  1  0.26690000  0.40860000  0.60510000  1.0 0.0407574679
C  C139  1  0.26730000  0.40150000  0.67900000  1.0 -0.1524810669
C  C140  1  0.31820000  0.44280000  0.72440000  1.0 -0.1757694792
C  C141  1  0.36560000  0.48220000  0.68880000  1.0 0.1382959166
C  C142  1  0.37390000  0.48780000  0.60610000  1.0 -0.1651159324
C  C143  1  0.31840000  0.45170000  0.57480000  1.0 -0.1595158296
C  C144  1  0.41550000  0.51800000  0.74290000  1.0 -0.0689143773
C  C145  1  0.45470000  0.54340000  0.78640000  1.0 -0.116769621
C  C146  1  0.50480000  0.57430000  0.83520000  1.0 0.1631120048
C  C147  1  0.49600000  0.58210000  0.90990000  1.0 -0.2009864715
C  C148  1  0.54250000  0.61170000  0.95670000  1.0 -0.0083227858
C  C149  1  0.60370000  0.62660000  0.86350000  1.0 0.0902562801
C  C150  1  0.55850000  0.59780000  0.81450000  1.0 -0.2165925296
C  C151  1  0.11290000  0.81840000  0.45340000  1.0 0.1772371577
C  C152  1  0.16430000  0.82970000  0.40360000  1.0 -0.3082316454
C  C153  1  0.10100000  0.76680000  0.50400000  1.0 -0.2952385779
C  C154  1  0.15460000  0.78270000  0.55430000  1.0 0.1698141721
C  C155  1  0.05860000  0.80280000  0.40270000  1.0 0.0407574679
C  C156  1  0.03300000  0.83670000  0.40110000  1.0 -0.14160249
C  C157  1  0.99020000  0.82480000  0.35420000  1.0 -0.1524810669
C  C158  1  0.96760000  0.77720000  0.30450000  1.0 0.118108418
C  C159  1  0.99060000  0.74050000  0.30410000  1.0 -0.1524810669
C  C160  1  0.03850000  0.75280000  0.35310000  1.0 -0.1595158296
C  C161  1  0.91990000  0.76110000  0.25020000  1.0 -0.0875264827
C  C162  1  0.88300000  0.75270000  0.20550000  1.0 -0.1088906364
C  C163  1  0.83830000  0.73410000  0.15470000  1.0 0.1631120048
C  C164  1  0.81430000  0.68190000  0.11650000  1.0 -0.2102394487
C  C165  1  0.76580000  0.66640000  0.07160000  1.0 0.0487858658
C  C166  1  0.76540000  0.74960000  0.09560000  1.0 0.0487858658
C  C167  1  0.81240000  0.76660000  0.13990000  1.0 -0.2009864715
C  C168  1  0.14170000  0.73310000  0.60510000  1.0 0.0407574679
C  C169  1  0.13420000  0.73270000  0.67900000  1.0 -0.1524810669
C  C170  1  0.12460000  0.68180000  0.72440000  1.0 -0.1757694792
C  C171  1  0.11660000  0.63440000  0.68880000  1.0 0.1382959166
C  C172  1  0.11390000  0.62610000  0.60610000  1.0 -0.1651159324
C  C173  1  0.13330000  0.68160000  0.57480000  1.0 -0.1595158296
C  C174  1  0.10250000  0.58450000  0.74290000  1.0 -0.0689143773
C  C175  1  0.08870000  0.54530000  0.78640000  1.0 -0.116769621
C  C176  1  0.06950000  0.49520000  0.83520000  1.0 0.1631120048
C  C177  1  0.08610000  0.50400000  0.90990000  1.0 -0.2009864715
C  C178  1  0.06920000  0.45750000  0.95670000  1.0 -0.0083227858
C  C179  1  0.02290000  0.39630000  0.86350000  1.0 0.0902562801
C  C180  1  0.03930000  0.44150000  0.81450000  1.0 -0.2165925296
C  C181  1  0.18160000  0.88710000  0.54660000  1.0 0.1772371577
C  C182  1  0.17030000  0.83570000  0.59640000  1.0 -0.3082316454
C  C183  1  0.23320000  0.89900000  0.49600000  1.0 -0.2952385779
C  C184  1  0.21730000  0.84540000  0.44570000  1.0 0.1698141721
C  C185  1  0.19720000  0.94140000  0.59730000  1.0 0.0407574679
C  C186  1  0.16330000  0.96700000  0.59890000  1.0 -0.14160249
C  C187  1  0.17520000  0.00980000  0.64580000  1.0 -0.1524810669
C  C188  1  0.22280000  0.03240000  0.69550000  1.0 0.118108418
C  C189  1  0.25950000  0.00940000  0.69590000  1.0 -0.1524810669
C  C190  1  0.24720000  0.96150000  0.64690000  1.0 -0.1595158296
C  C191  1  0.23890000  0.08010000  0.74980000  1.0 -0.0875264827
C  C192  1  0.24730000  0.11700000  0.79450000  1.0 -0.1088906364
C  C193  1  0.26590000  0.16170000  0.84530000  1.0 0.1631120048
C  C194  1  0.31810000  0.18570000  0.88350000  1.0 -0.2102394487
C  C195  1  0.33360000  0.23420000  0.92840000  1.0 0.0487858658
C  C196  1  0.25040000  0.23460000  0.90440000  1.0 0.0487858658
C  C197  1  0.23340000  0.18760000  0.86010000  1.0 -0.2009864715
C  C198  1  0.26690000  0.85830000  0.39490000  1.0 0.0407574679
C  C199  1  0.26730000  0.86580000  0.32100000  1.0 -0.1524810669
C  C200  1  0.31820000  0.87540000  0.27560000  1.0 -0.1757694792
C  C201  1  0.36560000  0.88340000  0.31120000  1.0 0.1382959166
C  C202  1  0.37390000  0.88610000  0.39390000  1.0 -0.1651159324
C  C203  1  0.31840000  0.86670000  0.42520000  1.0 -0.1595158296
C  C204  1  0.41550000  0.89750000  0.25710000  1.0 -0.0689143773
C  C205  1  0.45470000  0.91130000  0.21360000  1.0 -0.116769621
C  C206  1  0.50480000  0.93050000  0.16480000  1.0 0.1631120048
C  C207  1  0.49600000  0.91390000  0.09010000  1.0 -0.2009864715
C  C208  1  0.54250000  0.93080000  0.04330000  1.0 -0.0083227858
C  C209  1  0.60370000  0.97710000  0.13650000  1.0 0.0902562801
C  C210  1  0.55850000  0.96070000  0.18550000  1.0 -0.2165925296
C  C211  1  0.11290000  0.29450000  0.54660000  1.0 0.1772371577
C  C212  1  0.16430000  0.33460000  0.59640000  1.0 -0.3082316454
C  C213  1  0.10100000  0.33420000  0.49600000  1.0 -0.2952385779
C  C214  1  0.15460000  0.37190000  0.44570000  1.0 0.1698141721
C  C215  1  0.05860000  0.25580000  0.59730000  1.0 0.0407574679
C  C216  1  0.03300000  0.19630000  0.59890000  1.0 -0.14160249
C  C217  1  0.99020000  0.16540000  0.64580000  1.0 -0.1524810669
C  C218  1  0.96760000  0.19040000  0.69550000  1.0 0.118108418
C  C219  1  0.99060000  0.25010000  0.69590000  1.0 -0.1524810669
C  C220  1  0.03850000  0.28570000  0.64690000  1.0 -0.1595158296
C  C221  1  0.91990000  0.15880000  0.74980000  1.0 -0.0875264827
C  C222  1  0.88300000  0.13030000  0.79450000  1.0 -0.1088906364
C  C223  1  0.83830000  0.10420000  0.84530000  1.0 0.1631120048
C  C224  1  0.81430000  0.13240000  0.88350000  1.0 -0.2102394487
C  C225  1  0.76580000  0.09940000  0.92840000  1.0 0.0487858658
C  C226  1  0.76540000  0.01580000  0.90440000  1.0 0.0487858658
C  C227  1  0.81240000  0.04580000  0.86010000  1.0 -0.2009864715
C  C228  1  0.14170000  0.40860000  0.39490000  1.0 0.0407574679
C  C229  1  0.13420000  0.40150000  0.32100000  1.0 -0.1524810669
C  C230  1  0.12460000  0.44280000  0.27560000  1.0 -0.1757694792
C  C231  1  0.11660000  0.48220000  0.31120000  1.0 0.1382959166
C  C232  1  0.11390000  0.48780000  0.39390000  1.0 -0.1651159324
C  C233  1  0.13330000  0.45170000  0.42520000  1.0 -0.1595158296
C  C234  1  0.10250000  0.51800000  0.25710000  1.0 -0.0689143773
C  C235  1  0.08870000  0.54340000  0.21360000  1.0 -0.116769621
C  C236  1  0.06950000  0.57430000  0.16480000  1.0 0.1631120048
C  C237  1  0.08610000  0.58210000  0.09010000  1.0 -0.2009864715
C  C238  1  0.06920000  0.61170000  0.04330000  1.0 -0.0083227858
C  C239  1  0.02290000  0.62660000  0.13650000  1.0 0.0902562801
C  C240  1  0.03930000  0.59780000  0.18550000  1.0 -0.2165925296
C  C241  1  0.70550000  0.81840000  0.54660000  1.0 0.1772371577
C  C242  1  0.66540000  0.82970000  0.59640000  1.0 -0.3082316454
C  C243  1  0.66580000  0.76680000  0.49600000  1.0 -0.2952385779
C  C244  1  0.62810000  0.78270000  0.44570000  1.0 0.1698141721
C  C245  1  0.74420000  0.80280000  0.59730000  1.0 0.0407574679
C  C246  1  0.80370000  0.83670000  0.59890000  1.0 -0.14160249
C  C247  1  0.83460000  0.82480000  0.64580000  1.0 -0.1524810669
C  C248  1  0.80960000  0.77720000  0.69550000  1.0 0.118108418
C  C249  1  0.74990000  0.74050000  0.69590000  1.0 -0.1524810669
C  C250  1  0.71430000  0.75280000  0.64690000  1.0 -0.1595158296
C  C251  1  0.84120000  0.76110000  0.74980000  1.0 -0.0875264827
C  C252  1  0.86970000  0.75270000  0.79450000  1.0 -0.1088906364
C  C253  1  0.89580000  0.73410000  0.84530000  1.0 0.1631120048
C  C254  1  0.86760000  0.68190000  0.88350000  1.0 -0.2102394487
C  C255  1  0.90060000  0.66640000  0.92840000  1.0 0.0487858658
C  C256  1  0.98420000  0.74960000  0.90440000  1.0 0.0487858658
C  C257  1  0.95420000  0.76660000  0.86010000  1.0 -0.2009864715
C  C258  1  0.59140000  0.73310000  0.39490000  1.0 0.0407574679
C  C259  1  0.59850000  0.73270000  0.32100000  1.0 -0.1524810669
C  C260  1  0.55720000  0.68180000  0.27560000  1.0 -0.1757694792
C  C261  1  0.51780000  0.63440000  0.31120000  1.0 0.1382959166
C  C262  1  0.51220000  0.62610000  0.39390000  1.0 -0.1651159324
C  C263  1  0.54830000  0.68160000  0.42520000  1.0 -0.1595158296
C  C264  1  0.48200000  0.58450000  0.25710000  1.0 -0.0689143773
C  C265  1  0.45660000  0.54530000  0.21360000  1.0 -0.116769621
C  C266  1  0.42570000  0.49520000  0.16480000  1.0 0.1631120048
C  C267  1  0.41790000  0.50400000  0.09010000  1.0 -0.2009864715
C  C268  1  0.38830000  0.45750000  0.04330000  1.0 -0.0083227858
C  C269  1  0.37340000  0.39630000  0.13650000  1.0 0.0902562801
C  C270  1  0.40220000  0.44150000  0.18550000  1.0 -0.2165925296
C  C271  1  0.81840000  0.11290000  0.54660000  1.0 0.1772371577
C  C272  1  0.82970000  0.16430000  0.59640000  1.0 -0.3082316454
C  C273  1  0.76680000  0.10100000  0.49600000  1.0 -0.2880691599
C  C274  1  0.78270000  0.15460000  0.44570000  1.0 0.1698141721
C  C275  1  0.80280000  0.05860000  0.59730000  1.0 0.0407574679
C  C276  1  0.83670000  0.03300000  0.59890000  1.0 -0.14160249
C  C277  1  0.82480000  0.99020000  0.64580000  1.0 -0.1524810669
C  C278  1  0.77720000  0.96760000  0.69550000  1.0 0.118108418
C  C279  1  0.74050000  0.99060000  0.69590000  1.0 -0.1524810669
C  C280  1  0.75280000  0.03850000  0.64690000  1.0 -0.1595158296
C  C281  1  0.76110000  0.91990000  0.74980000  1.0 -0.0875264827
C  C282  1  0.75270000  0.88300000  0.79450000  1.0 -0.1088906364
C  C283  1  0.73410000  0.83830000  0.84530000  1.0 0.1631120048
C  C284  1  0.68190000  0.81430000  0.88350000  1.0 -0.2102394487
C  C285  1  0.66640000  0.76580000  0.92840000  1.0 0.0487858658
C  C286  1  0.74960000  0.76540000  0.90440000  1.0 0.0487858658
C  C287  1  0.76660000  0.81240000  0.86010000  1.0 -0.2009864715
C  C288  1  0.73310000  0.14170000  0.39490000  1.0 0.0407574679
C  C289  1  0.73270000  0.13420000  0.32100000  1.0 -0.1524810669
C  C290  1  0.68180000  0.12460000  0.27560000  1.0 -0.1757694792
C  C291  1  0.63440000  0.11660000  0.31120000  1.0 0.1382959166
C  C292  1  0.62610000  0.11390000  0.39390000  1.0 -0.1651159324
C  C293  1  0.68160000  0.13330000  0.42520000  1.0 -0.1595158296
C  C294  1  0.58450000  0.10250000  0.25710000  1.0 -0.0689143773
C  C295  1  0.54530000  0.08870000  0.21360000  1.0 -0.116769621
C  C296  1  0.49520000  0.06950000  0.16480000  1.0 0.1631120048
C  C297  1  0.50400000  0.08610000  0.09010000  1.0 -0.2009864715
C  C298  1  0.45750000  0.06920000  0.04330000  1.0 -0.0083227858
C  C299  1  0.39630000  0.02290000  0.13650000  1.0 0.0902562801
C  C300  1  0.44150000  0.03930000  0.18550000  1.0 -0.2165925296
C  C301  1  0.88710000  0.70550000  0.54660000  1.0 0.1772371577
C  C302  1  0.83570000  0.66540000  0.59640000  1.0 -0.3082316454
C  C303  1  0.89900000  0.66580000  0.49600000  1.0 -0.2952385779
C  C304  1  0.84540000  0.62810000  0.44570000  1.0 0.1698141721
C  C305  1  0.94140000  0.74420000  0.59730000  1.0 0.0407574679
C  C306  1  0.96700000  0.80370000  0.59890000  1.0 -0.14160249
C  C307  1  0.00980000  0.83460000  0.64580000  1.0 -0.1524810669
C  C308  1  0.03240000  0.80960000  0.69550000  1.0 0.118108418
C  C309  1  0.00940000  0.74990000  0.69590000  1.0 -0.1524810669
C  C310  1  0.96150000  0.71430000  0.64690000  1.0 -0.1595158296
C  C311  1  0.08010000  0.84120000  0.74980000  1.0 -0.0875264827
C  C312  1  0.11700000  0.86970000  0.79450000  1.0 -0.1088906364
C  C313  1  0.16170000  0.89580000  0.84530000  1.0 0.1631120048
C  C314  1  0.18570000  0.86760000  0.88350000  1.0 -0.2102394487
C  C315  1  0.23420000  0.90060000  0.92840000  1.0 0.0487858658
C  C316  1  0.23460000  0.98420000  0.90440000  1.0 0.0487858658
C  C317  1  0.18760000  0.95420000  0.86010000  1.0 -0.2009864715
C  C318  1  0.85830000  0.59140000  0.39490000  1.0 0.0407574679
C  C319  1  0.86580000  0.59850000  0.32100000  1.0 -0.1524810669
C  C320  1  0.87540000  0.55720000  0.27560000  1.0 -0.1757694792
C  C321  1  0.88340000  0.51780000  0.31120000  1.0 0.1382959166
C  C322  1  0.88610000  0.51220000  0.39390000  1.0 -0.1651159324
C  C323  1  0.86670000  0.54830000  0.42520000  1.0 -0.1595158296
C  C324  1  0.89750000  0.48200000  0.25710000  1.0 -0.0689143773
C  C325  1  0.91130000  0.45660000  0.21360000  1.0 -0.116769621
C  C326  1  0.93050000  0.42570000  0.16480000  1.0 0.1631120048
C  C327  1  0.91390000  0.41790000  0.09010000  1.0 -0.2009864715
C  C328  1  0.93080000  0.38830000  0.04330000  1.0 -0.0083227858
C  C329  1  0.97710000  0.37340000  0.13650000  1.0 0.0902562801
C  C330  1  0.96070000  0.40220000  0.18550000  1.0 -0.2165925296
C  C331  1  0.29450000  0.18160000  0.54660000  1.0 0.1772371577
C  C332  1  0.33460000  0.17030000  0.59640000  1.0 -0.3082316454
C  C333  1  0.33420000  0.23320000  0.49600000  1.0 -0.2952385779
C  C334  1  0.37190000  0.21730000  0.44570000  1.0 0.1698141721
C  C335  1  0.25580000  0.19720000  0.59730000  1.0 0.0407574679
C  C336  1  0.19630000  0.16330000  0.59890000  1.0 -0.14160249
C  C337  1  0.16540000  0.17520000  0.64580000  1.0 -0.1524810669
C  C338  1  0.19040000  0.22280000  0.69550000  1.0 0.118108418
C  C339  1  0.25010000  0.25950000  0.69590000  1.0 -0.1524810669
C  C340  1  0.28570000  0.24720000  0.64690000  1.0 -0.1595158296
C  C341  1  0.15880000  0.23890000  0.74980000  1.0 -0.0875264827
C  C342  1  0.13030000  0.24730000  0.79450000  1.0 -0.1088906364
C  C343  1  0.10420000  0.26590000  0.84530000  1.0 0.1631120048
C  C344  1  0.13240000  0.31810000  0.88350000  1.0 -0.2102394487
C  C345  1  0.09940000  0.33360000  0.92840000  1.0 0.0487858658
C  C346  1  0.01580000  0.25040000  0.90440000  1.0 0.0487858658
C  C347  1  0.04580000  0.23340000  0.86010000  1.0 -0.2009864715
C  C348  1  0.40860000  0.26690000  0.39490000  1.0 0.0407574679
C  C349  1  0.40150000  0.26730000  0.32100000  1.0 -0.1524810669
C  C350  1  0.44280000  0.31820000  0.27560000  1.0 -0.1757694792
C  C351  1  0.48220000  0.36560000  0.31120000  1.0 0.1382959166
C  C352  1  0.48780000  0.37390000  0.39390000  1.0 -0.1651159324
C  C353  1  0.45170000  0.31840000  0.42520000  1.0 -0.1595158296
C  C354  1  0.51800000  0.41550000  0.25710000  1.0 -0.0689143773
C  C355  1  0.54340000  0.45470000  0.21360000  1.0 -0.116769621
C  C356  1  0.57430000  0.50480000  0.16480000  1.0 0.1631120048
C  C357  1  0.58210000  0.49600000  0.09010000  1.0 -0.2009864715
C  C358  1  0.61170000  0.54250000  0.04330000  1.0 -0.0083227858
C  C359  1  0.62660000  0.60370000  0.13650000  1.0 0.0902562801
C  C360  1  0.59780000  0.55850000  0.18550000  1.0 -0.2165925296
C  C361  1  0.25890000  0.12945000  0.50000000  1.0 -0.338796192
C  C362  1  0.41050000  0.20525000  0.50000000  1.0 -0.2880691599
C  C363  1  0.87055000  0.74110000  0.50000000  1.0 -0.338796192
C  C364  1  0.79475000  0.58950000  0.50000000  1.0 -0.2880691599
C  C365  1  0.87055000  0.12945000  0.50000000  1.0 -0.338796192
C  C366  1  0.79475000  0.20525000  0.50000000  1.0 -0.2880691599
C  C367  1  0.74110000  0.87055000  0.50000000  1.0 -0.338796192
C  C368  1  0.58950000  0.79475000  0.50000000  1.0 -0.2880691599
C  C369  1  0.12945000  0.25890000  0.50000000  1.0 -0.338796192
C  C370  1  0.20525000  0.41050000  0.50000000  1.0 -0.2880691599
C  C371  1  0.12945000  0.87055000  0.50000000  1.0 -0.338796192
C  C372  1  0.20525000  0.79475000  0.50000000  1.0 -0.2880691599
N  N1  1  0.04210000  0.74070000  0.06090000  1.0 -0.2165925296
N  N2  1  0.63230000  0.03450000  0.93000000  1.0 -0.1931684028
N  N3  1  0.69860000  0.95790000  0.06090000  1.0 -0.2165925296
N  N4  1  0.40220000  0.36770000  0.93000000  1.0 -0.1931684028
N  N5  1  0.25930000  0.30140000  0.06090000  1.0 -0.2165925296
N  N6  1  0.96550000  0.59780000  0.93000000  1.0 -0.1931684028
N  N7  1  0.95790000  0.25930000  0.06090000  1.0 -0.2165925296
N  N8  1  0.36770000  0.96550000  0.93000000  1.0 -0.1931684028
N  N9  1  0.30140000  0.04210000  0.06090000  1.0 -0.2165925296
N  N10  1  0.59780000  0.63230000  0.93000000  1.0 -0.1931684028
N  N11  1  0.74070000  0.69860000  0.06090000  1.0 -0.2165925296
N  N12  1  0.03450000  0.40220000  0.93000000  1.0 -0.1931684028
N  N13  1  0.30140000  0.25930000  0.93910000  1.0 -0.2165925296
N  N14  1  0.59780000  0.96550000  0.07000000  1.0 -0.1931684028
N  N15  1  0.74070000  0.04210000  0.93910000  1.0 -0.2165925296
N  N16  1  0.03450000  0.63230000  0.07000000  1.0 -0.1931684028
N  N17  1  0.95790000  0.69860000  0.93910000  1.0 -0.2165925296
N  N18  1  0.36770000  0.40220000  0.07000000  1.0 -0.1931684028
N  N19  1  0.69860000  0.74070000  0.93910000  1.0 -0.2165925296
N  N20  1  0.40220000  0.03450000  0.07000000  1.0 -0.1931684028
N  N21  1  0.25930000  0.95790000  0.93910000  1.0 -0.2165925296
N  N22  1  0.96550000  0.36770000  0.07000000  1.0 -0.1931684028
N  N23  1  0.04210000  0.30140000  0.93910000  1.0 -0.2165925296
N  N24  1  0.63230000  0.59780000  0.07000000  1.0 -0.1931684028
