# DDEC6 charges by PACMAN v1.1 (https://github.com/mtap-research/PACMAN-charge/)
data_XUKMIC03_ASR_pacman
_symmetry_space_group_name_H-M   'P 1'
_cell_length_a   26.30730000
_cell_length_b   26.30730000
_cell_length_c   18.11740000
_cell_angle_alpha   90.00000000
_cell_angle_beta   90.00000000
_cell_angle_gamma   120.00000000
_symmetry_Int_Tables_number   1
_chemical_formula_structural   CuH44(C31N2)2
_chemical_formula_sum   'Cu6 H264 C372 N24'
_cell_volume   10858.73061801
_cell_formula_units_Z   6
loop_
 _symmetry_equiv_pos_site_id
 _symmetry_equiv_pos_as_xyz
  1  'x, y, z'
loop_
 _atom_site_type_symbol
 _atom_site_label
 _atom_site_symmetry_multiplicity
 _atom_site_fract_x
 _atom_site_fract_y
 _atom_site_fract_z
 _atom_site_occupancy
 _atom_site_charge
Cu  Cu1  1  0.00000000  0.66720000  0.00000000  1.0 0.2474888959
Cu  Cu2  1  0.66720000  0.00000000  0.00000000  1.0 0.2474888959
Cu  Cu3  1  0.33280000  0.33280000  0.00000000  1.0 0.2474888959
Cu  Cu4  1  0.00000000  0.33280000  0.00000000  1.0 0.2474888959
Cu  Cu5  1  0.33280000  0.00000000  0.00000000  1.0 0.2474888959
Cu  Cu6  1  0.66720000  0.66720000  0.00000000  1.0 0.2474888959
H  H1  1  0.64094000  0.84477000  0.37205000  1.0 0.0998378246
H  H2  1  0.69174000  0.82807000  0.37011000  1.0 0.1103612379
H  H3  1  0.68871000  0.75362000  0.46641000  1.0 0.1187972754
H  H4  1  0.63767000  0.72989000  0.52744000  1.0 0.0998378246
H  H5  1  0.82370000  0.86893000  0.56719000  1.0 0.1187972754
H  H6  1  0.87449000  0.85093000  0.65954000  1.0 0.1187972754
H  H7  1  0.72824000  0.70862000  0.72351000  1.0 0.1103612379
H  H8  1  0.67073000  0.72992000  0.64234000  1.0 0.1103612379
H  H9  1  0.98176000  0.80991000  0.84294000  1.0 0.1372895976
H  H10  1  0.02987000  0.77117000  0.91701000  1.0 0.0998378246
H  H11  1  0.87776000  0.62928000  0.95041000  1.0 0.0998378246
H  H12  1  0.82953000  0.66084000  0.86781000  1.0 0.1295861501
H  H13  1  0.54047000  0.66783000  0.48172000  1.0 0.1187972754
H  H14  1  0.48207000  0.58881000  0.40390000  1.0 0.1187972754
H  H15  1  0.56203000  0.69072000  0.22543000  1.0 0.1103612379
H  H16  1  0.62043000  0.76973000  0.30325000  1.0 0.1187972754
H  H17  1  0.40700000  0.42980000  0.24245000  1.0 0.1372895976
H  H18  1  0.35258000  0.35425000  0.16021000  1.0 0.1103612379
H  H19  1  0.38355000  0.46599000  0.99846000  1.0 0.0908730142
H  H20  1  0.43969000  0.54292000  0.08265000  1.0 0.1295861501
H  H21  1  0.56492000  0.80504000  0.47038000  1.0 0.0998378246
H  H22  1  0.76752000  0.86313000  0.46745000  1.0 0.1103612379
H  H23  1  0.20383000  0.35906000  0.37205000  1.0 0.0998378246
H  H24  1  0.13633000  0.30826000  0.37011000  1.0 0.1103612379
H  H25  1  0.06491000  0.31129000  0.46641000  1.0 0.1187972754
H  H26  1  0.09222000  0.36233000  0.52744000  1.0 0.0998378246
H  H27  1  0.04523000  0.17630000  0.56719000  1.0 0.1187972754
H  H28  1  0.97644000  0.12551000  0.65954000  1.0 0.1187972754
H  H29  1  0.98038000  0.27176000  0.72351000  1.0 0.1103612379
H  H30  1  0.05919000  0.32927000  0.64234000  1.0 0.1103612379
H  H31  1  0.82815000  0.01824000  0.84294000  1.0 0.1372895976
H  H32  1  0.74130000  0.97013000  0.91701000  1.0 0.0998378246
H  H33  1  0.75152000  0.12224000  0.95041000  1.0 0.0998378246
H  H34  1  0.83131000  0.17047000  0.86781000  1.0 0.1295861501
H  H35  1  0.12736000  0.45953000  0.48172000  1.0 0.1187972754
H  H36  1  0.10674000  0.51793000  0.40390000  1.0 0.1187972754
H  H37  1  0.12869000  0.43797000  0.22543000  1.0 0.1103612379
H  H38  1  0.14930000  0.37957000  0.30325000  1.0 0.1187972754
H  H39  1  0.02280000  0.59300000  0.24245000  1.0 0.1372895976
H  H40  1  0.00167000  0.64742000  0.16021000  1.0 0.1103612379
H  H41  1  0.08244000  0.61645000  0.99846000  1.0 0.0908730142
H  H42  1  0.10323000  0.56031000  0.08265000  1.0 0.1295861501
H  H43  1  0.24012000  0.43508000  0.47038000  1.0 0.0998378246
H  H44  1  0.09561000  0.23248000  0.46745000  1.0 0.1103612379
H  H45  1  0.15523000  0.79617000  0.37205000  1.0 0.0998378246
H  H46  1  0.17193000  0.86367000  0.37011000  1.0 0.1103612379
H  H47  1  0.24638000  0.93509000  0.46641000  1.0 0.1187972754
H  H48  1  0.27011000  0.90778000  0.52744000  1.0 0.0998378246
H  H49  1  0.13107000  0.95477000  0.56719000  1.0 0.1187972754
H  H50  1  0.14907000  0.02356000  0.65954000  1.0 0.1187972754
H  H51  1  0.29138000  0.01962000  0.72351000  1.0 0.1103612379
H  H52  1  0.27008000  0.94081000  0.64234000  1.0 0.1103612379
H  H53  1  0.19009000  0.17185000  0.84294000  1.0 0.1372895976
H  H54  1  0.22883000  0.25870000  0.91701000  1.0 0.0998378246
H  H55  1  0.37072000  0.24848000  0.95041000  1.0 0.0998378246
H  H56  1  0.33916000  0.16869000  0.86781000  1.0 0.1295861501
H  H57  1  0.33217000  0.87264000  0.48172000  1.0 0.1187972754
H  H58  1  0.41119000  0.89326000  0.40390000  1.0 0.1187972754
H  H59  1  0.30928000  0.87131000  0.22543000  1.0 0.1103612379
H  H60  1  0.23027000  0.85070000  0.30325000  1.0 0.1187972754
H  H61  1  0.57020000  0.97720000  0.24245000  1.0 0.1372895976
H  H62  1  0.64575000  0.99833000  0.16021000  1.0 0.1103612379
H  H63  1  0.53401000  0.91756000  0.99846000  1.0 0.0908730142
H  H64  1  0.45708000  0.89677000  0.08265000  1.0 0.1295861501
H  H65  1  0.19496000  0.75988000  0.47038000  1.0 0.0998378246
H  H66  1  0.13687000  0.90439000  0.46745000  1.0 0.1103612379
H  H67  1  0.35906000  0.15523000  0.37205000  1.0 0.0998378246
H  H68  1  0.30826000  0.17193000  0.37011000  1.0 0.1103612379
H  H69  1  0.31129000  0.24638000  0.46641000  1.0 0.1187972754
H  H70  1  0.36233000  0.27011000  0.52744000  1.0 0.0998378246
H  H71  1  0.17630000  0.13107000  0.56719000  1.0 0.1187972754
H  H72  1  0.12551000  0.14907000  0.65954000  1.0 0.1187972754
H  H73  1  0.27176000  0.29138000  0.72351000  1.0 0.1103612379
H  H74  1  0.32927000  0.27008000  0.64234000  1.0 0.1103612379
H  H75  1  0.01824000  0.19009000  0.84294000  1.0 0.1372895976
H  H76  1  0.97013000  0.22883000  0.91701000  1.0 0.0998378246
H  H77  1  0.12224000  0.37072000  0.95041000  1.0 0.0998378246
H  H78  1  0.17047000  0.33916000  0.86781000  1.0 0.1295861501
H  H79  1  0.45953000  0.33217000  0.48172000  1.0 0.1187972754
H  H80  1  0.51793000  0.41119000  0.40390000  1.0 0.1187972754
H  H81  1  0.43797000  0.30928000  0.22543000  1.0 0.1103612379
H  H82  1  0.37957000  0.23027000  0.30325000  1.0 0.1187972754
H  H83  1  0.59300000  0.57020000  0.24245000  1.0 0.1372895976
H  H84  1  0.64742000  0.64575000  0.16021000  1.0 0.1103612379
H  H85  1  0.61645000  0.53401000  0.99846000  1.0 0.0908730142
H  H86  1  0.56031000  0.45708000  0.08265000  1.0 0.1295861501
H  H87  1  0.43508000  0.19496000  0.47038000  1.0 0.0998378246
H  H88  1  0.23248000  0.13687000  0.46745000  1.0 0.1103612379
H  H89  1  0.79617000  0.64094000  0.37205000  1.0 0.0998378246
H  H90  1  0.86367000  0.69174000  0.37011000  1.0 0.1103612379
H  H91  1  0.93509000  0.68871000  0.46641000  1.0 0.1187972754
H  H92  1  0.90778000  0.63767000  0.52744000  1.0 0.0998378246
H  H93  1  0.95477000  0.82370000  0.56719000  1.0 0.1187972754
H  H94  1  0.02356000  0.87449000  0.65954000  1.0 0.1187972754
H  H95  1  0.01962000  0.72824000  0.72351000  1.0 0.1103612379
H  H96  1  0.94081000  0.67073000  0.64234000  1.0 0.1103612379
H  H97  1  0.17185000  0.98176000  0.84294000  1.0 0.1372895976
H  H98  1  0.25870000  0.02987000  0.91701000  1.0 0.0998378246
H  H99  1  0.24848000  0.87776000  0.95041000  1.0 0.0998378246
H  H100  1  0.16869000  0.82953000  0.86781000  1.0 0.1295861501
H  H101  1  0.87264000  0.54047000  0.48172000  1.0 0.1187972754
H  H102  1  0.89326000  0.48207000  0.40390000  1.0 0.1187972754
H  H103  1  0.87131000  0.56203000  0.22543000  1.0 0.1103612379
H  H104  1  0.85070000  0.62043000  0.30325000  1.0 0.1187972754
H  H105  1  0.97720000  0.40700000  0.24245000  1.0 0.1372895976
H  H106  1  0.99833000  0.35258000  0.16021000  1.0 0.1103612379
H  H107  1  0.91756000  0.38355000  0.99846000  1.0 0.0908730142
H  H108  1  0.89677000  0.43969000  0.08265000  1.0 0.1295861501
H  H109  1  0.75988000  0.56492000  0.47038000  1.0 0.0998378246
H  H110  1  0.90439000  0.76752000  0.46745000  1.0 0.1103612379
H  H111  1  0.84477000  0.20383000  0.37205000  1.0 0.0998378246
H  H112  1  0.82807000  0.13633000  0.37011000  1.0 0.1103612379
H  H113  1  0.75362000  0.06491000  0.46641000  1.0 0.1187972754
H  H114  1  0.72989000  0.09222000  0.52744000  1.0 0.0998378246
H  H115  1  0.86893000  0.04523000  0.56719000  1.0 0.1187972754
H  H116  1  0.85093000  0.97644000  0.65954000  1.0 0.1187972754
H  H117  1  0.70862000  0.98038000  0.72351000  1.0 0.1103612379
H  H118  1  0.72992000  0.05919000  0.64234000  1.0 0.1103612379
H  H119  1  0.80991000  0.82815000  0.84294000  1.0 0.1372895976
H  H120  1  0.77117000  0.74130000  0.91701000  1.0 0.0998378246
H  H121  1  0.62928000  0.75152000  0.95041000  1.0 0.0998378246
H  H122  1  0.66084000  0.83131000  0.86781000  1.0 0.1295861501
H  H123  1  0.66783000  0.12736000  0.48172000  1.0 0.1187972754
H  H124  1  0.58881000  0.10674000  0.40390000  1.0 0.1187972754
H  H125  1  0.69072000  0.12869000  0.22543000  1.0 0.1103612379
H  H126  1  0.76973000  0.14930000  0.30325000  1.0 0.1187972754
H  H127  1  0.42980000  0.02280000  0.24245000  1.0 0.1372895976
H  H128  1  0.35425000  0.00167000  0.16021000  1.0 0.1103612379
H  H129  1  0.46599000  0.08244000  0.99846000  1.0 0.0908730142
H  H130  1  0.54292000  0.10323000  0.08265000  1.0 0.1295861501
H  H131  1  0.80504000  0.24012000  0.47038000  1.0 0.0998378246
H  H132  1  0.86313000  0.09561000  0.46745000  1.0 0.1103612379
H  H133  1  0.79617000  0.15523000  0.62795000  1.0 0.0998378246
H  H134  1  0.86367000  0.17193000  0.62989000  1.0 0.1103612379
H  H135  1  0.93509000  0.24638000  0.53359000  1.0 0.1187972754
H  H136  1  0.90778000  0.27011000  0.47256000  1.0 0.0998378246
H  H137  1  0.95477000  0.13107000  0.43281000  1.0 0.1187972754
H  H138  1  0.02356000  0.14907000  0.34046000  1.0 0.1187972754
H  H139  1  0.01962000  0.29138000  0.27649000  1.0 0.1103612379
H  H140  1  0.94081000  0.27008000  0.35766000  1.0 0.1103612379
H  H141  1  0.17185000  0.19009000  0.15706000  1.0 0.1372895976
H  H142  1  0.25870000  0.22883000  0.08299000  1.0 0.0998378246
H  H143  1  0.24848000  0.37072000  0.04959000  1.0 0.0998378246
H  H144  1  0.16869000  0.33916000  0.13219000  1.0 0.1295861501
H  H145  1  0.87264000  0.33217000  0.51828000  1.0 0.1187972754
H  H146  1  0.89326000  0.41119000  0.59610000  1.0 0.1187972754
H  H147  1  0.87131000  0.30928000  0.77457000  1.0 0.1103612379
H  H148  1  0.85070000  0.23027000  0.69675000  1.0 0.1103612379
H  H149  1  0.97720000  0.57020000  0.75755000  1.0 0.1372895976
H  H150  1  0.99833000  0.64575000  0.83979000  1.0 0.1103612379
H  H151  1  0.91756000  0.53401000  0.00154000  1.0 0.0908730142
H  H152  1  0.89677000  0.45708000  0.91735000  1.0 0.1187972754
H  H153  1  0.75988000  0.19496000  0.52962000  1.0 0.0998378246
H  H154  1  0.90439000  0.13687000  0.53255000  1.0 0.1103612379
H  H155  1  0.84477000  0.64094000  0.62795000  1.0 0.0998378246
H  H156  1  0.82807000  0.69174000  0.62989000  1.0 0.1103612379
H  H157  1  0.75362000  0.68871000  0.53359000  1.0 0.1187972754
H  H158  1  0.72989000  0.63767000  0.47256000  1.0 0.0998378246
H  H159  1  0.86893000  0.82370000  0.43281000  1.0 0.1187972754
H  H160  1  0.85093000  0.87449000  0.34046000  1.0 0.1187972754
H  H161  1  0.70862000  0.72824000  0.27649000  1.0 0.1103612379
H  H162  1  0.72992000  0.67073000  0.35766000  1.0 0.1103612379
H  H163  1  0.80991000  0.98176000  0.15706000  1.0 0.1372895976
H  H164  1  0.77117000  0.02987000  0.08299000  1.0 0.0998378246
H  H165  1  0.62928000  0.87776000  0.04959000  1.0 0.0998378246
H  H166  1  0.66084000  0.82953000  0.13219000  1.0 0.1295861501
H  H167  1  0.66783000  0.54047000  0.51828000  1.0 0.1187972754
H  H168  1  0.58881000  0.48207000  0.59610000  1.0 0.1187972754
H  H169  1  0.69072000  0.56203000  0.77457000  1.0 0.1103612379
H  H170  1  0.76973000  0.62043000  0.69675000  1.0 0.1187972754
H  H171  1  0.42980000  0.40700000  0.75755000  1.0 0.1372895976
H  H172  1  0.35425000  0.35258000  0.83979000  1.0 0.1103612379
H  H173  1  0.46599000  0.38355000  0.00154000  1.0 0.0908730142
H  H174  1  0.54292000  0.43969000  0.91735000  1.0 0.1187972754
H  H175  1  0.80504000  0.56492000  0.52962000  1.0 0.0998378246
H  H176  1  0.86313000  0.76752000  0.53255000  1.0 0.1103612379
H  H177  1  0.35906000  0.20383000  0.62795000  1.0 0.0998378246
H  H178  1  0.30826000  0.13633000  0.62989000  1.0 0.1103612379
H  H179  1  0.31129000  0.06491000  0.53359000  1.0 0.1187972754
H  H180  1  0.36233000  0.09222000  0.47256000  1.0 0.0998378246
H  H181  1  0.17630000  0.04523000  0.43281000  1.0 0.1187972754
H  H182  1  0.12551000  0.97644000  0.34046000  1.0 0.1187972754
H  H183  1  0.27176000  0.98038000  0.27649000  1.0 0.1103612379
H  H184  1  0.32927000  0.05919000  0.35766000  1.0 0.1103612379
H  H185  1  0.01824000  0.82815000  0.15706000  1.0 0.1372895976
H  H186  1  0.97013000  0.74130000  0.08299000  1.0 0.0998378246
H  H187  1  0.12224000  0.75152000  0.04959000  1.0 0.0998378246
H  H188  1  0.17047000  0.83131000  0.13219000  1.0 0.1295861501
H  H189  1  0.45953000  0.12736000  0.51828000  1.0 0.1187972754
H  H190  1  0.51793000  0.10674000  0.59610000  1.0 0.1187972754
H  H191  1  0.43797000  0.12869000  0.77457000  1.0 0.1103612379
H  H192  1  0.37957000  0.14930000  0.69675000  1.0 0.1187972754
H  H193  1  0.59300000  0.02280000  0.75755000  1.0 0.1372895976
H  H194  1  0.64742000  0.00167000  0.83979000  1.0 0.1103612379
H  H195  1  0.61645000  0.08244000  0.00154000  1.0 0.0908730142
H  H196  1  0.56031000  0.10323000  0.91735000  1.0 0.1187972754
H  H197  1  0.43508000  0.24012000  0.52962000  1.0 0.0998378246
H  H198  1  0.23248000  0.09561000  0.53255000  1.0 0.1103612379
H  H199  1  0.20383000  0.84477000  0.62795000  1.0 0.0998378246
H  H200  1  0.13633000  0.82807000  0.62989000  1.0 0.1103612379
H  H201  1  0.06491000  0.75362000  0.53359000  1.0 0.1187972754
H  H202  1  0.09222000  0.72989000  0.47256000  1.0 0.0998378246
H  H203  1  0.04523000  0.86893000  0.43281000  1.0 0.1187972754
H  H204  1  0.97644000  0.85093000  0.34046000  1.0 0.1187972754
H  H205  1  0.98038000  0.70862000  0.27649000  1.0 0.1103612379
H  H206  1  0.05919000  0.72992000  0.35766000  1.0 0.1103612379
H  H207  1  0.82815000  0.80991000  0.15706000  1.0 0.1372895976
H  H208  1  0.74130000  0.77117000  0.08299000  1.0 0.0998378246
H  H209  1  0.75152000  0.62928000  0.04959000  1.0 0.0998378246
H  H210  1  0.83131000  0.66084000  0.13219000  1.0 0.1295861501
H  H211  1  0.12736000  0.66783000  0.51828000  1.0 0.1187972754
H  H212  1  0.10674000  0.58881000  0.59610000  1.0 0.1187972754
H  H213  1  0.12869000  0.69072000  0.77457000  1.0 0.1103612379
H  H214  1  0.14930000  0.76973000  0.69675000  1.0 0.1187972754
H  H215  1  0.02280000  0.42980000  0.75755000  1.0 0.1372895976
H  H216  1  0.00167000  0.35425000  0.83979000  1.0 0.1103612379
H  H217  1  0.08244000  0.46599000  0.00154000  1.0 0.0908730142
H  H218  1  0.10323000  0.54292000  0.91735000  1.0 0.1187972754
H  H219  1  0.24012000  0.80504000  0.52962000  1.0 0.0998378246
H  H220  1  0.09561000  0.86313000  0.53255000  1.0 0.1103612379
H  H221  1  0.15523000  0.35906000  0.62795000  1.0 0.0998378246
H  H222  1  0.17193000  0.30826000  0.62989000  1.0 0.1103612379
H  H223  1  0.24638000  0.31129000  0.53359000  1.0 0.1187972754
H  H224  1  0.27011000  0.36233000  0.47256000  1.0 0.0998378246
H  H225  1  0.13107000  0.17630000  0.43281000  1.0 0.1187972754
H  H226  1  0.14907000  0.12551000  0.34046000  1.0 0.1187972754
H  H227  1  0.29138000  0.27176000  0.27649000  1.0 0.1103612379
H  H228  1  0.27008000  0.32927000  0.35766000  1.0 0.1103612379
H  H229  1  0.19009000  0.01824000  0.15706000  1.0 0.1372895976
H  H230  1  0.22883000  0.97013000  0.08299000  1.0 0.0998378246
H  H231  1  0.37072000  0.12224000  0.04959000  1.0 0.0998378246
H  H232  1  0.33916000  0.17047000  0.13219000  1.0 0.1295861501
H  H233  1  0.33217000  0.45953000  0.51828000  1.0 0.1187972754
H  H234  1  0.41119000  0.51793000  0.59610000  1.0 0.1187972754
H  H235  1  0.30928000  0.43797000  0.77457000  1.0 0.1103612379
H  H236  1  0.23027000  0.37957000  0.69675000  1.0 0.1187972754
H  H237  1  0.57020000  0.59300000  0.75755000  1.0 0.1372895976
H  H238  1  0.64575000  0.64742000  0.83979000  1.0 0.1103612379
H  H239  1  0.53401000  0.61645000  0.00154000  1.0 0.0908730142
H  H240  1  0.45708000  0.56031000  0.91735000  1.0 0.1187972754
H  H241  1  0.19496000  0.43508000  0.52962000  1.0 0.0998378246
H  H242  1  0.13687000  0.23248000  0.53255000  1.0 0.1103612379
H  H243  1  0.64094000  0.79617000  0.62795000  1.0 0.0998378246
H  H244  1  0.69174000  0.86367000  0.62989000  1.0 0.1103612379
H  H245  1  0.68871000  0.93509000  0.53359000  1.0 0.1187972754
H  H246  1  0.63767000  0.90778000  0.47256000  1.0 0.0998378246
H  H247  1  0.82370000  0.95477000  0.43281000  1.0 0.1187972754
H  H248  1  0.87449000  0.02356000  0.34046000  1.0 0.1187972754
H  H249  1  0.72824000  0.01962000  0.27649000  1.0 0.1103612379
H  H250  1  0.67073000  0.94081000  0.35766000  1.0 0.1103612379
H  H251  1  0.98176000  0.17185000  0.15706000  1.0 0.1372895976
H  H252  1  0.02987000  0.25870000  0.08299000  1.0 0.0998378246
H  H253  1  0.87776000  0.24848000  0.04959000  1.0 0.0998378246
H  H254  1  0.82953000  0.16869000  0.13219000  1.0 0.1295861501
H  H255  1  0.54047000  0.87264000  0.51828000  1.0 0.1187972754
H  H256  1  0.48207000  0.89326000  0.59610000  1.0 0.1187972754
H  H257  1  0.56203000  0.87131000  0.77457000  1.0 0.1103612379
H  H258  1  0.62043000  0.85070000  0.69675000  1.0 0.1187972754
H  H259  1  0.40700000  0.97720000  0.75755000  1.0 0.1372895976
H  H260  1  0.35258000  0.99833000  0.83979000  1.0 0.1103612379
H  H261  1  0.38355000  0.91756000  0.00154000  1.0 0.0908730142
H  H262  1  0.43969000  0.89677000  0.91735000  1.0 0.1187972754
H  H263  1  0.56492000  0.75988000  0.52962000  1.0 0.0998378246
H  H264  1  0.76752000  0.90439000  0.53255000  1.0 0.1103612379
C  C1  1  0.62850000  0.78160000  0.44750000  1.0 0.1716682649
C  C2  1  0.66610000  0.83540000  0.40310000  1.0 -0.3190434345
C  C3  1  0.66430000  0.76430000  0.49700000  1.0 -0.3132782183
C  C4  1  0.70360000  0.81660000  0.54710000  1.0 0.1757213137
C  C5  1  0.74410000  0.80300000  0.59670000  1.0 0.0590695209
C  C6  1  0.80340000  0.83700000  0.60030000  1.0 -0.14787698
C  C7  1  0.83380000  0.82480000  0.65220000  1.0 -0.1310430829
C  C8  1  0.80360000  0.77230000  0.69510000  1.0 0.0908730142
C  C9  1  0.74750000  0.74160000  0.69160000  1.0 -0.1192800454
C  C10  1  0.71230000  0.75330000  0.64350000  1.0 -0.1601664736
C  C11  1  0.83780000  0.76090000  0.74580000  1.0 -0.1802911094
C  C12  1  0.86930000  0.75020000  0.79740000  1.0 -0.14787698
C  C13  1  0.90030000  0.73800000  0.84880000  1.0 0.1549739041
C  C14  1  0.95970000  0.77170000  0.86360000  1.0 -0.1913479059
C  C15  1  0.98850000  0.74880000  0.91070000  1.0 0.0838288912
C  C16  1  0.90010000  0.66666667  0.92770000  1.0 0.0101902422
C  C17  1  0.87000000  0.68550000  0.87860000  1.0 -0.1983211054
C  C18  1  0.58590000  0.72620000  0.39980000  1.0 0.0590695209
C  C19  1  0.54480000  0.67240000  0.42970000  1.0 -0.14787698
C  C20  1  0.51020000  0.62560000  0.38350000  1.0 -0.14787698
C  C21  1  0.51660000  0.63240000  0.30730000  1.0 0.0908730142
C  C22  1  0.55760000  0.68600000  0.27750000  1.0 -0.1601664736
C  C23  1  0.59230000  0.73300000  0.32370000  1.0 -0.14787698
C  C24  1  0.47980000  0.57980000  0.26080000  1.0 -0.0659758202
C  C25  1  0.45480000  0.54600000  0.22150000  1.0 -0.0550072617
C  C26  1  0.42200000  0.49270000  0.16910000  1.0 0.1372895976
C  C27  1  0.40150000  0.43780000  0.19290000  1.0 -0.1913479059
C  C28  1  0.37230000  0.39360000  0.14290000  1.0 0.0156586808
C  C29  1  0.38960000  0.45740000  0.04750000  1.0 0.0908730142
C  C30  1  0.42010000  0.50340000  0.09940000  1.0 -0.2185651779
C  C31  1  0.15310000  0.37150000  0.44750000  1.0 0.1716682649
C  C32  1  0.16930000  0.33390000  0.40310000  1.0 -0.3190434345
C  C33  1  0.10000000  0.33570000  0.49700000  1.0 -0.3132782183
C  C34  1  0.11300000  0.29640000  0.54710000  1.0 0.1757213137
C  C35  1  0.05890000  0.25590000  0.59670000  1.0 0.0590695209
C  C36  1  0.03360000  0.19660000  0.60030000  1.0 -0.14787698
C  C37  1  0.99100000  0.16620000  0.65220000  1.0 -0.1310430829
C  C38  1  0.96870000  0.19640000  0.69510000  1.0 0.0908730142
C  C39  1  0.99410000  0.25250000  0.69160000  1.0 -0.1192800454
C  C40  1  0.04100000  0.28770000  0.64350000  1.0 -0.1601664736
C  C41  1  0.92310000  0.16220000  0.74580000  1.0 -0.1802911094
C  C42  1  0.88090000  0.13070000  0.79740000  1.0 -0.14787698
C  C43  1  0.83770000  0.09970000  0.84880000  1.0 0.1549739041
C  C44  1  0.81200000  0.04030000  0.86360000  1.0 -0.1802911094
C  C45  1  0.76030000  0.01150000  0.91070000  1.0 0.0838288912
C  C46  1  0.76657000  0.09990000  0.92770000  1.0 0.0101902422
C  C47  1  0.81550000  0.13000000  0.87860000  1.0 -0.1983211054
C  C48  1  0.14030000  0.41410000  0.39980000  1.0 0.0590695209
C  C49  1  0.12760000  0.45520000  0.42970000  1.0 -0.1443060281
C  C50  1  0.11540000  0.48980000  0.38350000  1.0 -0.14787698
C  C51  1  0.11580000  0.48340000  0.30730000  1.0 0.0998378246
C  C52  1  0.12840000  0.44240000  0.27750000  1.0 -0.1601664736
C  C53  1  0.14070000  0.40770000  0.32370000  1.0 -0.1443060281
C  C54  1  0.10000000  0.52020000  0.26080000  1.0 -0.0659758202
C  C55  1  0.09120000  0.54520000  0.22150000  1.0 -0.0550072617
C  C56  1  0.07070000  0.57800000  0.16910000  1.0 0.1372895976
C  C57  1  0.03630000  0.59850000  0.19290000  1.0 -0.1913479059
C  C58  1  0.02130000  0.62770000  0.14290000  1.0 0.0156586808
C  C59  1  0.06780000  0.61040000  0.04750000  1.0 0.0908730142
C  C60  1  0.08330000  0.57990000  0.09940000  1.0 -0.2185651779
C  C61  1  0.21840000  0.84690000  0.44750000  1.0 0.1716682649
C  C62  1  0.16460000  0.83070000  0.40310000  1.0 -0.3190434345
C  C63  1  0.23570000  0.90000000  0.49700000  1.0 -0.3132782183
C  C64  1  0.18340000  0.88700000  0.54710000  1.0 0.1757213137
C  C65  1  0.19700000  0.94110000  0.59670000  1.0 0.0590695209
C  C66  1  0.16300000  0.96640000  0.60030000  1.0 -0.14787698
C  C67  1  0.17520000  0.00900000  0.65220000  1.0 -0.1310430829
C  C68  1  0.22770000  0.03130000  0.69510000  1.0 0.0908730142
C  C69  1  0.25840000  0.00590000  0.69160000  1.0 -0.1192800454
C  C70  1  0.24670000  0.95900000  0.64350000  1.0 -0.1601664736
C  C71  1  0.23910000  0.07690000  0.74580000  1.0 -0.1802911094
C  C72  1  0.24980000  0.11910000  0.79740000  1.0 -0.14787698
C  C73  1  0.26200000  0.16230000  0.84880000  1.0 0.1549739041
C  C74  1  0.22830000  0.18800000  0.86360000  1.0 -0.1802911094
C  C75  1  0.25120000  0.23970000  0.91070000  1.0 0.0838288912
C  C76  1  0.33333333  0.23343000  0.92770000  1.0 0.0101902422
C  C77  1  0.31450000  0.18450000  0.87860000  1.0 -0.1983211054
C  C78  1  0.27380000  0.85970000  0.39980000  1.0 0.0590695209
C  C79  1  0.32760000  0.87240000  0.42970000  1.0 -0.1443060281
C  C80  1  0.37440000  0.88460000  0.38350000  1.0 -0.14787698
C  C81  1  0.36760000  0.88420000  0.30730000  1.0 0.0908730142
C  C82  1  0.31400000  0.87160000  0.27750000  1.0 -0.1601664736
C  C83  1  0.26700000  0.85930000  0.32370000  1.0 -0.14787698
C  C84  1  0.42020000  0.90000000  0.26080000  1.0 -0.0659758202
C  C85  1  0.45400000  0.90880000  0.22150000  1.0 -0.054642701
C  C86  1  0.50730000  0.92930000  0.16910000  1.0 0.1372895976
C  C87  1  0.56220000  0.96370000  0.19290000  1.0 -0.1913479059
C  C88  1  0.60640000  0.97870000  0.14290000  1.0 0.0156586808
C  C89  1  0.54260000  0.93220000  0.04750000  1.0 0.0908730142
C  C90  1  0.49660000  0.91670000  0.09940000  1.0 -0.2185651779
C  C91  1  0.37150000  0.21840000  0.44750000  1.0 0.1716682649
C  C92  1  0.33390000  0.16460000  0.40310000  1.0 -0.3190434345
C  C93  1  0.33570000  0.23570000  0.49700000  1.0 -0.3132782183
C  C94  1  0.29640000  0.18340000  0.54710000  1.0 0.1757213137
C  C95  1  0.25590000  0.19700000  0.59670000  1.0 0.0590695209
C  C96  1  0.19660000  0.16300000  0.60030000  1.0 -0.14787698
C  C97  1  0.16620000  0.17520000  0.65220000  1.0 -0.1310430829
C  C98  1  0.19640000  0.22770000  0.69510000  1.0 0.0908730142
C  C99  1  0.25250000  0.25840000  0.69160000  1.0 -0.1192800454
C  C100  1  0.28770000  0.24670000  0.64350000  1.0 -0.1601664736
C  C101  1  0.16220000  0.23910000  0.74580000  1.0 -0.1802911094
C  C102  1  0.13070000  0.24980000  0.79740000  1.0 -0.14787698
C  C103  1  0.09970000  0.26200000  0.84880000  1.0 0.1553678461
C  C104  1  0.04030000  0.22830000  0.86360000  1.0 -0.1802911094
C  C105  1  0.01150000  0.25120000  0.91070000  1.0 0.0838288912
C  C106  1  0.09990000  0.33333333  0.92770000  1.0 0.0101902422
C  C107  1  0.13000000  0.31450000  0.87860000  1.0 -0.1983211054
C  C108  1  0.41410000  0.27380000  0.39980000  1.0 0.0590695209
C  C109  1  0.45520000  0.32760000  0.42970000  1.0 -0.1443060281
C  C110  1  0.48980000  0.37440000  0.38350000  1.0 -0.14787698
C  C111  1  0.48340000  0.36760000  0.30730000  1.0 0.0908730142
C  C112  1  0.44240000  0.31400000  0.27750000  1.0 -0.1601664736
C  C113  1  0.40770000  0.26700000  0.32370000  1.0 -0.14787698
C  C114  1  0.52020000  0.42020000  0.26080000  1.0 -0.0659758202
C  C115  1  0.54520000  0.45400000  0.22150000  1.0 -0.054642701
C  C116  1  0.57800000  0.50730000  0.16910000  1.0 0.1372895976
C  C117  1  0.59850000  0.56220000  0.19290000  1.0 -0.1913479059
C  C118  1  0.62770000  0.60640000  0.14290000  1.0 0.0156586808
C  C119  1  0.61040000  0.54260000  0.04750000  1.0 0.0908730142
C  C120  1  0.57990000  0.49660000  0.09940000  1.0 -0.2185651779
C  C121  1  0.84690000  0.62850000  0.44750000  1.0 0.1716682649
C  C122  1  0.83070000  0.66610000  0.40310000  1.0 -0.3190434345
C  C123  1  0.90000000  0.66430000  0.49700000  1.0 -0.3132782183
C  C124  1  0.88700000  0.70360000  0.54710000  1.0 0.1757213137
C  C125  1  0.94110000  0.74410000  0.59670000  1.0 0.0590695209
C  C126  1  0.96640000  0.80340000  0.60030000  1.0 -0.14787698
C  C127  1  0.00900000  0.83380000  0.65220000  1.0 -0.1310430829
C  C128  1  0.03130000  0.80360000  0.69510000  1.0 0.0908730142
C  C129  1  0.00590000  0.74750000  0.69160000  1.0 -0.1192800454
C  C130  1  0.95900000  0.71230000  0.64350000  1.0 -0.1601664736
C  C131  1  0.07690000  0.83780000  0.74580000  1.0 -0.1802911094
C  C132  1  0.11910000  0.86930000  0.79740000  1.0 -0.14787698
C  C133  1  0.16230000  0.90030000  0.84880000  1.0 0.1553678461
C  C134  1  0.18800000  0.95970000  0.86360000  1.0 -0.1802911094
C  C135  1  0.23970000  0.98850000  0.91070000  1.0 0.0838288912
C  C136  1  0.23343000  0.90010000  0.92770000  1.0 0.0101902422
C  C137  1  0.18450000  0.87000000  0.87860000  1.0 -0.1983211054
C  C138  1  0.85970000  0.58590000  0.39980000  1.0 0.0590695209
C  C139  1  0.87240000  0.54480000  0.42970000  1.0 -0.14787698
C  C140  1  0.88460000  0.51020000  0.38350000  1.0 -0.14787698
C  C141  1  0.88420000  0.51660000  0.30730000  1.0 0.0908730142
C  C142  1  0.87160000  0.55760000  0.27750000  1.0 -0.1601664736
C  C143  1  0.85930000  0.59230000  0.32370000  1.0 -0.14787698
C  C144  1  0.90000000  0.47980000  0.26080000  1.0 -0.0659758202
C  C145  1  0.90880000  0.45480000  0.22150000  1.0 -0.054642701
C  C146  1  0.92930000  0.42200000  0.16910000  1.0 0.1372895976
C  C147  1  0.96370000  0.40150000  0.19290000  1.0 -0.1913479059
C  C148  1  0.97870000  0.37230000  0.14290000  1.0 0.0156586808
C  C149  1  0.93220000  0.38960000  0.04750000  1.0 0.0908730142
C  C150  1  0.91670000  0.42010000  0.09940000  1.0 -0.2185651779
C  C151  1  0.78160000  0.15310000  0.44750000  1.0 0.1716682649
C  C152  1  0.83540000  0.16930000  0.40310000  1.0 -0.3190434345
C  C153  1  0.76430000  0.10000000  0.49700000  1.0 -0.3132782183
C  C154  1  0.81660000  0.11300000  0.54710000  1.0 0.1757213137
C  C155  1  0.80300000  0.05890000  0.59670000  1.0 0.0590695209
C  C156  1  0.83700000  0.03360000  0.60030000  1.0 -0.14787698
C  C157  1  0.82480000  0.99100000  0.65220000  1.0 -0.1310430829
C  C158  1  0.77230000  0.96870000  0.69510000  1.0 0.0908730142
C  C159  1  0.74160000  0.99410000  0.69160000  1.0 -0.1192800454
C  C160  1  0.75330000  0.04100000  0.64350000  1.0 -0.1601664736
C  C161  1  0.76090000  0.92310000  0.74580000  1.0 -0.1802911094
C  C162  1  0.75020000  0.88090000  0.79740000  1.0 -0.14787698
C  C163  1  0.73800000  0.83770000  0.84880000  1.0 0.1549739041
C  C164  1  0.77170000  0.81200000  0.86360000  1.0 -0.1802911094
C  C165  1  0.74880000  0.76030000  0.91070000  1.0 0.0838288912
C  C166  1  0.66666667  0.76657000  0.92770000  1.0 0.0101902422
C  C167  1  0.68550000  0.81550000  0.87860000  1.0 -0.1983211054
C  C168  1  0.72620000  0.14030000  0.39980000  1.0 0.0590695209
C  C169  1  0.67240000  0.12760000  0.42970000  1.0 -0.1443060281
C  C170  1  0.62560000  0.11540000  0.38350000  1.0 -0.14787698
C  C171  1  0.63240000  0.11580000  0.30730000  1.0 0.0998378246
C  C172  1  0.68600000  0.12840000  0.27750000  1.0 -0.1601664736
C  C173  1  0.73300000  0.14070000  0.32370000  1.0 -0.1443060281
C  C174  1  0.57980000  0.10000000  0.26080000  1.0 -0.0659758202
C  C175  1  0.54600000  0.09120000  0.22150000  1.0 -0.054642701
C  C176  1  0.49270000  0.07070000  0.16910000  1.0 0.1372895976
C  C177  1  0.43780000  0.03630000  0.19290000  1.0 -0.1913479059
C  C178  1  0.39360000  0.02130000  0.14290000  1.0 0.0156586808
C  C179  1  0.45740000  0.06780000  0.04750000  1.0 0.0908730142
C  C180  1  0.50340000  0.08330000  0.09940000  1.0 -0.2185651779
C  C181  1  0.84690000  0.21840000  0.55250000  1.0 0.1716682649
C  C182  1  0.83070000  0.16460000  0.59690000  1.0 -0.3190434345
C  C183  1  0.90000000  0.23570000  0.50300000  1.0 -0.3132782183
C  C184  1  0.88700000  0.18340000  0.45290000  1.0 0.1757213137
C  C185  1  0.94110000  0.19700000  0.40330000  1.0 0.0590695209
C  C186  1  0.96640000  0.16300000  0.39970000  1.0 -0.14787698
C  C187  1  0.00900000  0.17520000  0.34780000  1.0 -0.1310430829
C  C188  1  0.03130000  0.22770000  0.30490000  1.0 0.0908730142
C  C189  1  0.00590000  0.25840000  0.30840000  1.0 -0.1192800454
C  C190  1  0.95900000  0.24670000  0.35650000  1.0 -0.1601664736
C  C191  1  0.07690000  0.23910000  0.25420000  1.0 -0.1802911094
C  C192  1  0.11910000  0.24980000  0.20260000  1.0 -0.14787698
C  C193  1  0.16230000  0.26200000  0.15120000  1.0 0.1549739041
C  C194  1  0.18800000  0.22830000  0.13640000  1.0 -0.1802911094
C  C195  1  0.23970000  0.25120000  0.08930000  1.0 0.0838288912
C  C196  1  0.23343000  0.33333333  0.07230000  1.0 0.0101902422
C  C197  1  0.18450000  0.31450000  0.12140000  1.0 -0.1983211054
C  C198  1  0.85970000  0.27380000  0.60020000  1.0 0.0590695209
C  C199  1  0.87240000  0.32760000  0.57030000  1.0 -0.1443060281
C  C200  1  0.88460000  0.37440000  0.61650000  1.0 -0.14787698
C  C201  1  0.88420000  0.36760000  0.69270000  1.0 0.0998378246
C  C202  1  0.87160000  0.31400000  0.72250000  1.0 -0.1601664736
C  C203  1  0.85930000  0.26700000  0.67630000  1.0 -0.14787698
C  C204  1  0.90000000  0.42020000  0.73920000  1.0 -0.0659758202
C  C205  1  0.90880000  0.45400000  0.77850000  1.0 -0.054642701
C  C206  1  0.92930000  0.50730000  0.83090000  1.0 0.1372895976
C  C207  1  0.96370000  0.56220000  0.80710000  1.0 -0.1913479059
C  C208  1  0.97870000  0.60640000  0.85710000  1.0 0.0156586808
C  C209  1  0.93220000  0.54260000  0.95250000  1.0 0.0908730142
C  C210  1  0.91670000  0.49660000  0.90060000  1.0 -0.2185651779
C  C211  1  0.78160000  0.62850000  0.55250000  1.0 0.1716682649
C  C212  1  0.83540000  0.66610000  0.59690000  1.0 -0.3190434345
C  C213  1  0.76430000  0.66430000  0.50300000  1.0 -0.3132782183
C  C214  1  0.81660000  0.70360000  0.45290000  1.0 0.1757213137
C  C215  1  0.80300000  0.74410000  0.40330000  1.0 0.0590695209
C  C216  1  0.83700000  0.80340000  0.39970000  1.0 -0.14787698
C  C217  1  0.82480000  0.83380000  0.34780000  1.0 -0.1310430829
C  C218  1  0.77230000  0.80360000  0.30490000  1.0 0.0908730142
C  C219  1  0.74160000  0.74750000  0.30840000  1.0 -0.1192800454
C  C220  1  0.75330000  0.71230000  0.35650000  1.0 -0.1601664736
C  C221  1  0.76090000  0.83780000  0.25420000  1.0 -0.1802911094
C  C222  1  0.75020000  0.86930000  0.20260000  1.0 -0.14787698
C  C223  1  0.73800000  0.90030000  0.15120000  1.0 0.1549739041
C  C224  1  0.77170000  0.95970000  0.13640000  1.0 -0.1913479059
C  C225  1  0.74880000  0.98850000  0.08930000  1.0 0.0838288912
C  C226  1  0.66666667  0.90010000  0.07230000  1.0 0.0101902422
C  C227  1  0.68550000  0.87000000  0.12140000  1.0 -0.1983211054
C  C228  1  0.72620000  0.58590000  0.60020000  1.0 0.0590695209
C  C229  1  0.67240000  0.54480000  0.57030000  1.0 -0.1443060281
C  C230  1  0.62560000  0.51020000  0.61650000  1.0 -0.14787698
C  C231  1  0.63240000  0.51660000  0.69270000  1.0 0.0998378246
C  C232  1  0.68600000  0.55760000  0.72250000  1.0 -0.1601664736
C  C233  1  0.73300000  0.59230000  0.67630000  1.0 -0.14787698
C  C234  1  0.57980000  0.47980000  0.73920000  1.0 -0.0659758202
C  C235  1  0.54600000  0.45480000  0.77850000  1.0 -0.054642701
C  C236  1  0.49270000  0.42200000  0.83090000  1.0 0.1372895976
C  C237  1  0.43780000  0.40150000  0.80710000  1.0 -0.1913479059
C  C238  1  0.39360000  0.37230000  0.85710000  1.0 0.0156586808
C  C239  1  0.45740000  0.38960000  0.95250000  1.0 0.0908730142
C  C240  1  0.50340000  0.42010000  0.90060000  1.0 -0.2185651779
C  C241  1  0.37150000  0.15310000  0.55250000  1.0 0.1716682649
C  C242  1  0.33390000  0.16930000  0.59690000  1.0 -0.3190434345
C  C243  1  0.33570000  0.10000000  0.50300000  1.0 -0.3132782183
C  C244  1  0.29640000  0.11300000  0.45290000  1.0 0.1757213137
C  C245  1  0.25590000  0.05890000  0.40330000  1.0 0.0590695209
C  C246  1  0.19660000  0.03360000  0.39970000  1.0 -0.14787698
C  C247  1  0.16620000  0.99100000  0.34780000  1.0 -0.1310430829
C  C248  1  0.19640000  0.96870000  0.30490000  1.0 0.0908730142
C  C249  1  0.25250000  0.99410000  0.30840000  1.0 -0.1192800454
C  C250  1  0.28770000  0.04100000  0.35650000  1.0 -0.1601664736
C  C251  1  0.16220000  0.92310000  0.25420000  1.0 -0.1802911094
C  C252  1  0.13070000  0.88090000  0.20260000  1.0 -0.14787698
C  C253  1  0.09970000  0.83770000  0.15120000  1.0 0.1549739041
C  C254  1  0.04030000  0.81200000  0.13640000  1.0 -0.1913479059
C  C255  1  0.01150000  0.76030000  0.08930000  1.0 0.0838288912
C  C256  1  0.09990000  0.76657000  0.07230000  1.0 0.0101902422
C  C257  1  0.13000000  0.81550000  0.12140000  1.0 -0.1983211054
C  C258  1  0.41410000  0.14030000  0.60020000  1.0 0.0590695209
C  C259  1  0.45520000  0.12760000  0.57030000  1.0 -0.1443060281
C  C260  1  0.48980000  0.11540000  0.61650000  1.0 -0.14787698
C  C261  1  0.48340000  0.11580000  0.69270000  1.0 0.0998378246
C  C262  1  0.44240000  0.12840000  0.72250000  1.0 -0.1601664736
C  C263  1  0.40770000  0.14070000  0.67630000  1.0 -0.14787698
C  C264  1  0.52020000  0.10000000  0.73920000  1.0 -0.0659758202
C  C265  1  0.54520000  0.09120000  0.77850000  1.0 -0.054642701
C  C266  1  0.57800000  0.07070000  0.83090000  1.0 0.1372895976
C  C267  1  0.59850000  0.03630000  0.80710000  1.0 -0.1913479059
C  C268  1  0.62770000  0.02130000  0.85710000  1.0 0.0156586808
C  C269  1  0.61040000  0.06780000  0.95250000  1.0 0.0908730142
C  C270  1  0.57990000  0.08330000  0.90060000  1.0 -0.2185651779
C  C271  1  0.15310000  0.78160000  0.55250000  1.0 0.1716682649
C  C272  1  0.16930000  0.83540000  0.59690000  1.0 -0.3190434345
C  C273  1  0.10000000  0.76430000  0.50300000  1.0 -0.3132782183
C  C274  1  0.11300000  0.81660000  0.45290000  1.0 0.1757213137
C  C275  1  0.05890000  0.80300000  0.40330000  1.0 0.0590695209
C  C276  1  0.03360000  0.83700000  0.39970000  1.0 -0.14787698
C  C277  1  0.99100000  0.82480000  0.34780000  1.0 -0.1310430829
C  C278  1  0.96870000  0.77230000  0.30490000  1.0 0.0908730142
C  C279  1  0.99410000  0.74160000  0.30840000  1.0 -0.1192800454
C  C280  1  0.04100000  0.75330000  0.35650000  1.0 -0.1601664736
C  C281  1  0.92310000  0.76090000  0.25420000  1.0 -0.1802911094
C  C282  1  0.88090000  0.75020000  0.20260000  1.0 -0.14787698
C  C283  1  0.83770000  0.73800000  0.15120000  1.0 0.1549739041
C  C284  1  0.81200000  0.77170000  0.13640000  1.0 -0.1913479059
C  C285  1  0.76030000  0.74880000  0.08930000  1.0 0.0838288912
C  C286  1  0.76657000  0.66666667  0.07230000  1.0 0.0101902422
C  C287  1  0.81550000  0.68550000  0.12140000  1.0 -0.1983211054
C  C288  1  0.14030000  0.72620000  0.60020000  1.0 0.0590695209
C  C289  1  0.12760000  0.67240000  0.57030000  1.0 -0.14787698
C  C290  1  0.11540000  0.62560000  0.61650000  1.0 -0.14787698
C  C291  1  0.11580000  0.63240000  0.69270000  1.0 0.0998378246
C  C292  1  0.12840000  0.68600000  0.72250000  1.0 -0.1601664736
C  C293  1  0.14070000  0.73300000  0.67630000  1.0 -0.14787698
C  C294  1  0.10000000  0.57980000  0.73920000  1.0 -0.0659758202
C  C295  1  0.09120000  0.54600000  0.77850000  1.0 -0.0550072617
C  C296  1  0.07070000  0.49270000  0.83090000  1.0 0.1372895976
C  C297  1  0.03630000  0.43780000  0.80710000  1.0 -0.1913479059
C  C298  1  0.02130000  0.39360000  0.85710000  1.0 0.0156586808
C  C299  1  0.06780000  0.45740000  0.95250000  1.0 0.0908730142
C  C300  1  0.08330000  0.50340000  0.90060000  1.0 -0.2185651779
C  C301  1  0.21840000  0.37150000  0.55250000  1.0 0.1716682649
C  C302  1  0.16460000  0.33390000  0.59690000  1.0 -0.3190434345
C  C303  1  0.23570000  0.33570000  0.50300000  1.0 -0.3132782183
C  C304  1  0.18340000  0.29640000  0.45290000  1.0 0.1757213137
C  C305  1  0.19700000  0.25590000  0.40330000  1.0 0.0590695209
C  C306  1  0.16300000  0.19660000  0.39970000  1.0 -0.14787698
C  C307  1  0.17520000  0.16620000  0.34780000  1.0 -0.1310430829
C  C308  1  0.22770000  0.19640000  0.30490000  1.0 0.0908730142
C  C309  1  0.25840000  0.25250000  0.30840000  1.0 -0.1192800454
C  C310  1  0.24670000  0.28770000  0.35650000  1.0 -0.1601664736
C  C311  1  0.23910000  0.16220000  0.25420000  1.0 -0.1802911094
C  C312  1  0.24980000  0.13070000  0.20260000  1.0 -0.14787698
C  C313  1  0.26200000  0.09970000  0.15120000  1.0 0.1553678461
C  C314  1  0.22830000  0.04030000  0.13640000  1.0 -0.1802911094
C  C315  1  0.25120000  0.01150000  0.08930000  1.0 0.0838288912
C  C316  1  0.33333333  0.09990000  0.07230000  1.0 0.0101902422
C  C317  1  0.31450000  0.13000000  0.12140000  1.0 -0.1983211054
C  C318  1  0.27380000  0.41410000  0.60020000  1.0 0.0590695209
C  C319  1  0.32760000  0.45520000  0.57030000  1.0 -0.1443060281
C  C320  1  0.37440000  0.48980000  0.61650000  1.0 -0.14787698
C  C321  1  0.36760000  0.48340000  0.69270000  1.0 0.0998378246
C  C322  1  0.31400000  0.44240000  0.72250000  1.0 -0.1601664736
C  C323  1  0.26700000  0.40770000  0.67630000  1.0 -0.14787698
C  C324  1  0.42020000  0.52020000  0.73920000  1.0 -0.0659758202
C  C325  1  0.45400000  0.54520000  0.77850000  1.0 -0.054642701
C  C326  1  0.50730000  0.57800000  0.83090000  1.0 0.1372895976
C  C327  1  0.56220000  0.59850000  0.80710000  1.0 -0.1913479059
C  C328  1  0.60640000  0.62770000  0.85710000  1.0 0.0156586808
C  C329  1  0.54260000  0.61040000  0.95250000  1.0 0.0908730142
C  C330  1  0.49660000  0.57990000  0.90060000  1.0 -0.2185651779
C  C331  1  0.62850000  0.84690000  0.55250000  1.0 0.1716682649
C  C332  1  0.66610000  0.83070000  0.59690000  1.0 -0.3190434345
C  C333  1  0.66430000  0.90000000  0.50300000  1.0 -0.3132782183
C  C334  1  0.70360000  0.88700000  0.45290000  1.0 0.1757213137
C  C335  1  0.74410000  0.94110000  0.40330000  1.0 0.0590695209
C  C336  1  0.80340000  0.96640000  0.39970000  1.0 -0.14787698
C  C337  1  0.83380000  0.00900000  0.34780000  1.0 -0.1310430829
C  C338  1  0.80360000  0.03130000  0.30490000  1.0 0.0908730142
C  C339  1  0.74750000  0.00590000  0.30840000  1.0 -0.1192800454
C  C340  1  0.71230000  0.95900000  0.35650000  1.0 -0.1601664736
C  C341  1  0.83780000  0.07690000  0.25420000  1.0 -0.1802911094
C  C342  1  0.86930000  0.11910000  0.20260000  1.0 -0.14787698
C  C343  1  0.90030000  0.16230000  0.15120000  1.0 0.1549739041
C  C344  1  0.95970000  0.18800000  0.13640000  1.0 -0.1802911094
C  C345  1  0.98850000  0.23970000  0.08930000  1.0 0.0838288912
C  C346  1  0.90010000  0.23343000  0.07230000  1.0 0.0101902422
C  C347  1  0.87000000  0.18450000  0.12140000  1.0 -0.1983211054
C  C348  1  0.58590000  0.85970000  0.60020000  1.0 0.0590695209
C  C349  1  0.54480000  0.87240000  0.57030000  1.0 -0.1443060281
C  C350  1  0.51020000  0.88460000  0.61650000  1.0 -0.14787698
C  C351  1  0.51660000  0.88420000  0.69270000  1.0 0.0908730142
C  C352  1  0.55760000  0.87160000  0.72250000  1.0 -0.1601664736
C  C353  1  0.59230000  0.85930000  0.67630000  1.0 -0.14787698
C  C354  1  0.47980000  0.90000000  0.73920000  1.0 -0.0659758202
C  C355  1  0.45480000  0.90880000  0.77850000  1.0 -0.0550072617
C  C356  1  0.42200000  0.92930000  0.83090000  1.0 0.1372895976
C  C357  1  0.40150000  0.96370000  0.80710000  1.0 -0.1913479059
C  C358  1  0.37230000  0.97870000  0.85710000  1.0 0.0156586808
C  C359  1  0.38960000  0.93220000  0.95250000  1.0 0.0908730142
C  C360  1  0.42010000  0.91670000  0.90060000  1.0 -0.2185651779
C  C361  1  0.59050000  0.79525000  0.50000000  1.0 -0.2888536753
C  C362  1  0.74200000  0.87100000  0.50000000  1.0 -0.3190434345
C  C363  1  0.20475000  0.40950000  0.50000000  1.0 -0.2888536753
C  C364  1  0.12900000  0.25800000  0.50000000  1.0 -0.3190434345
C  C365  1  0.20475000  0.79525000  0.50000000  1.0 -0.2888536753
C  C366  1  0.12900000  0.87100000  0.50000000  1.0 -0.3190434345
C  C367  1  0.40950000  0.20475000  0.50000000  1.0 -0.2888536753
C  C368  1  0.25800000  0.12900000  0.50000000  1.0 -0.3190434345
C  C369  1  0.79525000  0.59050000  0.50000000  1.0 -0.2888536753
C  C370  1  0.87100000  0.74200000  0.50000000  1.0 -0.3190434345
C  C371  1  0.79525000  0.20475000  0.50000000  1.0 -0.2888536753
C  C372  1  0.87100000  0.12900000  0.50000000  1.0 -0.3190434345
N  N1  1  0.95900000  0.69850000  0.94440000  1.0 -0.2185651779
N  N2  1  0.37010000  0.40360000  0.06830000  1.0 -0.206983621
N  N3  1  0.73950000  0.04100000  0.94440000  1.0 -0.2185651779
N  N4  1  0.03350000  0.62990000  0.06830000  1.0 -0.206983621
N  N5  1  0.30150000  0.26050000  0.94440000  1.0 -0.2185651779
N  N6  1  0.59640000  0.96650000  0.06830000  1.0 -0.206983621
N  N7  1  0.04100000  0.30150000  0.94440000  1.0 -0.2185651779
N  N8  1  0.62990000  0.59640000  0.06830000  1.0 -0.206983621
N  N9  1  0.26050000  0.95900000  0.94440000  1.0 -0.2185651779
N  N10  1  0.96650000  0.37010000  0.06830000  1.0 -0.206983621
N  N11  1  0.69850000  0.73950000  0.94440000  1.0 -0.2185651779
N  N12  1  0.40360000  0.03350000  0.06830000  1.0 -0.206983621
N  N13  1  0.26050000  0.30150000  0.05560000  1.0 -0.2185651779
N  N14  1  0.96650000  0.59640000  0.93170000  1.0 -0.206983621
N  N15  1  0.69850000  0.95900000  0.05560000  1.0 -0.2185651779
N  N16  1  0.40360000  0.37010000  0.93170000  1.0 -0.206983621
N  N17  1  0.04100000  0.73950000  0.05560000  1.0 -0.2185651779
N  N18  1  0.62990000  0.03350000  0.93170000  1.0 -0.206983621
N  N19  1  0.73950000  0.69850000  0.05560000  1.0 -0.2185651779
N  N20  1  0.03350000  0.40360000  0.93170000  1.0 -0.206983621
N  N21  1  0.30150000  0.04100000  0.05560000  1.0 -0.2185651779
N  N22  1  0.59640000  0.62990000  0.93170000  1.0 -0.206983621
N  N23  1  0.95900000  0.26050000  0.05560000  1.0 -0.2185651779
N  N24  1  0.37010000  0.96650000  0.93170000  1.0 -0.206983621
