# DDEC6 charges by PACMAN v1.1 (https://github.com/mtap-research/PACMAN-charge/)
data_XUKMUO01_FSR_pacman
_symmetry_space_group_name_H-M   'P 1'
_cell_length_a   26.25480000
_cell_length_b   26.25480000
_cell_length_c   18.17440000
_cell_angle_alpha   90.00000000
_cell_angle_beta   90.00000000
_cell_angle_gamma   120.00000000
_symmetry_Int_Tables_number   1
_chemical_formula_structural   CuH44(C31N2)2
_chemical_formula_sum   'Cu6 H264 C372 N24'
_cell_volume   10849.46048880
_cell_formula_units_Z   6
loop_
 _symmetry_equiv_pos_site_id
 _symmetry_equiv_pos_as_xyz
  1  'x, y, z'
loop_
 _atom_site_type_symbol
 _atom_site_label
 _atom_site_symmetry_multiplicity
 _atom_site_fract_x
 _atom_site_fract_y
 _atom_site_fract_z
 _atom_site_occupancy
 _atom_site_charge
Cu  Cu1  1  0.00000000  0.66799000  0.50000000  1.0 0.3987814614
Cu  Cu2  1  0.66799000  0.00000000  0.50000000  1.0 0.3930465111
Cu  Cu3  1  0.33201000  0.33201000  0.50000000  1.0 0.3930465111
Cu  Cu4  1  0.00000000  0.33201000  0.50000000  1.0 0.3987814614
Cu  Cu5  1  0.33201000  0.00000000  0.50000000  1.0 0.3930465111
Cu  Cu6  1  0.66799000  0.66799000  0.50000000  1.0 0.3930465111
H  H1  1  0.68911000  0.86439000  0.87433000  1.0 0.1094442501
H  H2  1  0.64049000  0.79767000  0.87396000  1.0 0.1020749826
H  H3  1  0.63836000  0.90718000  0.02730000  1.0 0.1020749826
H  H4  1  0.68607000  0.93108000  0.96488000  1.0 0.1194573533
H  H5  1  0.56396000  0.76057000  0.97001000  1.0 0.1094442501
H  H6  1  0.76765000  0.86380000  0.03219000  1.0 0.1020749826
H  H7  1  0.54092000  0.86631000  0.98002000  1.0 0.1194573533
H  H8  1  0.48022000  0.88678000  0.90834000  1.0 0.1194573533
H  H9  1  0.55788000  0.87169000  0.72564000  1.0 0.1094442501
H  H10  1  0.61858000  0.85122000  0.79732000  1.0 0.1194573533
H  H11  1  0.40455000  0.96908000  0.73987000  1.0 0.1293684491
H  H12  1  0.35839000  0.00406000  0.66291000  1.0 0.1094442501
H  H13  1  0.38438000  0.92341000  0.49107000  1.0 0.1020749826
H  H14  1  0.43055000  0.88844000  0.56804000  1.0 0.1293684491
H  H15  1  0.82112000  0.86790000  0.93444000  1.0 0.1194573533
H  H16  1  0.87290000  0.84741000  0.84599000  1.0 0.1194573533
H  H17  1  0.73007000  0.70692000  0.77888000  1.0 0.1094442501
H  H18  1  0.67321000  0.73139000  0.85169000  1.0 0.1194573533
H  H19  1  0.97623000  0.80737000  0.66154000  1.0 0.1423004528
H  H20  1  0.02930000  0.77523000  0.59116000  1.0 0.1020749826
H  H21  1  0.87621000  0.63237000  0.54685000  1.0 0.1020749826
H  H22  1  0.82986000  0.66538000  0.63533000  1.0 0.1423004528
H  H23  1  0.17528000  0.31089000  0.87433000  1.0 0.1094442501
H  H24  1  0.15718000  0.35951000  0.87396000  1.0 0.1020749826
H  H25  1  0.26882000  0.36164000  0.02730000  1.0 0.1020749826
H  H26  1  0.24501000  0.31393000  0.96488000  1.0 0.1194573533
H  H27  1  0.19661000  0.43604000  0.97001000  1.0 0.1094442501
H  H28  1  0.09615000  0.23235000  0.03219000  1.0 0.1020749826
H  H29  1  0.32539000  0.45908000  0.98002000  1.0 0.1194573533
H  H30  1  0.40656000  0.51978000  0.90834000  1.0 0.1194573533
H  H31  1  0.31381000  0.44212000  0.72564000  1.0 0.1094442501
H  H32  1  0.23264000  0.38142000  0.79732000  1.0 0.1194573533
H  H33  1  0.56453000  0.59545000  0.73987000  1.0 0.1293684491
H  H34  1  0.64567000  0.64161000  0.66291000  1.0 0.1094442501
H  H35  1  0.53903000  0.61562000  0.49107000  1.0 0.1020749826
H  H36  1  0.45789000  0.56945000  0.56804000  1.0 0.1293684491
H  H37  1  0.04678000  0.17888000  0.93444000  1.0 0.1194573533
H  H38  1  0.97451000  0.12710000  0.84599000  1.0 0.1194573533
H  H39  1  0.97685000  0.26993000  0.77888000  1.0 0.1094442501
H  H40  1  0.05818000  0.32679000  0.85169000  1.0 0.1194573533
H  H41  1  0.83114000  0.02377000  0.66154000  1.0 0.1423004528
H  H42  1  0.74593000  0.97070000  0.59116000  1.0 0.1020749826
H  H43  1  0.75616000  0.12379000  0.54685000  1.0 0.1020749826
H  H44  1  0.83552000  0.17014000  0.63533000  1.0 0.1423004528
H  H45  1  0.13561000  0.82472000  0.87433000  1.0 0.1094442501
H  H46  1  0.20233000  0.84282000  0.87396000  1.0 0.1020749826
H  H47  1  0.09282000  0.73118000  0.02730000  1.0 0.1020749826
H  H48  1  0.06892000  0.75499000  0.96488000  1.0 0.1194573533
H  H49  1  0.23943000  0.80339000  0.97001000  1.0 0.1020749826
H  H50  1  0.13620000  0.90385000  0.03219000  1.0 0.1020749826
H  H51  1  0.13369000  0.67461000  0.98002000  1.0 0.1194573533
H  H52  1  0.11322000  0.59344000  0.90834000  1.0 0.1194573533
H  H53  1  0.12831000  0.68619000  0.72564000  1.0 0.1094442501
H  H54  1  0.14878000  0.76736000  0.79732000  1.0 0.1194573533
H  H55  1  0.03092000  0.43547000  0.73987000  1.0 0.1293684491
H  H56  1  0.99594000  0.35433000  0.66291000  1.0 0.1094442501
H  H57  1  0.07659000  0.46097000  0.49107000  1.0 0.1020749826
H  H58  1  0.11156000  0.54211000  0.56804000  1.0 0.1293684491
H  H59  1  0.13210000  0.95322000  0.93444000  1.0 0.1194573533
H  H60  1  0.15259000  0.02549000  0.84599000  1.0 0.1194573533
H  H61  1  0.29308000  0.02315000  0.77888000  1.0 0.1094442501
H  H62  1  0.26861000  0.94182000  0.85169000  1.0 0.1194573533
H  H63  1  0.19263000  0.16886000  0.66154000  1.0 0.1423004528
H  H64  1  0.22477000  0.25407000  0.59116000  1.0 0.1020749826
H  H65  1  0.36763000  0.24384000  0.54685000  1.0 0.1020749826
H  H66  1  0.33462000  0.16448000  0.63533000  1.0 0.1423004528
H  H67  1  0.31089000  0.13561000  0.87433000  1.0 0.1094442501
H  H68  1  0.35951000  0.20233000  0.87396000  1.0 0.1020749826
H  H69  1  0.36164000  0.09282000  0.02730000  1.0 0.1020749826
H  H70  1  0.31393000  0.06892000  0.96488000  1.0 0.1194573533
H  H71  1  0.43604000  0.23943000  0.97001000  1.0 0.1020749826
H  H72  1  0.23235000  0.13620000  0.03219000  1.0 0.1020749826
H  H73  1  0.45908000  0.13369000  0.98002000  1.0 0.1194573533
H  H74  1  0.51978000  0.11322000  0.90834000  1.0 0.1194573533
H  H75  1  0.44212000  0.12831000  0.72564000  1.0 0.1094442501
H  H76  1  0.38142000  0.14878000  0.79732000  1.0 0.1194573533
H  H77  1  0.59545000  0.03092000  0.73987000  1.0 0.1293684491
H  H78  1  0.64161000  0.99594000  0.66291000  1.0 0.1094442501
H  H79  1  0.61562000  0.07659000  0.49107000  1.0 0.1020749826
H  H80  1  0.56945000  0.11156000  0.56804000  1.0 0.1293684491
H  H81  1  0.17888000  0.13210000  0.93444000  1.0 0.1194573533
H  H82  1  0.12710000  0.15259000  0.84599000  1.0 0.1194573533
H  H83  1  0.26993000  0.29308000  0.77888000  1.0 0.1094442501
H  H84  1  0.32679000  0.26861000  0.85169000  1.0 0.1194573533
H  H85  1  0.02377000  0.19263000  0.66154000  1.0 0.1423004528
H  H86  1  0.97070000  0.22477000  0.59116000  1.0 0.1020749826
H  H87  1  0.12379000  0.36763000  0.54685000  1.0 0.1020749826
H  H88  1  0.17014000  0.33462000  0.63533000  1.0 0.1423004528
H  H89  1  0.82472000  0.68911000  0.87433000  1.0 0.1094442501
H  H90  1  0.84282000  0.64049000  0.87396000  1.0 0.1020749826
H  H91  1  0.73118000  0.63836000  0.02730000  1.0 0.1020749826
H  H92  1  0.75499000  0.68607000  0.96488000  1.0 0.1194573533
H  H93  1  0.80339000  0.56396000  0.97001000  1.0 0.1094442501
H  H94  1  0.90385000  0.76765000  0.03219000  1.0 0.1020749826
H  H95  1  0.67461000  0.54092000  0.98002000  1.0 0.1194573533
H  H96  1  0.59344000  0.48022000  0.90834000  1.0 0.1194573533
H  H97  1  0.68619000  0.55788000  0.72564000  1.0 0.1094442501
H  H98  1  0.76736000  0.61858000  0.79732000  1.0 0.1194573533
H  H99  1  0.43547000  0.40455000  0.73987000  1.0 0.1293684491
H  H100  1  0.35433000  0.35839000  0.66291000  1.0 0.1094442501
H  H101  1  0.46097000  0.38438000  0.49107000  1.0 0.1020749826
H  H102  1  0.54211000  0.43055000  0.56804000  1.0 0.1293684491
H  H103  1  0.95322000  0.82112000  0.93444000  1.0 0.1194573533
H  H104  1  0.02549000  0.87290000  0.84599000  1.0 0.1194573533
H  H105  1  0.02315000  0.73007000  0.77888000  1.0 0.1094442501
H  H106  1  0.94182000  0.67321000  0.85169000  1.0 0.1194573533
H  H107  1  0.16886000  0.97623000  0.66154000  1.0 0.1423004528
H  H108  1  0.25407000  0.02930000  0.59116000  1.0 0.1020749826
H  H109  1  0.24384000  0.87621000  0.54685000  1.0 0.1020749826
H  H110  1  0.16448000  0.82986000  0.63533000  1.0 0.1423004528
H  H111  1  0.86439000  0.17528000  0.87433000  1.0 0.1094442501
H  H112  1  0.79767000  0.15718000  0.87396000  1.0 0.1020749826
H  H113  1  0.90718000  0.26882000  0.02730000  1.0 0.1020749826
H  H114  1  0.93108000  0.24501000  0.96488000  1.0 0.1194573533
H  H115  1  0.76057000  0.19661000  0.97001000  1.0 0.1094442501
H  H116  1  0.86380000  0.09615000  0.03219000  1.0 0.1020749826
H  H117  1  0.86631000  0.32539000  0.98002000  1.0 0.1194573533
H  H118  1  0.88678000  0.40656000  0.90834000  1.0 0.1194573533
H  H119  1  0.87169000  0.31381000  0.72564000  1.0 0.1094442501
H  H120  1  0.85122000  0.23264000  0.79732000  1.0 0.1194573533
H  H121  1  0.96908000  0.56453000  0.73987000  1.0 0.1293684491
H  H122  1  0.00406000  0.64567000  0.66291000  1.0 0.1094442501
H  H123  1  0.92341000  0.53903000  0.49107000  1.0 0.1020749826
H  H124  1  0.88844000  0.45789000  0.56804000  1.0 0.1293684491
H  H125  1  0.86790000  0.04678000  0.93444000  1.0 0.1194573533
H  H126  1  0.84741000  0.97451000  0.84599000  1.0 0.1194573533
H  H127  1  0.70692000  0.97685000  0.77888000  1.0 0.1094442501
H  H128  1  0.73139000  0.05818000  0.85169000  1.0 0.1194573533
H  H129  1  0.80737000  0.83114000  0.66154000  1.0 0.1423004528
H  H130  1  0.77523000  0.74593000  0.59116000  1.0 0.1020749826
H  H131  1  0.63237000  0.75616000  0.54685000  1.0 0.1020749826
H  H132  1  0.66538000  0.83552000  0.63533000  1.0 0.1423004528
H  H133  1  0.82472000  0.13561000  0.12567000  1.0 0.1094442501
H  H134  1  0.84282000  0.20233000  0.12604000  1.0 0.1020749826
H  H135  1  0.73118000  0.09282000  0.97270000  1.0 0.1020749826
H  H136  1  0.75499000  0.06892000  0.03512000  1.0 0.1194573533
H  H137  1  0.80339000  0.23943000  0.02999000  1.0 0.1094442501
H  H138  1  0.90385000  0.13620000  0.96781000  1.0 0.1020749826
H  H139  1  0.67461000  0.13369000  0.01998000  1.0 0.1194573533
H  H140  1  0.59344000  0.11322000  0.09166000  1.0 0.1293684491
H  H141  1  0.68619000  0.12831000  0.27436000  1.0 0.1094442501
H  H142  1  0.76736000  0.14878000  0.20268000  1.0 0.1194573533
H  H143  1  0.43547000  0.03092000  0.26013000  1.0 0.1293684491
H  H144  1  0.35433000  0.99594000  0.33709000  1.0 0.1094442501
H  H145  1  0.46097000  0.07659000  0.50893000  1.0 0.1020749826
H  H146  1  0.54211000  0.11156000  0.43196000  1.0 0.1293684491
H  H147  1  0.95322000  0.13210000  0.06556000  1.0 0.1194573533
H  H148  1  0.02549000  0.15259000  0.15401000  1.0 0.1194573533
H  H149  1  0.02315000  0.29308000  0.22112000  1.0 0.1094442501
H  H150  1  0.94182000  0.26861000  0.14831000  1.0 0.1194573533
H  H151  1  0.16886000  0.19263000  0.33846000  1.0 0.1423004528
H  H152  1  0.25407000  0.22477000  0.40884000  1.0 0.1020749826
H  H153  1  0.24384000  0.36763000  0.45315000  1.0 0.1020749826
H  H154  1  0.16448000  0.33462000  0.36467000  1.0 0.1423004528
H  H155  1  0.86439000  0.68911000  0.12567000  1.0 0.1094442501
H  H156  1  0.79767000  0.64049000  0.12604000  1.0 0.1020749826
H  H157  1  0.90718000  0.63836000  0.97270000  1.0 0.1020749826
H  H158  1  0.93108000  0.68607000  0.03512000  1.0 0.1194573533
H  H159  1  0.76057000  0.56396000  0.02999000  1.0 0.1094442501
H  H160  1  0.86380000  0.76765000  0.96781000  1.0 0.1020749826
H  H161  1  0.86631000  0.54092000  0.01998000  1.0 0.1194573533
H  H162  1  0.88678000  0.48022000  0.09166000  1.0 0.1194573533
H  H163  1  0.87169000  0.55788000  0.27436000  1.0 0.1094442501
H  H164  1  0.85122000  0.61858000  0.20268000  1.0 0.1194573533
H  H165  1  0.96908000  0.40455000  0.26013000  1.0 0.1293684491
H  H166  1  0.00406000  0.35839000  0.33709000  1.0 0.1094442501
H  H167  1  0.92341000  0.38438000  0.50893000  1.0 0.1020749826
H  H168  1  0.88844000  0.43055000  0.43196000  1.0 0.1293684491
H  H169  1  0.86790000  0.82112000  0.06556000  1.0 0.1194573533
H  H170  1  0.84741000  0.87290000  0.15401000  1.0 0.1194573533
H  H171  1  0.70692000  0.73007000  0.22112000  1.0 0.1094442501
H  H172  1  0.73139000  0.67321000  0.14831000  1.0 0.1194573533
H  H173  1  0.80737000  0.97623000  0.33846000  1.0 0.1423004528
H  H174  1  0.77523000  0.02930000  0.40884000  1.0 0.1020749826
H  H175  1  0.63237000  0.87621000  0.45315000  1.0 0.1020749826
H  H176  1  0.66538000  0.82986000  0.36467000  1.0 0.1423004528
H  H177  1  0.31089000  0.17528000  0.12567000  1.0 0.1094442501
H  H178  1  0.35951000  0.15718000  0.12604000  1.0 0.1020749826
H  H179  1  0.36164000  0.26882000  0.97270000  1.0 0.1020749826
H  H180  1  0.31393000  0.24501000  0.03512000  1.0 0.1194573533
H  H181  1  0.43604000  0.19661000  0.02999000  1.0 0.1020749826
H  H182  1  0.23235000  0.09615000  0.96781000  1.0 0.1020749826
H  H183  1  0.45908000  0.32539000  0.01998000  1.0 0.1194573533
H  H184  1  0.51978000  0.40656000  0.09166000  1.0 0.1194573533
H  H185  1  0.44212000  0.31381000  0.27436000  1.0 0.1094442501
H  H186  1  0.38142000  0.23264000  0.20268000  1.0 0.1194573533
H  H187  1  0.59545000  0.56453000  0.26013000  1.0 0.1293684491
H  H188  1  0.64161000  0.64567000  0.33709000  1.0 0.1094442501
H  H189  1  0.61562000  0.53903000  0.50893000  1.0 0.1020749826
H  H190  1  0.56945000  0.45789000  0.43196000  1.0 0.1293684491
H  H191  1  0.17888000  0.04678000  0.06556000  1.0 0.1194573533
H  H192  1  0.12710000  0.97451000  0.15401000  1.0 0.1194573533
H  H193  1  0.26993000  0.97685000  0.22112000  1.0 0.1094442501
H  H194  1  0.32679000  0.05818000  0.14831000  1.0 0.1194573533
H  H195  1  0.02377000  0.83114000  0.33846000  1.0 0.1423004528
H  H196  1  0.97070000  0.74593000  0.40884000  1.0 0.1020749826
H  H197  1  0.12379000  0.75616000  0.45315000  1.0 0.1020749826
H  H198  1  0.17014000  0.83552000  0.36467000  1.0 0.1423004528
H  H199  1  0.17528000  0.86439000  0.12567000  1.0 0.1094442501
H  H200  1  0.15718000  0.79767000  0.12604000  1.0 0.1020749826
H  H201  1  0.26882000  0.90718000  0.97270000  1.0 0.1020749826
H  H202  1  0.24501000  0.93108000  0.03512000  1.0 0.1194573533
H  H203  1  0.19661000  0.76057000  0.02999000  1.0 0.1020749826
H  H204  1  0.09615000  0.86380000  0.96781000  1.0 0.1020749826
H  H205  1  0.32539000  0.86631000  0.01998000  1.0 0.1194573533
H  H206  1  0.40656000  0.88678000  0.09166000  1.0 0.1194573533
H  H207  1  0.31381000  0.87169000  0.27436000  1.0 0.1094442501
H  H208  1  0.23264000  0.85122000  0.20268000  1.0 0.1194573533
H  H209  1  0.56453000  0.96908000  0.26013000  1.0 0.1293684491
H  H210  1  0.64567000  0.00406000  0.33709000  1.0 0.1094442501
H  H211  1  0.53903000  0.92341000  0.50893000  1.0 0.1020749826
H  H212  1  0.45789000  0.88844000  0.43196000  1.0 0.1293684491
H  H213  1  0.04678000  0.86790000  0.06556000  1.0 0.1194573533
H  H214  1  0.97451000  0.84741000  0.15401000  1.0 0.1194573533
H  H215  1  0.97685000  0.70692000  0.22112000  1.0 0.1094442501
H  H216  1  0.05818000  0.73139000  0.14831000  1.0 0.1194573533
H  H217  1  0.83114000  0.80737000  0.33846000  1.0 0.1423004528
H  H218  1  0.74593000  0.77523000  0.40884000  1.0 0.1020749826
H  H219  1  0.75616000  0.63237000  0.45315000  1.0 0.1020749826
H  H220  1  0.83552000  0.66538000  0.36467000  1.0 0.1423004528
H  H221  1  0.13561000  0.31089000  0.12567000  1.0 0.1094442501
H  H222  1  0.20233000  0.35951000  0.12604000  1.0 0.1020749826
H  H223  1  0.09282000  0.36164000  0.97270000  1.0 0.1020749826
H  H224  1  0.06892000  0.31393000  0.03512000  1.0 0.1194573533
H  H225  1  0.23943000  0.43604000  0.02999000  1.0 0.1094442501
H  H226  1  0.13620000  0.23235000  0.96781000  1.0 0.1020749826
H  H227  1  0.13369000  0.45908000  0.01998000  1.0 0.1194573533
H  H228  1  0.11322000  0.51978000  0.09166000  1.0 0.1194573533
H  H229  1  0.12831000  0.44212000  0.27436000  1.0 0.1094442501
H  H230  1  0.14878000  0.38142000  0.20268000  1.0 0.1194573533
H  H231  1  0.03092000  0.59545000  0.26013000  1.0 0.1293684491
H  H232  1  0.99594000  0.64161000  0.33709000  1.0 0.1094442501
H  H233  1  0.07659000  0.61562000  0.50893000  1.0 0.1020749826
H  H234  1  0.11156000  0.56945000  0.43196000  1.0 0.1194573533
H  H235  1  0.13210000  0.17888000  0.06556000  1.0 0.1194573533
H  H236  1  0.15259000  0.12710000  0.15401000  1.0 0.1194573533
H  H237  1  0.29308000  0.26993000  0.22112000  1.0 0.1094442501
H  H238  1  0.26861000  0.32679000  0.14831000  1.0 0.1194573533
H  H239  1  0.19263000  0.02377000  0.33846000  1.0 0.1423004528
H  H240  1  0.22477000  0.97070000  0.40884000  1.0 0.1020749826
H  H241  1  0.36763000  0.12379000  0.45315000  1.0 0.1020749826
H  H242  1  0.33462000  0.17014000  0.36467000  1.0 0.1423004528
H  H243  1  0.68911000  0.82472000  0.12567000  1.0 0.1094442501
H  H244  1  0.64049000  0.84282000  0.12604000  1.0 0.1020749826
H  H245  1  0.63836000  0.73118000  0.97270000  1.0 0.1020749826
H  H246  1  0.68607000  0.75499000  0.03512000  1.0 0.1194573533
H  H247  1  0.56396000  0.80339000  0.02999000  1.0 0.1094442501
H  H248  1  0.76765000  0.90385000  0.96781000  1.0 0.1020749826
H  H249  1  0.54092000  0.67461000  0.01998000  1.0 0.1194573533
H  H250  1  0.48022000  0.59344000  0.09166000  1.0 0.1293684491
H  H251  1  0.55788000  0.68619000  0.27436000  1.0 0.1094442501
H  H252  1  0.61858000  0.76736000  0.20268000  1.0 0.1194573533
H  H253  1  0.40455000  0.43547000  0.26013000  1.0 0.1293684491
H  H254  1  0.35839000  0.35433000  0.33709000  1.0 0.1094442501
H  H255  1  0.38438000  0.46097000  0.50893000  1.0 0.1020749826
H  H256  1  0.43055000  0.54211000  0.43196000  1.0 0.1293684491
H  H257  1  0.82112000  0.95322000  0.06556000  1.0 0.1194573533
H  H258  1  0.87290000  0.02549000  0.15401000  1.0 0.1194573533
H  H259  1  0.73007000  0.02315000  0.22112000  1.0 0.1094442501
H  H260  1  0.67321000  0.94182000  0.14831000  1.0 0.1194573533
H  H261  1  0.97623000  0.16886000  0.33846000  1.0 0.1423004528
H  H262  1  0.02930000  0.25407000  0.40884000  1.0 0.1020749826
H  H263  1  0.87621000  0.24384000  0.45315000  1.0 0.1020749826
H  H264  1  0.82986000  0.16448000  0.36467000  1.0 0.1423004528
C  C1  1  0.62460000  0.84520000  0.95100000  1.0 0.1543839728
C  C2  1  0.66440000  0.83110000  0.90550000  1.0 -0.2935139583
C  C3  1  0.70360000  0.81680000  0.95450000  1.0 0.1729676913
C  C4  1  0.66280000  0.89770000  0.99670000  1.0 -0.308080273
C  C5  1  0.58580000  0.85680000  0.89580000  1.0 0.0566740363
C  C6  1  0.54430000  0.86740000  0.92900000  1.0 -0.1502031535
C  C7  1  0.50800000  0.87970000  0.88610000  1.0 -0.1438211844
C  C8  1  0.51300000  0.88120000  0.80990000  1.0 0.1094442501
C  C9  1  0.55450000  0.87060000  0.77660000  1.0 -0.1586660759
C  C10  1  0.59080000  0.85830000  0.81960000  1.0 -0.1586660759
C  C11  1  0.48010000  0.89830000  0.76260000  1.0 -0.0910630918
C  C12  1  0.45480000  0.91140000  0.72050000  1.0 -0.0805883677
C  C13  1  0.42210000  0.92530000  0.66160000  1.0 0.1543839728
C  C14  1  0.40050000  0.95990000  0.69000000  1.0 -0.2031275508
C  C15  1  0.37290000  0.98090000  0.64390000  1.0 0.0500360171
C  C16  1  0.38840000  0.93250000  0.54090000  1.0 0.0334756924
C  C17  1  0.41610000  0.91160000  0.58710000  1.0 -0.2063943057
C  C18  1  0.74280000  0.80140000  0.90490000  1.0 0.0500360171
C  C19  1  0.80160000  0.83620000  0.90260000  1.0 -0.1502031535
C  C20  1  0.83250000  0.82260000  0.85000000  1.0 -0.1586660759
C  C21  1  0.80530000  0.77370000  0.80360000  1.0 0.1094442501
C  C22  1  0.74850000  0.74060000  0.80790000  1.0 -0.1331660949
C  C23  1  0.71400000  0.75340000  0.85390000  1.0 -0.1502031535
C  C24  1  0.84130000  0.76110000  0.75180000  1.0 -0.1331660949
C  C25  1  0.87110000  0.75330000  0.70440000  1.0 -0.1094492819
C  C26  1  0.89900000  0.73880000  0.65610000  1.0 0.1094442501
C  C27  1  0.95560000  0.77010000  0.64070000  1.0 -0.2031275508
C  C28  1  0.98860000  0.75200000  0.59480000  1.0 0.0791013381
C  C29  1  0.89890000  0.66790000  0.57120000  1.0 0.0200100093
C  C30  1  0.86970000  0.68900000  0.62490000  1.0 -0.2063943057
C  C31  1  0.22060000  0.37540000  0.95100000  1.0 0.155343605
C  C32  1  0.16670000  0.33560000  0.90550000  1.0 -0.2935139583
C  C33  1  0.11320000  0.29640000  0.95450000  1.0 0.1729676913
C  C34  1  0.23490000  0.33720000  0.99670000  1.0 -0.308080273
C  C35  1  0.27100000  0.41420000  0.89580000  1.0 0.0566740363
C  C36  1  0.32310000  0.45570000  0.92900000  1.0 -0.1502031535
C  C37  1  0.37170000  0.49200000  0.88610000  1.0 -0.1438211844
C  C38  1  0.36820000  0.48700000  0.80990000  1.0 0.1094442501
C  C39  1  0.31610000  0.44550000  0.77660000  1.0 -0.1586660759
C  C40  1  0.26750000  0.40920000  0.81960000  1.0 -0.1586660759
C  C41  1  0.41820000  0.51990000  0.76260000  1.0 -0.0910630918
C  C42  1  0.45660000  0.54520000  0.72050000  1.0 -0.0805883677
C  C43  1  0.50320000  0.57790000  0.66160000  1.0 0.155343605
C  C44  1  0.55940000  0.59950000  0.69000000  1.0 -0.2031275508
C  C45  1  0.60800000  0.62710000  0.64390000  1.0 0.0500360171
C  C46  1  0.54410000  0.61160000  0.54090000  1.0 0.0334756924
C  C47  1  0.49550000  0.58390000  0.58710000  1.0 -0.2063943057
C  C48  1  0.05860000  0.25720000  0.90490000  1.0 0.0500360171
C  C49  1  0.03460000  0.19840000  0.90260000  1.0 -0.1502031535
C  C50  1  0.99010000  0.16750000  0.85000000  1.0 -0.1586660759
C  C51  1  0.96840000  0.19470000  0.80360000  1.0 0.1094442501
C  C52  1  0.99210000  0.25150000  0.80790000  1.0 -0.1331660949
C  C53  1  0.03940000  0.28600000  0.85390000  1.0 -0.1502031535
C  C54  1  0.91980000  0.15870000  0.75180000  1.0 -0.1331660949
C  C55  1  0.88220000  0.12890000  0.70440000  1.0 -0.1094492819
C  C56  1  0.83980000  0.10100000  0.65610000  1.0 0.1094442501
C  C57  1  0.81450000  0.04440000  0.64070000  1.0 -0.2031275508
C  C58  1  0.76340000  0.01140000  0.59480000  1.0 0.0791013381
C  C59  1  0.76900000  0.10110000  0.57120000  1.0 0.0200100093
C  C60  1  0.81930000  0.13030000  0.62490000  1.0 -0.2063943057
C  C61  1  0.15480000  0.77940000  0.95100000  1.0 0.1543839728
C  C62  1  0.16890000  0.83330000  0.90550000  1.0 -0.2935139583
C  C63  1  0.18320000  0.88680000  0.95450000  1.0 0.1729676913
C  C64  1  0.10230000  0.76510000  0.99670000  1.0 -0.308080273
C  C65  1  0.14320000  0.72900000  0.89580000  1.0 0.0566740363
C  C66  1  0.13260000  0.67690000  0.92900000  1.0 -0.1502031535
C  C67  1  0.12030000  0.62830000  0.88610000  1.0 -0.1438211844
C  C68  1  0.11880000  0.63180000  0.80990000  1.0 0.1194573533
C  C69  1  0.12940000  0.68390000  0.77660000  1.0 -0.1586660759
C  C70  1  0.14170000  0.73250000  0.81960000  1.0 -0.1586660759
C  C71  1  0.10170000  0.58180000  0.76260000  1.0 -0.0910630918
C  C72  1  0.08860000  0.54340000  0.72050000  1.0 -0.0805883677
C  C73  1  0.07470000  0.49680000  0.66160000  1.0 0.1543839728
C  C74  1  0.04010000  0.44060000  0.69000000  1.0 -0.2031275508
C  C75  1  0.01910000  0.39200000  0.64390000  1.0 0.0500360171
C  C76  1  0.06750000  0.45590000  0.54090000  1.0 0.0334756924
C  C77  1  0.08840000  0.50450000  0.58710000  1.0 -0.2063943057
C  C78  1  0.19860000  0.94140000  0.90490000  1.0 0.0500360171
C  C79  1  0.16380000  0.96540000  0.90260000  1.0 -0.1502031535
C  C80  1  0.17740000  0.00990000  0.85000000  1.0 -0.1586660759
C  C81  1  0.22630000  0.03160000  0.80360000  1.0 0.1094442501
C  C82  1  0.25940000  0.00790000  0.80790000  1.0 -0.1331660949
C  C83  1  0.24660000  0.96060000  0.85390000  1.0 -0.1502031535
C  C84  1  0.23890000  0.08020000  0.75180000  1.0 -0.1331660949
C  C85  1  0.24670000  0.11780000  0.70440000  1.0 -0.1094492819
C  C86  1  0.26120000  0.16020000  0.65610000  1.0 0.1094442501
C  C87  1  0.22990000  0.18550000  0.64070000  1.0 -0.2031275508
C  C88  1  0.24800000  0.23660000  0.59480000  1.0 0.0791013381
C  C89  1  0.33210000  0.23100000  0.57120000  1.0 0.0200100093
C  C90  1  0.31100000  0.18070000  0.62490000  1.0 -0.2063943057
C  C91  1  0.37540000  0.15480000  0.95100000  1.0 0.1543839728
C  C92  1  0.33560000  0.16890000  0.90550000  1.0 -0.2935139583
C  C93  1  0.29640000  0.18320000  0.95450000  1.0 0.1729676913
C  C94  1  0.33720000  0.10230000  0.99670000  1.0 -0.308080273
C  C95  1  0.41420000  0.14320000  0.89580000  1.0 0.0566740363
C  C96  1  0.45570000  0.13260000  0.92900000  1.0 -0.1502031535
C  C97  1  0.49200000  0.12030000  0.88610000  1.0 -0.1438211844
C  C98  1  0.48700000  0.11880000  0.80990000  1.0 0.1194573533
C  C99  1  0.44550000  0.12940000  0.77660000  1.0 -0.1586660759
C  C100  1  0.40920000  0.14170000  0.81960000  1.0 -0.1586660759
C  C101  1  0.51990000  0.10170000  0.76260000  1.0 -0.0910630918
C  C102  1  0.54520000  0.08860000  0.72050000  1.0 -0.0805883677
C  C103  1  0.57790000  0.07470000  0.66160000  1.0 0.1543839728
C  C104  1  0.59950000  0.04010000  0.69000000  1.0 -0.2031275508
C  C105  1  0.62710000  0.01910000  0.64390000  1.0 0.0500360171
C  C106  1  0.61160000  0.06750000  0.54090000  1.0 0.0334756924
C  C107  1  0.58390000  0.08840000  0.58710000  1.0 -0.2063943057
C  C108  1  0.25720000  0.19860000  0.90490000  1.0 0.0500360171
C  C109  1  0.19840000  0.16380000  0.90260000  1.0 -0.1502031535
C  C110  1  0.16750000  0.17740000  0.85000000  1.0 -0.1586660759
C  C111  1  0.19470000  0.22630000  0.80360000  1.0 0.1094442501
C  C112  1  0.25150000  0.25940000  0.80790000  1.0 -0.1331660949
C  C113  1  0.28600000  0.24660000  0.85390000  1.0 -0.1502031535
C  C114  1  0.15870000  0.23890000  0.75180000  1.0 -0.1331660949
C  C115  1  0.12890000  0.24670000  0.70440000  1.0 -0.1094492819
C  C116  1  0.10100000  0.26120000  0.65610000  1.0 0.1094442501
C  C117  1  0.04440000  0.22990000  0.64070000  1.0 -0.2031275508
C  C118  1  0.01140000  0.24800000  0.59480000  1.0 0.0791013381
C  C119  1  0.10110000  0.33210000  0.57120000  1.0 0.0200100093
C  C120  1  0.13030000  0.31100000  0.62490000  1.0 -0.2063943057
C  C121  1  0.77940000  0.62460000  0.95100000  1.0 0.1543839728
C  C122  1  0.83330000  0.66440000  0.90550000  1.0 -0.2935139583
C  C123  1  0.88680000  0.70360000  0.95450000  1.0 0.1729676913
C  C124  1  0.76510000  0.66280000  0.99670000  1.0 -0.308080273
C  C125  1  0.72900000  0.58580000  0.89580000  1.0 0.0566740363
C  C126  1  0.67690000  0.54430000  0.92900000  1.0 -0.1502031535
C  C127  1  0.62830000  0.50800000  0.88610000  1.0 -0.1438211844
C  C128  1  0.63180000  0.51300000  0.80990000  1.0 0.1094442501
C  C129  1  0.68390000  0.55450000  0.77660000  1.0 -0.1586660759
C  C130  1  0.73250000  0.59080000  0.81960000  1.0 -0.1586660759
C  C131  1  0.58180000  0.48010000  0.76260000  1.0 -0.0910630918
C  C132  1  0.54340000  0.45480000  0.72050000  1.0 -0.0805883677
C  C133  1  0.49680000  0.42210000  0.66160000  1.0 0.155343605
C  C134  1  0.44060000  0.40050000  0.69000000  1.0 -0.2031275508
C  C135  1  0.39200000  0.37290000  0.64390000  1.0 0.0500360171
C  C136  1  0.45590000  0.38840000  0.54090000  1.0 0.0334756924
C  C137  1  0.50450000  0.41610000  0.58710000  1.0 -0.2063943057
C  C138  1  0.94140000  0.74280000  0.90490000  1.0 0.0500360171
C  C139  1  0.96540000  0.80160000  0.90260000  1.0 -0.1502031535
C  C140  1  0.00990000  0.83250000  0.85000000  1.0 -0.1586660759
C  C141  1  0.03160000  0.80530000  0.80360000  1.0 0.1094442501
C  C142  1  0.00790000  0.74850000  0.80790000  1.0 -0.1331660949
C  C143  1  0.96060000  0.71400000  0.85390000  1.0 -0.1502031535
C  C144  1  0.08020000  0.84130000  0.75180000  1.0 -0.1331660949
C  C145  1  0.11780000  0.87110000  0.70440000  1.0 -0.1094492819
C  C146  1  0.16020000  0.89900000  0.65610000  1.0 0.1094442501
C  C147  1  0.18550000  0.95560000  0.64070000  1.0 -0.2031275508
C  C148  1  0.23660000  0.98860000  0.59480000  1.0 0.0791013381
C  C149  1  0.23100000  0.89890000  0.57120000  1.0 0.0200100093
C  C150  1  0.18070000  0.86970000  0.62490000  1.0 -0.2063943057
C  C151  1  0.84520000  0.22060000  0.95100000  1.0 0.1543839728
C  C152  1  0.83110000  0.16670000  0.90550000  1.0 -0.2935139583
C  C153  1  0.81680000  0.11320000  0.95450000  1.0 0.1729676913
C  C154  1  0.89770000  0.23490000  0.99670000  1.0 -0.308080273
C  C155  1  0.85680000  0.27100000  0.89580000  1.0 0.0566740363
C  C156  1  0.86740000  0.32310000  0.92900000  1.0 -0.1502031535
C  C157  1  0.87970000  0.37170000  0.88610000  1.0 -0.1438211844
C  C158  1  0.88120000  0.36820000  0.80990000  1.0 0.1194573533
C  C159  1  0.87060000  0.31610000  0.77660000  1.0 -0.1586660759
C  C160  1  0.85830000  0.26750000  0.81960000  1.0 -0.1586660759
C  C161  1  0.89830000  0.41820000  0.76260000  1.0 -0.0910630918
C  C162  1  0.91140000  0.45660000  0.72050000  1.0 -0.0805883677
C  C163  1  0.92530000  0.50320000  0.66160000  1.0 0.1543839728
C  C164  1  0.95990000  0.55940000  0.69000000  1.0 -0.2031275508
C  C165  1  0.98090000  0.60800000  0.64390000  1.0 0.0500360171
C  C166  1  0.93250000  0.54410000  0.54090000  1.0 0.0334756924
C  C167  1  0.91160000  0.49550000  0.58710000  1.0 -0.2063943057
C  C168  1  0.80140000  0.05860000  0.90490000  1.0 0.0500360171
C  C169  1  0.83620000  0.03460000  0.90260000  1.0 -0.1502031535
C  C170  1  0.82260000  0.99010000  0.85000000  1.0 -0.1586660759
C  C171  1  0.77370000  0.96840000  0.80360000  1.0 0.1094442501
C  C172  1  0.74060000  0.99210000  0.80790000  1.0 -0.1331660949
C  C173  1  0.75340000  0.03940000  0.85390000  1.0 -0.1502031535
C  C174  1  0.76110000  0.91980000  0.75180000  1.0 -0.1331660949
C  C175  1  0.75330000  0.88220000  0.70440000  1.0 -0.1094492819
C  C176  1  0.73880000  0.83980000  0.65610000  1.0 0.1094442501
C  C177  1  0.77010000  0.81450000  0.64070000  1.0 -0.2031275508
C  C178  1  0.75200000  0.76340000  0.59480000  1.0 0.0791013381
C  C179  1  0.66790000  0.76900000  0.57120000  1.0 0.0200100093
C  C180  1  0.68900000  0.81930000  0.62490000  1.0 -0.2063943057
C  C181  1  0.77940000  0.15480000  0.04900000  1.0 0.1543839728
C  C182  1  0.83330000  0.16890000  0.09450000  1.0 -0.2935139583
C  C183  1  0.88680000  0.18320000  0.04550000  1.0 0.1729676913
C  C184  1  0.76510000  0.10230000  0.00330000  1.0 -0.308080273
C  C185  1  0.72900000  0.14320000  0.10420000  1.0 0.0566740363
C  C186  1  0.67690000  0.13260000  0.07100000  1.0 -0.1502031535
C  C187  1  0.62830000  0.12030000  0.11390000  1.0 -0.1438211844
C  C188  1  0.63180000  0.11880000  0.19010000  1.0 0.1194573533
C  C189  1  0.68390000  0.12940000  0.22340000  1.0 -0.1586660759
C  C190  1  0.73250000  0.14170000  0.18040000  1.0 -0.1586660759
C  C191  1  0.58180000  0.10170000  0.23740000  1.0 -0.0910630918
C  C192  1  0.54340000  0.08860000  0.27950000  1.0 -0.0805883677
C  C193  1  0.49680000  0.07470000  0.33840000  1.0 0.155343605
C  C194  1  0.44060000  0.04010000  0.31000000  1.0 -0.2031275508
C  C195  1  0.39200000  0.01910000  0.35610000  1.0 0.0500360171
C  C196  1  0.45590000  0.06750000  0.45910000  1.0 0.0334756924
C  C197  1  0.50450000  0.08840000  0.41290000  1.0 -0.2063943057
C  C198  1  0.94140000  0.19860000  0.09510000  1.0 0.0500360171
C  C199  1  0.96540000  0.16380000  0.09740000  1.0 -0.1502031535
C  C200  1  0.00990000  0.17740000  0.15000000  1.0 -0.1586660759
C  C201  1  0.03160000  0.22630000  0.19640000  1.0 0.1094442501
C  C202  1  0.00790000  0.25940000  0.19210000  1.0 -0.1331660949
C  C203  1  0.96060000  0.24660000  0.14610000  1.0 -0.1502031535
C  C204  1  0.08020000  0.23890000  0.24820000  1.0 -0.1331660949
C  C205  1  0.11780000  0.24670000  0.29560000  1.0 -0.1094492819
C  C206  1  0.16020000  0.26120000  0.34390000  1.0 0.1094442501
C  C207  1  0.18550000  0.22990000  0.35930000  1.0 -0.2031275508
C  C208  1  0.23660000  0.24800000  0.40520000  1.0 0.0791013381
C  C209  1  0.23100000  0.33210000  0.42880000  1.0 0.0200100093
C  C210  1  0.18070000  0.31100000  0.37510000  1.0 -0.2063943057
C  C211  1  0.84520000  0.62460000  0.04900000  1.0 0.1543839728
C  C212  1  0.83110000  0.66440000  0.09450000  1.0 -0.2935139583
C  C213  1  0.81680000  0.70360000  0.04550000  1.0 0.1729676913
C  C214  1  0.89770000  0.66280000  0.00330000  1.0 -0.308080273
C  C215  1  0.85680000  0.58580000  0.10420000  1.0 0.0566740363
C  C216  1  0.86740000  0.54430000  0.07100000  1.0 -0.1502031535
C  C217  1  0.87970000  0.50800000  0.11390000  1.0 -0.1438211844
C  C218  1  0.88120000  0.51300000  0.19010000  1.0 0.1094442501
C  C219  1  0.87060000  0.55450000  0.22340000  1.0 -0.1586660759
C  C220  1  0.85830000  0.59080000  0.18040000  1.0 -0.1586660759
C  C221  1  0.89830000  0.48010000  0.23740000  1.0 -0.0910630918
C  C222  1  0.91140000  0.45480000  0.27950000  1.0 -0.0805883677
C  C223  1  0.92530000  0.42210000  0.33840000  1.0 0.1543839728
C  C224  1  0.95990000  0.40050000  0.31000000  1.0 -0.2031275508
C  C225  1  0.98090000  0.37290000  0.35610000  1.0 0.0500360171
C  C226  1  0.93250000  0.38840000  0.45910000  1.0 0.0334756924
C  C227  1  0.91160000  0.41610000  0.41290000  1.0 -0.2063943057
C  C228  1  0.80140000  0.74280000  0.09510000  1.0 0.0500360171
C  C229  1  0.83620000  0.80160000  0.09740000  1.0 -0.1502031535
C  C230  1  0.82260000  0.83250000  0.15000000  1.0 -0.1586660759
C  C231  1  0.77370000  0.80530000  0.19640000  1.0 0.1094442501
C  C232  1  0.74060000  0.74850000  0.19210000  1.0 -0.1331660949
C  C233  1  0.75340000  0.71400000  0.14610000  1.0 -0.1502031535
C  C234  1  0.76110000  0.84130000  0.24820000  1.0 -0.1331660949
C  C235  1  0.75330000  0.87110000  0.29560000  1.0 -0.1094492819
C  C236  1  0.73880000  0.89900000  0.34390000  1.0 0.1094442501
C  C237  1  0.77010000  0.95560000  0.35930000  1.0 -0.2031275508
C  C238  1  0.75200000  0.98860000  0.40520000  1.0 0.0791013381
C  C239  1  0.66790000  0.89890000  0.42880000  1.0 0.0200100093
C  C240  1  0.68900000  0.86970000  0.37510000  1.0 -0.2063943057
C  C241  1  0.37540000  0.22060000  0.04900000  1.0 0.1543839728
C  C242  1  0.33560000  0.16670000  0.09450000  1.0 -0.2935139583
C  C243  1  0.29640000  0.11320000  0.04550000  1.0 0.1729676913
C  C244  1  0.33720000  0.23490000  0.00330000  1.0 -0.308080273
C  C245  1  0.41420000  0.27100000  0.10420000  1.0 0.0566740363
C  C246  1  0.45570000  0.32310000  0.07100000  1.0 -0.1502031535
C  C247  1  0.49200000  0.37170000  0.11390000  1.0 -0.1438211844
C  C248  1  0.48700000  0.36820000  0.19010000  1.0 0.1194573533
C  C249  1  0.44550000  0.31610000  0.22340000  1.0 -0.1586660759
C  C250  1  0.40920000  0.26750000  0.18040000  1.0 -0.1586660759
C  C251  1  0.51990000  0.41820000  0.23740000  1.0 -0.0910630918
C  C252  1  0.54520000  0.45660000  0.27950000  1.0 -0.0805883677
C  C253  1  0.57790000  0.50320000  0.33840000  1.0 0.155343605
C  C254  1  0.59950000  0.55940000  0.31000000  1.0 -0.2031275508
C  C255  1  0.62710000  0.60800000  0.35610000  1.0 0.0500360171
C  C256  1  0.61160000  0.54410000  0.45910000  1.0 0.0334756924
C  C257  1  0.58390000  0.49550000  0.41290000  1.0 -0.2063943057
C  C258  1  0.25720000  0.05860000  0.09510000  1.0 0.0500360171
C  C259  1  0.19840000  0.03460000  0.09740000  1.0 -0.1502031535
C  C260  1  0.16750000  0.99010000  0.15000000  1.0 -0.1586660759
C  C261  1  0.19470000  0.96840000  0.19640000  1.0 0.1094442501
C  C262  1  0.25150000  0.99210000  0.19210000  1.0 -0.1331660949
C  C263  1  0.28600000  0.03940000  0.14610000  1.0 -0.1502031535
C  C264  1  0.15870000  0.91980000  0.24820000  1.0 -0.1331660949
C  C265  1  0.12890000  0.88220000  0.29560000  1.0 -0.1094492819
C  C266  1  0.10100000  0.83980000  0.34390000  1.0 0.1094442501
C  C267  1  0.04440000  0.81450000  0.35930000  1.0 -0.2031275508
C  C268  1  0.01140000  0.76340000  0.40520000  1.0 0.0791013381
C  C269  1  0.10110000  0.76900000  0.42880000  1.0 0.0200100093
C  C270  1  0.13030000  0.81930000  0.37510000  1.0 -0.2063943057
C  C271  1  0.22060000  0.84520000  0.04900000  1.0 0.1543839728
C  C272  1  0.16670000  0.83110000  0.09450000  1.0 -0.2935139583
C  C273  1  0.11320000  0.81680000  0.04550000  1.0 0.1729676913
C  C274  1  0.23490000  0.89770000  0.00330000  1.0 -0.308080273
C  C275  1  0.27100000  0.85680000  0.10420000  1.0 0.0566740363
C  C276  1  0.32310000  0.86740000  0.07100000  1.0 -0.1502031535
C  C277  1  0.37170000  0.87970000  0.11390000  1.0 -0.1438211844
C  C278  1  0.36820000  0.88120000  0.19010000  1.0 0.1094442501
C  C279  1  0.31610000  0.87060000  0.22340000  1.0 -0.1586660759
C  C280  1  0.26750000  0.85830000  0.18040000  1.0 -0.1586660759
C  C281  1  0.41820000  0.89830000  0.23740000  1.0 -0.0910630918
C  C282  1  0.45660000  0.91140000  0.27950000  1.0 -0.0805883677
C  C283  1  0.50320000  0.92530000  0.33840000  1.0 0.1543839728
C  C284  1  0.55940000  0.95990000  0.31000000  1.0 -0.2031275508
C  C285  1  0.60800000  0.98090000  0.35610000  1.0 0.0500360171
C  C286  1  0.54410000  0.93250000  0.45910000  1.0 0.0334756924
C  C287  1  0.49550000  0.91160000  0.41290000  1.0 -0.2063943057
C  C288  1  0.05860000  0.80140000  0.09510000  1.0 0.0500360171
C  C289  1  0.03460000  0.83620000  0.09740000  1.0 -0.1502031535
C  C290  1  0.99010000  0.82260000  0.15000000  1.0 -0.1586660759
C  C291  1  0.96840000  0.77370000  0.19640000  1.0 0.1094442501
C  C292  1  0.99210000  0.74060000  0.19210000  1.0 -0.1331660949
C  C293  1  0.03940000  0.75340000  0.14610000  1.0 -0.1502031535
C  C294  1  0.91980000  0.76110000  0.24820000  1.0 -0.1331660949
C  C295  1  0.88220000  0.75330000  0.29560000  1.0 -0.1094492819
C  C296  1  0.83980000  0.73880000  0.34390000  1.0 0.1094442501
C  C297  1  0.81450000  0.77010000  0.35930000  1.0 -0.2031275508
C  C298  1  0.76340000  0.75200000  0.40520000  1.0 0.0791013381
C  C299  1  0.76900000  0.66790000  0.42880000  1.0 0.0200100093
C  C300  1  0.81930000  0.68900000  0.37510000  1.0 -0.2063943057
C  C301  1  0.15480000  0.37540000  0.04900000  1.0 0.155343605
C  C302  1  0.16890000  0.33560000  0.09450000  1.0 -0.2935139583
C  C303  1  0.18320000  0.29640000  0.04550000  1.0 0.1729676913
C  C304  1  0.10230000  0.33720000  0.00330000  1.0 -0.308080273
C  C305  1  0.14320000  0.41420000  0.10420000  1.0 0.0566740363
C  C306  1  0.13260000  0.45570000  0.07100000  1.0 -0.1502031535
C  C307  1  0.12030000  0.49200000  0.11390000  1.0 -0.1438211844
C  C308  1  0.11880000  0.48700000  0.19010000  1.0 0.1094442501
C  C309  1  0.12940000  0.44550000  0.22340000  1.0 -0.1586660759
C  C310  1  0.14170000  0.40920000  0.18040000  1.0 -0.1586660759
C  C311  1  0.10170000  0.51990000  0.23740000  1.0 -0.0910630918
C  C312  1  0.08860000  0.54520000  0.27950000  1.0 -0.0805883677
C  C313  1  0.07470000  0.57790000  0.33840000  1.0 0.1543839728
C  C314  1  0.04010000  0.59950000  0.31000000  1.0 -0.2031275508
C  C315  1  0.01910000  0.62710000  0.35610000  1.0 0.0500360171
C  C316  1  0.06750000  0.61160000  0.45910000  1.0 0.0334756924
C  C317  1  0.08840000  0.58390000  0.41290000  1.0 -0.2063943057
C  C318  1  0.19860000  0.25720000  0.09510000  1.0 0.0500360171
C  C319  1  0.16380000  0.19840000  0.09740000  1.0 -0.1502031535
C  C320  1  0.17740000  0.16750000  0.15000000  1.0 -0.1586660759
C  C321  1  0.22630000  0.19470000  0.19640000  1.0 0.1094442501
C  C322  1  0.25940000  0.25150000  0.19210000  1.0 -0.1331660949
C  C323  1  0.24660000  0.28600000  0.14610000  1.0 -0.1502031535
C  C324  1  0.23890000  0.15870000  0.24820000  1.0 -0.1331660949
C  C325  1  0.24670000  0.12890000  0.29560000  1.0 -0.1094492819
C  C326  1  0.26120000  0.10100000  0.34390000  1.0 0.1094442501
C  C327  1  0.22990000  0.04440000  0.35930000  1.0 -0.2031275508
C  C328  1  0.24800000  0.01140000  0.40520000  1.0 0.0791013381
C  C329  1  0.33210000  0.10110000  0.42880000  1.0 0.0200100093
C  C330  1  0.31100000  0.13030000  0.37510000  1.0 -0.2063943057
C  C331  1  0.62460000  0.77940000  0.04900000  1.0 0.1543839728
C  C332  1  0.66440000  0.83330000  0.09450000  1.0 -0.2935139583
C  C333  1  0.70360000  0.88680000  0.04550000  1.0 0.1729676913
C  C334  1  0.66280000  0.76510000  0.00330000  1.0 -0.308080273
C  C335  1  0.58580000  0.72900000  0.10420000  1.0 0.0566740363
C  C336  1  0.54430000  0.67690000  0.07100000  1.0 -0.1502031535
C  C337  1  0.50800000  0.62830000  0.11390000  1.0 -0.1438211844
C  C338  1  0.51300000  0.63180000  0.19010000  1.0 0.1094442501
C  C339  1  0.55450000  0.68390000  0.22340000  1.0 -0.1586660759
C  C340  1  0.59080000  0.73250000  0.18040000  1.0 -0.1586660759
C  C341  1  0.48010000  0.58180000  0.23740000  1.0 -0.0910630918
C  C342  1  0.45480000  0.54340000  0.27950000  1.0 -0.0805883677
C  C343  1  0.42210000  0.49680000  0.33840000  1.0 0.155343605
C  C344  1  0.40050000  0.44060000  0.31000000  1.0 -0.2031275508
C  C345  1  0.37290000  0.39200000  0.35610000  1.0 0.0500360171
C  C346  1  0.38840000  0.45590000  0.45910000  1.0 0.0334756924
C  C347  1  0.41610000  0.50450000  0.41290000  1.0 -0.2063943057
C  C348  1  0.74280000  0.94140000  0.09510000  1.0 0.0500360171
C  C349  1  0.80160000  0.96540000  0.09740000  1.0 -0.1502031535
C  C350  1  0.83250000  0.00990000  0.15000000  1.0 -0.1586660759
C  C351  1  0.80530000  0.03160000  0.19640000  1.0 0.1020749826
C  C352  1  0.74850000  0.00790000  0.19210000  1.0 -0.1331660949
C  C353  1  0.71400000  0.96060000  0.14610000  1.0 -0.1502031535
C  C354  1  0.84130000  0.08020000  0.24820000  1.0 -0.1331660949
C  C355  1  0.87110000  0.11780000  0.29560000  1.0 -0.1094492819
C  C356  1  0.89900000  0.16020000  0.34390000  1.0 0.1094442501
C  C357  1  0.95560000  0.18550000  0.35930000  1.0 -0.2031275508
C  C358  1  0.98860000  0.23660000  0.40520000  1.0 0.0791013381
C  C359  1  0.89890000  0.23100000  0.42880000  1.0 0.0200100093
C  C360  1  0.86970000  0.18070000  0.37510000  1.0 -0.2063943057
C  C361  1  0.58910000  0.79455000  0.00000000  1.0 -0.2967701526
C  C362  1  0.74270000  0.87135000  0.00000000  1.0 -0.3305260908
C  C363  1  0.20545000  0.41090000  0.00000000  1.0 -0.2967701526
C  C364  1  0.12865000  0.25730000  0.00000000  1.0 -0.3305260908
C  C365  1  0.20545000  0.79455000  0.00000000  1.0 -0.2967701526
C  C366  1  0.12865000  0.87135000  0.00000000  1.0 -0.3305260908
C  C367  1  0.41090000  0.20545000  0.00000000  1.0 -0.2967701526
C  C368  1  0.25730000  0.12865000  0.00000000  1.0 -0.3305260908
C  C369  1  0.79455000  0.58910000  0.00000000  1.0 -0.2967701526
C  C370  1  0.87135000  0.74270000  0.00000000  1.0 -0.3305260908
C  C371  1  0.79455000  0.20545000  0.00000000  1.0 -0.2967701526
C  C372  1  0.87135000  0.12865000  0.00000000  1.0 -0.3305260908
N  N1  1  0.95950000  0.70080000  0.55700000  1.0 -0.2407648264
N  N2  1  0.36680000  0.96720000  0.56940000  1.0 -0.246111139
N  N3  1  0.74130000  0.04050000  0.55700000  1.0 -0.2407648264
N  N4  1  0.60040000  0.63320000  0.56940000  1.0 -0.246111139
N  N5  1  0.29920000  0.25870000  0.55700000  1.0 -0.2407648264
N  N6  1  0.03280000  0.39960000  0.56940000  1.0 -0.246111139
N  N7  1  0.04050000  0.29920000  0.55700000  1.0 -0.2407648264
N  N8  1  0.63320000  0.03280000  0.56940000  1.0 -0.246111139
N  N9  1  0.25870000  0.95950000  0.55700000  1.0 -0.2407648264
N  N10  1  0.39960000  0.36680000  0.56940000  1.0 -0.246111139
N  N11  1  0.70080000  0.74130000  0.55700000  1.0 -0.2407648264
N  N12  1  0.96720000  0.60040000  0.56940000  1.0 -0.2407648264
N  N13  1  0.25870000  0.29920000  0.44300000  1.0 -0.2407648264
N  N14  1  0.39960000  0.03280000  0.43060000  1.0 -0.246111139
N  N15  1  0.70080000  0.95950000  0.44300000  1.0 -0.2407648264
N  N16  1  0.96720000  0.36680000  0.43060000  1.0 -0.246111139
N  N17  1  0.04050000  0.74130000  0.44300000  1.0 -0.2407648264
N  N18  1  0.63320000  0.60040000  0.43060000  1.0 -0.246111139
N  N19  1  0.74130000  0.70080000  0.44300000  1.0 -0.2407648264
N  N20  1  0.60040000  0.96720000  0.43060000  1.0 -0.246111139
N  N21  1  0.29920000  0.04050000  0.44300000  1.0 -0.2407648264
N  N22  1  0.03280000  0.63320000  0.43060000  1.0 -0.246111139
N  N23  1  0.95950000  0.25870000  0.44300000  1.0 -0.2407648264
N  N24  1  0.36680000  0.39960000  0.43060000  1.0 -0.246111139
