# DDEC6 charges by PACMAN v1.1 (https://github.com/mtap-research/PACMAN-charge/)
data_XULCIR_FSR_pacman
_symmetry_space_group_name_H-M   'P 1'
_cell_length_a   11.62840000
_cell_length_b   16.31480000
_cell_length_c   17.88610000
_cell_angle_alpha   90.00000000
_cell_angle_beta   90.00000000
_cell_angle_gamma   90.00000000
_symmetry_Int_Tables_number   1
_chemical_formula_structural   Mn3Fe2H32C42(N9O2)2
_chemical_formula_sum   'Mn6 Fe4 H64 C84 N36 O8'
_cell_volume   3393.26182495
_cell_formula_units_Z   2
loop_
 _symmetry_equiv_pos_site_id
 _symmetry_equiv_pos_as_xyz
  1  'x, y, z'
loop_
 _atom_site_type_symbol
 _atom_site_label
 _atom_site_symmetry_multiplicity
 _atom_site_fract_x
 _atom_site_fract_y
 _atom_site_fract_z
 _atom_site_occupancy
 _atom_site_charge
Mn  Mn1  1  0.50000000  0.88958000  0.81827000  1.0 0.846406803
Mn  Mn2  1  0.50000000  0.11042000  0.18173000  1.0 0.846406803
Mn  Mn3  1  0.50000000  0.38958000  0.68173000  1.0 0.846406803
Mn  Mn4  1  0.50000000  0.61042000  0.31827000  1.0 0.846406803
Mn  Mn5  1  0.50000000  0.50000000  0.00000000  1.0 0.8564802562
Mn  Mn6  1  0.50000000  0.00000000  0.50000000  1.0 0.8564802562
Fe  Fe1  1  0.50000000  0.80206000  0.09956000  1.0 0.1106299259
Fe  Fe2  1  0.50000000  0.19794000  0.90044000  1.0 0.1106299259
Fe  Fe3  1  0.50000000  0.30206000  0.40044000  1.0 0.1106299259
Fe  Fe4  1  0.50000000  0.69794000  0.59956000  1.0 0.1106299259
H  H1  1  0.71600000  0.82790000  0.72390000  1.0 0.116119865
H  H2  1  0.71600000  0.17210000  0.27610000  1.0 0.116119865
H  H3  1  0.28400000  0.32790000  0.77610000  1.0 0.116119865
H  H4  1  0.28400000  0.67210000  0.22390000  1.0 0.116119865
H  H5  1  0.28400000  0.17210000  0.27610000  1.0 0.116119865
H  H6  1  0.28400000  0.82790000  0.72390000  1.0 0.116119865
H  H7  1  0.71600000  0.67210000  0.22390000  1.0 0.116119865
H  H8  1  0.71600000  0.32790000  0.77610000  1.0 0.116119865
H  H9  1  0.91140000  0.83210000  0.71760000  1.0 0.140254606
H  H10  1  0.91140000  0.16790000  0.28240000  1.0 0.140254606
H  H11  1  0.08860000  0.33210000  0.78240000  1.0 0.140254606
H  H12  1  0.08860000  0.66790000  0.21760000  1.0 0.140254606
H  H13  1  0.08860000  0.16790000  0.28240000  1.0 0.140254606
H  H14  1  0.08860000  0.83210000  0.71760000  1.0 0.140254606
H  H15  1  0.91140000  0.66790000  0.21760000  1.0 0.140254606
H  H16  1  0.91140000  0.33210000  0.78240000  1.0 0.140254606
H  H17  1  0.71410000  0.95880000  0.90450000  1.0 0.1261554812
H  H18  1  0.71410000  0.04120000  0.09550000  1.0 0.1261554812
H  H19  1  0.28590000  0.45880000  0.59550000  1.0 0.1261554812
H  H20  1  0.28590000  0.54120000  0.40450000  1.0 0.1261554812
H  H21  1  0.28590000  0.04120000  0.09550000  1.0 0.1261554812
H  H22  1  0.28590000  0.95880000  0.90450000  1.0 0.1261554812
H  H23  1  0.71410000  0.54120000  0.40450000  1.0 0.1261554812
H  H24  1  0.71410000  0.45880000  0.59550000  1.0 0.1261554812
H  H25  1  0.91030000  0.96640000  0.90450000  1.0 0.140254606
H  H26  1  0.91030000  0.03360000  0.09550000  1.0 0.140254606
H  H27  1  0.08970000  0.46640000  0.59550000  1.0 0.140254606
H  H28  1  0.08970000  0.53360000  0.40450000  1.0 0.140254606
H  H29  1  0.08970000  0.03360000  0.09550000  1.0 0.140254606
H  H30  1  0.08970000  0.96640000  0.90450000  1.0 0.140254606
H  H31  1  0.91030000  0.53360000  0.40450000  1.0 0.140254606
H  H32  1  0.91030000  0.46640000  0.59550000  1.0 0.140254606
H  H33  1  0.28450000  0.57470000  0.08240000  1.0 0.116119865
H  H34  1  0.28450000  0.42530000  0.91760000  1.0 0.116119865
H  H35  1  0.71550000  0.07470000  0.41760000  1.0 0.116119865
H  H36  1  0.71550000  0.92530000  0.58240000  1.0 0.116119865
H  H37  1  0.71550000  0.42530000  0.91760000  1.0 0.116119865
H  H38  1  0.71550000  0.57470000  0.08240000  1.0 0.116119865
H  H39  1  0.28450000  0.92530000  0.58240000  1.0 0.116119865
H  H40  1  0.28450000  0.07470000  0.41760000  1.0 0.116119865
H  H41  1  0.08900000  0.57640000  0.08530000  1.0 0.140254606
H  H42  1  0.08900000  0.42360000  0.91470000  1.0 0.140254606
H  H43  1  0.91100000  0.07640000  0.41470000  1.0 0.140254606
H  H44  1  0.91100000  0.92360000  0.58530000  1.0 0.140254606
H  H45  1  0.91100000  0.42360000  0.91470000  1.0 0.140254606
H  H46  1  0.91100000  0.57640000  0.08530000  1.0 0.140254606
H  H47  1  0.08900000  0.92360000  0.58530000  1.0 0.140254606
H  H48  1  0.08900000  0.07640000  0.41470000  1.0 0.140254606
H  H49  1  0.50000000  0.98940000  0.68640000  1.0 0.3790902798
H  H50  1  0.50000000  0.01060000  0.31360000  1.0 0.3790902798
H  H51  1  0.50000000  0.48940000  0.81360000  1.0 0.3790902798
H  H52  1  0.50000000  0.51060000  0.18640000  1.0 0.3790902798
H  H53  1  0.50000000  0.89820000  0.66920000  1.0 0.3790902798
H  H54  1  0.50000000  0.10180000  0.33080000  1.0 0.3790902798
H  H55  1  0.50000000  0.39820000  0.83080000  1.0 0.3790902798
H  H56  1  0.50000000  0.60180000  0.16920000  1.0 0.3790902798
H  H57  1  0.43350000  0.40130000  0.12320000  1.0 0.4211097513
H  H58  1  0.43350000  0.59870000  0.87680000  1.0 0.4211097513
H  H59  1  0.56650000  0.90130000  0.37680000  1.0 0.4211097513
H  H60  1  0.56650000  0.09870000  0.62320000  1.0 0.4211097513
H  H61  1  0.56650000  0.59870000  0.87680000  1.0 0.4211097513
H  H62  1  0.56650000  0.40130000  0.12320000  1.0 0.4211097513
H  H63  1  0.43350000  0.09870000  0.62320000  1.0 0.4211097513
H  H64  1  0.43350000  0.90130000  0.37680000  1.0 0.4211097513
C  C1  1  0.33100000  0.80270000  0.09840000  1.0 -0.0515573802
C  C2  1  0.33100000  0.19730000  0.90160000  1.0 -0.0515573802
C  C3  1  0.66900000  0.30270000  0.40160000  1.0 -0.0515573802
C  C4  1  0.66900000  0.69730000  0.59840000  1.0 -0.0515573802
C  C5  1  0.66900000  0.19730000  0.90160000  1.0 -0.0515573802
C  C6  1  0.66900000  0.80270000  0.09840000  1.0 -0.0515573802
C  C7  1  0.33100000  0.69730000  0.59840000  1.0 -0.0515573802
C  C8  1  0.33100000  0.30270000  0.40160000  1.0 -0.0515573802
C  C9  1  0.50000000  0.83560000  0.99620000  1.0 0.1106299259
C  C10  1  0.50000000  0.16440000  0.00380000  1.0 0.1106299259
C  C11  1  0.50000000  0.33560000  0.50380000  1.0 0.1106299259
C  C12  1  0.50000000  0.66440000  0.49620000  1.0 0.1106299259
C  C13  1  0.50000000  0.68970000  0.06630000  1.0 0.0880943038
C  C14  1  0.50000000  0.31030000  0.93370000  1.0 0.0880943038
C  C15  1  0.50000000  0.18970000  0.43370000  1.0 0.0880943038
C  C16  1  0.50000000  0.81030000  0.56630000  1.0 0.0880943038
C  C17  1  0.50000000  0.76160000  0.20190000  1.0 0.0768070076
C  C18  1  0.50000000  0.23840000  0.79810000  1.0 0.0768070076
C  C19  1  0.50000000  0.26160000  0.29810000  1.0 0.0768070076
C  C20  1  0.50000000  0.73840000  0.70190000  1.0 0.0768070076
C  C21  1  0.50000000  0.91440000  0.13260000  1.0 0.0880943038
C  C22  1  0.50000000  0.08560000  0.86740000  1.0 0.0880943038
C  C23  1  0.50000000  0.41440000  0.36740000  1.0 0.0880943038
C  C24  1  0.50000000  0.58560000  0.63260000  1.0 0.0880943038
C  C25  1  0.75580000  0.85610000  0.76090000  1.0 0.0880943038
C  C26  1  0.75580000  0.14390000  0.23910000  1.0 0.0880943038
C  C27  1  0.24420000  0.35610000  0.73910000  1.0 0.0880943038
C  C28  1  0.24420000  0.64390000  0.26090000  1.0 0.0880943038
C  C29  1  0.24420000  0.14390000  0.23910000  1.0 0.0880943038
C  C30  1  0.24420000  0.85610000  0.76090000  1.0 0.0880943038
C  C31  1  0.75580000  0.64390000  0.26090000  1.0 0.0880943038
C  C32  1  0.75580000  0.35610000  0.73910000  1.0 0.0880943038
C  C33  1  0.87350000  0.85820000  0.75670000  1.0 -0.1868280224
C  C34  1  0.87350000  0.14180000  0.24330000  1.0 -0.1868280224
C  C35  1  0.12650000  0.35820000  0.74330000  1.0 -0.1868280224
C  C36  1  0.12650000  0.64180000  0.25670000  1.0 -0.1868280224
C  C37  1  0.12650000  0.14180000  0.24330000  1.0 -0.1868280224
C  C38  1  0.12650000  0.85820000  0.75670000  1.0 -0.1868280224
C  C39  1  0.87350000  0.64180000  0.25670000  1.0 -0.1868280224
C  C40  1  0.87350000  0.35820000  0.74330000  1.0 -0.1868280224
C  C41  1  0.75450000  0.93250000  0.86660000  1.0 0.1106299259
C  C42  1  0.75450000  0.06750000  0.13340000  1.0 0.1106299259
C  C43  1  0.24550000  0.43250000  0.63340000  1.0 0.1106299259
C  C44  1  0.24550000  0.56750000  0.36660000  1.0 0.1106299259
C  C45  1  0.24550000  0.06750000  0.13340000  1.0 0.1106299259
C  C46  1  0.24550000  0.93250000  0.86660000  1.0 0.1106299259
C  C47  1  0.75450000  0.56750000  0.36660000  1.0 0.1106299259
C  C48  1  0.75450000  0.43250000  0.63340000  1.0 0.1106299259
C  C49  1  0.87290000  0.93750000  0.86690000  1.0 -0.1784531731
C  C50  1  0.87290000  0.06250000  0.13310000  1.0 -0.1784531731
C  C51  1  0.12710000  0.43750000  0.63310000  1.0 -0.1784531731
C  C52  1  0.12710000  0.56250000  0.36690000  1.0 -0.1784531731
C  C53  1  0.12710000  0.06250000  0.13310000  1.0 -0.1784531731
C  C54  1  0.12710000  0.93750000  0.86690000  1.0 -0.1784531731
C  C55  1  0.87290000  0.56250000  0.36690000  1.0 -0.1784531731
C  C56  1  0.87290000  0.43750000  0.63310000  1.0 -0.1784531731
C  C57  1  0.93590000  0.89940000  0.81120000  1.0 0.1106299259
C  C58  1  0.93590000  0.10060000  0.18880000  1.0 0.1106299259
C  C59  1  0.06410000  0.39940000  0.68880000  1.0 0.1106299259
C  C60  1  0.06410000  0.60060000  0.31120000  1.0 0.1106299259
C  C61  1  0.06410000  0.10060000  0.18880000  1.0 0.1106299259
C  C62  1  0.06410000  0.89940000  0.81120000  1.0 0.1106299259
C  C63  1  0.93590000  0.60060000  0.31120000  1.0 0.1106299259
C  C64  1  0.93590000  0.39940000  0.68880000  1.0 0.1106299259
C  C65  1  0.24490000  0.54310000  0.04770000  1.0 0.0730762337
C  C66  1  0.24490000  0.45690000  0.95230000  1.0 0.0730762337
C  C67  1  0.75510000  0.04310000  0.45230000  1.0 0.0730762337
C  C68  1  0.75510000  0.95690000  0.54770000  1.0 0.0730762337
C  C69  1  0.75510000  0.45690000  0.95230000  1.0 0.0730762337
C  C70  1  0.75510000  0.54310000  0.04770000  1.0 0.0730762337
C  C71  1  0.24490000  0.95690000  0.54770000  1.0 0.0730762337
C  C72  1  0.24490000  0.04310000  0.45230000  1.0 0.0730762337
C  C73  1  0.12650000  0.54460000  0.04970000  1.0 -0.1868280224
C  C74  1  0.12650000  0.45540000  0.95030000  1.0 -0.1868280224
C  C75  1  0.87350000  0.04460000  0.45030000  1.0 -0.1868280224
C  C76  1  0.87350000  0.95540000  0.54970000  1.0 -0.1868280224
C  C77  1  0.87350000  0.45540000  0.95030000  1.0 -0.1868280224
C  C78  1  0.87350000  0.54460000  0.04970000  1.0 -0.1868280224
C  C79  1  0.12650000  0.95540000  0.54970000  1.0 -0.1868280224
C  C80  1  0.12650000  0.04460000  0.45030000  1.0 -0.1868280224
C  C81  1  0.06410000  0.50000000  0.00000000  1.0 0.116119865
C  C82  1  0.93590000  0.00000000  0.50000000  1.0 0.116119865
C  C83  1  0.93590000  0.50000000  0.00000000  1.0 0.116119865
C  C84  1  0.06410000  0.00000000  0.50000000  1.0 0.116119865
N  N1  1  0.23180000  0.80220000  0.09770000  1.0 -0.4067820902
N  N2  1  0.23180000  0.19780000  0.90230000  1.0 -0.4067820902
N  N3  1  0.76820000  0.30220000  0.40230000  1.0 -0.4067820902
N  N4  1  0.76820000  0.69780000  0.59770000  1.0 -0.4067820902
N  N5  1  0.76820000  0.19780000  0.90230000  1.0 -0.4067820902
N  N6  1  0.76820000  0.80220000  0.09770000  1.0 -0.4067820902
N  N7  1  0.23180000  0.69780000  0.59770000  1.0 -0.4067820902
N  N8  1  0.23180000  0.30220000  0.40230000  1.0 -0.4067820902
N  N9  1  0.50000000  0.85150000  0.93380000  1.0 -0.4067820902
N  N10  1  0.50000000  0.14850000  0.06620000  1.0 -0.4067820902
N  N11  1  0.50000000  0.35150000  0.56620000  1.0 -0.4067820902
N  N12  1  0.50000000  0.64850000  0.43380000  1.0 -0.4067820902
N  N13  1  0.50000000  0.62170000  0.05000000  1.0 -0.4408589448
N  N14  1  0.50000000  0.37830000  0.95000000  1.0 -0.4408589448
N  N15  1  0.50000000  0.12170000  0.45000000  1.0 -0.4408589448
N  N16  1  0.50000000  0.87830000  0.55000000  1.0 -0.4408589448
N  N17  1  0.50000000  0.72940000  0.25940000  1.0 -0.4047010089
N  N18  1  0.50000000  0.27060000  0.74060000  1.0 -0.4047010089
N  N19  1  0.50000000  0.22940000  0.24060000  1.0 -0.4047010089
N  N20  1  0.50000000  0.77060000  0.75940000  1.0 -0.4047010089
N  N21  1  0.69500000  0.89208000  0.81470000  1.0 -0.2182546403
N  N22  1  0.69500000  0.10792000  0.18530000  1.0 -0.2182546403
N  N23  1  0.30500000  0.39208000  0.68530000  1.0 -0.2182546403
N  N24  1  0.30500000  0.60792000  0.31470000  1.0 -0.2182546403
N  N25  1  0.30500000  0.10792000  0.18530000  1.0 -0.2182546403
N  N26  1  0.30500000  0.89208000  0.81470000  1.0 -0.2182546403
N  N27  1  0.69500000  0.60792000  0.31470000  1.0 -0.2182546403
N  N28  1  0.69500000  0.39208000  0.68530000  1.0 -0.2182546403
N  N29  1  0.30520000  0.50000000  0.00000000  1.0 -0.2436433765
N  N30  1  0.69480000  0.00000000  0.50000000  1.0 -0.2436433765
N  N31  1  0.69480000  0.50000000  0.00000000  1.0 -0.2436433765
N  N32  1  0.30520000  0.00000000  0.50000000  1.0 -0.2436433765
N  N33  1  0.50000000  0.98090000  0.15140000  1.0 -0.3840558375
N  N34  1  0.50000000  0.01910000  0.84860000  1.0 -0.3840558375
N  N35  1  0.50000000  0.48090000  0.34860000  1.0 -0.3840558375
N  N36  1  0.50000000  0.51910000  0.65140000  1.0 -0.3840558375
O  O1  1  0.50000000  0.93780000  0.70340000  1.0 -0.7364680613
O  O2  1  0.50000000  0.06220000  0.29660000  1.0 -0.7364680613
O  O3  1  0.50000000  0.43780000  0.79660000  1.0 -0.7364680613
O  O4  1  0.50000000  0.56220000  0.20340000  1.0 -0.7364680613
O  O5  1  0.50000000  0.43240000  0.11049000  1.0 -0.7146851863
O  O6  1  0.50000000  0.56760000  0.88951000  1.0 -0.7146851863
O  O7  1  0.50000000  0.93240000  0.38951000  1.0 -0.7146851863
O  O8  1  0.50000000  0.06760000  0.61049000  1.0 -0.7146851863
