# DDEC6 charges by PACMAN v1.1 (https://github.com/mtap-research/PACMAN-charge/)
data_XUNRUV_ASR_pacman
_symmetry_space_group_name_H-M   'P 1'
_cell_length_a   10.86810000
_cell_length_b   9.83580000
_cell_length_c   14.60590000
_cell_angle_alpha   90.00000000
_cell_angle_beta   94.09600000
_cell_angle_gamma   90.00000000
_symmetry_Int_Tables_number   1
_chemical_formula_structural   LiH4C6NO2
_chemical_formula_sum   'Li8 H32 C48 N8 O16'
_cell_volume   1557.33101091
_cell_formula_units_Z   8
loop_
 _symmetry_equiv_pos_site_id
 _symmetry_equiv_pos_as_xyz
  1  'x, y, z'
loop_
 _atom_site_type_symbol
 _atom_site_label
 _atom_site_symmetry_multiplicity
 _atom_site_fract_x
 _atom_site_fract_y
 _atom_site_fract_z
 _atom_site_occupancy
 _atom_site_charge
Li  Li1  1  0.91020000  0.97880000  0.56050000  1.0 0.7599931441
Li  Li2  1  0.08980000  0.47880000  0.93950000  1.0 0.7599931441
Li  Li3  1  0.08980000  0.02120000  0.43950000  1.0 0.7599931441
Li  Li4  1  0.91020000  0.52120000  0.06050000  1.0 0.7599931441
Li  Li5  1  0.59530000  0.01580000  0.44410000  1.0 0.7599931441
Li  Li6  1  0.40470000  0.51580000  0.05590000  1.0 0.7599931441
Li  Li7  1  0.40470000  0.98420000  0.55590000  1.0 0.7599931441
Li  Li8  1  0.59530000  0.48420000  0.94410000  1.0 0.7599931441
H  H1  1  0.78810000  0.66040000  0.86860000  1.0 0.1040203504
H  H2  1  0.21190000  0.16040000  0.63140000  1.0 0.1040203504
H  H3  1  0.21190000  0.33960000  0.13140000  1.0 0.1040203504
H  H4  1  0.78810000  0.83960000  0.36860000  1.0 0.1040203504
H  H5  1  0.44220000  0.60460000  0.78320000  1.0 0.0940779156
H  H6  1  0.55780000  0.10460000  0.71680000  1.0 0.0940779156
H  H7  1  0.55780000  0.39540000  0.21680000  1.0 0.0940779156
H  H8  1  0.44220000  0.89540000  0.28320000  1.0 0.0940779156
H  H9  1  0.82220000  0.79170000  0.74090000  1.0 0.1189473651
H  H10  1  0.17780000  0.29170000  0.75910000  1.0 0.1189473651
H  H11  1  0.17780000  0.20830000  0.25910000  1.0 0.1189473651
H  H12  1  0.82220000  0.70830000  0.24090000  1.0 0.1189473651
H  H13  1  0.46260000  0.74350000  0.65680000  1.0 0.1289007224
H  H14  1  0.53740000  0.24350000  0.84320000  1.0 0.1289007224
H  H15  1  0.53740000  0.25650000  0.34320000  1.0 0.1289007224
H  H16  1  0.46260000  0.75650000  0.15680000  1.0 0.1289007224
H  H17  1  0.03710000  0.46860000  0.25590000  1.0 0.0940779156
H  H18  1  0.96290000  0.96860000  0.24410000  1.0 0.0940779156
H  H19  1  0.96290000  0.53140000  0.74410000  1.0 0.0940779156
H  H20  1  0.03710000  0.03140000  0.75590000  1.0 0.0940779156
H  H21  1  0.75920000  0.29670000  0.11500000  1.0 0.1063068888
H  H22  1  0.24080000  0.79670000  0.38500000  1.0 0.1063068888
H  H23  1  0.24080000  0.70330000  0.88500000  1.0 0.1063068888
H  H24  1  0.75920000  0.20330000  0.61500000  1.0 0.1063068888
H  H25  1  0.71570000  0.16300000  0.23920000  1.0 0.1289007224
H  H26  1  0.28430000  0.66300000  0.26080000  1.0 0.1289007224
H  H27  1  0.28430000  0.83700000  0.76080000  1.0 0.1289007224
H  H28  1  0.71570000  0.33700000  0.73920000  1.0 0.1289007224
H  H29  1  0.01020000  0.33100000  0.38160000  1.0 0.1393078498
H  H30  1  0.98980000  0.83100000  0.11840000  1.0 0.1393078498
H  H31  1  0.98980000  0.66900000  0.61840000  1.0 0.1393078498
H  H32  1  0.01020000  0.16900000  0.88160000  1.0 0.1393078498
C  C1  1  0.72150000  0.67550000  0.82397000  1.0 0.0792297551
C  C2  1  0.27850000  0.17550000  0.67603000  1.0 0.0792297551
C  C3  1  0.27850000  0.32450000  0.17603000  1.0 0.0792297551
C  C4  1  0.72150000  0.82450000  0.32397000  1.0 0.0792297551
C  C5  1  0.52026000  0.64440000  0.77497000  1.0 0.0717063478
C  C6  1  0.47974000  0.14440000  0.72503000  1.0 0.0717063478
C  C7  1  0.47974000  0.35560000  0.22503000  1.0 0.0717063478
C  C8  1  0.52026000  0.85560000  0.27497000  1.0 0.0717063478
C  C9  1  0.74260000  0.75530000  0.74831000  1.0 -0.1619311862
C  C10  1  0.25740000  0.25530000  0.75169000  1.0 -0.1619311862
C  C11  1  0.25740000  0.24470000  0.25169000  1.0 -0.1619311862
C  C12  1  0.74260000  0.74470000  0.24831000  1.0 -0.1619311862
C  C13  1  0.53195000  0.72580000  0.69850000  1.0 -0.1619311862
C  C14  1  0.46805000  0.22580000  0.80150000  1.0 -0.1619311862
C  C15  1  0.46805000  0.27420000  0.30150000  1.0 -0.1619311862
C  C16  1  0.53195000  0.77420000  0.19850000  1.0 -0.1619311862
C  C17  1  0.64579000  0.78090000  0.68380000  1.0 0.0258899897
C  C18  1  0.35421000  0.28090000  0.81620000  1.0 0.0258899897
C  C19  1  0.35421000  0.21910000  0.31620000  1.0 0.0258899897
C  C20  1  0.64579000  0.71910000  0.18380000  1.0 0.0258899897
C  C21  1  0.66709000  0.86300000  0.59876000  1.0 0.6126212062
C  C22  1  0.33291000  0.36300000  0.90124000  1.0 0.6126212062
C  C23  1  0.33291000  0.13700000  0.40124000  1.0 0.6150744937
C  C24  1  0.66709000  0.63700000  0.09876000  1.0 0.6150744937
C  C25  1  0.97180000  0.40410000  0.25203000  1.0 0.0717063478
C  C26  1  0.02820000  0.90410000  0.24797000  1.0 0.0717063478
C  C27  1  0.02820000  0.59590000  0.74797000  1.0 0.0717063478
C  C28  1  0.97180000  0.09590000  0.75203000  1.0 0.0717063478
C  C29  1  0.80950000  0.30570000  0.17060000  1.0 0.0792297551
C  C30  1  0.19050000  0.80570000  0.32940000  1.0 0.0792297551
C  C31  1  0.19050000  0.69430000  0.82940000  1.0 0.0792297551
C  C32  1  0.80950000  0.19430000  0.67060000  1.0 0.0792297551
C  C33  1  0.78370000  0.22390000  0.24409000  1.0 -0.1688091208
C  C34  1  0.21630000  0.72390000  0.25591000  1.0 -0.1688091208
C  C35  1  0.21630000  0.77610000  0.75591000  1.0 -0.1688091208
C  C36  1  0.78370000  0.27610000  0.74409000  1.0 -0.1688091208
C  C37  1  0.85862000  0.23240000  0.32480000  1.0 0.0239402528
C  C38  1  0.14138000  0.73240000  0.17520000  1.0 0.0239402528
C  C39  1  0.14138000  0.76760000  0.67520000  1.0 0.0239402528
C  C40  1  0.85862000  0.26760000  0.82480000  1.0 0.0239402528
C  C41  1  0.95560000  0.32360000  0.32804000  1.0 -0.1688091208
C  C42  1  0.04440000  0.82360000  0.17196000  1.0 -0.1688091208
C  C43  1  0.04440000  0.67640000  0.67196000  1.0 -0.1688091208
C  C44  1  0.95560000  0.17640000  0.82804000  1.0 -0.1688091208
C  C45  1  0.83244000  0.14710000  0.40758000  1.0 0.6126212062
C  C46  1  0.16756000  0.64710000  0.09242000  1.0 0.6126212062
C  C47  1  0.16756000  0.85290000  0.59242000  1.0 0.6126212062
C  C48  1  0.83244000  0.35290000  0.90758000  1.0 0.6126212062
N  N1  1  0.61298000  0.61890000  0.83747000  1.0 -0.3165303313
N  N2  1  0.38702000  0.11890000  0.66253000  1.0 -0.3165303313
N  N3  1  0.38702000  0.38110000  0.16253000  1.0 -0.3165303313
N  N4  1  0.61298000  0.88110000  0.33747000  1.0 -0.3165303313
N  N5  1  0.90105000  0.39620000  0.17356000  1.0 -0.3165303313
N  N6  1  0.09895000  0.89620000  0.32644000  1.0 -0.3165303313
N  N7  1  0.09895000  0.60380000  0.82644000  1.0 -0.3165303313
N  N8  1  0.90105000  0.10380000  0.67356000  1.0 -0.3165303313
O  O1  1  0.77324000  0.86318000  0.57159000  1.0 -0.6486255147
O  O2  1  0.22676000  0.36318000  0.92841000  1.0 -0.6486255147
O  O3  1  0.22676000  0.13682000  0.42841000  1.0 -0.6486255147
O  O4  1  0.77324000  0.63682000  0.07159000  1.0 -0.6486255147
O  O5  1  0.57540000  0.92370000  0.56046000  1.0 -0.7104526081
O  O6  1  0.42460000  0.42370000  0.93954000  1.0 -0.7104526081
O  O7  1  0.42460000  0.07630000  0.43954000  1.0 -0.7104526081
O  O8  1  0.57540000  0.57630000  0.06046000  1.0 -0.7104526081
O  O9  1  0.72343000  0.14094000  0.42758000  1.0 -0.6486255147
O  O10  1  0.27657000  0.64094000  0.07242000  1.0 -0.6486255147
O  O11  1  0.27657000  0.85906000  0.57242000  1.0 -0.6486255147
O  O12  1  0.72343000  0.35906000  0.92758000  1.0 -0.6486255147
O  O13  1  0.92334000  0.09000000  0.44977000  1.0 -0.7104526081
O  O14  1  0.07666000  0.59000000  0.05023000  1.0 -0.7104526081
O  O15  1  0.07666000  0.91000000  0.55023000  1.0 -0.7104526081
O  O16  1  0.92334000  0.41000000  0.94977000  1.0 -0.7104526081
