# DDEC6 charges by PACMAN v1.1 (https://github.com/mtap-research/PACMAN-charge/)
data_XUNSOQ_FSR_pacman
_symmetry_space_group_name_H-M   'P 1'
_cell_length_a   5.40130000
_cell_length_b   17.64400000
_cell_length_c   17.82500000
_cell_angle_alpha   89.39100000
_cell_angle_beta   85.70800000
_cell_angle_gamma   86.26800000
_symmetry_Int_Tables_number   1
_chemical_formula_structural   LiH4C6NO2
_chemical_formula_sum   'Li8 H32 C48 N8 O16'
_cell_volume   1690.34765020
_cell_formula_units_Z   8
loop_
 _symmetry_equiv_pos_site_id
 _symmetry_equiv_pos_as_xyz
  1  'x, y, z'
loop_
 _atom_site_type_symbol
 _atom_site_label
 _atom_site_symmetry_multiplicity
 _atom_site_fract_x
 _atom_site_fract_y
 _atom_site_fract_z
 _atom_site_occupancy
 _atom_site_charge
Li  Li1  1  0.19890000  0.47040000  0.03750000  1.0 0.7670940849
Li  Li2  1  0.80110000  0.52960000  0.96250000  1.0 0.7670940849
Li  Li3  1  0.29410000  0.46550000  0.53340000  1.0 0.7646712157
Li  Li4  1  0.70590000  0.53450000  0.46660000  1.0 0.7646712157
Li  Li5  1  0.31060000  0.97240000  0.46130000  1.0 0.7670940849
Li  Li6  1  0.68940000  0.02760000  0.53870000  1.0 0.7670940849
Li  Li7  1  0.30990000  0.96390000  0.96820000  1.0 0.7670940849
Li  Li8  1  0.69010000  0.03610000  0.03180000  1.0 0.7670940849
H  H1  1  0.43360000  0.06380000  0.31300000  1.0 0.1292288262
H  H2  1  0.56640000  0.93620000  0.68700000  1.0 0.1292288262
H  H3  1  0.55430000  0.69750000  0.52780000  1.0 0.1292288262
H  H4  1  0.44570000  0.30250000  0.47220000  1.0 0.1292288262
H  H5  1  0.51580000  0.32240000  0.08250000  1.0 0.0999081174
H  H6  1  0.48420000  0.67760000  0.91750000  1.0 0.0999081174
H  H7  1  0.50310000  0.19150000  0.06990000  1.0 0.1292288262
H  H8  1  0.49690000  0.80850000  0.93010000  1.0 0.1292288262
H  H9  1  0.98820000  0.85360000  0.41090000  1.0 0.0999081174
H  H10  1  0.01180000  0.14640000  0.58910000  1.0 0.0999081174
H  H11  1  0.59110000  0.82760000  0.51880000  1.0 0.0999081174
H  H12  1  0.40890000  0.17240000  0.48120000  1.0 0.0999081174
H  H13  1  0.92100000  0.72650000  0.42390000  1.0 0.121980284
H  H14  1  0.07900000  0.27350000  0.57610000  1.0 0.121980284
H  H15  1  0.97700000  0.43950000  0.80920000  1.0 0.1292288262
H  H16  1  0.02300000  0.56050000  0.19080000  1.0 0.1292288262
H  H17  1  0.86790000  0.22980000  0.96750000  1.0 0.1292288262
H  H18  1  0.13210000  0.77020000  0.03250000  1.0 0.1292288262
H  H19  1  0.11240000  0.96160000  0.26390000  1.0 0.121980284
H  H20  1  0.88760000  0.03840000  0.73610000  1.0 0.121980284
H  H21  1  0.96990000  0.42240000  0.68130000  1.0 0.0999081174
H  H22  1  0.03010000  0.57760000  0.31870000  1.0 0.0999081174
H  H23  1  0.57240000  0.53160000  0.64230000  1.0 0.0999081174
H  H24  1  0.42760000  0.46840000  0.35770000  1.0 0.0999081174
H  H25  1  0.39410000  0.07840000  0.18510000  1.0 0.0999081174
H  H26  1  0.60590000  0.92160000  0.81490000  1.0 0.0999081174
H  H27  1  0.90740000  0.35840000  0.97880000  1.0 0.0999081174
H  H28  1  0.09260000  0.64160000  0.02120000  1.0 0.0999081174
H  H29  1  0.61000000  0.54660000  0.76870000  1.0 0.121980284
H  H30  1  0.39000000  0.45340000  0.23130000  1.0 0.121980284
H  H31  1  0.04780000  0.97440000  0.13780000  1.0 0.1084190551
H  H32  1  0.95220000  0.02560000  0.86220000  1.0 0.1084190551
C  C1  1  0.18660000  0.19580000  0.01600000  1.0 0.0180367718
C  C2  1  0.81340000  0.80420000  0.98400000  1.0 0.0180367718
C  C3  1  0.22860000  0.69700000  0.47810000  1.0 0.0180367718
C  C4  1  0.77140000  0.30300000  0.52190000  1.0 0.0180367718
C  C5  1  0.56500000  0.04580000  0.27800000  1.0 -0.1606202321
C  C6  1  0.43500000  0.95420000  0.72200000  1.0 -0.1606202321
C  C7  1  0.43080000  0.72870000  0.50490000  1.0 -0.1606202321
C  C8  1  0.56920000  0.27130000  0.49510000  1.0 -0.1606202321
C  C9  1  0.17980000  0.61440000  0.48870000  1.0 0.6200905088
C  C10  1  0.82020000  0.38560000  0.51130000  1.0 0.6200905088
C  C11  1  0.38280000  0.30340000  0.05790000  1.0 0.0864227879
C  C12  1  0.61720000  0.69660000  0.94210000  1.0 0.0864227879
C  C13  1  0.37650000  0.22460000  0.05080000  1.0 -0.1606202321
C  C14  1  0.62350000  0.77540000  0.94920000  1.0 -0.1606202321
C  C15  1  0.83150000  0.00510000  0.38520000  1.0 0.6200905088
C  C16  1  0.16850000  0.99490000  0.61480000  1.0 0.6200905088
C  C17  1  0.15520000  0.11210000  0.00740000  1.0 0.6200905088
C  C18  1  0.84480000  0.88790000  0.99260000  1.0 0.6200905088
C  C19  1  0.33240000  0.49900000  0.88630000  1.0 0.6200905088
C  C20  1  0.66760000  0.50100000  0.11370000  1.0 0.6200905088
C  C21  1  0.78260000  0.01130000  0.30280000  1.0 0.0180367718
C  C22  1  0.21740000  0.98870000  0.69720000  1.0 0.0180367718
C  C23  1  0.10300000  0.82190000  0.43680000  1.0 0.069973469
C  C24  1  0.89700000  0.17810000  0.56320000  1.0 0.069973469
C  C25  1  0.45340000  0.80680000  0.49820000  1.0 0.075283261
C  C26  1  0.54660000  0.19320000  0.50180000  1.0 0.075283261
C  C27  1  0.06340000  0.74550000  0.44350000  1.0 -0.1606202321
C  C28  1  0.93660000  0.25450000  0.55650000  1.0 -0.1606202321
C  C29  1  0.29940000  0.49320000  0.80380000  1.0 0.0135684665
C  C30  1  0.70060000  0.50680000  0.19620000  1.0 0.0135684665
C  C31  1  0.10610000  0.45760000  0.77590000  1.0 -0.1606202321
C  C32  1  0.89390000  0.54240000  0.22410000  1.0 -0.1606202321
C  C33  1  0.00650000  0.24730000  0.99040000  1.0 -0.1606202321
C  C34  1  0.99350000  0.75270000  0.00960000  1.0 -0.1606202321
C  C35  1  0.96070000  0.98550000  0.24930000  1.0 -0.1606202321
C  C36  1  0.03930000  0.01450000  0.75070000  1.0 -0.1606202321
C  C37  1  0.10180000  0.44860000  0.69920000  1.0 0.069973469
C  C38  1  0.89820000  0.55140000  0.30080000  1.0 0.069973469
C  C39  1  0.45170000  0.51090000  0.67680000  1.0 0.0636733639
C  C40  1  0.54830000  0.48910000  0.32320000  1.0 0.0636733639
C  C41  1  0.54260000  0.05350000  0.20100000  1.0 0.069973469
C  C42  1  0.45740000  0.94650000  0.79900000  1.0 0.069973469
C  C43  1  0.02950000  0.32410000  0.99850000  1.0 0.069973469
C  C44  1  0.97050000  0.67590000  0.00150000  1.0 0.0636733639
C  C45  1  0.47480000  0.52090000  0.75230000  1.0 -0.1606202321
C  C46  1  0.52520000  0.47910000  0.24770000  1.0 -0.1606202321
C  C47  1  0.92130000  0.99400000  0.17360000  1.0 0.069973469
C  C48  1  0.07870000  0.00600000  0.82640000  1.0 0.069973469
N  N1  1  0.29270000  0.85370000  0.46470000  1.0 -0.3031284121
N  N2  1  0.70730000  0.14630000  0.53530000  1.0 -0.3031284121
N  N3  1  0.71420000  0.02840000  0.14790000  1.0 -0.3211320993
N  N4  1  0.28580000  0.97160000  0.85210000  1.0 -0.3211320993
N  N5  1  0.21390000  0.35280000  0.03240000  1.0 -0.3115151829
N  N6  1  0.78610000  0.64720000  0.96760000  1.0 -0.3031284121
N  N7  1  0.27170000  0.47430000  0.64870000  1.0 -0.3115151829
N  N8  1  0.72830000  0.52570000  0.35130000  1.0 -0.3115151829
O  O1  1  0.36440000  0.56837000  0.49813000  1.0 -0.7130108085
O  O2  1  0.63560000  0.43163000  0.50187000  1.0 -0.7130108085
O  O3  1  0.05180000  0.00408000  0.40088000  1.0 -0.6502080467
O  O4  1  0.94820000  0.99592000  0.59912000  1.0 -0.6502080467
O  O5  1  0.34680000  0.06685000  0.01364000  1.0 -0.7130108085
O  O6  1  0.65320000  0.93315000  0.98636000  1.0 -0.7130108085
O  O7  1  0.94730000  0.09261000  0.99202000  1.0 -0.6502080467
O  O8  1  0.05270000  0.90739000  0.00798000  1.0 -0.6502080467
O  O9  1  0.14230000  0.49723000  0.93238000  1.0 -0.720663419
O  O10  1  0.85770000  0.50277000  0.06762000  1.0 -0.720663419
O  O11  1  0.96110000  0.59756000  0.48751000  1.0 -0.642766824
O  O12  1  0.03890000  0.40244000  0.51249000  1.0 -0.642766824
O  O13  1  0.64270000  0.00281000  0.43262000  1.0 -0.7289147284
O  O14  1  0.35730000  0.99719000  0.56738000  1.0 -0.7289147284
O  O15  1  0.54970000  0.50349000  0.90494000  1.0 -0.6591098216
O  O16  1  0.45030000  0.49651000  0.09506000  1.0 -0.6591098216
