# DDEC6 charges by PACMAN v1.1 (https://github.com/mtap-research/PACMAN-charge/)
data_XUQSIN_ASR_pacman
_symmetry_space_group_name_H-M   'P 1'
_cell_length_a   15.43800000
_cell_length_b   14.69100000
_cell_length_c   33.04600000
_cell_angle_alpha   90.00000000
_cell_angle_beta   94.83200000
_cell_angle_gamma   90.00000000
_symmetry_Int_Tables_number   1
_chemical_formula_structural   Mn3W2(CN)16
_chemical_formula_sum   'Mn24 W16 C128 N128'
_cell_volume   7468.18467265
_cell_formula_units_Z   8
loop_
 _symmetry_equiv_pos_site_id
 _symmetry_equiv_pos_as_xyz
  1  'x, y, z'
loop_
 _atom_site_type_symbol
 _atom_site_label
 _atom_site_symmetry_multiplicity
 _atom_site_fract_x
 _atom_site_fract_y
 _atom_site_fract_z
 _atom_site_occupancy
 _atom_site_charge
Mn  Mn1  1  0.18066000  0.87692000  0.69790000  1.0 0.9122547108
Mn  Mn2  1  0.81934000  0.37692000  0.80210000  1.0 0.9122547108
Mn  Mn3  1  0.81934000  0.12308000  0.30210000  1.0 0.9122547108
Mn  Mn4  1  0.18066000  0.62308000  0.19790000  1.0 0.9122547108
Mn  Mn5  1  0.54534000  0.99611000  0.75164000  1.0 0.9586221252
Mn  Mn6  1  0.45466000  0.49611000  0.74836000  1.0 0.9586221252
Mn  Mn7  1  0.45466000  0.00389000  0.24836000  1.0 0.9586221252
Mn  Mn8  1  0.54534000  0.50389000  0.25164000  1.0 0.9586221252
Mn  Mn9  1  0.80843000  0.70915000  0.68544000  1.0 0.9586221252
Mn  Mn10  1  0.19157000  0.20915000  0.81456000  1.0 0.9586221252
Mn  Mn11  1  0.19157000  0.29085000  0.31456000  1.0 0.9586221252
Mn  Mn12  1  0.80843000  0.79085000  0.18544000  1.0 0.9586221252
Mn  Mn13  1  0.19507000  0.52552000  0.58793000  1.0 0.9295967866
Mn  Mn14  1  0.80493000  0.02552000  0.91207000  1.0 0.9295967866
Mn  Mn15  1  0.80493000  0.47448000  0.41207000  1.0 0.9295967866
Mn  Mn16  1  0.19507000  0.97448000  0.08793000  1.0 0.9295967866
Mn  Mn17  1  0.28449000  0.99710000  0.52573000  1.0 0.9371960211
Mn  Mn18  1  0.71551000  0.49710000  0.97427000  1.0 0.9371960211
Mn  Mn19  1  0.71551000  0.00290000  0.47427000  1.0 0.9371960211
Mn  Mn20  1  0.28449000  0.50290000  0.02573000  1.0 0.9371960211
Mn  Mn21  1  0.95781000  0.17040000  0.60592000  1.0 0.9494194139
Mn  Mn22  1  0.04219000  0.67040000  0.89408000  1.0 0.9494194139
Mn  Mn23  1  0.04219000  0.82960000  0.39408000  1.0 0.9494194139
Mn  Mn24  1  0.95781000  0.32960000  0.10592000  1.0 0.9494194139
W  W1  1  0.46795000  0.75529000  0.62835000  1.0 0.5599603552
W  W2  1  0.53205000  0.25529000  0.87165000  1.0 0.5599603552
W  W3  1  0.53205000  0.24471000  0.37165000  1.0 0.5599603552
W  W4  1  0.46795000  0.74471000  0.12835000  1.0 0.5599603552
W  W5  1  0.89360000  0.03884000  0.75526000  1.0 0.5980585266
W  W6  1  0.10640000  0.53884000  0.74474000  1.0 0.5980585266
W  W7  1  0.10640000  0.96116000  0.24474000  1.0 0.5980585266
W  W8  1  0.89360000  0.46116000  0.25526000  1.0 0.5980585266
W  W9  1  0.98294000  0.81805000  0.55604000  1.0 0.5792317141
W  W10  1  0.01706000  0.31805000  0.94396000  1.0 0.5792317141
W  W11  1  0.01706000  0.18195000  0.44396000  1.0 0.5792317141
W  W12  1  0.98294000  0.68195000  0.05604000  1.0 0.5792317141
W  W13  1  0.30364000  0.20725000  0.66120000  1.0 0.5913636435
W  W14  1  0.69636000  0.70725000  0.83880000  1.0 0.5913636435
W  W15  1  0.69636000  0.79275000  0.33880000  1.0 0.5913636435
W  W16  1  0.30364000  0.29275000  0.16120000  1.0 0.5913636435
C  C1  1  0.55350000  0.83790000  0.59450000  1.0 0.0093891763
C  C2  1  0.44650000  0.33790000  0.90550000  1.0 0.0093891763
C  C3  1  0.44650000  0.16210000  0.40550000  1.0 0.0093891763
C  C4  1  0.55350000  0.66210000  0.09450000  1.0 0.0093891763
C  C5  1  0.51360000  0.66100000  0.58530000  1.0 -0.062172219
C  C6  1  0.48640000  0.16100000  0.91470000  1.0 -0.062172219
C  C7  1  0.48640000  0.33900000  0.41470000  1.0 -0.062172219
C  C8  1  0.51360000  0.83900000  0.08530000  1.0 -0.062172219
C  C9  1  0.35790000  0.78800000  0.66220000  1.0 0.0771788985
C  C10  1  0.64210000  0.28800000  0.83780000  1.0 0.0771788985
C  C11  1  0.64210000  0.21200000  0.33780000  1.0 0.0771788985
C  C12  1  0.35790000  0.71200000  0.16220000  1.0 0.0771788985
C  C13  1  0.50460000  0.86190000  0.67190000  1.0 0.0692402903
C  C14  1  0.49540000  0.36190000  0.82810000  1.0 0.0692402903
C  C15  1  0.49540000  0.13810000  0.32810000  1.0 0.0692402903
C  C16  1  0.50460000  0.63810000  0.17190000  1.0 0.0692402903
C  C17  1  0.46340000  0.64850000  0.67370000  1.0 0.0488885656
C  C18  1  0.53660000  0.14850000  0.82630000  1.0 0.0599271032
C  C19  1  0.53660000  0.35150000  0.32630000  1.0 0.0488885656
C  C20  1  0.46340000  0.85150000  0.17370000  1.0 0.0488885656
C  C21  1  0.60080000  0.72960000  0.65100000  1.0 0.1251073528
C  C22  1  0.39920000  0.22960000  0.84900000  1.0 0.1245138991
C  C23  1  0.39920000  0.27040000  0.34900000  1.0 0.1245138991
C  C24  1  0.60080000  0.77040000  0.15100000  1.0 0.1245138991
C  C25  1  0.36220000  0.66810000  0.60480000  1.0 0.0771788985
C  C26  1  0.63780000  0.16810000  0.89520000  1.0 0.0771788985
C  C27  1  0.63780000  0.33190000  0.39520000  1.0 0.0771788985
C  C28  1  0.36220000  0.83190000  0.10480000  1.0 0.0771788985
C  C29  1  0.39390000  0.84740000  0.58900000  1.0 0.0599271032
C  C30  1  0.60610000  0.34740000  0.91100000  1.0 0.0599271032
C  C31  1  0.60610000  0.15260000  0.41100000  1.0 0.0599271032
C  C32  1  0.39390000  0.65260000  0.08900000  1.0 0.0599271032
C  C33  1  0.00690000  0.98320000  0.72810000  1.0 0.1123242873
C  C34  1  0.99310000  0.48320000  0.77190000  1.0 0.1123242873
C  C35  1  0.99310000  0.01680000  0.27190000  1.0 0.1123242873
C  C36  1  0.00690000  0.51680000  0.22810000  1.0 0.1123242873
C  C37  1  0.06190000  0.82210000  0.61340000  1.0 0.0692402903
C  C38  1  0.93810000  0.32210000  0.88660000  1.0 0.0692402903
C  C39  1  0.93810000  0.17790000  0.38660000  1.0 0.0692402903
C  C40  1  0.06190000  0.67790000  0.11340000  1.0 0.0692402903
C  C41  1  0.26050000  0.06810000  0.66720000  1.0 0.089387865
C  C42  1  0.73950000  0.56810000  0.83280000  1.0 0.089387865
C  C43  1  0.73950000  0.93190000  0.33280000  1.0 0.089387865
C  C44  1  0.26050000  0.43190000  0.16720000  1.0 0.089387865
C  C45  1  0.40800000  0.13720000  0.69620000  1.0 0.0488885656
C  C46  1  0.59200000  0.63720000  0.80380000  1.0 0.0488885656
C  C47  1  0.59200000  0.86280000  0.30380000  1.0 0.0488885656
C  C48  1  0.40800000  0.36280000  0.19620000  1.0 0.0488885656
C  C49  1  0.06610000  0.70120000  0.55850000  1.0 0.0692402903
C  C50  1  0.93390000  0.20120000  0.94150000  1.0 0.0692402903
C  C51  1  0.93390000  0.29880000  0.44150000  1.0 0.0692402903
C  C52  1  0.06610000  0.79880000  0.05850000  1.0 0.0692402903
C  C53  1  0.10130000  0.88680000  0.54470000  1.0 0.0488885656
C  C54  1  0.89870000  0.38680000  0.95530000  1.0 0.0488885656
C  C55  1  0.89870000  0.11320000  0.45530000  1.0 0.0488885656
C  C56  1  0.10130000  0.61320000  0.04470000  1.0 0.0488885656
C  C57  1  0.29780000  0.14300000  0.60180000  1.0 0.0599271032
C  C58  1  0.70220000  0.64300000  0.89820000  1.0 0.0599271032
C  C59  1  0.70220000  0.85700000  0.39820000  1.0 0.0599271032
C  C60  1  0.29780000  0.35700000  0.10180000  1.0 0.0599271032
C  C61  1  0.94890000  0.93290000  0.79440000  1.0 -0.0296717028
C  C62  1  0.05110000  0.43290000  0.70560000  1.0 -0.0296717028
C  C63  1  0.05110000  0.06710000  0.20560000  1.0 -0.0296717028
C  C64  1  0.94890000  0.56710000  0.29440000  1.0 -0.0296717028
C  C65  1  0.85640000  0.17980000  0.76180000  1.0 0.089387865
C  C66  1  0.14360000  0.67980000  0.73820000  1.0 0.089387865
C  C67  1  0.14360000  0.82020000  0.23820000  1.0 0.089387865
C  C68  1  0.85640000  0.32020000  0.26180000  1.0 0.089387865
C  C69  1  0.75470000  0.04360000  0.74470000  1.0 0.0396588158
C  C70  1  0.24530000  0.54360000  0.75530000  1.0 0.0396588158
C  C71  1  0.24530000  0.95640000  0.25530000  1.0 0.0396588158
C  C72  1  0.75470000  0.45640000  0.24470000  1.0 0.0396588158
C  C73  1  0.00470000  0.11220000  0.78200000  1.0 0.0692402903
C  C74  1  0.99530000  0.61220000  0.71800000  1.0 0.0599271032
C  C75  1  0.99530000  0.88780000  0.21800000  1.0 0.0599271032
C  C76  1  0.00470000  0.38780000  0.28200000  1.0 0.0692402903
C  C77  1  0.85030000  0.91700000  0.72280000  1.0 0.0599271032
C  C78  1  0.14970000  0.41700000  0.77720000  1.0 0.0599271032
C  C79  1  0.14970000  0.08300000  0.27720000  1.0 0.0599271032
C  C80  1  0.85030000  0.58300000  0.22280000  1.0 0.0599271032
C  C81  1  0.89880000  0.10110000  0.69620000  1.0 0.0488885656
C  C82  1  0.10120000  0.60110000  0.80380000  1.0 0.0488885656
C  C83  1  0.10120000  0.89890000  0.30380000  1.0 0.0488885656
C  C84  1  0.89880000  0.39890000  0.19620000  1.0 0.0488885656
C  C85  1  0.84960000  0.05230000  0.81640000  1.0 0.0692402903
C  C86  1  0.15040000  0.55230000  0.68360000  1.0 0.0692402903
C  C87  1  0.15040000  0.94770000  0.18360000  1.0 0.0692402903
C  C88  1  0.84960000  0.44770000  0.31640000  1.0 0.0692402903
C  C89  1  0.90430000  0.70610000  0.53190000  1.0 0.0093891763
C  C90  1  0.09570000  0.20610000  0.96810000  1.0 0.0093891763
C  C91  1  0.09570000  0.29390000  0.46810000  1.0 0.0093891763
C  C92  1  0.90430000  0.79390000  0.03190000  1.0 0.0093891763
C  C93  1  0.89910000  0.77960000  0.60250000  1.0 0.0488885656
C  C94  1  0.10090000  0.27960000  0.89750000  1.0 0.0488885656
C  C95  1  0.10090000  0.22040000  0.39750000  1.0 0.0488885656
C  C96  1  0.89910000  0.72040000  0.10250000  1.0 0.0488885656
C  C97  1  0.96990000  0.95300000  0.58100000  1.0 0.0599271032
C  C98  1  0.03010000  0.45300000  0.91900000  1.0 0.0599271032
C  C99  1  0.03010000  0.04700000  0.41900000  1.0 0.0599271032
C  C100  1  0.96990000  0.54700000  0.08100000  1.0 0.0599271032
C  C101  1  0.00180000  0.81180000  0.49170000  1.0 0.0599271032
C  C102  1  0.99820000  0.31180000  0.00830000  1.0 0.0599271032
C  C103  1  0.99820000  0.18820000  0.50830000  1.0 0.0599271032
C  C104  1  0.00180000  0.68820000  0.99170000  1.0 0.0599271032
C  C105  1  0.86580000  0.88060000  0.52830000  1.0 0.0692402903
C  C106  1  0.13420000  0.38060000  0.97170000  1.0 0.0692402903
C  C107  1  0.13420000  0.11940000  0.47170000  1.0 0.0599271032
C  C108  1  0.86580000  0.61940000  0.02830000  1.0 0.0692402903
C  C109  1  0.42280000  0.24320000  0.63410000  1.0 -0.0296717028
C  C110  1  0.57720000  0.74320000  0.86590000  1.0 -0.0296717028
C  C111  1  0.57720000  0.75680000  0.36590000  1.0 -0.0296717028
C  C112  1  0.42280000  0.25680000  0.13410000  1.0 -0.0296717028
C  C113  1  0.35680000  0.31960000  0.69800000  1.0 0.0599271032
C  C114  1  0.64320000  0.81960000  0.80200000  1.0 0.0692402903
C  C115  1  0.64320000  0.68040000  0.30200000  1.0 0.0599271032
C  C116  1  0.35680000  0.18040000  0.19800000  1.0 0.0599271032
C  C117  1  0.25120000  0.19690000  0.71980000  1.0 0.0599271032
C  C118  1  0.74880000  0.69690000  0.78020000  1.0 0.0599271032
C  C119  1  0.74880000  0.80310000  0.28020000  1.0 0.0599271032
C  C120  1  0.25120000  0.30310000  0.21980000  1.0 0.0599271032
C  C121  1  0.16460000  0.20190000  0.64460000  1.0 0.0599271032
C  C122  1  0.83540000  0.70190000  0.85540000  1.0 0.0599271032
C  C123  1  0.83540000  0.79810000  0.35540000  1.0 0.0599271032
C  C124  1  0.16460000  0.29810000  0.14460000  1.0 0.0599271032
C  C125  1  0.26930000  0.33110000  0.62780000  1.0 0.0692402903
C  C126  1  0.73070000  0.83110000  0.87220000  1.0 0.0692402903
C  C127  1  0.73070000  0.66890000  0.37220000  1.0 0.0692402903
C  C128  1  0.26930000  0.16890000  0.12780000  1.0 0.0692402903
N  N1  1  0.59880000  0.88000000  0.57640000  1.0 -0.1912980478
N  N2  1  0.40120000  0.38000000  0.92360000  1.0 -0.1912980478
N  N3  1  0.40120000  0.12000000  0.42360000  1.0 -0.1912980478
N  N4  1  0.59880000  0.62000000  0.07640000  1.0 -0.1815498572
N  N5  1  0.53740000  0.61000000  0.56290000  1.0 0.0013568868
N  N6  1  0.46260000  0.11000000  0.93710000  1.0 0.0013568868
N  N7  1  0.46260000  0.39000000  0.43710000  1.0 0.0013568868
N  N8  1  0.53740000  0.89000000  0.06290000  1.0 0.0013568868
N  N9  1  0.29920000  0.80650000  0.67890000  1.0 -0.3211380298
N  N10  1  0.70080000  0.30650000  0.82110000  1.0 -0.3211380298
N  N11  1  0.70080000  0.19350000  0.32110000  1.0 -0.3211380298
N  N12  1  0.29920000  0.69350000  0.17890000  1.0 -0.3211380298
N  N13  1  0.52510000  0.91250000  0.69580000  1.0 -0.3294316837
N  N14  1  0.47490000  0.41250000  0.80420000  1.0 -0.3294316837
N  N15  1  0.47490000  0.08750000  0.30420000  1.0 -0.3294316837
N  N16  1  0.52510000  0.58750000  0.19580000  1.0 -0.3294316837
N  N17  1  0.45830000  0.59360000  0.69720000  1.0 -0.3294316837
N  N18  1  0.54170000  0.09360000  0.80280000  1.0 -0.3294316837
N  N19  1  0.54170000  0.40640000  0.30280000  1.0 -0.3294316837
N  N20  1  0.45830000  0.90640000  0.19720000  1.0 -0.3294316837
N  N21  1  0.67200000  0.72080000  0.66380000  1.0 -0.3471871387
N  N22  1  0.32800000  0.22080000  0.83620000  1.0 -0.3471871387
N  N23  1  0.32800000  0.27920000  0.33620000  1.0 -0.3471871387
N  N24  1  0.67200000  0.77920000  0.16380000  1.0 -0.3471871387
N  N25  1  0.30590000  0.62150000  0.59350000  1.0 -0.3294316837
N  N26  1  0.69410000  0.12150000  0.90650000  1.0 -0.3294316837
N  N27  1  0.69410000  0.37850000  0.40650000  1.0 -0.3294316837
N  N28  1  0.30590000  0.87850000  0.09350000  1.0 -0.3294316837
N  N29  1  0.35580000  0.89970000  0.56790000  1.0 -0.3415454101
N  N30  1  0.64420000  0.39970000  0.93210000  1.0 -0.3415454101
N  N31  1  0.64420000  0.10030000  0.43210000  1.0 -0.3415454101
N  N32  1  0.35580000  0.60030000  0.06790000  1.0 -0.3415454101
N  N33  1  0.06550000  0.95390000  0.71510000  1.0 -0.3294316837
N  N34  1  0.93450000  0.45390000  0.78490000  1.0 -0.3294316837
N  N35  1  0.93450000  0.04610000  0.28490000  1.0 -0.3294316837
N  N36  1  0.06550000  0.54610000  0.21510000  1.0 -0.3294316837
N  N37  1  0.10390000  0.82860000  0.64330000  1.0 -0.3211380298
N  N38  1  0.89610000  0.32860000  0.85670000  1.0 -0.3211380298
N  N39  1  0.89610000  0.17140000  0.35670000  1.0 -0.3211380298
N  N40  1  0.10390000  0.67140000  0.14330000  1.0 -0.3211380298
N  N41  1  0.23530000  0.99680000  0.67110000  1.0 -0.3294316837
N  N42  1  0.76470000  0.49680000  0.82890000  1.0 -0.3294316837
N  N43  1  0.76470000  0.00320000  0.32890000  1.0 -0.3294316837
N  N44  1  0.23530000  0.50320000  0.17110000  1.0 -0.3294316837
N  N45  1  0.15950000  0.75410000  0.73390000  1.0 -0.3211380298
N  N46  1  0.84050000  0.25410000  0.76610000  1.0 -0.3211380298
N  N47  1  0.84050000  0.24590000  0.26610000  1.0 -0.3211380298
N  N48  1  0.15950000  0.74590000  0.23390000  1.0 -0.3211380298
N  N49  1  0.46290000  0.09870000  0.71510000  1.0 -0.3294316837
N  N50  1  0.53710000  0.59870000  0.78490000  1.0 -0.3294316837
N  N51  1  0.53710000  0.90130000  0.28490000  1.0 -0.3294316837
N  N52  1  0.46290000  0.40130000  0.21510000  1.0 -0.3294316837
N  N53  1  0.67950000  0.04280000  0.73950000  1.0 -0.3211380298
N  N54  1  0.32050000  0.54280000  0.76050000  1.0 -0.3211380298
N  N55  1  0.32050000  0.95720000  0.26050000  1.0 -0.3211380298
N  N56  1  0.67950000  0.45720000  0.23950000  1.0 -0.3211380298
N  N57  1  0.61310000  0.87960000  0.78450000  1.0 -0.3294316837
N  N58  1  0.38690000  0.37960000  0.71550000  1.0 -0.3294316837
N  N59  1  0.38690000  0.12040000  0.21550000  1.0 -0.3294316837
N  N60  1  0.61310000  0.62040000  0.28450000  1.0 -0.3294316837
N  N61  1  0.11160000  0.63820000  0.56300000  1.0 -0.3415454101
N  N62  1  0.88840000  0.13820000  0.93700000  1.0 -0.3415454101
N  N63  1  0.88840000  0.36180000  0.43700000  1.0 -0.3415454101
N  N64  1  0.11160000  0.86180000  0.06300000  1.0 -0.3471871387
N  N65  1  0.16800000  0.55620000  0.65180000  1.0 -0.3211380298
N  N66  1  0.83200000  0.05620000  0.84820000  1.0 -0.3211380298
N  N67  1  0.83200000  0.44380000  0.34820000  1.0 -0.3211380298
N  N68  1  0.16800000  0.94380000  0.15180000  1.0 -0.3211380298
N  N69  1  0.25320000  0.39600000  0.61050000  1.0 -0.3415454101
N  N70  1  0.74680000  0.89600000  0.88950000  1.0 -0.3415454101
N  N71  1  0.74680000  0.60400000  0.38950000  1.0 -0.3415454101
N  N72  1  0.25320000  0.10400000  0.11050000  1.0 -0.3415454101
N  N73  1  0.16440000  0.92450000  0.53940000  1.0 -0.3415454101
N  N74  1  0.83560000  0.42450000  0.96060000  1.0 -0.3294316837
N  N75  1  0.83560000  0.07550000  0.46060000  1.0 -0.3294316837
N  N76  1  0.16440000  0.57550000  0.03940000  1.0 -0.3294316837
N  N77  1  0.29120000  0.10440000  0.57260000  1.0 -0.3211380298
N  N78  1  0.70880000  0.60440000  0.92740000  1.0 -0.3211380298
N  N79  1  0.70880000  0.89560000  0.42740000  1.0 -0.3211380298
N  N80  1  0.29120000  0.39560000  0.07260000  1.0 -0.3211380298
N  N81  1  0.19630000  0.08660000  0.48550000  1.0 -0.3294316837
N  N82  1  0.80370000  0.58660000  0.01450000  1.0 -0.3294316837
N  N83  1  0.80370000  0.91340000  0.51450000  1.0 -0.3294316837
N  N84  1  0.19630000  0.41340000  0.98550000  1.0 -0.3294316837
N  N85  1  0.98420000  0.88030000  0.81560000  1.0 -0.2732001495
N  N86  1  0.01580000  0.38030000  0.68440000  1.0 -0.2732001495
N  N87  1  0.01580000  0.11970000  0.18440000  1.0 -0.2732001495
N  N88  1  0.98420000  0.61970000  0.31560000  1.0 -0.2732001495
N  N89  1  0.06270000  0.15320000  0.79500000  1.0 -0.3294316837
N  N90  1  0.93730000  0.65320000  0.70500000  1.0 -0.3294316837
N  N91  1  0.93730000  0.84680000  0.20500000  1.0 -0.3294316837
N  N92  1  0.06270000  0.34680000  0.29500000  1.0 -0.3294316837
N  N93  1  0.82910000  0.85370000  0.70570000  1.0 -0.3140984725
N  N94  1  0.17090000  0.35370000  0.79430000  1.0 -0.3140984725
N  N95  1  0.17090000  0.14630000  0.29430000  1.0 -0.3140984725
N  N96  1  0.82910000  0.64630000  0.20570000  1.0 -0.3140984725
N  N97  1  0.90980000  0.13660000  0.66630000  1.0 -0.3415454101
N  N98  1  0.09020000  0.63660000  0.83370000  1.0 -0.3415454101
N  N99  1  0.09020000  0.86340000  0.33370000  1.0 -0.3415454101
N  N100  1  0.90980000  0.36340000  0.16630000  1.0 -0.3415454101
N  N101  1  0.86400000  0.64740000  0.51830000  1.0 -0.2269452315
N  N102  1  0.13600000  0.14740000  0.98170000  1.0 -0.2269452315
N  N103  1  0.13600000  0.35260000  0.48170000  1.0 -0.2269452315
N  N104  1  0.86400000  0.85260000  0.01830000  1.0 -0.2269452315
N  N105  1  0.85620000  0.75540000  0.62650000  1.0 -0.3211380298
N  N106  1  0.14380000  0.25540000  0.87350000  1.0 -0.3211380298
N  N107  1  0.14380000  0.24460000  0.37350000  1.0 -0.3211380298
N  N108  1  0.85620000  0.74460000  0.12650000  1.0 -0.3211380298
N  N109  1  0.96760000  0.02400000  0.59350000  1.0 -0.3294316837
N  N110  1  0.03240000  0.52400000  0.90650000  1.0 -0.3294316837
N  N111  1  0.03240000  0.97600000  0.40650000  1.0 -0.3294316837
N  N112  1  0.96760000  0.47600000  0.09350000  1.0 -0.3294316837
N  N113  1  0.01150000  0.80930000  0.45820000  1.0 -0.3415454101
N  N114  1  0.98850000  0.30930000  0.04180000  1.0 -0.3415454101
N  N115  1  0.98850000  0.19070000  0.54180000  1.0 -0.3415454101
N  N116  1  0.01150000  0.69070000  0.95820000  1.0 -0.3415454101
N  N117  1  0.48460000  0.26170000  0.61940000  1.0 -0.1042987159
N  N118  1  0.51540000  0.76170000  0.88060000  1.0 -0.1056090769
N  N119  1  0.51540000  0.73830000  0.38060000  1.0 -0.1042987159
N  N120  1  0.48460000  0.23830000  0.11940000  1.0 -0.1042987159
N  N121  1  0.22810000  0.18810000  0.75130000  1.0 -0.3294316837
N  N122  1  0.77190000  0.68810000  0.74870000  1.0 -0.3294316837
N  N123  1  0.77190000  0.81190000  0.24870000  1.0 -0.3294316837
N  N124  1  0.22810000  0.31190000  0.25130000  1.0 -0.3294316837
N  N125  1  0.09270000  0.19550000  0.63290000  1.0 -0.3211380298
N  N126  1  0.90730000  0.69550000  0.86710000  1.0 -0.3211380298
N  N127  1  0.90730000  0.80450000  0.36710000  1.0 -0.3211380298
N  N128  1  0.09270000  0.30450000  0.13290000  1.0 -0.3211380298
