# DDEC6 charges by PACMAN v1.1 (https://github.com/mtap-research/PACMAN-charge/)
data_XUQWEL_FSR_pacman
_symmetry_space_group_name_H-M   'P 1'
_cell_length_a   16.79360000
_cell_length_b   9.58580000
_cell_length_c   22.58270000
_cell_angle_alpha   90.00000000
_cell_angle_beta   104.21600000
_cell_angle_gamma   90.00000000
_symmetry_Int_Tables_number   1
_chemical_formula_structural   La2H4S4O19
_chemical_formula_sum   'La16 H32 S32 O152'
_cell_volume   3524.03861983
_cell_formula_units_Z   8
loop_
 _symmetry_equiv_pos_site_id
 _symmetry_equiv_pos_as_xyz
  1  'x, y, z'
loop_
 _atom_site_type_symbol
 _atom_site_label
 _atom_site_symmetry_multiplicity
 _atom_site_fract_x
 _atom_site_fract_y
 _atom_site_fract_z
 _atom_site_occupancy
 _atom_site_charge
La  La1  1  0.42566000  0.72393000  0.81855000  1.0 1.7513787165
La  La2  1  0.42566000  0.77607000  0.31855000  1.0 1.7513787165
La  La3  1  0.57434000  0.27607000  0.18145000  1.0 1.7513787165
La  La4  1  0.57434000  0.22393000  0.68145000  1.0 1.7322421287
La  La5  1  0.26129000  0.22990000  0.95231000  1.0 1.9198778485
La  La6  1  0.26129000  0.27010000  0.45231000  1.0 1.9198778485
La  La7  1  0.73871000  0.77010000  0.04769000  1.0 1.9198778485
La  La8  1  0.73871000  0.72990000  0.54769000  1.0 1.9198778485
La  La9  1  0.96872000  0.26099000  0.91618000  1.0 1.9280924712
La  La10  1  0.96872000  0.23901000  0.41618000  1.0 1.9280924712
La  La11  1  0.03128000  0.73901000  0.08382000  1.0 1.9280924712
La  La12  1  0.03128000  0.76099000  0.58382000  1.0 1.9280924712
La  La13  1  0.17123000  0.79522000  0.87053000  1.0 1.9766456996
La  La14  1  0.17123000  0.70478000  0.37053000  1.0 1.9766456996
La  La15  1  0.82877000  0.20478000  0.12947000  1.0 1.9766456996
La  La16  1  0.82877000  0.29522000  0.62947000  1.0 1.9766456996
H  H1  1  0.99600000  0.50200000  0.82800000  1.0 0.4201282724
H  H2  1  0.99600000  0.99800000  0.32800000  1.0 0.4201282724
H  H3  1  0.00400000  0.49800000  0.17200000  1.0 0.4201282724
H  H4  1  0.00400000  0.00200000  0.67200000  1.0 0.4201282724
H  H5  1  0.91800000  0.42400000  0.79030000  1.0 0.4289475296
H  H6  1  0.91800000  0.07600000  0.29030000  1.0 0.4289475296
H  H7  1  0.08200000  0.57600000  0.20970000  1.0 0.4289475296
H  H8  1  0.08200000  0.92400000  0.70970000  1.0 0.4289475296
H  H9  1  0.02200000  0.35100000  0.06200000  1.0 0.4201282724
H  H10  1  0.02200000  0.14900000  0.56200000  1.0 0.4201282724
H  H11  1  0.97800000  0.64900000  0.93800000  1.0 0.4201282724
H  H12  1  0.97800000  0.85100000  0.43800000  1.0 0.4201282724
H  H13  1  0.02000000  0.18800000  0.06100000  1.0 0.3652319525
H  H14  1  0.02000000  0.31200000  0.56100000  1.0 0.3652319525
H  H15  1  0.98000000  0.81200000  0.93900000  1.0 0.3652319525
H  H16  1  0.98000000  0.68800000  0.43900000  1.0 0.3652319525
H  H17  1  0.10800000  0.55900000  0.77930000  1.0 0.4110604886
H  H18  1  0.10800000  0.94100000  0.27930000  1.0 0.4110604886
H  H19  1  0.89200000  0.44100000  0.22070000  1.0 0.4110604886
H  H20  1  0.89200000  0.05900000  0.72070000  1.0 0.4110604886
H  H21  1  0.13800000  0.49200000  0.84210000  1.0 0.4110604886
H  H22  1  0.13800000  0.00800000  0.34210000  1.0 0.4110604886
H  H23  1  0.86200000  0.50800000  0.15790000  1.0 0.4110604886
H  H24  1  0.86200000  0.99200000  0.65790000  1.0 0.4110604886
H  H25  1  0.98400000  0.78200000  0.79300000  1.0 0.4201282724
H  H26  1  0.98400000  0.71800000  0.29300000  1.0 0.4201282724
H  H27  1  0.01600000  0.21800000  0.20700000  1.0 0.4201282724
H  H28  1  0.01600000  0.28200000  0.70700000  1.0 0.4201282724
H  H29  1  0.99900000  0.92300000  0.82800000  1.0 0.3999996994
H  H30  1  0.99900000  0.57700000  0.32800000  1.0 0.3999996994
H  H31  1  0.00100000  0.07700000  0.17200000  1.0 0.3999996994
H  H32  1  0.00100000  0.42300000  0.67200000  1.0 0.3999996994
S  S1  1  0.13007000  0.52153000  0.98488000  1.0 1.5170131539
S  S2  1  0.13007000  0.97847000  0.48488000  1.0 1.5170131539
S  S3  1  0.86993000  0.47847000  0.01512000  1.0 1.5170131539
S  S4  1  0.86993000  0.02153000  0.51512000  1.0 1.5170131539
S  S5  1  0.34219000  0.96654000  0.89314000  1.0 1.417677692
S  S6  1  0.34219000  0.53346000  0.39314000  1.0 1.417677692
S  S7  1  0.65781000  0.03346000  0.10686000  1.0 1.417677692
S  S8  1  0.65781000  0.46654000  0.60686000  1.0 1.417677692
S  S9  1  0.12391000  0.00337000  0.00147000  1.0 1.0691070174
S  S10  1  0.12391000  0.49663000  0.50147000  1.0 1.0691070174
S  S11  1  0.87609000  0.99663000  0.99853000  1.0 1.0691070174
S  S12  1  0.87609000  0.50337000  0.49853000  1.0 1.0691070174
S  S13  1  0.20038000  0.70475000  0.71956000  1.0 1.4809513305
S  S14  1  0.20038000  0.79525000  0.21956000  1.0 1.4809513305
S  S15  1  0.79962000  0.29525000  0.28044000  1.0 1.4809513305
S  S16  1  0.79962000  0.20475000  0.78044000  1.0 1.4809513305
S  S17  1  0.51097000  0.46421000  0.75907000  1.0 1.3510801111
S  S18  1  0.51097000  0.03579000  0.25907000  1.0 1.3510801111
S  S19  1  0.48903000  0.53579000  0.24093000  1.0 1.3510801111
S  S20  1  0.48903000  0.96421000  0.74093000  1.0 1.3510801111
S  S21  1  0.32132000  0.48659000  0.88413000  1.0 1.4326982413
S  S22  1  0.32132000  0.01341000  0.38413000  1.0 1.4326982413
S  S23  1  0.67868000  0.51341000  0.11587000  1.0 1.4326982413
S  S24  1  0.67868000  0.98659000  0.61587000  1.0 1.4326982413
S  S25  1  0.41236000  0.25083000  0.07203000  1.0 1.3954951976
S  S26  1  0.41236000  0.24917000  0.57203000  1.0 1.3920991633
S  S27  1  0.58764000  0.74917000  0.92797000  1.0 1.3920991633
S  S28  1  0.58764000  0.75083000  0.42797000  1.0 1.3920991633
S  S29  1  0.08999000  0.16643000  0.82982000  1.0 1.4109868024
S  S30  1  0.08999000  0.33357000  0.32982000  1.0 1.4109868024
S  S31  1  0.91001000  0.83357000  0.17018000  1.0 1.4109868024
S  S32  1  0.91001000  0.66643000  0.67018000  1.0 1.4109868024
O  O1  1  0.16560000  0.62020000  0.95060000  1.0 -0.6804277907
O  O2  1  0.16560000  0.87980000  0.45060000  1.0 -0.6804277907
O  O3  1  0.83440000  0.37980000  0.04940000  1.0 -0.6804277907
O  O4  1  0.83440000  0.12020000  0.54940000  1.0 -0.6804277907
O  O5  1  0.18530000  0.40180000  0.99843000  1.0 -0.6585626985
O  O6  1  0.18530000  0.09820000  0.49843000  1.0 -0.6585626985
O  O7  1  0.81470000  0.59820000  0.00157000  1.0 -0.6585626985
O  O8  1  0.81470000  0.90180000  0.50157000  1.0 -0.6585626985
O  O9  1  0.04940000  0.47860000  0.94997000  1.0 -0.7178978037
O  O10  1  0.04940000  0.02140000  0.44997000  1.0 -0.7178978037
O  O11  1  0.95060000  0.52140000  0.05003000  1.0 -0.7178978037
O  O12  1  0.95060000  0.97860000  0.55003000  1.0 -0.7178978037
O  O13  1  0.12530000  0.58470000  0.04324000  1.0 -0.6804277907
O  O14  1  0.12530000  0.91530000  0.54324000  1.0 -0.6804277907
O  O15  1  0.87470000  0.41530000  0.95676000  1.0 -0.6804277907
O  O16  1  0.87470000  0.08470000  0.45676000  1.0 -0.6804277907
O  O17  1  0.30030000  0.89490000  0.83607000  1.0 -0.6531573023
O  O18  1  0.30030000  0.60510000  0.33607000  1.0 -0.6531573023
O  O19  1  0.69970000  0.10510000  0.16393000  1.0 -0.6531573023
O  O20  1  0.69970000  0.39490000  0.66393000  1.0 -0.6531573023
O  O21  1  0.34080000  0.11820000  0.88403000  1.0 -0.5812549378
O  O22  1  0.34080000  0.38180000  0.38403000  1.0 -0.5812549378
O  O23  1  0.65920000  0.88180000  0.11597000  1.0 -0.5812549378
O  O24  1  0.65920000  0.61820000  0.61597000  1.0 -0.5812549378
O  O25  1  0.29230000  0.93760000  0.93826000  1.0 -0.7113678839
O  O26  1  0.29230000  0.56240000  0.43826000  1.0 -0.7113678839
O  O27  1  0.70770000  0.06240000  0.06174000  1.0 -0.7113678839
O  O28  1  0.70770000  0.43760000  0.56174000  1.0 -0.7113678839
O  O29  1  0.42480000  0.91080000  0.91309000  1.0 -0.4728403027
O  O30  1  0.42480000  0.58920000  0.41309000  1.0 -0.4728403027
O  O31  1  0.57520000  0.08920000  0.08691000  1.0 -0.4728403027
O  O32  1  0.57520000  0.41080000  0.58691000  1.0 -0.4728403027
O  O33  1  0.20300000  0.07650000  0.01667000  1.0 -0.5488507574
O  O34  1  0.20300000  0.42350000  0.51667000  1.0 -0.5488507574
O  O35  1  0.79700000  0.92350000  0.98333000  1.0 -0.5488507574
O  O36  1  0.79700000  0.57650000  0.48333000  1.0 -0.5488507574
O  O37  1  0.11020000  0.93540000  0.05472000  1.0 -0.568954059
O  O38  1  0.11020000  0.56460000  0.55472000  1.0 -0.568954059
O  O39  1  0.88980000  0.06460000  0.94528000  1.0 -0.568954059
O  O40  1  0.88980000  0.43540000  0.44528000  1.0 -0.568954059
O  O41  1  0.06100000  0.12810000  0.99690000  1.0 -0.0999893557
O  O42  1  0.06100000  0.37190000  0.49690000  1.0 -0.0999893557
O  O43  1  0.93900000  0.87190000  0.00310000  1.0 -0.0922117467
O  O44  1  0.93900000  0.62810000  0.50310000  1.0 -0.0922117467
O  O45  1  0.10560000  0.93560000  0.94440000  1.0 -0.0232161914
O  O46  1  0.10560000  0.56440000  0.44440000  1.0 -0.0232161914
O  O47  1  0.89440000  0.06440000  0.05560000  1.0 -0.0232161914
O  O48  1  0.89440000  0.43560000  0.55560000  1.0 -0.0232161914
O  O49  1  0.17100000  0.75480000  0.65625000  1.0 -0.6585626985
O  O50  1  0.17100000  0.74520000  0.15625000  1.0 -0.6585626985
O  O51  1  0.82900000  0.24520000  0.34375000  1.0 -0.6585626985
O  O52  1  0.82900000  0.25480000  0.84375000  1.0 -0.6585626985
O  O53  1  0.16340000  0.79500000  0.75923000  1.0 -0.7178978037
O  O54  1  0.16340000  0.70500000  0.25923000  1.0 -0.7178978037
O  O55  1  0.83660000  0.20500000  0.24077000  1.0 -0.7178978037
O  O56  1  0.83660000  0.29500000  0.74077000  1.0 -0.7178978037
O  O57  1  0.17420000  0.56060000  0.72530000  1.0 -0.6044912423
O  O58  1  0.17420000  0.93940000  0.22530000  1.0 -0.6044912423
O  O59  1  0.82580000  0.43940000  0.27470000  1.0 -0.6044912423
O  O60  1  0.82580000  0.06060000  0.77470000  1.0 -0.6044912423
O  O61  1  0.28980000  0.71450000  0.73726000  1.0 -0.6181110378
O  O62  1  0.28980000  0.78550000  0.23726000  1.0 -0.6181110378
O  O63  1  0.71020000  0.28550000  0.26274000  1.0 -0.6181110378
O  O64  1  0.71020000  0.21450000  0.76274000  1.0 -0.6181110378
O  O65  1  0.54850000  0.53770000  0.81585000  1.0 -0.5488507574
O  O66  1  0.54850000  0.96230000  0.31585000  1.0 -0.5488507574
O  O67  1  0.45150000  0.46230000  0.18415000  1.0 -0.5488507574
O  O68  1  0.45150000  0.03770000  0.68415000  1.0 -0.5437636162
O  O69  1  0.44120000  0.98110000  0.78695000  1.0 -0.5583477908
O  O70  1  0.44120000  0.51890000  0.28695000  1.0 -0.5583477908
O  O71  1  0.55880000  0.01890000  0.21305000  1.0 -0.5583477908
O  O72  1  0.55880000  0.48110000  0.71305000  1.0 -0.5583477908
O  O73  1  0.42840000  0.52300000  0.73710000  1.0 -0.5316342052
O  O74  1  0.42840000  0.97700000  0.23710000  1.0 -0.5316342052
O  O75  1  0.57160000  0.47700000  0.26290000  1.0 -0.5316342052
O  O76  1  0.57160000  0.02300000  0.76290000  1.0 -0.5316342052
O  O77  1  0.49090000  0.81070000  0.73048000  1.0 -0.5583477908
O  O78  1  0.49090000  0.68930000  0.23048000  1.0 -0.5583477908
O  O79  1  0.50910000  0.18930000  0.26952000  1.0 -0.5583477908
O  O80  1  0.50910000  0.31070000  0.76952000  1.0 -0.5583477908
O  O81  1  0.29700000  0.63350000  0.88520000  1.0 -0.6896995689
O  O82  1  0.29700000  0.86650000  0.38520000  1.0 -0.6896995689
O  O83  1  0.70300000  0.36650000  0.11480000  1.0 -0.6896995689
O  O84  1  0.70300000  0.13350000  0.61480000  1.0 -0.6896995689
O  O85  1  0.38120000  0.48180000  0.84721000  1.0 -0.5488507574
O  O86  1  0.38120000  0.01820000  0.34721000  1.0 -0.5488507574
O  O87  1  0.61880000  0.51820000  0.15279000  1.0 -0.5488507574
O  O88  1  0.61880000  0.98180000  0.65279000  1.0 -0.5488507574
O  O89  1  0.35630000  0.43570000  0.94625000  1.0 -0.590125748
O  O90  1  0.35630000  0.06430000  0.44625000  1.0 -0.590125748
O  O91  1  0.64370000  0.56430000  0.05375000  1.0 -0.590125748
O  O92  1  0.64370000  0.93570000  0.55375000  1.0 -0.590125748
O  O93  1  0.25070000  0.39600000  0.85855000  1.0 -0.6398834373
O  O94  1  0.25070000  0.10400000  0.35855000  1.0 -0.6398834373
O  O95  1  0.74930000  0.60400000  0.14145000  1.0 -0.6398834373
O  O96  1  0.74930000  0.89600000  0.64145000  1.0 -0.6398834373
O  O97  1  0.39730000  0.15520000  0.01932000  1.0 -0.6129535224
O  O98  1  0.39730000  0.34480000  0.51932000  1.0 -0.6129535224
O  O99  1  0.60270000  0.84480000  0.98068000  1.0 -0.6129535224
O  O100  1  0.60270000  0.65520000  0.48068000  1.0 -0.6129535224
O  O101  1  0.48340000  0.34120000  0.07512000  1.0 -0.568954059
O  O102  1  0.48340000  0.15880000  0.57512000  1.0 -0.5583477908
O  O103  1  0.51660000  0.65880000  0.92488000  1.0 -0.568954059
O  O104  1  0.51660000  0.84120000  0.42488000  1.0 -0.568954059
O  O105  1  0.42860000  0.17220000  0.12997000  1.0 -0.5812549378
O  O106  1  0.42860000  0.32780000  0.62997000  1.0 -0.568954059
O  O107  1  0.57140000  0.82780000  0.87003000  1.0 -0.568954059
O  O108  1  0.57140000  0.67220000  0.37003000  1.0 -0.568954059
O  O109  1  0.33560000  0.33300000  0.06386000  1.0 -0.568954059
O  O110  1  0.33560000  0.16700000  0.56386000  1.0 -0.568954059
O  O111  1  0.66440000  0.66700000  0.93614000  1.0 -0.568954059
O  O112  1  0.66440000  0.83300000  0.43614000  1.0 -0.568954059
O  O113  1  0.14950000  0.05140000  0.84460000  1.0 -0.7006500001
O  O114  1  0.14950000  0.44860000  0.34460000  1.0 -0.7006500001
O  O115  1  0.85050000  0.94860000  0.15540000  1.0 -0.7006500001
O  O116  1  0.85050000  0.55140000  0.65540000  1.0 -0.7006500001
O  O117  1  0.09520000  0.23200000  0.77380000  1.0 -0.5488507574
O  O118  1  0.09520000  0.26800000  0.27380000  1.0 -0.5488507574
O  O119  1  0.90480000  0.76800000  0.22620000  1.0 -0.5488507574
O  O120  1  0.90480000  0.73200000  0.72620000  1.0 -0.5488507574
O  O121  1  0.11150000  0.26630000  0.88187000  1.0 -0.7360194708
O  O122  1  0.11150000  0.23370000  0.38187000  1.0 -0.7360194708
O  O123  1  0.88850000  0.73370000  0.11813000  1.0 -0.7360194708
O  O124  1  0.88850000  0.76630000  0.61813000  1.0 -0.7349719788
O  O125  1  0.00580000  0.11900000  0.82808000  1.0 -0.7006500001
O  O126  1  0.00580000  0.38100000  0.32808000  1.0 -0.7006500001
O  O127  1  0.99420000  0.88100000  0.17192000  1.0 -0.7006500001
O  O128  1  0.99420000  0.61900000  0.67192000  1.0 -0.7006500001
O  O129  1  0.94900000  0.44690000  0.83046000  1.0 -0.8083879139
O  O130  1  0.94900000  0.05310000  0.33046000  1.0 -0.8083879139
O  O131  1  0.05100000  0.55310000  0.16954000  1.0 -0.8083879139
O  O132  1  0.05100000  0.94690000  0.66954000  1.0 -0.8083879139
O  O133  1  0.02050000  0.27090000  0.03610000  1.0 -0.5583477908
O  O134  1  0.02050000  0.22910000  0.53610000  1.0 -0.5583477908
O  O135  1  0.97950000  0.72910000  0.96390000  1.0 -0.5583477908
O  O136  1  0.97950000  0.77090000  0.46390000  1.0 -0.5583477908
O  O137  1  0.10160000  0.56180000  0.82031000  1.0 -0.7838917609
O  O138  1  0.10160000  0.93820000  0.32031000  1.0 -0.7838917609
O  O139  1  0.89840000  0.43820000  0.17969000  1.0 -0.7838917609
O  O140  1  0.89840000  0.06180000  0.67969000  1.0 -0.7838917609
O  O141  1  0.01710000  0.82860000  0.82800000  1.0 -0.8206910278
O  O142  1  0.01710000  0.67140000  0.32800000  1.0 -0.8206910278
O  O143  1  0.98290000  0.17140000  0.17200000  1.0 -0.8206910278
O  O144  1  0.98290000  0.32860000  0.67200000  1.0 -0.8206910278
O  O145  1  0.06440000  0.07800000  0.96190000  1.0 -0.0999893557
O  O146  1  0.06440000  0.42200000  0.46190000  1.0 -0.0999893557
O  O147  1  0.93560000  0.92200000  0.03810000  1.0 -0.0999893557
O  O148  1  0.93560000  0.57800000  0.53810000  1.0 -0.0999893557
O  O149  1  0.14170000  0.87160000  0.96760000  1.0 -0.1875890429
O  O150  1  0.14170000  0.62840000  0.46760000  1.0 -0.1875890429
O  O151  1  0.85830000  0.12840000  0.03240000  1.0 -0.1824864979
O  O152  1  0.85830000  0.37160000  0.53240000  1.0 -0.1875890429
