# DDEC6 charges by PACMAN v1.1 (https://github.com/mtap-research/PACMAN-charge/)
data_XUWMAG_ASR_pacman
_symmetry_space_group_name_H-M   'P 1'
_cell_length_a   32.41300000
_cell_length_b   32.41300000
_cell_length_c   19.01930000
_cell_angle_alpha   90.00000000
_cell_angle_beta   90.00000000
_cell_angle_gamma   90.00000000
_symmetry_Int_Tables_number   1
_chemical_formula_structural   Zr3H28C67O17F36
_chemical_formula_sum   'Zr24 H224 C536 O136 F288'
_cell_volume   19981.72544058
_cell_formula_units_Z   8
loop_
 _symmetry_equiv_pos_site_id
 _symmetry_equiv_pos_as_xyz
  1  'x, y, z'
loop_
 _atom_site_type_symbol
 _atom_site_label
 _atom_site_symmetry_multiplicity
 _atom_site_fract_x
 _atom_site_fract_y
 _atom_site_fract_z
 _atom_site_occupancy
 _atom_site_charge
Zr  Zr1  1  0.79138000  0.70862000  0.16627000  1.0 2.3685514482
Zr  Zr2  1  0.78484000  0.71516000  0.35145000  1.0 2.3144771906
Zr  Zr3  1  0.20862000  0.29138000  0.16627000  1.0 2.3685514482
Zr  Zr4  1  0.21516000  0.28484000  0.35145000  1.0 2.3169406506
Zr  Zr5  1  0.20862000  0.70862000  0.66627000  1.0 2.3685514482
Zr  Zr6  1  0.21516000  0.71516000  0.85145000  1.0 2.3144771906
Zr  Zr7  1  0.79138000  0.29138000  0.66627000  1.0 2.3685514482
Zr  Zr8  1  0.78484000  0.28484000  0.85145000  1.0 2.3169406506
Zr  Zr9  1  0.29138000  0.79138000  0.83373000  1.0 2.3685514482
Zr  Zr10  1  0.28484000  0.78484000  0.64855000  1.0 2.3169406506
Zr  Zr11  1  0.70862000  0.20862000  0.83373000  1.0 2.3685514482
Zr  Zr12  1  0.71516000  0.21516000  0.64855000  1.0 2.3144771906
Zr  Zr13  1  0.70862000  0.79138000  0.33373000  1.0 2.3685514482
Zr  Zr14  1  0.71516000  0.78484000  0.14855000  1.0 2.3144771906
Zr  Zr15  1  0.29138000  0.20862000  0.33373000  1.0 2.3685514482
Zr  Zr16  1  0.28484000  0.21516000  0.14855000  1.0 2.3169406506
Zr  Zr17  1  0.80378000  0.80378000  0.25000000  1.0 2.3843561264
Zr  Zr18  1  0.19622000  0.19622000  0.25000000  1.0 2.3864190432
Zr  Zr19  1  0.30378000  0.69622000  0.75000000  1.0 2.3843561264
Zr  Zr20  1  0.69622000  0.30378000  0.75000000  1.0 2.3843561264
Zr  Zr21  1  0.69622000  0.69622000  0.25000000  1.0 2.3843561264
Zr  Zr22  1  0.30378000  0.30378000  0.25000000  1.0 2.3864190432
Zr  Zr23  1  0.19622000  0.80378000  0.75000000  1.0 2.3843561264
Zr  Zr24  1  0.80378000  0.19622000  0.75000000  1.0 2.3843561264
H  H1  1  0.72600000  0.90100000  0.45860000  1.0 0.1300133514
H  H2  1  0.83240000  0.99280000  0.40560000  1.0 0.2033800038
H  H3  1  0.82700000  0.93000000  0.34560000  1.0 0.1300133514
H  H4  1  0.82420000  0.07110000  0.64580000  1.0 0.1300133514
H  H5  1  0.74000000  0.11390000  0.51140000  1.0 0.1300133514
H  H6  1  0.74240000  0.05380000  0.44600000  1.0 0.180323852
H  H7  1  0.84260000  0.78750000  0.60510000  1.0 0.1300133514
H  H8  1  0.78330000  0.66640000  0.69320000  1.0 0.1103769488
H  H9  1  0.77220000  0.68570000  0.57620000  1.0 0.1103769488
H  H10  1  0.77760000  0.73320000  0.94190000  1.0 0.1103769488
H  H11  1  0.77800000  0.74710000  0.82100000  1.0 0.09105064
H  H12  1  0.86490000  0.64530000  0.91340000  1.0 0.1172712094
H  H13  1  0.73390000  0.96100000  0.52420000  1.0 0.189910307
H  H14  1  0.82630000  0.00770000  0.58580000  1.0 0.180323852
H  H15  1  0.27400000  0.09900000  0.45860000  1.0 0.1300133514
H  H16  1  0.16760000  0.00720000  0.40560000  1.0 0.2033800038
H  H17  1  0.17300000  0.07000000  0.34560000  1.0 0.1300133514
H  H18  1  0.17580000  0.92890000  0.64580000  1.0 0.1300133514
H  H19  1  0.26000000  0.88610000  0.51140000  1.0 0.1300133514
H  H20  1  0.25760000  0.94620000  0.44600000  1.0 0.180323852
H  H21  1  0.15740000  0.21250000  0.60510000  1.0 0.1300133514
H  H22  1  0.21670000  0.33360000  0.69320000  1.0 0.1103769488
H  H23  1  0.22780000  0.31430000  0.57620000  1.0 0.1103769488
H  H24  1  0.22240000  0.26680000  0.94190000  1.0 0.1103769488
H  H25  1  0.22200000  0.25290000  0.82100000  1.0 0.09105064
H  H26  1  0.13510000  0.35470000  0.91340000  1.0 0.1172712094
H  H27  1  0.26610000  0.03900000  0.52420000  1.0 0.189910307
H  H28  1  0.17370000  0.99230000  0.58580000  1.0 0.189910307
H  H29  1  0.40100000  0.77400000  0.95860000  1.0 0.1300133514
H  H30  1  0.49280000  0.66760000  0.90560000  1.0 0.2059063802
H  H31  1  0.43000000  0.67300000  0.84560000  1.0 0.1300133514
H  H32  1  0.57110000  0.67580000  0.14580000  1.0 0.1300133514
H  H33  1  0.61390000  0.76000000  0.01140000  1.0 0.1300133514
H  H34  1  0.55380000  0.75760000  0.94600000  1.0 0.180323852
H  H35  1  0.28750000  0.65740000  0.10510000  1.0 0.1300133514
H  H36  1  0.16640000  0.71670000  0.19320000  1.0 0.1103769488
H  H37  1  0.18570000  0.72780000  0.07620000  1.0 0.1103769488
H  H38  1  0.23320000  0.72240000  0.44190000  1.0 0.1103769488
H  H39  1  0.24710000  0.72200000  0.32100000  1.0 0.09105064
H  H40  1  0.14530000  0.63510000  0.41340000  1.0 0.1172712094
H  H41  1  0.46100000  0.76610000  0.02420000  1.0 0.189910307
H  H42  1  0.50770000  0.67370000  0.08580000  1.0 0.180323852
H  H43  1  0.59900000  0.22600000  0.95860000  1.0 0.1300133514
H  H44  1  0.50720000  0.33240000  0.90560000  1.0 0.2033800038
H  H45  1  0.57000000  0.32700000  0.84560000  1.0 0.1300133514
H  H46  1  0.42890000  0.32420000  0.14580000  1.0 0.1300133514
H  H47  1  0.38610000  0.24000000  0.01140000  1.0 0.1300133514
H  H48  1  0.44620000  0.24240000  0.94600000  1.0 0.180323852
H  H49  1  0.71250000  0.34260000  0.10510000  1.0 0.1300133514
H  H50  1  0.83360000  0.28330000  0.19320000  1.0 0.1103769488
H  H51  1  0.81430000  0.27220000  0.07620000  1.0 0.1103769488
H  H52  1  0.76680000  0.27760000  0.44190000  1.0 0.1103769488
H  H53  1  0.75290000  0.27800000  0.32100000  1.0 0.09105064
H  H54  1  0.85470000  0.36490000  0.41340000  1.0 0.1172712094
H  H55  1  0.53900000  0.23390000  0.02420000  1.0 0.189910307
H  H56  1  0.49230000  0.32630000  0.08580000  1.0 0.180323852
H  H57  1  0.22600000  0.59900000  0.54140000  1.0 0.1300133514
H  H58  1  0.33240000  0.50720000  0.59440000  1.0 0.2033800038
H  H59  1  0.32700000  0.57000000  0.65440000  1.0 0.1300133514
H  H60  1  0.32420000  0.42890000  0.35420000  1.0 0.1300133514
H  H61  1  0.24000000  0.38610000  0.48860000  1.0 0.1300133514
H  H62  1  0.24240000  0.44620000  0.55400000  1.0 0.180323852
H  H63  1  0.34260000  0.71250000  0.39490000  1.0 0.1300133514
H  H64  1  0.28330000  0.83360000  0.30680000  1.0 0.1103769488
H  H65  1  0.27220000  0.81430000  0.42380000  1.0 0.1103769488
H  H66  1  0.27760000  0.76680000  0.05810000  1.0 0.1103769488
H  H67  1  0.27800000  0.75290000  0.17900000  1.0 0.09105064
H  H68  1  0.36490000  0.85470000  0.08660000  1.0 0.1172712094
H  H69  1  0.23390000  0.53900000  0.47580000  1.0 0.189910307
H  H70  1  0.32630000  0.49230000  0.41420000  1.0 0.180323852
H  H71  1  0.77400000  0.40100000  0.54140000  1.0 0.1300133514
H  H72  1  0.66760000  0.49280000  0.59440000  1.0 0.2033800038
H  H73  1  0.67300000  0.43000000  0.65440000  1.0 0.1300133514
H  H74  1  0.67580000  0.57110000  0.35420000  1.0 0.1300133514
H  H75  1  0.76000000  0.61390000  0.48860000  1.0 0.1300133514
H  H76  1  0.75760000  0.55380000  0.55400000  1.0 0.180323852
H  H77  1  0.65740000  0.28750000  0.39490000  1.0 0.1300133514
H  H78  1  0.71670000  0.16640000  0.30680000  1.0 0.1103769488
H  H79  1  0.72780000  0.18570000  0.42380000  1.0 0.1103769488
H  H80  1  0.72240000  0.23320000  0.05810000  1.0 0.1103769488
H  H81  1  0.72200000  0.24710000  0.17900000  1.0 0.09105064
H  H82  1  0.63510000  0.14530000  0.08660000  1.0 0.1172712094
H  H83  1  0.76610000  0.46100000  0.47580000  1.0 0.189910307
H  H84  1  0.67370000  0.50770000  0.41420000  1.0 0.180323852
H  H85  1  0.90100000  0.72600000  0.04140000  1.0 0.1300133514
H  H86  1  0.99280000  0.83240000  0.09440000  1.0 0.2033800038
H  H87  1  0.93000000  0.82700000  0.15440000  1.0 0.1300133514
H  H88  1  0.07110000  0.82420000  0.85420000  1.0 0.1300133514
H  H89  1  0.11390000  0.74000000  0.98860000  1.0 0.1300133514
H  H90  1  0.05380000  0.74240000  0.05400000  1.0 0.180323852
H  H91  1  0.78750000  0.84260000  0.89490000  1.0 0.1300133514
H  H92  1  0.66640000  0.78330000  0.80680000  1.0 0.1103769488
H  H93  1  0.68570000  0.77220000  0.92380000  1.0 0.1103769488
H  H94  1  0.73320000  0.77760000  0.55810000  1.0 0.1103769488
H  H95  1  0.74710000  0.77800000  0.67900000  1.0 0.09105064
H  H96  1  0.64530000  0.86490000  0.58660000  1.0 0.1172712094
H  H97  1  0.96100000  0.73390000  0.97580000  1.0 0.189910307
H  H98  1  0.00770000  0.82630000  0.91420000  1.0 0.189910307
H  H99  1  0.09900000  0.27400000  0.04140000  1.0 0.1300133514
H  H100  1  0.00720000  0.16760000  0.09440000  1.0 0.2033800038
H  H101  1  0.07000000  0.17300000  0.15440000  1.0 0.1300133514
H  H102  1  0.92890000  0.17580000  0.85420000  1.0 0.1300133514
H  H103  1  0.88610000  0.26000000  0.98860000  1.0 0.1300133514
H  H104  1  0.94620000  0.25760000  0.05400000  1.0 0.180323852
H  H105  1  0.21250000  0.15740000  0.89490000  1.0 0.1300133514
H  H106  1  0.33360000  0.21670000  0.80680000  1.0 0.1103769488
H  H107  1  0.31430000  0.22780000  0.92380000  1.0 0.1103769488
H  H108  1  0.26680000  0.22240000  0.55810000  1.0 0.1103769488
H  H109  1  0.25290000  0.22200000  0.67900000  1.0 0.09105064
H  H110  1  0.35470000  0.13510000  0.58660000  1.0 0.1172712094
H  H111  1  0.03900000  0.26610000  0.97580000  1.0 0.189910307
H  H112  1  0.99230000  0.17370000  0.91420000  1.0 0.180323852
H  H113  1  0.77400000  0.59900000  0.04140000  1.0 0.1300133514
H  H114  1  0.66760000  0.50720000  0.09440000  1.0 0.2033800038
H  H115  1  0.67300000  0.57000000  0.15440000  1.0 0.1300133514
H  H116  1  0.67580000  0.42890000  0.85420000  1.0 0.1300133514
H  H117  1  0.76000000  0.38610000  0.98860000  1.0 0.1300133514
H  H118  1  0.75760000  0.44620000  0.05400000  1.0 0.180323852
H  H119  1  0.65740000  0.71250000  0.89490000  1.0 0.1300133514
H  H120  1  0.71670000  0.83360000  0.80680000  1.0 0.1103769488
H  H121  1  0.72780000  0.81430000  0.92380000  1.0 0.1103769488
H  H122  1  0.72240000  0.76680000  0.55810000  1.0 0.1103769488
H  H123  1  0.72200000  0.75290000  0.67900000  1.0 0.09105064
H  H124  1  0.63510000  0.85470000  0.58660000  1.0 0.1172712094
H  H125  1  0.76610000  0.53900000  0.97580000  1.0 0.189910307
H  H126  1  0.67370000  0.49230000  0.91420000  1.0 0.180323852
H  H127  1  0.22600000  0.40100000  0.04140000  1.0 0.1300133514
H  H128  1  0.33240000  0.49280000  0.09440000  1.0 0.2033800038
H  H129  1  0.32700000  0.43000000  0.15440000  1.0 0.1300133514
H  H130  1  0.32420000  0.57110000  0.85420000  1.0 0.1300133514
H  H131  1  0.24000000  0.61390000  0.98860000  1.0 0.1300133514
H  H132  1  0.24240000  0.55380000  0.05400000  1.0 0.180323852
H  H133  1  0.34260000  0.28750000  0.89490000  1.0 0.1300133514
H  H134  1  0.28330000  0.16640000  0.80680000  1.0 0.1103769488
H  H135  1  0.27220000  0.18570000  0.92380000  1.0 0.1103769488
H  H136  1  0.27760000  0.23320000  0.55810000  1.0 0.1103769488
H  H137  1  0.27800000  0.24710000  0.67900000  1.0 0.09105064
H  H138  1  0.36490000  0.14530000  0.58660000  1.0 0.1172712094
H  H139  1  0.23390000  0.46100000  0.97580000  1.0 0.189910307
H  H140  1  0.32630000  0.50770000  0.91420000  1.0 0.189910307
H  H141  1  0.09900000  0.72600000  0.54140000  1.0 0.1300133514
H  H142  1  0.00720000  0.83240000  0.59440000  1.0 0.2059063802
H  H143  1  0.07000000  0.82700000  0.65440000  1.0 0.1300133514
H  H144  1  0.92890000  0.82420000  0.35420000  1.0 0.1300133514
H  H145  1  0.88610000  0.74000000  0.48860000  1.0 0.1300133514
H  H146  1  0.94620000  0.74240000  0.55400000  1.0 0.180323852
H  H147  1  0.21250000  0.84260000  0.39490000  1.0 0.1300133514
H  H148  1  0.33360000  0.78330000  0.30680000  1.0 0.1103769488
H  H149  1  0.31430000  0.77220000  0.42380000  1.0 0.1103769488
H  H150  1  0.26680000  0.77760000  0.05810000  1.0 0.1103769488
H  H151  1  0.25290000  0.77800000  0.17900000  1.0 0.09105064
H  H152  1  0.35470000  0.86490000  0.08660000  1.0 0.1172712094
H  H153  1  0.03900000  0.73390000  0.47580000  1.0 0.189910307
H  H154  1  0.99230000  0.82630000  0.41420000  1.0 0.180323852
H  H155  1  0.90100000  0.27400000  0.54140000  1.0 0.1300133514
H  H156  1  0.99280000  0.16760000  0.59440000  1.0 0.2033800038
H  H157  1  0.93000000  0.17300000  0.65440000  1.0 0.1300133514
H  H158  1  0.07110000  0.17580000  0.35420000  1.0 0.1300133514
H  H159  1  0.11390000  0.26000000  0.48860000  1.0 0.1300133514
H  H160  1  0.05380000  0.25760000  0.55400000  1.0 0.180323852
H  H161  1  0.78750000  0.15740000  0.39490000  1.0 0.1300133514
H  H162  1  0.66640000  0.21670000  0.30680000  1.0 0.1103769488
H  H163  1  0.68570000  0.22780000  0.42380000  1.0 0.1103769488
H  H164  1  0.73320000  0.22240000  0.05810000  1.0 0.1103769488
H  H165  1  0.74710000  0.22200000  0.17900000  1.0 0.09105064
H  H166  1  0.64530000  0.13510000  0.08660000  1.0 0.1172712094
H  H167  1  0.96100000  0.26610000  0.47580000  1.0 0.189910307
H  H168  1  0.00770000  0.17370000  0.41420000  1.0 0.189910307
H  H169  1  0.27400000  0.90100000  0.95860000  1.0 0.1300133514
H  H170  1  0.16760000  0.99280000  0.90560000  1.0 0.2059063802
H  H171  1  0.17300000  0.93000000  0.84560000  1.0 0.1300133514
H  H172  1  0.17580000  0.07110000  0.14580000  1.0 0.1300133514
H  H173  1  0.26000000  0.11390000  0.01140000  1.0 0.1300133514
H  H174  1  0.25760000  0.05380000  0.94600000  1.0 0.180323852
H  H175  1  0.15740000  0.78750000  0.10510000  1.0 0.1300133514
H  H176  1  0.21670000  0.66640000  0.19320000  1.0 0.1103769488
H  H177  1  0.22780000  0.68570000  0.07620000  1.0 0.1103769488
H  H178  1  0.22240000  0.73320000  0.44190000  1.0 0.1103769488
H  H179  1  0.22200000  0.74710000  0.32100000  1.0 0.09105064
H  H180  1  0.13510000  0.64530000  0.41340000  1.0 0.1172712094
H  H181  1  0.26610000  0.96100000  0.02420000  1.0 0.189910307
H  H182  1  0.17370000  0.00770000  0.08580000  1.0 0.180323852
H  H183  1  0.72600000  0.09900000  0.95860000  1.0 0.1300133514
H  H184  1  0.83240000  0.00720000  0.90560000  1.0 0.2033800038
H  H185  1  0.82700000  0.07000000  0.84560000  1.0 0.1300133514
H  H186  1  0.82420000  0.92890000  0.14580000  1.0 0.1300133514
H  H187  1  0.74000000  0.88610000  0.01140000  1.0 0.1300133514
H  H188  1  0.74240000  0.94620000  0.94600000  1.0 0.180323852
H  H189  1  0.84260000  0.21250000  0.10510000  1.0 0.1300133514
H  H190  1  0.78330000  0.33360000  0.19320000  1.0 0.1103769488
H  H191  1  0.77220000  0.31430000  0.07620000  1.0 0.1103769488
H  H192  1  0.77760000  0.26680000  0.44190000  1.0 0.1103769488
H  H193  1  0.77800000  0.25290000  0.32100000  1.0 0.09105064
H  H194  1  0.86490000  0.35470000  0.41340000  1.0 0.1172712094
H  H195  1  0.73390000  0.03900000  0.02420000  1.0 0.189910307
H  H196  1  0.82630000  0.99230000  0.08580000  1.0 0.180323852
H  H197  1  0.59900000  0.77400000  0.45860000  1.0 0.1300133514
H  H198  1  0.50720000  0.66760000  0.40560000  1.0 0.2059063802
H  H199  1  0.57000000  0.67300000  0.34560000  1.0 0.1300133514
H  H200  1  0.42890000  0.67580000  0.64580000  1.0 0.1300133514
H  H201  1  0.38610000  0.76000000  0.51140000  1.0 0.1300133514
H  H202  1  0.44620000  0.75760000  0.44600000  1.0 0.180323852
H  H203  1  0.71250000  0.65740000  0.60510000  1.0 0.1300133514
H  H204  1  0.83360000  0.71670000  0.69320000  1.0 0.1103769488
H  H205  1  0.81430000  0.72780000  0.57620000  1.0 0.1103769488
H  H206  1  0.76680000  0.72240000  0.94190000  1.0 0.1103769488
H  H207  1  0.75290000  0.72200000  0.82100000  1.0 0.09105064
H  H208  1  0.85470000  0.63510000  0.91340000  1.0 0.1172712094
H  H209  1  0.53900000  0.76610000  0.52420000  1.0 0.189910307
H  H210  1  0.49230000  0.67370000  0.58580000  1.0 0.180323852
H  H211  1  0.40100000  0.22600000  0.45860000  1.0 0.1300133514
H  H212  1  0.49280000  0.33240000  0.40560000  1.0 0.2033800038
H  H213  1  0.43000000  0.32700000  0.34560000  1.0 0.1300133514
H  H214  1  0.57110000  0.32420000  0.64580000  1.0 0.1300133514
H  H215  1  0.61390000  0.24000000  0.51140000  1.0 0.1300133514
H  H216  1  0.55380000  0.24240000  0.44600000  1.0 0.180323852
H  H217  1  0.28750000  0.34260000  0.60510000  1.0 0.1300133514
H  H218  1  0.16640000  0.28330000  0.69320000  1.0 0.1103769488
H  H219  1  0.18570000  0.27220000  0.57620000  1.0 0.1103769488
H  H220  1  0.23320000  0.27760000  0.94190000  1.0 0.1103769488
H  H221  1  0.24710000  0.27800000  0.82100000  1.0 0.09105064
H  H222  1  0.14530000  0.36490000  0.91340000  1.0 0.1172712094
H  H223  1  0.46100000  0.23390000  0.52420000  1.0 0.189910307
H  H224  1  0.50770000  0.32630000  0.58580000  1.0 0.180323852
C  C1  1  0.76950000  0.87070000  0.35550000  1.0 0.6578462275
C  C2  1  0.77550000  0.91020000  0.39500000  1.0 -0.019811371
C  C3  1  0.74800000  0.91940000  0.44820000  1.0 -0.0489889858
C  C4  1  0.75230000  0.95550000  0.48650000  1.0 -0.1814323676
C  C5  1  0.78320000  0.98400000  0.47070000  1.0 0.0441396697
C  C6  1  0.81090000  0.97400000  0.41720000  1.0 -0.1734129348
C  C7  1  0.80730000  0.93690000  0.38070000  1.0 -0.0703074709
C  C8  1  0.72400000  0.95920000  0.54580000  1.0 0.4086130053
C  C9  1  0.78490000  0.02390000  0.50860000  1.0 0.0665374941
C  C10  1  0.80890000  0.02930000  0.56960000  1.0 -0.1870693161
C  C11  1  0.80690000  0.06680000  0.60610000  1.0 -0.0703074709
C  C12  1  0.78060000  0.09730000  0.58530000  1.0 -0.019811371
C  C13  1  0.75760000  0.09210000  0.52620000  1.0 -0.0489889858
C  C14  1  0.75890000  0.05650000  0.48710000  1.0 -0.1814323676
C  C15  1  0.83420000  0.99780000  0.60360000  1.0 0.376826818
C  C16  1  0.77590000  0.13640000  0.62760000  1.0 0.6421469303
C  C17  1  0.82116000  0.68799000  0.93890000  1.0 0.0495421747
C  C18  1  0.79535000  0.71822000  0.91150000  1.0 -0.0098553746
C  C19  1  0.79560000  0.72646000  0.83980000  1.0 -0.019811371
C  C20  1  0.82166000  0.70446000  0.79550000  1.0 -0.0019622469
C  C21  1  0.84747000  0.67422000  0.82290000  1.0 -0.0381815048
C  C22  1  0.84722000  0.66599000  0.89460000  1.0 -0.0019622469
C  C23  1  0.87360000  0.65230000  0.77720000  1.0 0.252616077
C  C24  1  0.81970000  0.71560000  0.71880000  1.0 -0.0098553746
C  C25  1  0.83730000  0.75160000  0.69250000  1.0 -0.1623091826
C  C26  1  0.83060000  0.76300000  0.62300000  1.0 -0.1870693161
C  C27  1  0.80630000  0.73840000  0.57970000  1.0 -0.0098553746
C  C28  1  0.78880000  0.70240000  0.60590000  1.0 -0.0381815048
C  C29  1  0.79540000  0.69100000  0.67540000  1.0 0.0015380258
C  C30  1  0.86170000  0.77610000  0.73720000  1.0 0.4846111799
C  C31  1  0.79790000  0.75200000  0.50490000  1.0 0.3732737942
C  C32  1  0.84430000  0.00100000  0.39370000  1.0 0.3892151678
C  C33  1  0.73300000  0.05620000  0.42420000  1.0 0.4086130053
C  C34  1  0.23050000  0.12930000  0.35550000  1.0 0.6578462275
C  C35  1  0.22450000  0.08980000  0.39500000  1.0 -0.019811371
C  C36  1  0.25200000  0.08060000  0.44820000  1.0 -0.0489889858
C  C37  1  0.24770000  0.04450000  0.48650000  1.0 -0.1814323676
C  C38  1  0.21680000  0.01600000  0.47070000  1.0 0.0441396697
C  C39  1  0.18910000  0.02600000  0.41720000  1.0 -0.1734129348
C  C40  1  0.19270000  0.06310000  0.38070000  1.0 -0.0703074709
C  C41  1  0.27600000  0.04080000  0.54580000  1.0 0.4086130053
C  C42  1  0.21510000  0.97610000  0.50860000  1.0 0.0665374941
C  C43  1  0.19110000  0.97070000  0.56960000  1.0 -0.1814323676
C  C44  1  0.19310000  0.93320000  0.60610000  1.0 -0.0703074709
C  C45  1  0.21940000  0.90270000  0.58530000  1.0 -0.019811371
C  C46  1  0.24240000  0.90790000  0.52620000  1.0 -0.0489889858
C  C47  1  0.24110000  0.94350000  0.48710000  1.0 -0.1814323676
C  C48  1  0.16580000  0.00220000  0.60360000  1.0 0.376826818
C  C49  1  0.22410000  0.86360000  0.62760000  1.0 0.6421469303
C  C50  1  0.17884000  0.31201000  0.93890000  1.0 0.0495421747
C  C51  1  0.20465000  0.28178000  0.91150000  1.0 -0.0098553746
C  C52  1  0.20440000  0.27354000  0.83980000  1.0 -0.019811371
C  C53  1  0.17834000  0.29554000  0.79550000  1.0 -0.0019622469
C  C54  1  0.15253000  0.32578000  0.82290000  1.0 -0.0381815048
C  C55  1  0.15278000  0.33401000  0.89460000  1.0 -0.0098553746
C  C56  1  0.12640000  0.34770000  0.77720000  1.0 0.252616077
C  C57  1  0.18030000  0.28440000  0.71880000  1.0 -0.0098553746
C  C58  1  0.16270000  0.24840000  0.69250000  1.0 -0.1623091826
C  C59  1  0.16940000  0.23700000  0.62300000  1.0 -0.1870693161
C  C60  1  0.19370000  0.26160000  0.57970000  1.0 -0.0098553746
C  C61  1  0.21120000  0.29760000  0.60590000  1.0 -0.0381815048
C  C62  1  0.20460000  0.30900000  0.67540000  1.0 0.0015380258
C  C63  1  0.13830000  0.22390000  0.73720000  1.0 0.4846111799
C  C64  1  0.20210000  0.24800000  0.50490000  1.0 0.3732737942
C  C65  1  0.15570000  0.99900000  0.39370000  1.0 0.3892151678
C  C66  1  0.26700000  0.94380000  0.42420000  1.0 0.4086130053
C  C67  1  0.37070000  0.73050000  0.85550000  1.0 0.6578462275
C  C68  1  0.41020000  0.72450000  0.89500000  1.0 -0.019811371
C  C69  1  0.41940000  0.75200000  0.94820000  1.0 -0.0489889858
C  C70  1  0.45550000  0.74770000  0.98650000  1.0 -0.1814323676
C  C71  1  0.48400000  0.71680000  0.97070000  1.0 0.0441396697
C  C72  1  0.47400000  0.68910000  0.91720000  1.0 -0.1814323676
C  C73  1  0.43690000  0.69270000  0.88070000  1.0 -0.0703074709
C  C74  1  0.45920000  0.77600000  0.04580000  1.0 0.4086130053
C  C75  1  0.52390000  0.71510000  0.00860000  1.0 0.0665374941
C  C76  1  0.52930000  0.69110000  0.06960000  1.0 -0.1814323676
C  C77  1  0.56680000  0.69310000  0.10610000  1.0 -0.0703074709
C  C78  1  0.59730000  0.71940000  0.08530000  1.0 -0.019811371
C  C79  1  0.59210000  0.74240000  0.02620000  1.0 -0.0489889858
C  C80  1  0.55650000  0.74110000  0.98710000  1.0 -0.1814323676
C  C81  1  0.49780000  0.66580000  0.10360000  1.0 0.376826818
C  C82  1  0.63640000  0.72410000  0.12760000  1.0 0.6421469303
C  C83  1  0.18799000  0.67884000  0.43890000  1.0 0.0495421747
C  C84  1  0.21822000  0.70465000  0.41150000  1.0 -0.0098553746
C  C85  1  0.22646000  0.70440000  0.33980000  1.0 -0.019811371
C  C86  1  0.20446000  0.67834000  0.29550000  1.0 -0.0019622469
C  C87  1  0.17422000  0.65253000  0.32290000  1.0 -0.0381815048
C  C88  1  0.16599000  0.65278000  0.39460000  1.0 -0.0098553746
C  C89  1  0.15230000  0.62640000  0.27720000  1.0 0.252616077
C  C90  1  0.21560000  0.68030000  0.21880000  1.0 -0.0098553746
C  C91  1  0.25160000  0.66270000  0.19250000  1.0 -0.1623091826
C  C92  1  0.26300000  0.66940000  0.12300000  1.0 -0.1870693161
C  C93  1  0.23840000  0.69370000  0.07970000  1.0 -0.0098553746
C  C94  1  0.20240000  0.71120000  0.10590000  1.0 -0.0381815048
C  C95  1  0.19100000  0.70460000  0.17540000  1.0 0.0015380258
C  C96  1  0.27610000  0.63830000  0.23720000  1.0 0.4846111799
C  C97  1  0.25200000  0.70210000  0.00490000  1.0 0.376826818
C  C98  1  0.50100000  0.65570000  0.89370000  1.0 0.3892151678
C  C99  1  0.55620000  0.76700000  0.92420000  1.0 0.4086130053
C  C100  1  0.62930000  0.26950000  0.85550000  1.0 0.6578462275
C  C101  1  0.58980000  0.27550000  0.89500000  1.0 -0.019811371
C  C102  1  0.58060000  0.24800000  0.94820000  1.0 -0.0489889858
C  C103  1  0.54450000  0.25230000  0.98650000  1.0 -0.1814323676
C  C104  1  0.51600000  0.28320000  0.97070000  1.0 0.0441396697
C  C105  1  0.52600000  0.31090000  0.91720000  1.0 -0.1814323676
C  C106  1  0.56310000  0.30730000  0.88070000  1.0 -0.0703074709
C  C107  1  0.54080000  0.22400000  0.04580000  1.0 0.4042904826
C  C108  1  0.47610000  0.28490000  0.00860000  1.0 0.0665374941
C  C109  1  0.47070000  0.30890000  0.06960000  1.0 -0.1814323676
C  C110  1  0.43320000  0.30690000  0.10610000  1.0 -0.0703074709
C  C111  1  0.40270000  0.28060000  0.08530000  1.0 -0.019811371
C  C112  1  0.40790000  0.25760000  0.02620000  1.0 -0.0489889858
C  C113  1  0.44350000  0.25890000  0.98710000  1.0 -0.1814323676
C  C114  1  0.50220000  0.33420000  0.10360000  1.0 0.376826818
C  C115  1  0.36360000  0.27590000  0.12760000  1.0 0.6421469303
C  C116  1  0.81201000  0.32116000  0.43890000  1.0 0.0495421747
C  C117  1  0.78178000  0.29535000  0.41150000  1.0 -0.0098553746
C  C118  1  0.77354000  0.29560000  0.33980000  1.0 -0.019811371
C  C119  1  0.79554000  0.32166000  0.29550000  1.0 -0.0019622469
C  C120  1  0.82578000  0.34747000  0.32290000  1.0 -0.0381815048
C  C121  1  0.83401000  0.34722000  0.39460000  1.0 -0.0098553746
C  C122  1  0.84770000  0.37360000  0.27720000  1.0 0.252616077
C  C123  1  0.78440000  0.31970000  0.21880000  1.0 -0.0098553746
C  C124  1  0.74840000  0.33730000  0.19250000  1.0 -0.1623091826
C  C125  1  0.73700000  0.33060000  0.12300000  1.0 -0.1870693161
C  C126  1  0.76160000  0.30630000  0.07970000  1.0 -0.0098553746
C  C127  1  0.79760000  0.28880000  0.10590000  1.0 -0.0381815048
C  C128  1  0.80900000  0.29540000  0.17540000  1.0 0.0015380258
C  C129  1  0.72390000  0.36170000  0.23720000  1.0 0.4846111799
C  C130  1  0.74800000  0.29790000  0.00490000  1.0 0.376826818
C  C131  1  0.49900000  0.34430000  0.89370000  1.0 0.3892151678
C  C132  1  0.44380000  0.23300000  0.92420000  1.0 0.4086130053
C  C133  1  0.26950000  0.62930000  0.64450000  1.0 0.6578462275
C  C134  1  0.27550000  0.58980000  0.60500000  1.0 -0.019811371
C  C135  1  0.24800000  0.58060000  0.55180000  1.0 -0.0489889858
C  C136  1  0.25230000  0.54450000  0.51350000  1.0 -0.1814323676
C  C137  1  0.28320000  0.51600000  0.52930000  1.0 0.0441396697
C  C138  1  0.31090000  0.52600000  0.58280000  1.0 -0.1734129348
C  C139  1  0.30730000  0.56310000  0.61930000  1.0 -0.0703074709
C  C140  1  0.22400000  0.54080000  0.45420000  1.0 0.4042904826
C  C141  1  0.28490000  0.47610000  0.49140000  1.0 0.0665374941
C  C142  1  0.30890000  0.47070000  0.43040000  1.0 -0.1870693161
C  C143  1  0.30690000  0.43320000  0.39390000  1.0 -0.0703074709
C  C144  1  0.28060000  0.40270000  0.41470000  1.0 -0.019811371
C  C145  1  0.25760000  0.40790000  0.47380000  1.0 -0.0489889858
C  C146  1  0.25890000  0.44350000  0.51290000  1.0 -0.1814323676
C  C147  1  0.33420000  0.50220000  0.39640000  1.0 0.376826818
C  C148  1  0.27590000  0.36360000  0.37240000  1.0 0.6421469303
C  C149  1  0.32116000  0.81201000  0.06110000  1.0 0.0495421747
C  C150  1  0.29535000  0.78178000  0.08850000  1.0 -0.0098553746
C  C151  1  0.29560000  0.77354000  0.16020000  1.0 -0.019811371
C  C152  1  0.32166000  0.79554000  0.20450000  1.0 -0.0019622469
C  C153  1  0.34747000  0.82578000  0.17710000  1.0 -0.0381815048
C  C154  1  0.34722000  0.83401000  0.10540000  1.0 -0.0019622469
C  C155  1  0.37360000  0.84770000  0.22280000  1.0 0.252616077
C  C156  1  0.31970000  0.78440000  0.28120000  1.0 -0.0098553746
C  C157  1  0.33730000  0.74840000  0.30750000  1.0 -0.1623091826
C  C158  1  0.33060000  0.73700000  0.37700000  1.0 -0.1870693161
C  C159  1  0.30630000  0.76160000  0.42030000  1.0 -0.0098553746
C  C160  1  0.28880000  0.79760000  0.39410000  1.0 -0.0381815048
C  C161  1  0.29540000  0.80900000  0.32460000  1.0 0.0015380258
C  C162  1  0.36170000  0.72390000  0.26280000  1.0 0.4846111799
C  C163  1  0.29790000  0.74800000  0.49510000  1.0 0.3732737942
C  C164  1  0.34430000  0.49900000  0.60630000  1.0 0.3892151678
C  C165  1  0.23300000  0.44380000  0.57580000  1.0 0.4086130053
C  C166  1  0.73050000  0.37070000  0.64450000  1.0 0.6578462275
C  C167  1  0.72450000  0.41020000  0.60500000  1.0 -0.019811371
C  C168  1  0.75200000  0.41940000  0.55180000  1.0 -0.0489889858
C  C169  1  0.74770000  0.45550000  0.51350000  1.0 -0.1814323676
C  C170  1  0.71680000  0.48400000  0.52930000  1.0 0.0441396697
C  C171  1  0.68910000  0.47400000  0.58280000  1.0 -0.1814323676
C  C172  1  0.69270000  0.43690000  0.61930000  1.0 -0.0703074709
C  C173  1  0.77600000  0.45920000  0.45420000  1.0 0.4042904826
C  C174  1  0.71510000  0.52390000  0.49140000  1.0 0.0665374941
C  C175  1  0.69110000  0.52930000  0.43040000  1.0 -0.1814323676
C  C176  1  0.69310000  0.56680000  0.39390000  1.0 -0.0703074709
C  C177  1  0.71940000  0.59730000  0.41470000  1.0 -0.019811371
C  C178  1  0.74240000  0.59210000  0.47380000  1.0 -0.0489889858
C  C179  1  0.74110000  0.55650000  0.51290000  1.0 -0.1814323676
C  C180  1  0.66580000  0.49780000  0.39640000  1.0 0.376826818
C  C181  1  0.72410000  0.63640000  0.37240000  1.0 0.6421469303
C  C182  1  0.67884000  0.18799000  0.06110000  1.0 0.0495421747
C  C183  1  0.70465000  0.21822000  0.08850000  1.0 -0.0098553746
C  C184  1  0.70440000  0.22646000  0.16020000  1.0 -0.019811371
C  C185  1  0.67834000  0.20446000  0.20450000  1.0 -0.0019622469
C  C186  1  0.65253000  0.17422000  0.17710000  1.0 -0.0381815048
C  C187  1  0.65278000  0.16599000  0.10540000  1.0 -0.0098553746
C  C188  1  0.62640000  0.15230000  0.22280000  1.0 0.252616077
C  C189  1  0.68030000  0.21560000  0.28120000  1.0 -0.0098553746
C  C190  1  0.66270000  0.25160000  0.30750000  1.0 -0.1623091826
C  C191  1  0.66940000  0.26300000  0.37700000  1.0 -0.1870693161
C  C192  1  0.69370000  0.23840000  0.42030000  1.0 -0.0098553746
C  C193  1  0.71120000  0.20240000  0.39410000  1.0 -0.0381815048
C  C194  1  0.70460000  0.19100000  0.32460000  1.0 0.0015380258
C  C195  1  0.63830000  0.27610000  0.26280000  1.0 0.4846111799
C  C196  1  0.70210000  0.25200000  0.49510000  1.0 0.376826818
C  C197  1  0.65570000  0.50100000  0.60630000  1.0 0.3892151678
C  C198  1  0.76700000  0.55620000  0.57580000  1.0 0.4086130053
C  C199  1  0.87070000  0.76950000  0.14450000  1.0 0.6578462275
C  C200  1  0.91020000  0.77550000  0.10500000  1.0 -0.019811371
C  C201  1  0.91940000  0.74800000  0.05180000  1.0 -0.0489889858
C  C202  1  0.95550000  0.75230000  0.01350000  1.0 -0.1814323676
C  C203  1  0.98400000  0.78320000  0.02930000  1.0 0.0441396697
C  C204  1  0.97400000  0.81090000  0.08280000  1.0 -0.1734129348
C  C205  1  0.93690000  0.80730000  0.11930000  1.0 -0.0703074709
C  C206  1  0.95920000  0.72400000  0.95420000  1.0 0.4086130053
C  C207  1  0.02390000  0.78490000  0.99140000  1.0 0.0665374941
C  C208  1  0.02930000  0.80890000  0.93040000  1.0 -0.1814323676
C  C209  1  0.06680000  0.80690000  0.89390000  1.0 -0.0703074709
C  C210  1  0.09730000  0.78060000  0.91470000  1.0 -0.019811371
C  C211  1  0.09210000  0.75760000  0.97380000  1.0 -0.0489889858
C  C212  1  0.05650000  0.75890000  0.01290000  1.0 -0.1814323676
C  C213  1  0.99780000  0.83420000  0.89640000  1.0 0.376826818
C  C214  1  0.13640000  0.77590000  0.87240000  1.0 0.6421469303
C  C215  1  0.68799000  0.82116000  0.56110000  1.0 0.0495421747
C  C216  1  0.71822000  0.79535000  0.58850000  1.0 -0.0098553746
C  C217  1  0.72646000  0.79560000  0.66020000  1.0 -0.019811371
C  C218  1  0.70446000  0.82166000  0.70450000  1.0 -0.0019622469
C  C219  1  0.67422000  0.84747000  0.67710000  1.0 -0.0381815048
C  C220  1  0.66599000  0.84722000  0.60540000  1.0 -0.0019622469
C  C221  1  0.65230000  0.87360000  0.72280000  1.0 0.252616077
C  C222  1  0.71560000  0.81970000  0.78120000  1.0 -0.0098553746
C  C223  1  0.75160000  0.83730000  0.80750000  1.0 -0.1623091826
C  C224  1  0.76300000  0.83060000  0.87700000  1.0 -0.1870693161
C  C225  1  0.73840000  0.80630000  0.92030000  1.0 -0.0098553746
C  C226  1  0.70240000  0.78880000  0.89410000  1.0 -0.0381815048
C  C227  1  0.69100000  0.79540000  0.82460000  1.0 0.0015380258
C  C228  1  0.77610000  0.86170000  0.76280000  1.0 0.4846111799
C  C229  1  0.75200000  0.79790000  0.99510000  1.0 0.3732737942
C  C230  1  0.00100000  0.84430000  0.10630000  1.0 0.3892151678
C  C231  1  0.05620000  0.73300000  0.07580000  1.0 0.4086130053
C  C232  1  0.12930000  0.23050000  0.14450000  1.0 0.6578462275
C  C233  1  0.08980000  0.22450000  0.10500000  1.0 -0.019811371
C  C234  1  0.08060000  0.25200000  0.05180000  1.0 -0.0489889858
C  C235  1  0.04450000  0.24770000  0.01350000  1.0 -0.1814323676
C  C236  1  0.01600000  0.21680000  0.02930000  1.0 0.0441396697
C  C237  1  0.02600000  0.18910000  0.08280000  1.0 -0.1734129348
C  C238  1  0.06310000  0.19270000  0.11930000  1.0 -0.0703074709
C  C239  1  0.04080000  0.27600000  0.95420000  1.0 0.4086130053
C  C240  1  0.97610000  0.21510000  0.99140000  1.0 0.0665374941
C  C241  1  0.97070000  0.19110000  0.93040000  1.0 -0.1814323676
C  C242  1  0.93320000  0.19310000  0.89390000  1.0 -0.0703074709
C  C243  1  0.90270000  0.21940000  0.91470000  1.0 -0.019811371
C  C244  1  0.90790000  0.24240000  0.97380000  1.0 -0.0489889858
C  C245  1  0.94350000  0.24110000  0.01290000  1.0 -0.1814323676
C  C246  1  0.00220000  0.16580000  0.89640000  1.0 0.376826818
C  C247  1  0.86360000  0.22410000  0.87240000  1.0 0.6421469303
C  C248  1  0.31201000  0.17884000  0.56110000  1.0 0.0495421747
C  C249  1  0.28178000  0.20465000  0.58850000  1.0 -0.0098553746
C  C250  1  0.27354000  0.20440000  0.66020000  1.0 -0.019811371
C  C251  1  0.29554000  0.17834000  0.70450000  1.0 -0.0019622469
C  C252  1  0.32578000  0.15253000  0.67710000  1.0 -0.0381815048
C  C253  1  0.33401000  0.15278000  0.60540000  1.0 -0.0098553746
C  C254  1  0.34770000  0.12640000  0.72280000  1.0 0.252616077
C  C255  1  0.28440000  0.18030000  0.78120000  1.0 -0.0098553746
C  C256  1  0.24840000  0.16270000  0.80750000  1.0 -0.1623091826
C  C257  1  0.23700000  0.16940000  0.87700000  1.0 -0.1870693161
C  C258  1  0.26160000  0.19370000  0.92030000  1.0 -0.0098553746
C  C259  1  0.29760000  0.21120000  0.89410000  1.0 -0.0381815048
C  C260  1  0.30900000  0.20460000  0.82460000  1.0 0.0015380258
C  C261  1  0.22390000  0.13830000  0.76280000  1.0 0.4846111799
C  C262  1  0.24800000  0.20210000  0.99510000  1.0 0.3732737942
C  C263  1  0.99900000  0.15570000  0.10630000  1.0 0.3892151678
C  C264  1  0.94380000  0.26700000  0.07580000  1.0 0.4086130053
C  C265  1  0.73050000  0.62930000  0.14450000  1.0 0.6578462275
C  C266  1  0.72450000  0.58980000  0.10500000  1.0 -0.019811371
C  C267  1  0.75200000  0.58060000  0.05180000  1.0 -0.0489889858
C  C268  1  0.74770000  0.54450000  0.01350000  1.0 -0.1814323676
C  C269  1  0.71680000  0.51600000  0.02930000  1.0 0.0441396697
C  C270  1  0.68910000  0.52600000  0.08280000  1.0 -0.1814323676
C  C271  1  0.69270000  0.56310000  0.11930000  1.0 -0.0703074709
C  C272  1  0.77600000  0.54080000  0.95420000  1.0 0.4086130053
C  C273  1  0.71510000  0.47610000  0.99140000  1.0 0.0665374941
C  C274  1  0.69110000  0.47070000  0.93040000  1.0 -0.1814323676
C  C275  1  0.69310000  0.43320000  0.89390000  1.0 -0.0703074709
C  C276  1  0.71940000  0.40270000  0.91470000  1.0 -0.019811371
C  C277  1  0.74240000  0.40790000  0.97380000  1.0 -0.0489889858
C  C278  1  0.74110000  0.44350000  0.01290000  1.0 -0.1814323676
C  C279  1  0.66580000  0.50220000  0.89640000  1.0 0.376826818
C  C280  1  0.72410000  0.36360000  0.87240000  1.0 0.6421469303
C  C281  1  0.67884000  0.81201000  0.56110000  1.0 0.0495421747
C  C282  1  0.70465000  0.78178000  0.58850000  1.0 -0.0098553746
C  C283  1  0.70440000  0.77354000  0.66020000  1.0 -0.019811371
C  C284  1  0.67834000  0.79554000  0.70450000  1.0 -0.0019622469
C  C285  1  0.65253000  0.82578000  0.67710000  1.0 -0.0381815048
C  C286  1  0.65278000  0.83401000  0.60540000  1.0 -0.0098553746
C  C287  1  0.62640000  0.84770000  0.72280000  1.0 0.252616077
C  C288  1  0.68030000  0.78440000  0.78120000  1.0 -0.0098553746
C  C289  1  0.66270000  0.74840000  0.80750000  1.0 -0.1623091826
C  C290  1  0.66940000  0.73700000  0.87700000  1.0 -0.1870693161
C  C291  1  0.69370000  0.76160000  0.92030000  1.0 -0.0098553746
C  C292  1  0.71120000  0.79760000  0.89410000  1.0 -0.0381815048
C  C293  1  0.70460000  0.80900000  0.82460000  1.0 0.0015380258
C  C294  1  0.63830000  0.72390000  0.76280000  1.0 0.4846111799
C  C295  1  0.70210000  0.74800000  0.99510000  1.0 0.3732737942
C  C296  1  0.65570000  0.49900000  0.10630000  1.0 0.3892151678
C  C297  1  0.76700000  0.44380000  0.07580000  1.0 0.4086130053
C  C298  1  0.26950000  0.37070000  0.14450000  1.0 0.6578462275
C  C299  1  0.27550000  0.41020000  0.10500000  1.0 -0.019811371
C  C300  1  0.24800000  0.41940000  0.05180000  1.0 -0.0489889858
C  C301  1  0.25230000  0.45550000  0.01350000  1.0 -0.1814323676
C  C302  1  0.28320000  0.48400000  0.02930000  1.0 0.0441396697
C  C303  1  0.31090000  0.47400000  0.08280000  1.0 -0.1814323676
C  C304  1  0.30730000  0.43690000  0.11930000  1.0 -0.0703074709
C  C305  1  0.22400000  0.45920000  0.95420000  1.0 0.4042904826
C  C306  1  0.28490000  0.52390000  0.99140000  1.0 0.0665374941
C  C307  1  0.30890000  0.52930000  0.93040000  1.0 -0.1814323676
C  C308  1  0.30690000  0.56680000  0.89390000  1.0 -0.0703074709
C  C309  1  0.28060000  0.59730000  0.91470000  1.0 -0.019811371
C  C310  1  0.25760000  0.59210000  0.97380000  1.0 -0.0489889858
C  C311  1  0.25890000  0.55650000  0.01290000  1.0 -0.1814323676
C  C312  1  0.33420000  0.49780000  0.89640000  1.0 0.376826818
C  C313  1  0.27590000  0.63640000  0.87240000  1.0 0.6421469303
C  C314  1  0.32116000  0.18799000  0.56110000  1.0 0.0495421747
C  C315  1  0.29535000  0.21822000  0.58850000  1.0 -0.0098553746
C  C316  1  0.29560000  0.22646000  0.66020000  1.0 -0.019811371
C  C317  1  0.32166000  0.20446000  0.70450000  1.0 -0.0019622469
C  C318  1  0.34747000  0.17422000  0.67710000  1.0 -0.0381815048
C  C319  1  0.34722000  0.16599000  0.60540000  1.0 -0.0098553746
C  C320  1  0.37360000  0.15230000  0.72280000  1.0 0.252616077
C  C321  1  0.31970000  0.21560000  0.78120000  1.0 -0.0098553746
C  C322  1  0.33730000  0.25160000  0.80750000  1.0 -0.1623091826
C  C323  1  0.33060000  0.26300000  0.87700000  1.0 -0.1870693161
C  C324  1  0.30630000  0.23840000  0.92030000  1.0 -0.0098553746
C  C325  1  0.28880000  0.20240000  0.89410000  1.0 -0.0381815048
C  C326  1  0.29540000  0.19100000  0.82460000  1.0 0.0015380258
C  C327  1  0.36170000  0.27610000  0.76280000  1.0 0.4846111799
C  C328  1  0.29790000  0.25200000  0.99510000  1.0 0.3732737942
C  C329  1  0.34430000  0.50100000  0.10630000  1.0 0.3892151678
C  C330  1  0.23300000  0.55620000  0.07580000  1.0 0.4086130053
C  C331  1  0.12930000  0.76950000  0.64450000  1.0 0.6578462275
C  C332  1  0.08980000  0.77550000  0.60500000  1.0 -0.019811371
C  C333  1  0.08060000  0.74800000  0.55180000  1.0 -0.0489889858
C  C334  1  0.04450000  0.75230000  0.51350000  1.0 -0.1814323676
C  C335  1  0.01600000  0.78320000  0.52930000  1.0 0.0441396697
C  C336  1  0.02600000  0.81090000  0.58280000  1.0 -0.1734129348
C  C337  1  0.06310000  0.80730000  0.61930000  1.0 -0.0703074709
C  C338  1  0.04080000  0.72400000  0.45420000  1.0 0.4042904826
C  C339  1  0.97610000  0.78490000  0.49140000  1.0 0.0665374941
C  C340  1  0.97070000  0.80890000  0.43040000  1.0 -0.1814323676
C  C341  1  0.93320000  0.80690000  0.39390000  1.0 -0.0703074709
C  C342  1  0.90270000  0.78060000  0.41470000  1.0 -0.019811371
C  C343  1  0.90790000  0.75760000  0.47380000  1.0 -0.0489889858
C  C344  1  0.94350000  0.75890000  0.51290000  1.0 -0.1814323676
C  C345  1  0.00220000  0.83420000  0.39640000  1.0 0.376826818
C  C346  1  0.86360000  0.77590000  0.37240000  1.0 0.6421469303
C  C347  1  0.31201000  0.82116000  0.06110000  1.0 0.0495421747
C  C348  1  0.28178000  0.79535000  0.08850000  1.0 -0.0098553746
C  C349  1  0.27354000  0.79560000  0.16020000  1.0 -0.019811371
C  C350  1  0.29554000  0.82166000  0.20450000  1.0 -0.0019622469
C  C351  1  0.32578000  0.84747000  0.17710000  1.0 -0.0381815048
C  C352  1  0.33401000  0.84722000  0.10540000  1.0 -0.0019622469
C  C353  1  0.34770000  0.87360000  0.22280000  1.0 0.252616077
C  C354  1  0.28440000  0.81970000  0.28120000  1.0 -0.0098553746
C  C355  1  0.24840000  0.83730000  0.30750000  1.0 -0.1623091826
C  C356  1  0.23700000  0.83060000  0.37700000  1.0 -0.1870693161
C  C357  1  0.26160000  0.80630000  0.42030000  1.0 -0.0098553746
C  C358  1  0.29760000  0.78880000  0.39410000  1.0 -0.0381815048
C  C359  1  0.30900000  0.79540000  0.32460000  1.0 0.0015380258
C  C360  1  0.22390000  0.86170000  0.26280000  1.0 0.4846111799
C  C361  1  0.24800000  0.79790000  0.49510000  1.0 0.3732737942
C  C362  1  0.99900000  0.84430000  0.60630000  1.0 0.3892151678
C  C363  1  0.94380000  0.73300000  0.57580000  1.0 0.4086130053
C  C364  1  0.87070000  0.23050000  0.64450000  1.0 0.6578462275
C  C365  1  0.91020000  0.22450000  0.60500000  1.0 -0.019811371
C  C366  1  0.91940000  0.25200000  0.55180000  1.0 -0.0489889858
C  C367  1  0.95550000  0.24770000  0.51350000  1.0 -0.1814323676
C  C368  1  0.98400000  0.21680000  0.52930000  1.0 0.0441396697
C  C369  1  0.97400000  0.18910000  0.58280000  1.0 -0.1734129348
C  C370  1  0.93690000  0.19270000  0.61930000  1.0 -0.0703074709
C  C371  1  0.95920000  0.27600000  0.45420000  1.0 0.4042904826
C  C372  1  0.02390000  0.21510000  0.49140000  1.0 0.0665374941
C  C373  1  0.02930000  0.19110000  0.43040000  1.0 -0.1814323676
C  C374  1  0.06680000  0.19310000  0.39390000  1.0 -0.0703074709
C  C375  1  0.09730000  0.21940000  0.41470000  1.0 -0.019811371
C  C376  1  0.09210000  0.24240000  0.47380000  1.0 -0.0489889858
C  C377  1  0.05650000  0.24110000  0.51290000  1.0 -0.1814323676
C  C378  1  0.99780000  0.16580000  0.39640000  1.0 0.376826818
C  C379  1  0.13640000  0.22410000  0.37240000  1.0 0.6421469303
C  C380  1  0.68799000  0.17884000  0.06110000  1.0 0.0495421747
C  C381  1  0.71822000  0.20465000  0.08850000  1.0 -0.0098553746
C  C382  1  0.72646000  0.20440000  0.16020000  1.0 -0.019811371
C  C383  1  0.70446000  0.17834000  0.20450000  1.0 -0.0019622469
C  C384  1  0.67422000  0.15253000  0.17710000  1.0 -0.0381815048
C  C385  1  0.66599000  0.15278000  0.10540000  1.0 -0.0019622469
C  C386  1  0.65230000  0.12640000  0.22280000  1.0 0.252616077
C  C387  1  0.71560000  0.18030000  0.28120000  1.0 -0.0098553746
C  C388  1  0.75160000  0.16270000  0.30750000  1.0 -0.1623091826
C  C389  1  0.76300000  0.16940000  0.37700000  1.0 -0.1870693161
C  C390  1  0.73840000  0.19370000  0.42030000  1.0 -0.0098553746
C  C391  1  0.70240000  0.21120000  0.39410000  1.0 -0.0381815048
C  C392  1  0.69100000  0.20460000  0.32460000  1.0 0.0015380258
C  C393  1  0.77610000  0.13830000  0.26280000  1.0 0.4846111799
C  C394  1  0.75200000  0.20210000  0.49510000  1.0 0.376826818
C  C395  1  0.00100000  0.15570000  0.60630000  1.0 0.3892151678
C  C396  1  0.05620000  0.26700000  0.57580000  1.0 0.4086130053
C  C397  1  0.23050000  0.87070000  0.85550000  1.0 0.6578462275
C  C398  1  0.22450000  0.91020000  0.89500000  1.0 -0.019811371
C  C399  1  0.25200000  0.91940000  0.94820000  1.0 -0.0489889858
C  C400  1  0.24770000  0.95550000  0.98650000  1.0 -0.1814323676
C  C401  1  0.21680000  0.98400000  0.97070000  1.0 0.0441396697
C  C402  1  0.18910000  0.97400000  0.91720000  1.0 -0.1814323676
C  C403  1  0.19270000  0.93690000  0.88070000  1.0 -0.0703074709
C  C404  1  0.27600000  0.95920000  0.04580000  1.0 0.4086130053
C  C405  1  0.21510000  0.02390000  0.00860000  1.0 0.0665374941
C  C406  1  0.19110000  0.02930000  0.06960000  1.0 -0.1814323676
C  C407  1  0.19310000  0.06680000  0.10610000  1.0 -0.0703074709
C  C408  1  0.21940000  0.09730000  0.08530000  1.0 -0.019811371
C  C409  1  0.24240000  0.09210000  0.02620000  1.0 -0.0489889858
C  C410  1  0.24110000  0.05650000  0.98710000  1.0 -0.1814323676
C  C411  1  0.16580000  0.99780000  0.10360000  1.0 0.376826818
C  C412  1  0.22410000  0.13640000  0.12760000  1.0 0.6421469303
C  C413  1  0.17884000  0.68799000  0.43890000  1.0 0.0495421747
C  C414  1  0.20465000  0.71822000  0.41150000  1.0 -0.0098553746
C  C415  1  0.20440000  0.72646000  0.33980000  1.0 -0.019811371
C  C416  1  0.17834000  0.70446000  0.29550000  1.0 -0.0019622469
C  C417  1  0.15253000  0.67422000  0.32290000  1.0 -0.0381815048
C  C418  1  0.15278000  0.66599000  0.39460000  1.0 -0.0098553746
C  C419  1  0.12640000  0.65230000  0.27720000  1.0 0.252616077
C  C420  1  0.18030000  0.71560000  0.21880000  1.0 -0.0098553746
C  C421  1  0.16270000  0.75160000  0.19250000  1.0 -0.1623091826
C  C422  1  0.16940000  0.76300000  0.12300000  1.0 -0.1870693161
C  C423  1  0.19370000  0.73840000  0.07970000  1.0 -0.0098553746
C  C424  1  0.21120000  0.70240000  0.10590000  1.0 -0.0381815048
C  C425  1  0.20460000  0.69100000  0.17540000  1.0 0.0015380258
C  C426  1  0.13830000  0.77610000  0.23720000  1.0 0.4846111799
C  C427  1  0.20210000  0.75200000  0.00490000  1.0 0.3732737942
C  C428  1  0.15570000  0.00100000  0.89370000  1.0 0.3892151678
C  C429  1  0.26700000  0.05620000  0.92420000  1.0 0.4086130053
C  C430  1  0.76950000  0.12930000  0.85550000  1.0 0.6578462275
C  C431  1  0.77550000  0.08980000  0.89500000  1.0 -0.019811371
C  C432  1  0.74800000  0.08060000  0.94820000  1.0 -0.0489889858
C  C433  1  0.75230000  0.04450000  0.98650000  1.0 -0.1814323676
C  C434  1  0.78320000  0.01600000  0.97070000  1.0 0.0441396697
C  C435  1  0.81090000  0.02600000  0.91720000  1.0 -0.1814323676
C  C436  1  0.80730000  0.06310000  0.88070000  1.0 -0.0703074709
C  C437  1  0.72400000  0.04080000  0.04580000  1.0 0.4042904826
C  C438  1  0.78490000  0.97610000  0.00860000  1.0 0.0665374941
C  C439  1  0.80890000  0.97070000  0.06960000  1.0 -0.1814323676
C  C440  1  0.80690000  0.93320000  0.10610000  1.0 -0.0703074709
C  C441  1  0.78060000  0.90270000  0.08530000  1.0 -0.019811371
C  C442  1  0.75760000  0.90790000  0.02620000  1.0 -0.0489889858
C  C443  1  0.75890000  0.94350000  0.98710000  1.0 -0.1814323676
C  C444  1  0.83420000  0.00220000  0.10360000  1.0 0.376826818
C  C445  1  0.77590000  0.86360000  0.12760000  1.0 0.6421469303
C  C446  1  0.82116000  0.31201000  0.43890000  1.0 0.0495421747
C  C447  1  0.79535000  0.28178000  0.41150000  1.0 -0.0098553746
C  C448  1  0.79560000  0.27354000  0.33980000  1.0 -0.019811371
C  C449  1  0.82166000  0.29554000  0.29550000  1.0 -0.0019622469
C  C450  1  0.84747000  0.32578000  0.32290000  1.0 -0.0381815048
C  C451  1  0.84722000  0.33401000  0.39460000  1.0 -0.0098553746
C  C452  1  0.87360000  0.34770000  0.27720000  1.0 0.252616077
C  C453  1  0.81970000  0.28440000  0.21880000  1.0 -0.0098553746
C  C454  1  0.83730000  0.24840000  0.19250000  1.0 -0.1623091826
C  C455  1  0.83060000  0.23700000  0.12300000  1.0 -0.1870693161
C  C456  1  0.80630000  0.26160000  0.07970000  1.0 -0.0098553746
C  C457  1  0.78880000  0.29760000  0.10590000  1.0 -0.0381815048
C  C458  1  0.79540000  0.30900000  0.17540000  1.0 0.0015380258
C  C459  1  0.86170000  0.22390000  0.23720000  1.0 0.4846111799
C  C460  1  0.79790000  0.24800000  0.00490000  1.0 0.376826818
C  C461  1  0.84430000  0.99900000  0.89370000  1.0 0.3892151678
C  C462  1  0.73300000  0.94380000  0.92420000  1.0 0.4086130053
C  C463  1  0.62930000  0.73050000  0.35550000  1.0 0.6578462275
C  C464  1  0.58980000  0.72450000  0.39500000  1.0 -0.019811371
C  C465  1  0.58060000  0.75200000  0.44820000  1.0 -0.0489889858
C  C466  1  0.54450000  0.74770000  0.48650000  1.0 -0.1814323676
C  C467  1  0.51600000  0.71680000  0.47070000  1.0 0.0441396697
C  C468  1  0.52600000  0.68910000  0.41720000  1.0 -0.1734129348
C  C469  1  0.56310000  0.69270000  0.38070000  1.0 -0.0703074709
C  C470  1  0.54080000  0.77600000  0.54580000  1.0 0.4086130053
C  C471  1  0.47610000  0.71510000  0.50860000  1.0 0.0665374941
C  C472  1  0.47070000  0.69110000  0.56960000  1.0 -0.1870693161
C  C473  1  0.43320000  0.69310000  0.60610000  1.0 -0.0703074709
C  C474  1  0.40270000  0.71940000  0.58530000  1.0 -0.019811371
C  C475  1  0.40790000  0.74240000  0.52620000  1.0 -0.0489889858
C  C476  1  0.44350000  0.74110000  0.48710000  1.0 -0.1814323676
C  C477  1  0.50220000  0.66580000  0.60360000  1.0 0.376826818
C  C478  1  0.36360000  0.72410000  0.62760000  1.0 0.6421469303
C  C479  1  0.81201000  0.67884000  0.93890000  1.0 0.0495421747
C  C480  1  0.78178000  0.70465000  0.91150000  1.0 -0.0098553746
C  C481  1  0.77354000  0.70440000  0.83980000  1.0 -0.019811371
C  C482  1  0.79554000  0.67834000  0.79550000  1.0 -0.0019622469
C  C483  1  0.82578000  0.65253000  0.82290000  1.0 -0.0381815048
C  C484  1  0.83401000  0.65278000  0.89460000  1.0 -0.0098553746
C  C485  1  0.84770000  0.62640000  0.77720000  1.0 0.252616077
C  C486  1  0.78440000  0.68030000  0.71880000  1.0 -0.0098553746
C  C487  1  0.74840000  0.66270000  0.69250000  1.0 -0.1623091826
C  C488  1  0.73700000  0.66940000  0.62300000  1.0 -0.1870693161
C  C489  1  0.76160000  0.69370000  0.57970000  1.0 -0.0098553746
C  C490  1  0.79760000  0.71120000  0.60590000  1.0 -0.0381815048
C  C491  1  0.80900000  0.70460000  0.67540000  1.0 0.0015380258
C  C492  1  0.72390000  0.63830000  0.73720000  1.0 0.4846111799
C  C493  1  0.74800000  0.70210000  0.50490000  1.0 0.3732737942
C  C494  1  0.49900000  0.65570000  0.39370000  1.0 0.3892151678
C  C495  1  0.44380000  0.76700000  0.42420000  1.0 0.4086130053
C  C496  1  0.37070000  0.26950000  0.35550000  1.0 0.6578462275
C  C497  1  0.41020000  0.27550000  0.39500000  1.0 -0.019811371
C  C498  1  0.41940000  0.24800000  0.44820000  1.0 -0.0489889858
C  C499  1  0.45550000  0.25230000  0.48650000  1.0 -0.1814323676
C  C500  1  0.48400000  0.28320000  0.47070000  1.0 0.0441396697
C  C501  1  0.47400000  0.31090000  0.41720000  1.0 -0.1734129348
C  C502  1  0.43690000  0.30730000  0.38070000  1.0 -0.0703074709
C  C503  1  0.45920000  0.22400000  0.54580000  1.0 0.4042904826
C  C504  1  0.52390000  0.28490000  0.50860000  1.0 0.0665374941
C  C505  1  0.52930000  0.30890000  0.56960000  1.0 -0.1870693161
C  C506  1  0.56680000  0.30690000  0.60610000  1.0 -0.0703074709
C  C507  1  0.59730000  0.28060000  0.58530000  1.0 -0.019811371
C  C508  1  0.59210000  0.25760000  0.52620000  1.0 -0.0489889858
C  C509  1  0.55650000  0.25890000  0.48710000  1.0 -0.1814323676
C  C510  1  0.49780000  0.33420000  0.60360000  1.0 0.376826818
C  C511  1  0.63640000  0.27590000  0.62760000  1.0 0.6421469303
C  C512  1  0.18799000  0.32116000  0.93890000  1.0 0.0495421747
C  C513  1  0.21822000  0.29535000  0.91150000  1.0 -0.0098553746
C  C514  1  0.22646000  0.29560000  0.83980000  1.0 -0.019811371
C  C515  1  0.20446000  0.32166000  0.79550000  1.0 -0.0019622469
C  C516  1  0.17422000  0.34747000  0.82290000  1.0 -0.0381815048
C  C517  1  0.16599000  0.34722000  0.89460000  1.0 -0.0098553746
C  C518  1  0.15230000  0.37360000  0.77720000  1.0 0.252616077
C  C519  1  0.21560000  0.31970000  0.71880000  1.0 -0.0098553746
C  C520  1  0.25160000  0.33730000  0.69250000  1.0 -0.1623091826
C  C521  1  0.26300000  0.33060000  0.62300000  1.0 -0.1870693161
C  C522  1  0.23840000  0.30630000  0.57970000  1.0 -0.0098553746
C  C523  1  0.20240000  0.28880000  0.60590000  1.0 -0.0381815048
C  C524  1  0.19100000  0.29540000  0.67540000  1.0 0.0015380258
C  C525  1  0.27610000  0.36170000  0.73720000  1.0 0.4846111799
C  C526  1  0.25200000  0.29790000  0.50490000  1.0 0.3732737942
C  C527  1  0.50100000  0.34430000  0.39370000  1.0 0.3892151678
C  C528  1  0.55620000  0.23300000  0.42420000  1.0 0.4086130053
C  C529  1  0.82150000  0.67850000  0.01600000  1.0 0.4660393896
C  C530  1  0.17850000  0.32150000  0.01600000  1.0 0.4660393896
C  C531  1  0.17850000  0.67850000  0.51600000  1.0 0.4660393896
C  C532  1  0.82150000  0.32150000  0.51600000  1.0 0.4660393896
C  C533  1  0.32150000  0.82150000  0.98400000  1.0 0.4660393896
C  C534  1  0.67850000  0.17850000  0.98400000  1.0 0.4660393896
C  C535  1  0.67850000  0.82150000  0.48400000  1.0 0.4660393896
C  C536  1  0.32150000  0.17850000  0.48400000  1.0 0.4660393896
O  O1  1  0.79802000  0.86036000  0.31420000  1.0 -0.5405363426
O  O2  1  0.73679000  0.85302000  0.36510000  1.0 -0.5348003653
O  O3  1  0.80188000  0.14371000  0.67400000  1.0 -0.4989738164
O  O4  1  0.74403000  0.15252000  0.62020000  1.0 -0.4989738164
O  O5  1  0.80470000  0.78940000  0.48910000  1.0 -0.4286650864
O  O6  1  0.82195000  0.74018000  0.25810000  1.0 -1.2100312931
O  O7  1  0.78421000  0.77792000  0.15400000  1.0 -1.0933047084
O  O8  1  0.20198000  0.13964000  0.31420000  1.0 -0.5405363426
O  O9  1  0.26321000  0.14698000  0.36510000  1.0 -0.5348003653
O  O10  1  0.19812000  0.85629000  0.67400000  1.0 -0.4989738164
O  O11  1  0.25597000  0.84748000  0.62020000  1.0 -0.4989738164
O  O12  1  0.19530000  0.21060000  0.48910000  1.0 -0.4286650864
O  O13  1  0.17805000  0.25982000  0.25810000  1.0 -1.2100312931
O  O14  1  0.21579000  0.22208000  0.15400000  1.0 -1.0933047084
O  O15  1  0.36036000  0.70198000  0.81420000  1.0 -0.5405363426
O  O16  1  0.35302000  0.76321000  0.86510000  1.0 -0.5405363426
O  O17  1  0.64371000  0.69812000  0.17400000  1.0 -0.4989738164
O  O18  1  0.65252000  0.75597000  0.12020000  1.0 -0.4989738164
O  O19  1  0.28940000  0.69530000  0.98910000  1.0 -0.4286650864
O  O20  1  0.24018000  0.67805000  0.75810000  1.0 -1.2100312931
O  O21  1  0.27792000  0.71579000  0.65400000  1.0 -1.0933047084
O  O22  1  0.63964000  0.29802000  0.81420000  1.0 -0.5405363426
O  O23  1  0.64698000  0.23679000  0.86510000  1.0 -0.5348003653
O  O24  1  0.35629000  0.30188000  0.17400000  1.0 -0.4989738164
O  O25  1  0.34748000  0.24403000  0.12020000  1.0 -0.4989738164
O  O26  1  0.71060000  0.30470000  0.98910000  1.0 -0.4286650864
O  O27  1  0.75982000  0.32195000  0.75810000  1.0 -1.2100312931
O  O28  1  0.72208000  0.28421000  0.65400000  1.0 -1.0933047084
O  O29  1  0.29802000  0.63964000  0.68580000  1.0 -0.5405363426
O  O30  1  0.23679000  0.64698000  0.63490000  1.0 -0.5405363426
O  O31  1  0.30188000  0.35629000  0.32600000  1.0 -0.5060715748
O  O32  1  0.24403000  0.34748000  0.37980000  1.0 -0.4989738164
O  O33  1  0.30470000  0.71060000  0.51090000  1.0 -0.4286650864
O  O34  1  0.32195000  0.75982000  0.74190000  1.0 -1.2100312931
O  O35  1  0.28421000  0.72208000  0.84600000  1.0 -1.0933047084
O  O36  1  0.70198000  0.36036000  0.68580000  1.0 -0.5405363426
O  O37  1  0.76321000  0.35302000  0.63490000  1.0 -0.5405363426
O  O38  1  0.69812000  0.64371000  0.32600000  1.0 -0.5060715748
O  O39  1  0.75597000  0.65252000  0.37980000  1.0 -0.4989738164
O  O40  1  0.69530000  0.28940000  0.51090000  1.0 -0.4286650864
O  O41  1  0.67805000  0.24018000  0.74190000  1.0 -1.2100312931
O  O42  1  0.71579000  0.27792000  0.84600000  1.0 -1.0933047084
O  O43  1  0.86036000  0.79802000  0.18580000  1.0 -0.5405363426
O  O44  1  0.85302000  0.73679000  0.13490000  1.0 -0.5405363426
O  O45  1  0.14371000  0.80188000  0.82600000  1.0 -0.5060715748
O  O46  1  0.15252000  0.74403000  0.87980000  1.0 -0.4989738164
O  O47  1  0.78940000  0.80470000  0.01090000  1.0 -0.4286650864
O  O48  1  0.74018000  0.82195000  0.24190000  1.0 -1.2100312931
O  O49  1  0.77792000  0.78421000  0.34600000  1.0 -1.0984196809
O  O50  1  0.13964000  0.20198000  0.18580000  1.0 -0.5405363426
O  O51  1  0.14698000  0.26321000  0.13490000  1.0 -0.5405363426
O  O52  1  0.85629000  0.19812000  0.82600000  1.0 -0.5060715748
O  O53  1  0.84748000  0.25597000  0.87980000  1.0 -0.4989738164
O  O54  1  0.21060000  0.19530000  0.01090000  1.0 -0.4286650864
O  O55  1  0.25982000  0.17805000  0.24190000  1.0 -1.2100312931
O  O56  1  0.22208000  0.21579000  0.34600000  1.0 -1.0933047084
O  O57  1  0.70198000  0.63964000  0.18580000  1.0 -0.5405363426
O  O58  1  0.76321000  0.64698000  0.13490000  1.0 -0.5405363426
O  O59  1  0.69812000  0.35629000  0.82600000  1.0 -0.5060715748
O  O60  1  0.75597000  0.34748000  0.87980000  1.0 -0.4989738164
O  O61  1  0.69530000  0.71060000  0.01090000  1.0 -0.4286650864
O  O62  1  0.67805000  0.75982000  0.24190000  1.0 -1.2100312931
O  O63  1  0.71579000  0.72208000  0.34600000  1.0 -1.0933047084
O  O64  1  0.29802000  0.36036000  0.18580000  1.0 -0.5405363426
O  O65  1  0.23679000  0.35302000  0.13490000  1.0 -0.5405363426
O  O66  1  0.30188000  0.64371000  0.82600000  1.0 -0.5060715748
O  O67  1  0.24403000  0.65252000  0.87980000  1.0 -0.4989738164
O  O68  1  0.30470000  0.28940000  0.01090000  1.0 -0.4286650864
O  O69  1  0.32195000  0.24018000  0.24190000  1.0 -1.2100312931
O  O70  1  0.28421000  0.27792000  0.34600000  1.0 -1.0984196809
O  O71  1  0.13964000  0.79802000  0.68580000  1.0 -0.5405363426
O  O72  1  0.14698000  0.73679000  0.63490000  1.0 -0.5405363426
O  O73  1  0.85629000  0.80188000  0.32600000  1.0 -0.5060715748
O  O74  1  0.84748000  0.74403000  0.37980000  1.0 -0.4989738164
O  O75  1  0.21060000  0.80470000  0.51090000  1.0 -0.4286650864
O  O76  1  0.25982000  0.82195000  0.74190000  1.0 -1.2100312931
O  O77  1  0.22208000  0.78421000  0.84600000  1.0 -1.0933047084
O  O78  1  0.86036000  0.20198000  0.68580000  1.0 -0.5405363426
O  O79  1  0.85302000  0.26321000  0.63490000  1.0 -0.5405363426
O  O80  1  0.14371000  0.19812000  0.32600000  1.0 -0.5060715748
O  O81  1  0.15252000  0.25597000  0.37980000  1.0 -0.4989738164
O  O82  1  0.78940000  0.19530000  0.51090000  1.0 -0.4286650864
O  O83  1  0.74018000  0.17805000  0.74190000  1.0 -1.2100312931
O  O84  1  0.77792000  0.21579000  0.84600000  1.0 -1.0933047084
O  O85  1  0.20198000  0.86036000  0.81420000  1.0 -0.5405363426
O  O86  1  0.26321000  0.85302000  0.86510000  1.0 -0.5405363426
O  O87  1  0.19812000  0.14371000  0.17400000  1.0 -0.4989738164
O  O88  1  0.25597000  0.15252000  0.12020000  1.0 -0.4989738164
O  O89  1  0.19530000  0.78940000  0.98910000  1.0 -0.4286650864
O  O90  1  0.17805000  0.74018000  0.75810000  1.0 -1.2100312931
O  O91  1  0.21579000  0.77792000  0.65400000  1.0 -1.0933047084
O  O92  1  0.79802000  0.13964000  0.81420000  1.0 -0.5405363426
O  O93  1  0.73679000  0.14698000  0.86510000  1.0 -0.5348003653
O  O94  1  0.80188000  0.85629000  0.17400000  1.0 -0.4989738164
O  O95  1  0.74403000  0.84748000  0.12020000  1.0 -0.4989738164
O  O96  1  0.80470000  0.21060000  0.98910000  1.0 -0.4286650864
O  O97  1  0.82195000  0.25982000  0.75810000  1.0 -1.2100312931
O  O98  1  0.78421000  0.22208000  0.65400000  1.0 -1.0933047084
O  O99  1  0.63964000  0.70198000  0.31420000  1.0 -0.5405363426
O  O100  1  0.64698000  0.76321000  0.36510000  1.0 -0.5348003653
O  O101  1  0.35629000  0.69812000  0.67400000  1.0 -0.4989738164
O  O102  1  0.34748000  0.75597000  0.62020000  1.0 -0.4989738164
O  O103  1  0.71060000  0.69530000  0.48910000  1.0 -0.4286650864
O  O104  1  0.75982000  0.67805000  0.25810000  1.0 -1.2100312931
O  O105  1  0.72208000  0.71579000  0.15400000  1.0 -1.0933047084
O  O106  1  0.36036000  0.29802000  0.31420000  1.0 -0.5405363426
O  O107  1  0.35302000  0.23679000  0.36510000  1.0 -0.5348003653
O  O108  1  0.64371000  0.30188000  0.67400000  1.0 -0.4989738164
O  O109  1  0.65252000  0.24403000  0.62020000  1.0 -0.4989738164
O  O110  1  0.28940000  0.30470000  0.48910000  1.0 -0.4286650864
O  O111  1  0.24018000  0.32195000  0.25810000  1.0 -1.2100312931
O  O112  1  0.27792000  0.28421000  0.15400000  1.0 -1.0933047084
O  O113  1  0.79846000  0.70154000  0.05390000  1.0 -0.570311412
O  O114  1  0.84704000  0.65296000  0.04040000  1.0 -0.4286650864
O  O115  1  0.77787000  0.72213000  0.46780000  1.0 -0.6137396542
O  O116  1  0.20154000  0.29846000  0.05390000  1.0 -0.570311412
O  O117  1  0.15296000  0.34704000  0.04040000  1.0 -0.4286650864
O  O118  1  0.22213000  0.27787000  0.46780000  1.0 -0.6137396542
O  O119  1  0.20154000  0.70154000  0.55390000  1.0 -0.570311412
O  O120  1  0.15296000  0.65296000  0.54040000  1.0 -0.4286650864
O  O121  1  0.22213000  0.72213000  0.96780000  1.0 -0.6165768651
O  O122  1  0.79846000  0.29846000  0.55390000  1.0 -0.570311412
O  O123  1  0.84704000  0.34704000  0.54040000  1.0 -0.4286650864
O  O124  1  0.77787000  0.27787000  0.96780000  1.0 -0.6137396542
O  O125  1  0.29846000  0.79846000  0.94610000  1.0 -0.570311412
O  O126  1  0.34704000  0.84704000  0.95960000  1.0 -0.4357027856
O  O127  1  0.27787000  0.77787000  0.53220000  1.0 -0.6165768651
O  O128  1  0.70154000  0.20154000  0.94610000  1.0 -0.570311412
O  O129  1  0.65296000  0.15296000  0.95960000  1.0 -0.4286650864
O  O130  1  0.72213000  0.22213000  0.53220000  1.0 -0.6137396542
O  O131  1  0.70154000  0.79846000  0.44610000  1.0 -0.570311412
O  O132  1  0.65296000  0.84704000  0.45960000  1.0 -0.4286650864
O  O133  1  0.72213000  0.77787000  0.03220000  1.0 -0.6137396542
O  O134  1  0.29846000  0.20154000  0.44610000  1.0 -0.570311412
O  O135  1  0.34704000  0.15296000  0.45960000  1.0 -0.4286650864
O  O136  1  0.27787000  0.22213000  0.03220000  1.0 -0.6137396542
F  F1  1  0.69500000  0.92940000  0.55890000  1.0 -0.2297765209
F  F2  1  0.74130000  0.96310000  0.61250000  1.0 -0.2157441077
F  F3  1  0.69860000  0.99400000  0.54720000  1.0 -0.1734129348
F  F4  1  0.85600000  0.00660000  0.66520000  1.0 -0.1623091826
F  F5  1  0.81580000  0.96090000  0.62670000  1.0 -0.1623091826
F  F6  1  0.86670000  0.97940000  0.56610000  1.0 -0.1623091826
F  F7  1  0.89440000  0.67450000  0.73080000  1.0 -0.0624552041
F  F8  1  0.85560000  0.62550000  0.73460000  1.0 0.180323852
F  F9  1  0.90330000  0.63030000  0.80790000  1.0 -0.0703074709
F  F10  1  0.83400000  0.04130000  0.37450000  1.0 -0.1870693161
F  F11  1  0.87480000  0.01090000  0.44300000  1.0 -0.1734129348
F  F12  1  0.86840000  0.99000000  0.33760000  1.0 -0.1623091826
F  F13  1  0.71430000  0.09290000  0.40110000  1.0 -0.2712143304
F  F14  1  0.75160000  0.04560000  0.36020000  1.0 -0.2120390014
F  F15  1  0.70010000  0.02810000  0.42270000  1.0 -0.1870693161
F  F16  1  0.88360000  0.80520000  0.70290000  1.0 -0.1395468821
F  F17  1  0.89170000  0.75760000  0.77150000  1.0 -0.1870693161
F  F18  1  0.84380000  0.79860000  0.78500000  1.0 -0.1870693161
F  F19  1  0.30500000  0.07060000  0.55890000  1.0 -0.2297765209
F  F20  1  0.25870000  0.03690000  0.61250000  1.0 -0.2120390014
F  F21  1  0.30140000  0.00600000  0.54720000  1.0 -0.1734129348
F  F22  1  0.14400000  0.99340000  0.66520000  1.0 -0.1623091826
F  F23  1  0.18420000  0.03910000  0.62670000  1.0 -0.1623091826
F  F24  1  0.13330000  0.02060000  0.56610000  1.0 -0.1623091826
F  F25  1  0.10560000  0.32550000  0.73080000  1.0 -0.0624552041
F  F26  1  0.14440000  0.37450000  0.73460000  1.0 0.180323852
F  F27  1  0.09670000  0.36970000  0.80790000  1.0 -0.0703074709
F  F28  1  0.16600000  0.95870000  0.37450000  1.0 -0.1870693161
F  F29  1  0.12520000  0.98910000  0.44300000  1.0 -0.1734129348
F  F30  1  0.13160000  0.01000000  0.33760000  1.0 -0.1623091826
F  F31  1  0.28570000  0.90710000  0.40110000  1.0 -0.2712143304
F  F32  1  0.24840000  0.95440000  0.36020000  1.0 -0.2120390014
F  F33  1  0.29990000  0.97190000  0.42270000  1.0 -0.1870693161
F  F34  1  0.11640000  0.19480000  0.70290000  1.0 -0.1395468821
F  F35  1  0.10830000  0.24240000  0.77150000  1.0 -0.1870693161
F  F36  1  0.15620000  0.20140000  0.78500000  1.0 -0.1870693161
F  F37  1  0.42940000  0.80500000  0.05890000  1.0 -0.2297765209
F  F38  1  0.46310000  0.75870000  0.11250000  1.0 -0.2120390014
F  F39  1  0.49400000  0.80140000  0.04720000  1.0 -0.1734129348
F  F40  1  0.50660000  0.64400000  0.16520000  1.0 -0.1623091826
F  F41  1  0.46090000  0.68420000  0.12670000  1.0 -0.1623091826
F  F42  1  0.47940000  0.63330000  0.06610000  1.0 -0.1623091826
F  F43  1  0.17450000  0.60560000  0.23080000  1.0 -0.0624552041
F  F44  1  0.12550000  0.64440000  0.23460000  1.0 0.180323852
F  F45  1  0.13030000  0.59670000  0.30790000  1.0 -0.0703074709
F  F46  1  0.54130000  0.66600000  0.87450000  1.0 -0.1870693161
F  F47  1  0.51090000  0.62520000  0.94300000  1.0 -0.1734129348
F  F48  1  0.49000000  0.63160000  0.83760000  1.0 -0.1623091826
F  F49  1  0.59290000  0.78570000  0.90110000  1.0 -0.2712143304
F  F50  1  0.54560000  0.74840000  0.86020000  1.0 -0.2120390014
F  F51  1  0.52810000  0.79990000  0.92270000  1.0 -0.1870693161
F  F52  1  0.30520000  0.61640000  0.20290000  1.0 -0.1395468821
F  F53  1  0.25760000  0.60830000  0.27150000  1.0 -0.1870693161
F  F54  1  0.29860000  0.65620000  0.28500000  1.0 -0.1870693161
F  F55  1  0.57060000  0.19500000  0.05890000  1.0 -0.2297765209
F  F56  1  0.53690000  0.24130000  0.11250000  1.0 -0.2120390014
F  F57  1  0.50600000  0.19860000  0.04720000  1.0 -0.1734129348
F  F58  1  0.49340000  0.35600000  0.16520000  1.0 -0.1623091826
F  F59  1  0.53910000  0.31580000  0.12670000  1.0 -0.1623091826
F  F60  1  0.52060000  0.36670000  0.06610000  1.0 -0.1623091826
F  F61  1  0.82550000  0.39440000  0.23080000  1.0 -0.0624552041
F  F62  1  0.87450000  0.35560000  0.23460000  1.0 0.180323852
F  F63  1  0.86970000  0.40330000  0.30790000  1.0 -0.0703074709
F  F64  1  0.45870000  0.33400000  0.87450000  1.0 -0.1870693161
F  F65  1  0.48910000  0.37480000  0.94300000  1.0 -0.1734129348
F  F66  1  0.51000000  0.36840000  0.83760000  1.0 -0.1623091826
F  F67  1  0.40710000  0.21430000  0.90110000  1.0 -0.2712143304
F  F68  1  0.45440000  0.25160000  0.86020000  1.0 -0.2120390014
F  F69  1  0.47190000  0.20010000  0.92270000  1.0 -0.1870693161
F  F70  1  0.69480000  0.38360000  0.20290000  1.0 -0.1395468821
F  F71  1  0.74240000  0.39170000  0.27150000  1.0 -0.1870693161
F  F72  1  0.70140000  0.34380000  0.28500000  1.0 -0.1870693161
F  F73  1  0.19500000  0.57060000  0.44110000  1.0 -0.2297765209
F  F74  1  0.24130000  0.53690000  0.38750000  1.0 -0.2157441077
F  F75  1  0.19860000  0.50600000  0.45280000  1.0 -0.1734129348
F  F76  1  0.35600000  0.49340000  0.33480000  1.0 -0.1623091826
F  F77  1  0.31580000  0.53910000  0.37330000  1.0 -0.1623091826
F  F78  1  0.36670000  0.52060000  0.43390000  1.0 -0.1623091826
F  F79  1  0.39440000  0.82550000  0.26920000  1.0 -0.0624552041
F  F80  1  0.35560000  0.87450000  0.26540000  1.0 0.180323852
F  F81  1  0.40330000  0.86970000  0.19210000  1.0 -0.0703074709
F  F82  1  0.33400000  0.45870000  0.62550000  1.0 -0.1870693161
F  F83  1  0.37480000  0.48910000  0.55700000  1.0 -0.1734129348
F  F84  1  0.36840000  0.51000000  0.66240000  1.0 -0.1623091826
F  F85  1  0.21430000  0.40710000  0.59890000  1.0 -0.2712143304
F  F86  1  0.25160000  0.45440000  0.63980000  1.0 -0.2120390014
F  F87  1  0.20010000  0.47190000  0.57730000  1.0 -0.1870693161
F  F88  1  0.38360000  0.69480000  0.29710000  1.0 -0.1395468821
F  F89  1  0.39170000  0.74240000  0.22850000  1.0 -0.1870693161
F  F90  1  0.34380000  0.70140000  0.21500000  1.0 -0.1870693161
F  F91  1  0.80500000  0.42940000  0.44110000  1.0 -0.2297765209
F  F92  1  0.75870000  0.46310000  0.38750000  1.0 -0.2120390014
F  F93  1  0.80140000  0.49400000  0.45280000  1.0 -0.1734129348
F  F94  1  0.64400000  0.50660000  0.33480000  1.0 -0.1623091826
F  F95  1  0.68420000  0.46090000  0.37330000  1.0 -0.1623091826
F  F96  1  0.63330000  0.47940000  0.43390000  1.0 -0.1623091826
F  F97  1  0.60560000  0.17450000  0.26920000  1.0 -0.0624552041
F  F98  1  0.64440000  0.12550000  0.26540000  1.0 0.180323852
F  F99  1  0.59670000  0.13030000  0.19210000  1.0 -0.0703074709
F  F100  1  0.66600000  0.54130000  0.62550000  1.0 -0.1870693161
F  F101  1  0.62520000  0.51090000  0.55700000  1.0 -0.1734129348
F  F102  1  0.63160000  0.49000000  0.66240000  1.0 -0.1623091826
F  F103  1  0.78570000  0.59290000  0.59890000  1.0 -0.2712143304
F  F104  1  0.74840000  0.54560000  0.63980000  1.0 -0.2120390014
F  F105  1  0.79990000  0.52810000  0.57730000  1.0 -0.1870693161
F  F106  1  0.61640000  0.30520000  0.29710000  1.0 -0.1395468821
F  F107  1  0.60830000  0.25760000  0.22850000  1.0 -0.1870693161
F  F108  1  0.65620000  0.29860000  0.21500000  1.0 -0.1870693161
F  F109  1  0.92940000  0.69500000  0.94110000  1.0 -0.2297765209
F  F110  1  0.96310000  0.74130000  0.88750000  1.0 -0.2157441077
F  F111  1  0.99400000  0.69860000  0.95280000  1.0 -0.1734129348
F  F112  1  0.00660000  0.85600000  0.83480000  1.0 -0.1623091826
F  F113  1  0.96090000  0.81580000  0.87330000  1.0 -0.1623091826
F  F114  1  0.97940000  0.86670000  0.93390000  1.0 -0.1623091826
F  F115  1  0.67450000  0.89440000  0.76920000  1.0 -0.0624552041
F  F116  1  0.62550000  0.85560000  0.76540000  1.0 0.180323852
F  F117  1  0.63030000  0.90330000  0.69210000  1.0 -0.0703074709
F  F118  1  0.04130000  0.83400000  0.12550000  1.0 -0.1870693161
F  F119  1  0.01090000  0.87480000  0.05700000  1.0 -0.1734129348
F  F120  1  0.99000000  0.86840000  0.16240000  1.0 -0.1623091826
F  F121  1  0.09290000  0.71430000  0.09890000  1.0 -0.2712143304
F  F122  1  0.04560000  0.75160000  0.13980000  1.0 -0.2120390014
F  F123  1  0.02810000  0.70010000  0.07730000  1.0 -0.1870693161
F  F124  1  0.80520000  0.88360000  0.79710000  1.0 -0.1395468821
F  F125  1  0.75760000  0.89170000  0.72850000  1.0 -0.1870693161
F  F126  1  0.79860000  0.84380000  0.71500000  1.0 -0.1870693161
F  F127  1  0.07060000  0.30500000  0.94110000  1.0 -0.2297765209
F  F128  1  0.03690000  0.25870000  0.88750000  1.0 -0.2157441077
F  F129  1  0.00600000  0.30140000  0.95280000  1.0 -0.1734129348
F  F130  1  0.99340000  0.14400000  0.83480000  1.0 -0.1623091826
F  F131  1  0.03910000  0.18420000  0.87330000  1.0 -0.1623091826
F  F132  1  0.02060000  0.13330000  0.93390000  1.0 -0.1623091826
F  F133  1  0.32550000  0.10560000  0.76920000  1.0 -0.0624552041
F  F134  1  0.37450000  0.14440000  0.76540000  1.0 0.180323852
F  F135  1  0.36970000  0.09670000  0.69210000  1.0 -0.0703074709
F  F136  1  0.95870000  0.16600000  0.12550000  1.0 -0.1870693161
F  F137  1  0.98910000  0.12520000  0.05700000  1.0 -0.1734129348
F  F138  1  0.01000000  0.13160000  0.16240000  1.0 -0.1623091826
F  F139  1  0.90710000  0.28570000  0.09890000  1.0 -0.2712143304
F  F140  1  0.95440000  0.24840000  0.13980000  1.0 -0.2120390014
F  F141  1  0.97190000  0.29990000  0.07730000  1.0 -0.1870693161
F  F142  1  0.19480000  0.11640000  0.79710000  1.0 -0.1395468821
F  F143  1  0.24240000  0.10830000  0.72850000  1.0 -0.1870693161
F  F144  1  0.20140000  0.15620000  0.71500000  1.0 -0.1870693161
F  F145  1  0.80500000  0.57060000  0.94110000  1.0 -0.2297765209
F  F146  1  0.75870000  0.53690000  0.88750000  1.0 -0.2120390014
F  F147  1  0.80140000  0.50600000  0.95280000  1.0 -0.1734129348
F  F148  1  0.64400000  0.49340000  0.83480000  1.0 -0.1623091826
F  F149  1  0.68420000  0.53910000  0.87330000  1.0 -0.1623091826
F  F150  1  0.63330000  0.52060000  0.93390000  1.0 -0.1623091826
F  F151  1  0.60560000  0.82550000  0.76920000  1.0 -0.0624552041
F  F152  1  0.64440000  0.87450000  0.76540000  1.0 0.180323852
F  F153  1  0.59670000  0.86970000  0.69210000  1.0 -0.0703074709
F  F154  1  0.66600000  0.45870000  0.12550000  1.0 -0.1870693161
F  F155  1  0.62520000  0.48910000  0.05700000  1.0 -0.1734129348
F  F156  1  0.63160000  0.51000000  0.16240000  1.0 -0.1623091826
F  F157  1  0.78570000  0.40710000  0.09890000  1.0 -0.2712143304
F  F158  1  0.74840000  0.45440000  0.13980000  1.0 -0.2120390014
F  F159  1  0.79990000  0.47190000  0.07730000  1.0 -0.1870693161
F  F160  1  0.61640000  0.69480000  0.79710000  1.0 -0.1395468821
F  F161  1  0.60830000  0.74240000  0.72850000  1.0 -0.1870693161
F  F162  1  0.65620000  0.70140000  0.71500000  1.0 -0.1870693161
F  F163  1  0.19500000  0.42940000  0.94110000  1.0 -0.2297765209
F  F164  1  0.24130000  0.46310000  0.88750000  1.0 -0.2120390014
F  F165  1  0.19860000  0.49400000  0.95280000  1.0 -0.1734129348
F  F166  1  0.35600000  0.50660000  0.83480000  1.0 -0.1623091826
F  F167  1  0.31580000  0.46090000  0.87330000  1.0 -0.1623091826
F  F168  1  0.36670000  0.47940000  0.93390000  1.0 -0.1623091826
F  F169  1  0.39440000  0.17450000  0.76920000  1.0 -0.0624552041
F  F170  1  0.35560000  0.12550000  0.76540000  1.0 0.180323852
F  F171  1  0.40330000  0.13030000  0.69210000  1.0 -0.0703074709
F  F172  1  0.33400000  0.54130000  0.12550000  1.0 -0.1870693161
F  F173  1  0.37480000  0.51090000  0.05700000  1.0 -0.1734129348
F  F174  1  0.36840000  0.49000000  0.16240000  1.0 -0.1623091826
F  F175  1  0.21430000  0.59290000  0.09890000  1.0 -0.2712143304
F  F176  1  0.25160000  0.54560000  0.13980000  1.0 -0.2120390014
F  F177  1  0.20010000  0.52810000  0.07730000  1.0 -0.1870693161
F  F178  1  0.38360000  0.30520000  0.79710000  1.0 -0.1395468821
F  F179  1  0.39170000  0.25760000  0.72850000  1.0 -0.1870693161
F  F180  1  0.34380000  0.29860000  0.71500000  1.0 -0.1870693161
F  F181  1  0.07060000  0.69500000  0.44110000  1.0 -0.2297765209
F  F182  1  0.03690000  0.74130000  0.38750000  1.0 -0.2157441077
F  F183  1  0.00600000  0.69860000  0.45280000  1.0 -0.1734129348
F  F184  1  0.99340000  0.85600000  0.33480000  1.0 -0.1623091826
F  F185  1  0.03910000  0.81580000  0.37330000  1.0 -0.1623091826
F  F186  1  0.02060000  0.86670000  0.43390000  1.0 -0.1623091826
F  F187  1  0.32550000  0.89440000  0.26920000  1.0 -0.0624552041
F  F188  1  0.37450000  0.85560000  0.26540000  1.0 0.180323852
F  F189  1  0.36970000  0.90330000  0.19210000  1.0 -0.0703074709
F  F190  1  0.95870000  0.83400000  0.62550000  1.0 -0.1870693161
F  F191  1  0.98910000  0.87480000  0.55700000  1.0 -0.1734129348
F  F192  1  0.01000000  0.86840000  0.66240000  1.0 -0.1623091826
F  F193  1  0.90710000  0.71430000  0.59890000  1.0 -0.2712143304
F  F194  1  0.95440000  0.75160000  0.63980000  1.0 -0.2120390014
F  F195  1  0.97190000  0.70010000  0.57730000  1.0 -0.1870693161
F  F196  1  0.19480000  0.88360000  0.29710000  1.0 -0.1395468821
F  F197  1  0.24240000  0.89170000  0.22850000  1.0 -0.1870693161
F  F198  1  0.20140000  0.84380000  0.21500000  1.0 -0.1870693161
F  F199  1  0.92940000  0.30500000  0.44110000  1.0 -0.2297765209
F  F200  1  0.96310000  0.25870000  0.38750000  1.0 -0.2157441077
F  F201  1  0.99400000  0.30140000  0.45280000  1.0 -0.1734129348
F  F202  1  0.00660000  0.14400000  0.33480000  1.0 -0.1623091826
F  F203  1  0.96090000  0.18420000  0.37330000  1.0 -0.1623091826
F  F204  1  0.97940000  0.13330000  0.43390000  1.0 -0.1623091826
F  F205  1  0.67450000  0.10560000  0.26920000  1.0 -0.0624552041
F  F206  1  0.62550000  0.14440000  0.26540000  1.0 0.180323852
F  F207  1  0.63030000  0.09670000  0.19210000  1.0 -0.0703074709
F  F208  1  0.04130000  0.16600000  0.62550000  1.0 -0.1870693161
F  F209  1  0.01090000  0.12520000  0.55700000  1.0 -0.1734129348
F  F210  1  0.99000000  0.13160000  0.66240000  1.0 -0.1623091826
F  F211  1  0.09290000  0.28570000  0.59890000  1.0 -0.2712143304
F  F212  1  0.04560000  0.24840000  0.63980000  1.0 -0.2120390014
F  F213  1  0.02810000  0.29990000  0.57730000  1.0 -0.1870693161
F  F214  1  0.80520000  0.11640000  0.29710000  1.0 -0.1395468821
F  F215  1  0.75760000  0.10830000  0.22850000  1.0 -0.1870693161
F  F216  1  0.79860000  0.15620000  0.21500000  1.0 -0.1870693161
F  F217  1  0.30500000  0.92940000  0.05890000  1.0 -0.2297765209
F  F218  1  0.25870000  0.96310000  0.11250000  1.0 -0.2157441077
F  F219  1  0.30140000  0.99400000  0.04720000  1.0 -0.1734129348
F  F220  1  0.14400000  0.00660000  0.16520000  1.0 -0.1623091826
F  F221  1  0.18420000  0.96090000  0.12670000  1.0 -0.1623091826
F  F222  1  0.13330000  0.97940000  0.06610000  1.0 -0.1623091826
F  F223  1  0.10560000  0.67450000  0.23080000  1.0 -0.0624552041
F  F224  1  0.14440000  0.62550000  0.23460000  1.0 0.180323852
F  F225  1  0.09670000  0.63030000  0.30790000  1.0 -0.0703074709
F  F226  1  0.16600000  0.04130000  0.87450000  1.0 -0.1870693161
F  F227  1  0.12520000  0.01090000  0.94300000  1.0 -0.1734129348
F  F228  1  0.13160000  0.99000000  0.83760000  1.0 -0.1623091826
F  F229  1  0.28570000  0.09290000  0.90110000  1.0 -0.2712143304
F  F230  1  0.24840000  0.04560000  0.86020000  1.0 -0.2120390014
F  F231  1  0.29990000  0.02810000  0.92270000  1.0 -0.1870693161
F  F232  1  0.11640000  0.80520000  0.20290000  1.0 -0.1395468821
F  F233  1  0.10830000  0.75760000  0.27150000  1.0 -0.1870693161
F  F234  1  0.15620000  0.79860000  0.28500000  1.0 -0.1870693161
F  F235  1  0.69500000  0.07060000  0.05890000  1.0 -0.2297765209
F  F236  1  0.74130000  0.03690000  0.11250000  1.0 -0.2120390014
F  F237  1  0.69860000  0.00600000  0.04720000  1.0 -0.1734129348
F  F238  1  0.85600000  0.99340000  0.16520000  1.0 -0.1623091826
F  F239  1  0.81580000  0.03910000  0.12670000  1.0 -0.1623091826
F  F240  1  0.86670000  0.02060000  0.06610000  1.0 -0.1623091826
F  F241  1  0.89440000  0.32550000  0.23080000  1.0 -0.0624552041
F  F242  1  0.85560000  0.37450000  0.23460000  1.0 0.180323852
F  F243  1  0.90330000  0.36970000  0.30790000  1.0 -0.0703074709
F  F244  1  0.83400000  0.95870000  0.87450000  1.0 -0.1870693161
F  F245  1  0.87480000  0.98910000  0.94300000  1.0 -0.1734129348
F  F246  1  0.86840000  0.01000000  0.83760000  1.0 -0.1623091826
F  F247  1  0.71430000  0.90710000  0.90110000  1.0 -0.2712143304
F  F248  1  0.75160000  0.95440000  0.86020000  1.0 -0.2120390014
F  F249  1  0.70010000  0.97190000  0.92270000  1.0 -0.1870693161
F  F250  1  0.88360000  0.19480000  0.20290000  1.0 -0.1395468821
F  F251  1  0.89170000  0.24240000  0.27150000  1.0 -0.1870693161
F  F252  1  0.84380000  0.20140000  0.28500000  1.0 -0.1870693161
F  F253  1  0.57060000  0.80500000  0.55890000  1.0 -0.2297765209
F  F254  1  0.53690000  0.75870000  0.61250000  1.0 -0.2120390014
F  F255  1  0.50600000  0.80140000  0.54720000  1.0 -0.1734129348
F  F256  1  0.49340000  0.64400000  0.66520000  1.0 -0.1623091826
F  F257  1  0.53910000  0.68420000  0.62670000  1.0 -0.1623091826
F  F258  1  0.52060000  0.63330000  0.56610000  1.0 -0.1623091826
F  F259  1  0.82550000  0.60560000  0.73080000  1.0 -0.0624552041
F  F260  1  0.87450000  0.64440000  0.73460000  1.0 0.180323852
F  F261  1  0.86970000  0.59670000  0.80790000  1.0 -0.0703074709
F  F262  1  0.45870000  0.66600000  0.37450000  1.0 -0.1870693161
F  F263  1  0.48910000  0.62520000  0.44300000  1.0 -0.1734129348
F  F264  1  0.51000000  0.63160000  0.33760000  1.0 -0.1623091826
F  F265  1  0.40710000  0.78570000  0.40110000  1.0 -0.2712143304
F  F266  1  0.45440000  0.74840000  0.36020000  1.0 -0.2120390014
F  F267  1  0.47190000  0.79990000  0.42270000  1.0 -0.1870693161
F  F268  1  0.69480000  0.61640000  0.70290000  1.0 -0.1395468821
F  F269  1  0.74240000  0.60830000  0.77150000  1.0 -0.1870693161
F  F270  1  0.70140000  0.65620000  0.78500000  1.0 -0.1870693161
F  F271  1  0.42940000  0.19500000  0.55890000  1.0 -0.2297765209
F  F272  1  0.46310000  0.24130000  0.61250000  1.0 -0.2120390014
F  F273  1  0.49400000  0.19860000  0.54720000  1.0 -0.1734129348
F  F274  1  0.50660000  0.35600000  0.66520000  1.0 -0.1623091826
F  F275  1  0.46090000  0.31580000  0.62670000  1.0 -0.1623091826
F  F276  1  0.47940000  0.36670000  0.56610000  1.0 -0.1623091826
F  F277  1  0.17450000  0.39440000  0.73080000  1.0 -0.0624552041
F  F278  1  0.12550000  0.35560000  0.73460000  1.0 0.180323852
F  F279  1  0.13030000  0.40330000  0.80790000  1.0 -0.0703074709
F  F280  1  0.54130000  0.33400000  0.37450000  1.0 -0.1870693161
F  F281  1  0.51090000  0.37480000  0.44300000  1.0 -0.1734129348
F  F282  1  0.49000000  0.36840000  0.33760000  1.0 -0.1623091826
F  F283  1  0.59290000  0.21430000  0.40110000  1.0 -0.2712143304
F  F284  1  0.54560000  0.25160000  0.36020000  1.0 -0.2120390014
F  F285  1  0.52810000  0.20010000  0.42270000  1.0 -0.1870693161
F  F286  1  0.30520000  0.38360000  0.70290000  1.0 -0.1395468821
F  F287  1  0.25760000  0.39170000  0.77150000  1.0 -0.1870693161
F  F288  1  0.29860000  0.34380000  0.78500000  1.0 -0.1870693161
