# DDEC6 charges by PACMAN v1.1 (https://github.com/mtap-research/PACMAN-charge/)
data_XUWMEK_ASR_pacman
_symmetry_space_group_name_H-M   'P 1'
_cell_length_a   22.93730000
_cell_length_b   22.93730000
_cell_length_c   18.96400000
_cell_angle_alpha   90.00000000
_cell_angle_beta   90.00000000
_cell_angle_gamma   90.00000000
_symmetry_Int_Tables_number   1
_chemical_formula_structural   Zr3H28C62(OF2)16
_chemical_formula_sum   'Zr12 H112 C248 O64 F128'
_cell_volume   9977.33458418
_cell_formula_units_Z   4
loop_
 _symmetry_equiv_pos_site_id
 _symmetry_equiv_pos_as_xyz
  1  'x, y, z'
loop_
 _atom_site_type_symbol
 _atom_site_label
 _atom_site_symmetry_multiplicity
 _atom_site_fract_x
 _atom_site_fract_y
 _atom_site_fract_z
 _atom_site_occupancy
 _atom_site_charge
Zr  Zr1  1  0.60737000  0.00000000  0.00000000  1.0 2.3818841971
Zr  Zr2  1  0.39263000  0.00000000  0.00000000  1.0 2.3818841971
Zr  Zr3  1  0.00000000  0.39263000  0.50000000  1.0 2.3818841971
Zr  Zr4  1  0.00000000  0.60737000  0.50000000  1.0 2.3818841971
Zr  Zr5  1  0.50000000  0.92374000  0.90734000  1.0 2.4470237291
Zr  Zr6  1  0.50000000  0.07626000  0.90734000  1.0 2.4470237291
Zr  Zr7  1  0.92374000  0.50000000  0.40734000  1.0 2.4470237291
Zr  Zr8  1  0.07626000  0.50000000  0.40734000  1.0 2.4470237291
Zr  Zr9  1  0.50000000  0.07626000  0.09266000  1.0 2.4470237291
Zr  Zr10  1  0.50000000  0.92374000  0.09266000  1.0 2.4470237291
Zr  Zr11  1  0.92374000  0.50000000  0.59266000  1.0 2.4470237291
Zr  Zr12  1  0.07626000  0.50000000  0.59266000  1.0 2.4470237291
H  H1  1  0.54750000  0.94930000  0.55370000  1.0 0.0974379091
H  H2  1  0.54760000  0.94870000  0.67710000  1.0 0.1231756558
H  H3  1  0.45900000  0.79600000  0.67580000  1.0 0.1109930783
H  H4  1  0.75500000  0.89380000  0.90380000  1.0 0.1231756558
H  H5  1  0.62630000  0.84170000  0.77170000  1.0 0.1109930783
H  H6  1  0.69340000  0.78570000  0.70820000  1.0 0.154673694
H  H7  1  0.82220000  0.83780000  0.84030000  1.0 0.1934055461
H  H8  1  0.45250000  0.05070000  0.55370000  1.0 0.0974379091
H  H9  1  0.45240000  0.05130000  0.67710000  1.0 0.1231756558
H  H10  1  0.54100000  0.20400000  0.67580000  1.0 0.1109930783
H  H11  1  0.24500000  0.10620000  0.90380000  1.0 0.1231756558
H  H12  1  0.37370000  0.15830000  0.77170000  1.0 0.1109930783
H  H13  1  0.30660000  0.21430000  0.70820000  1.0 0.154673694
H  H14  1  0.17780000  0.16220000  0.84030000  1.0 0.1934055461
H  H15  1  0.94930000  0.45250000  0.05370000  1.0 0.0974379091
H  H16  1  0.94870000  0.45240000  0.17710000  1.0 0.1231756558
H  H17  1  0.79600000  0.54100000  0.17580000  1.0 0.1109930783
H  H18  1  0.89380000  0.24500000  0.40380000  1.0 0.1231756558
H  H19  1  0.84170000  0.37370000  0.27170000  1.0 0.1109930783
H  H20  1  0.78570000  0.30660000  0.20820000  1.0 0.154673694
H  H21  1  0.83780000  0.17780000  0.34030000  1.0 0.1934055461
H  H22  1  0.05070000  0.54750000  0.05370000  1.0 0.0974379091
H  H23  1  0.05130000  0.54760000  0.17710000  1.0 0.1231756558
H  H24  1  0.20400000  0.45900000  0.17580000  1.0 0.1109930783
H  H25  1  0.10620000  0.75500000  0.40380000  1.0 0.1231756558
H  H26  1  0.15830000  0.62630000  0.27170000  1.0 0.1109930783
H  H27  1  0.21430000  0.69340000  0.20820000  1.0 0.154673694
H  H28  1  0.16220000  0.82220000  0.34030000  1.0 0.1950890965
H  H29  1  0.54750000  0.05070000  0.44630000  1.0 0.0974379091
H  H30  1  0.54760000  0.05130000  0.32290000  1.0 0.1231756558
H  H31  1  0.45900000  0.20400000  0.32420000  1.0 0.1109930783
H  H32  1  0.75500000  0.10620000  0.09620000  1.0 0.1231756558
H  H33  1  0.62630000  0.15830000  0.22830000  1.0 0.1109930783
H  H34  1  0.69340000  0.21430000  0.29180000  1.0 0.154673694
H  H35  1  0.82220000  0.16220000  0.15970000  1.0 0.1934055461
H  H36  1  0.45250000  0.94930000  0.44630000  1.0 0.0974379091
H  H37  1  0.45240000  0.94870000  0.32290000  1.0 0.1231756558
H  H38  1  0.54100000  0.79600000  0.32420000  1.0 0.1109930783
H  H39  1  0.24500000  0.89380000  0.09620000  1.0 0.1231756558
H  H40  1  0.37370000  0.84170000  0.22830000  1.0 0.1109930783
H  H41  1  0.30660000  0.78570000  0.29180000  1.0 0.154673694
H  H42  1  0.17780000  0.83780000  0.15970000  1.0 0.1934055461
H  H43  1  0.94930000  0.54750000  0.94630000  1.0 0.0974379091
H  H44  1  0.94870000  0.54760000  0.82290000  1.0 0.1231756558
H  H45  1  0.79600000  0.45900000  0.82420000  1.0 0.1109930783
H  H46  1  0.89380000  0.75500000  0.59620000  1.0 0.1231756558
H  H47  1  0.84170000  0.62630000  0.72830000  1.0 0.1109930783
H  H48  1  0.78570000  0.69340000  0.79180000  1.0 0.154673694
H  H49  1  0.83780000  0.82220000  0.65970000  1.0 0.1934055461
H  H50  1  0.05070000  0.45250000  0.94630000  1.0 0.0974379091
H  H51  1  0.05130000  0.45240000  0.82290000  1.0 0.1231756558
H  H52  1  0.20400000  0.54100000  0.82420000  1.0 0.1109930783
H  H53  1  0.10620000  0.24500000  0.59620000  1.0 0.1231756558
H  H54  1  0.15830000  0.37370000  0.72830000  1.0 0.1109930783
H  H55  1  0.21430000  0.30660000  0.79180000  1.0 0.154673694
H  H56  1  0.16220000  0.17780000  0.65970000  1.0 0.1934055461
H  H57  1  0.45250000  0.05070000  0.44630000  1.0 0.0974379091
H  H58  1  0.45240000  0.05130000  0.32290000  1.0 0.1231756558
H  H59  1  0.54100000  0.20400000  0.32420000  1.0 0.1109930783
H  H60  1  0.24500000  0.10620000  0.09620000  1.0 0.1231756558
H  H61  1  0.37370000  0.15830000  0.22830000  1.0 0.1109930783
H  H62  1  0.30660000  0.21430000  0.29180000  1.0 0.154673694
H  H63  1  0.17780000  0.16220000  0.15970000  1.0 0.1934055461
H  H64  1  0.54750000  0.94930000  0.44630000  1.0 0.0974379091
H  H65  1  0.54760000  0.94870000  0.32290000  1.0 0.1231756558
H  H66  1  0.45900000  0.79600000  0.32420000  1.0 0.1109930783
H  H67  1  0.75500000  0.89380000  0.09620000  1.0 0.1231756558
H  H68  1  0.62630000  0.84170000  0.22830000  1.0 0.1109930783
H  H69  1  0.69340000  0.78570000  0.29180000  1.0 0.154673694
H  H70  1  0.82220000  0.83780000  0.15970000  1.0 0.1934055461
H  H71  1  0.05070000  0.54750000  0.94630000  1.0 0.0974379091
H  H72  1  0.05130000  0.54760000  0.82290000  1.0 0.1231756558
H  H73  1  0.20400000  0.45900000  0.82420000  1.0 0.1109930783
H  H74  1  0.10620000  0.75500000  0.59620000  1.0 0.1231756558
H  H75  1  0.15830000  0.62630000  0.72830000  1.0 0.1109930783
H  H76  1  0.21430000  0.69340000  0.79180000  1.0 0.154673694
H  H77  1  0.16220000  0.82220000  0.65970000  1.0 0.1950890965
H  H78  1  0.94930000  0.45250000  0.94630000  1.0 0.0974379091
H  H79  1  0.94870000  0.45240000  0.82290000  1.0 0.1231756558
H  H80  1  0.79600000  0.54100000  0.82420000  1.0 0.1109930783
H  H81  1  0.89380000  0.24500000  0.59620000  1.0 0.1231756558
H  H82  1  0.84170000  0.37370000  0.72830000  1.0 0.1109930783
H  H83  1  0.78570000  0.30660000  0.79180000  1.0 0.154673694
H  H84  1  0.83780000  0.17780000  0.65970000  1.0 0.1934055461
H  H85  1  0.45250000  0.94930000  0.55370000  1.0 0.0974379091
H  H86  1  0.45240000  0.94870000  0.67710000  1.0 0.1231756558
H  H87  1  0.54100000  0.79600000  0.67580000  1.0 0.1109930783
H  H88  1  0.24500000  0.89380000  0.90380000  1.0 0.1231756558
H  H89  1  0.37370000  0.84170000  0.77170000  1.0 0.1109930783
H  H90  1  0.30660000  0.78570000  0.70820000  1.0 0.154673694
H  H91  1  0.17780000  0.83780000  0.84030000  1.0 0.1950890965
H  H92  1  0.54750000  0.05070000  0.55370000  1.0 0.0974379091
H  H93  1  0.54760000  0.05130000  0.67710000  1.0 0.1231756558
H  H94  1  0.45900000  0.20400000  0.67580000  1.0 0.1109930783
H  H95  1  0.75500000  0.10620000  0.90380000  1.0 0.1231756558
H  H96  1  0.62630000  0.15830000  0.77170000  1.0 0.1109930783
H  H97  1  0.69340000  0.21430000  0.70820000  1.0 0.154673694
H  H98  1  0.82220000  0.16220000  0.84030000  1.0 0.1934055461
H  H99  1  0.05070000  0.45250000  0.05370000  1.0 0.0974379091
H  H100  1  0.05130000  0.45240000  0.17710000  1.0 0.1231756558
H  H101  1  0.20400000  0.54100000  0.17580000  1.0 0.1109930783
H  H102  1  0.10620000  0.24500000  0.40380000  1.0 0.1231756558
H  H103  1  0.15830000  0.37370000  0.27170000  1.0 0.1109930783
H  H104  1  0.21430000  0.30660000  0.20820000  1.0 0.154673694
H  H105  1  0.16220000  0.17780000  0.34030000  1.0 0.1934055461
H  H106  1  0.94930000  0.54750000  0.05370000  1.0 0.0974379091
H  H107  1  0.94870000  0.54760000  0.17710000  1.0 0.1231756558
H  H108  1  0.79600000  0.45900000  0.17580000  1.0 0.1109930783
H  H109  1  0.89380000  0.75500000  0.40380000  1.0 0.1231756558
H  H110  1  0.84170000  0.62630000  0.27170000  1.0 0.1109930783
H  H111  1  0.78570000  0.69340000  0.20820000  1.0 0.154673694
H  H112  1  0.83780000  0.82220000  0.34030000  1.0 0.1934055461
C  C1  1  0.76420000  0.80650000  0.76820000  1.0 0.040578622
C  C2  1  0.78240000  0.83860000  0.82630000  1.0 -0.1579475293
C  C3  1  0.74250000  0.87180000  0.86410000  1.0 -0.0728576142
C  C4  1  0.68430000  0.87300000  0.84370000  1.0 -0.0404788151
C  C5  1  0.66600000  0.84090000  0.78560000  1.0 -0.0728576142
C  C6  1  0.70590000  0.80770000  0.74790000  1.0 -0.1827873147
C  C7  1  0.64050000  0.90470000  0.88550000  1.0 0.6362300387
C  C8  1  0.84390000  0.84080000  0.85460000  1.0 0.3734262812
C  C9  1  0.47170000  0.83020000  0.65140000  1.0 -0.0728576142
C  C10  1  0.47159000  0.83060000  0.57810000  1.0 -0.1026296967
C  C11  1  0.52817000  0.91900000  0.57860000  1.0 -0.0804372306
C  C12  1  0.52828000  0.91860000  0.65190000  1.0 -0.0404788151
C  C13  1  0.43820000  0.78400000  0.54150000  1.0 0.3263110197
C  C14  1  0.67810000  0.77550000  0.68740000  1.0 0.386978606
C  C15  1  0.23580000  0.19350000  0.76820000  1.0 0.040578622
C  C16  1  0.21760000  0.16140000  0.82630000  1.0 -0.1579475293
C  C17  1  0.25750000  0.12820000  0.86410000  1.0 -0.0728576142
C  C18  1  0.31570000  0.12700000  0.84370000  1.0 -0.0404788151
C  C19  1  0.33400000  0.15910000  0.78560000  1.0 -0.0728576142
C  C20  1  0.29410000  0.19230000  0.74790000  1.0 -0.1827873147
C  C21  1  0.35950000  0.09530000  0.88550000  1.0 0.6362300387
C  C22  1  0.15610000  0.15920000  0.85460000  1.0 0.3734262812
C  C23  1  0.52830000  0.16980000  0.65140000  1.0 -0.0728576142
C  C24  1  0.52841000  0.16940000  0.57810000  1.0 -0.1026296967
C  C25  1  0.47183000  0.08100000  0.57860000  1.0 -0.0804372306
C  C26  1  0.47172000  0.08140000  0.65190000  1.0 -0.0404788151
C  C27  1  0.56180000  0.21600000  0.54150000  1.0 0.3245649136
C  C28  1  0.32190000  0.22450000  0.68740000  1.0 0.386978606
C  C29  1  0.80650000  0.23580000  0.26820000  1.0 0.040578622
C  C30  1  0.83860000  0.21760000  0.32630000  1.0 -0.1579475293
C  C31  1  0.87180000  0.25750000  0.36410000  1.0 -0.0728576142
C  C32  1  0.87300000  0.31570000  0.34370000  1.0 -0.0404788151
C  C33  1  0.84090000  0.33400000  0.28560000  1.0 -0.0728576142
C  C34  1  0.80770000  0.29410000  0.24790000  1.0 -0.1827873147
C  C35  1  0.90470000  0.35950000  0.38550000  1.0 0.6362300387
C  C36  1  0.84080000  0.15610000  0.35460000  1.0 0.3734262812
C  C37  1  0.83020000  0.52830000  0.15140000  1.0 -0.0728576142
C  C38  1  0.83060000  0.52841000  0.07810000  1.0 -0.1026296967
C  C39  1  0.91900000  0.47183000  0.07860000  1.0 -0.0804372306
C  C40  1  0.91860000  0.47172000  0.15190000  1.0 -0.0404788151
C  C41  1  0.78400000  0.56180000  0.04150000  1.0 0.3263110197
C  C42  1  0.77550000  0.32190000  0.18740000  1.0 0.386978606
C  C43  1  0.19350000  0.76420000  0.26820000  1.0 0.040578622
C  C44  1  0.16140000  0.78240000  0.32630000  1.0 -0.1579475293
C  C45  1  0.12820000  0.74250000  0.36410000  1.0 -0.0728576142
C  C46  1  0.12700000  0.68430000  0.34370000  1.0 -0.0404788151
C  C47  1  0.15910000  0.66600000  0.28560000  1.0 -0.0728576142
C  C48  1  0.19230000  0.70590000  0.24790000  1.0 -0.1827873147
C  C49  1  0.09530000  0.64050000  0.38550000  1.0 0.6362300387
C  C50  1  0.15920000  0.84390000  0.35460000  1.0 0.3734262812
C  C51  1  0.16980000  0.47170000  0.15140000  1.0 -0.0728576142
C  C52  1  0.16940000  0.47159000  0.07810000  1.0 -0.1026296967
C  C53  1  0.08100000  0.52817000  0.07860000  1.0 -0.0804372306
C  C54  1  0.08140000  0.52828000  0.15190000  1.0 -0.0404788151
C  C55  1  0.21600000  0.43820000  0.04150000  1.0 0.3245649136
C  C56  1  0.22450000  0.67810000  0.18740000  1.0 0.386978606
C  C57  1  0.76420000  0.19350000  0.23180000  1.0 0.040578622
C  C58  1  0.78240000  0.16140000  0.17370000  1.0 -0.1579475293
C  C59  1  0.74250000  0.12820000  0.13590000  1.0 -0.0728576142
C  C60  1  0.68430000  0.12700000  0.15630000  1.0 -0.0404788151
C  C61  1  0.66600000  0.15910000  0.21440000  1.0 -0.0728576142
C  C62  1  0.70590000  0.19230000  0.25210000  1.0 -0.1827873147
C  C63  1  0.64050000  0.09530000  0.11450000  1.0 0.6362300387
C  C64  1  0.84390000  0.15920000  0.14540000  1.0 0.3734262812
C  C65  1  0.47170000  0.16980000  0.34860000  1.0 -0.0728576142
C  C66  1  0.47159000  0.16940000  0.42190000  1.0 -0.1026296967
C  C67  1  0.52817000  0.08100000  0.42140000  1.0 -0.0804372306
C  C68  1  0.52828000  0.08140000  0.34810000  1.0 -0.0404788151
C  C69  1  0.43820000  0.21600000  0.45850000  1.0 0.3245649136
C  C70  1  0.67810000  0.22450000  0.31260000  1.0 0.386978606
C  C71  1  0.23580000  0.80650000  0.23180000  1.0 0.040578622
C  C72  1  0.21760000  0.83860000  0.17370000  1.0 -0.1579475293
C  C73  1  0.25750000  0.87180000  0.13590000  1.0 -0.0728576142
C  C74  1  0.31570000  0.87300000  0.15630000  1.0 -0.0404788151
C  C75  1  0.33400000  0.84090000  0.21440000  1.0 -0.0728576142
C  C76  1  0.29410000  0.80770000  0.25210000  1.0 -0.1827873147
C  C77  1  0.35950000  0.90470000  0.11450000  1.0 0.6362300387
C  C78  1  0.15610000  0.84080000  0.14540000  1.0 0.3734262812
C  C79  1  0.52830000  0.83020000  0.34860000  1.0 -0.0728576142
C  C80  1  0.52841000  0.83060000  0.42190000  1.0 -0.1026296967
C  C81  1  0.47183000  0.91900000  0.42140000  1.0 -0.0804372306
C  C82  1  0.47172000  0.91860000  0.34810000  1.0 -0.0404788151
C  C83  1  0.56180000  0.78400000  0.45850000  1.0 0.3263110197
C  C84  1  0.32190000  0.77550000  0.31260000  1.0 0.386978606
C  C85  1  0.80650000  0.76420000  0.73180000  1.0 0.040578622
C  C86  1  0.83860000  0.78240000  0.67370000  1.0 -0.1579475293
C  C87  1  0.87180000  0.74250000  0.63590000  1.0 -0.0728576142
C  C88  1  0.87300000  0.68430000  0.65630000  1.0 -0.0404788151
C  C89  1  0.84090000  0.66600000  0.71440000  1.0 -0.0728576142
C  C90  1  0.80770000  0.70590000  0.75210000  1.0 -0.1827873147
C  C91  1  0.90470000  0.64050000  0.61450000  1.0 0.6362300387
C  C92  1  0.84080000  0.84390000  0.64540000  1.0 0.3734262812
C  C93  1  0.83020000  0.47170000  0.84860000  1.0 -0.0728576142
C  C94  1  0.83060000  0.47159000  0.92190000  1.0 -0.1026296967
C  C95  1  0.91900000  0.52817000  0.92140000  1.0 -0.0804372306
C  C96  1  0.91860000  0.52828000  0.84810000  1.0 -0.0404788151
C  C97  1  0.78400000  0.43820000  0.95850000  1.0 0.3263110197
C  C98  1  0.77550000  0.67810000  0.81260000  1.0 0.386978606
C  C99  1  0.19350000  0.23580000  0.73180000  1.0 0.040578622
C  C100  1  0.16140000  0.21760000  0.67370000  1.0 -0.1579475293
C  C101  1  0.12820000  0.25750000  0.63590000  1.0 -0.0728576142
C  C102  1  0.12700000  0.31570000  0.65630000  1.0 -0.0404788151
C  C103  1  0.15910000  0.33400000  0.71440000  1.0 -0.0728576142
C  C104  1  0.19230000  0.29410000  0.75210000  1.0 -0.1827873147
C  C105  1  0.09530000  0.35950000  0.61450000  1.0 0.6362300387
C  C106  1  0.15920000  0.15610000  0.64540000  1.0 0.3734262812
C  C107  1  0.16980000  0.52830000  0.84860000  1.0 -0.0728576142
C  C108  1  0.16940000  0.52841000  0.92190000  1.0 -0.1026296967
C  C109  1  0.08100000  0.47183000  0.92140000  1.0 -0.0804372306
C  C110  1  0.08140000  0.47172000  0.84810000  1.0 -0.0404788151
C  C111  1  0.21600000  0.56180000  0.95850000  1.0 0.3263110197
C  C112  1  0.22450000  0.32190000  0.81260000  1.0 0.386978606
C  C113  1  0.23580000  0.19350000  0.23180000  1.0 0.040578622
C  C114  1  0.21760000  0.16140000  0.17370000  1.0 -0.1579475293
C  C115  1  0.25750000  0.12820000  0.13590000  1.0 -0.0728576142
C  C116  1  0.31570000  0.12700000  0.15630000  1.0 -0.0404788151
C  C117  1  0.33400000  0.15910000  0.21440000  1.0 -0.0728576142
C  C118  1  0.29410000  0.19230000  0.25210000  1.0 -0.1827873147
C  C119  1  0.35950000  0.09530000  0.11450000  1.0 0.6362300387
C  C120  1  0.15610000  0.15920000  0.14540000  1.0 0.3734262812
C  C121  1  0.52830000  0.16980000  0.34860000  1.0 -0.0728576142
C  C122  1  0.52841000  0.16940000  0.42190000  1.0 -0.1026296967
C  C123  1  0.47183000  0.08100000  0.42140000  1.0 -0.0804372306
C  C124  1  0.47172000  0.08140000  0.34810000  1.0 -0.0404788151
C  C125  1  0.56180000  0.21600000  0.45850000  1.0 0.3245649136
C  C126  1  0.32190000  0.22450000  0.31260000  1.0 0.386978606
C  C127  1  0.76420000  0.80650000  0.23180000  1.0 0.040578622
C  C128  1  0.78240000  0.83860000  0.17370000  1.0 -0.1579475293
C  C129  1  0.74250000  0.87180000  0.13590000  1.0 -0.0728576142
C  C130  1  0.68430000  0.87300000  0.15630000  1.0 -0.0404788151
C  C131  1  0.66600000  0.84090000  0.21440000  1.0 -0.0728576142
C  C132  1  0.70590000  0.80770000  0.25210000  1.0 -0.1827873147
C  C133  1  0.64050000  0.90470000  0.11450000  1.0 0.6362300387
C  C134  1  0.84390000  0.84080000  0.14540000  1.0 0.3734262812
C  C135  1  0.47170000  0.83020000  0.34860000  1.0 -0.0728576142
C  C136  1  0.47159000  0.83060000  0.42190000  1.0 -0.1026296967
C  C137  1  0.52817000  0.91900000  0.42140000  1.0 -0.0804372306
C  C138  1  0.52828000  0.91860000  0.34810000  1.0 -0.0404788151
C  C139  1  0.43820000  0.78400000  0.45850000  1.0 0.3263110197
C  C140  1  0.67810000  0.77550000  0.31260000  1.0 0.386978606
C  C141  1  0.19350000  0.76420000  0.73180000  1.0 0.040578622
C  C142  1  0.16140000  0.78240000  0.67370000  1.0 -0.1579475293
C  C143  1  0.12820000  0.74250000  0.63590000  1.0 -0.0728576142
C  C144  1  0.12700000  0.68430000  0.65630000  1.0 -0.0404788151
C  C145  1  0.15910000  0.66600000  0.71440000  1.0 -0.0728576142
C  C146  1  0.19230000  0.70590000  0.75210000  1.0 -0.1827873147
C  C147  1  0.09530000  0.64050000  0.61450000  1.0 0.6362300387
C  C148  1  0.15920000  0.84390000  0.64540000  1.0 0.3734262812
C  C149  1  0.16980000  0.47170000  0.84860000  1.0 -0.0728576142
C  C150  1  0.16940000  0.47159000  0.92190000  1.0 -0.1026296967
C  C151  1  0.08100000  0.52817000  0.92140000  1.0 -0.0804372306
C  C152  1  0.08140000  0.52828000  0.84810000  1.0 -0.0404788151
C  C153  1  0.21600000  0.43820000  0.95850000  1.0 0.3263110197
C  C154  1  0.22450000  0.67810000  0.81260000  1.0 0.386978606
C  C155  1  0.80650000  0.23580000  0.73180000  1.0 0.040578622
C  C156  1  0.83860000  0.21760000  0.67370000  1.0 -0.1579475293
C  C157  1  0.87180000  0.25750000  0.63590000  1.0 -0.0728576142
C  C158  1  0.87300000  0.31570000  0.65630000  1.0 -0.0404788151
C  C159  1  0.84090000  0.33400000  0.71440000  1.0 -0.0728576142
C  C160  1  0.80770000  0.29410000  0.75210000  1.0 -0.1827873147
C  C161  1  0.90470000  0.35950000  0.61450000  1.0 0.6362300387
C  C162  1  0.84080000  0.15610000  0.64540000  1.0 0.3734262812
C  C163  1  0.83020000  0.52830000  0.84860000  1.0 -0.0728576142
C  C164  1  0.83060000  0.52841000  0.92190000  1.0 -0.1026296967
C  C165  1  0.91900000  0.47183000  0.92140000  1.0 -0.0804372306
C  C166  1  0.91860000  0.47172000  0.84810000  1.0 -0.0404788151
C  C167  1  0.78400000  0.56180000  0.95850000  1.0 0.3263110197
C  C168  1  0.77550000  0.32190000  0.81260000  1.0 0.386978606
C  C169  1  0.23580000  0.80650000  0.76820000  1.0 0.040578622
C  C170  1  0.21760000  0.83860000  0.82630000  1.0 -0.1579475293
C  C171  1  0.25750000  0.87180000  0.86410000  1.0 -0.0728576142
C  C172  1  0.31570000  0.87300000  0.84370000  1.0 -0.0404788151
C  C173  1  0.33400000  0.84090000  0.78560000  1.0 -0.0728576142
C  C174  1  0.29410000  0.80770000  0.74790000  1.0 -0.1827873147
C  C175  1  0.35950000  0.90470000  0.88550000  1.0 0.6362300387
C  C176  1  0.15610000  0.84080000  0.85460000  1.0 0.3734262812
C  C177  1  0.52830000  0.83020000  0.65140000  1.0 -0.0728576142
C  C178  1  0.52841000  0.83060000  0.57810000  1.0 -0.1026296967
C  C179  1  0.47183000  0.91900000  0.57860000  1.0 -0.0804372306
C  C180  1  0.47172000  0.91860000  0.65190000  1.0 -0.0404788151
C  C181  1  0.56180000  0.78400000  0.54150000  1.0 0.3263110197
C  C182  1  0.32190000  0.77550000  0.68740000  1.0 0.386978606
C  C183  1  0.76420000  0.19350000  0.76820000  1.0 0.040578622
C  C184  1  0.78240000  0.16140000  0.82630000  1.0 -0.1579475293
C  C185  1  0.74250000  0.12820000  0.86410000  1.0 -0.0728576142
C  C186  1  0.68430000  0.12700000  0.84370000  1.0 -0.0404788151
C  C187  1  0.66600000  0.15910000  0.78560000  1.0 -0.0728576142
C  C188  1  0.70590000  0.19230000  0.74790000  1.0 -0.1827873147
C  C189  1  0.64050000  0.09530000  0.88550000  1.0 0.6362300387
C  C190  1  0.84390000  0.15920000  0.85460000  1.0 0.3734262812
C  C191  1  0.47170000  0.16980000  0.65140000  1.0 -0.0728576142
C  C192  1  0.47159000  0.16940000  0.57810000  1.0 -0.1026296967
C  C193  1  0.52817000  0.08100000  0.57860000  1.0 -0.0804372306
C  C194  1  0.52828000  0.08140000  0.65190000  1.0 -0.0404788151
C  C195  1  0.43820000  0.21600000  0.54150000  1.0 0.3245649136
C  C196  1  0.67810000  0.22450000  0.68740000  1.0 0.386978606
C  C197  1  0.19350000  0.23580000  0.26820000  1.0 0.040578622
C  C198  1  0.16140000  0.21760000  0.32630000  1.0 -0.1579475293
C  C199  1  0.12820000  0.25750000  0.36410000  1.0 -0.0728576142
C  C200  1  0.12700000  0.31570000  0.34370000  1.0 -0.0404788151
C  C201  1  0.15910000  0.33400000  0.28560000  1.0 -0.0728576142
C  C202  1  0.19230000  0.29410000  0.24790000  1.0 -0.1827873147
C  C203  1  0.09530000  0.35950000  0.38550000  1.0 0.6362300387
C  C204  1  0.15920000  0.15610000  0.35460000  1.0 0.3734262812
C  C205  1  0.16980000  0.52830000  0.15140000  1.0 -0.0728576142
C  C206  1  0.16940000  0.52841000  0.07810000  1.0 -0.1026296967
C  C207  1  0.08100000  0.47183000  0.07860000  1.0 -0.0804372306
C  C208  1  0.08140000  0.47172000  0.15190000  1.0 -0.0404788151
C  C209  1  0.21600000  0.56180000  0.04150000  1.0 0.3245649136
C  C210  1  0.22450000  0.32190000  0.18740000  1.0 0.386978606
C  C211  1  0.80650000  0.76420000  0.26820000  1.0 0.040578622
C  C212  1  0.83860000  0.78240000  0.32630000  1.0 -0.1579475293
C  C213  1  0.87180000  0.74250000  0.36410000  1.0 -0.0728576142
C  C214  1  0.87300000  0.68430000  0.34370000  1.0 -0.0404788151
C  C215  1  0.84090000  0.66600000  0.28560000  1.0 -0.0728576142
C  C216  1  0.80770000  0.70590000  0.24790000  1.0 -0.1827873147
C  C217  1  0.90470000  0.64050000  0.38550000  1.0 0.6362300387
C  C218  1  0.84080000  0.84390000  0.35460000  1.0 0.3734262812
C  C219  1  0.83020000  0.47170000  0.15140000  1.0 -0.0728576142
C  C220  1  0.83060000  0.47159000  0.07810000  1.0 -0.1026296967
C  C221  1  0.91900000  0.52817000  0.07860000  1.0 -0.0804372306
C  C222  1  0.91860000  0.52828000  0.15190000  1.0 -0.0404788151
C  C223  1  0.78400000  0.43820000  0.04150000  1.0 0.3263110197
C  C224  1  0.77550000  0.67810000  0.18740000  1.0 0.386978606
C  C225  1  0.50000000  0.86860000  0.76710000  1.0 0.4890219963
C  C226  1  0.50000000  0.87430000  0.68826000  1.0 0.040578622
C  C227  1  0.50000000  0.87500000  0.54167000  1.0 0.051919075
C  C228  1  0.50000000  0.13140000  0.76710000  1.0 0.4890219963
C  C229  1  0.50000000  0.12570000  0.68826000  1.0 0.040578622
C  C230  1  0.50000000  0.12500000  0.54167000  1.0 0.051919075
C  C231  1  0.86860000  0.50000000  0.26710000  1.0 0.4890219963
C  C232  1  0.87430000  0.50000000  0.18826000  1.0 0.040578622
C  C233  1  0.87500000  0.50000000  0.04167000  1.0 0.051919075
C  C234  1  0.13140000  0.50000000  0.26710000  1.0 0.4890219963
C  C235  1  0.12570000  0.50000000  0.18826000  1.0 0.040578622
C  C236  1  0.12500000  0.50000000  0.04167000  1.0 0.051919075
C  C237  1  0.50000000  0.13140000  0.23290000  1.0 0.4890219963
C  C238  1  0.50000000  0.12570000  0.31174000  1.0 0.040578622
C  C239  1  0.50000000  0.12500000  0.45833000  1.0 0.051919075
C  C240  1  0.50000000  0.86860000  0.23290000  1.0 0.4890219963
C  C241  1  0.50000000  0.87430000  0.31174000  1.0 0.040578622
C  C242  1  0.50000000  0.87500000  0.45833000  1.0 0.051919075
C  C243  1  0.86860000  0.50000000  0.73290000  1.0 0.4890219963
C  C244  1  0.87430000  0.50000000  0.81174000  1.0 0.040578622
C  C245  1  0.87500000  0.50000000  0.95833000  1.0 0.051919075
C  C246  1  0.13140000  0.50000000  0.73290000  1.0 0.4890219963
C  C247  1  0.12570000  0.50000000  0.81174000  1.0 0.040578622
C  C248  1  0.12500000  0.50000000  0.95833000  1.0 0.051919075
O  O1  1  0.65770000  0.94160000  0.93000000  1.0 -0.5677323469
O  O2  1  0.58780000  0.89340000  0.87100000  1.0 -0.5824484729
O  O3  1  0.34230000  0.05840000  0.93000000  1.0 -0.5677323469
O  O4  1  0.41220000  0.10660000  0.87100000  1.0 -0.5824484729
O  O5  1  0.94160000  0.34230000  0.43000000  1.0 -0.5677323469
O  O6  1  0.89340000  0.41220000  0.37100000  1.0 -0.5824484729
O  O7  1  0.05840000  0.65770000  0.43000000  1.0 -0.5677323469
O  O8  1  0.10660000  0.58780000  0.37100000  1.0 -0.5824484729
O  O9  1  0.65770000  0.05840000  0.07000000  1.0 -0.5677323469
O  O10  1  0.58780000  0.10660000  0.12900000  1.0 -0.5824484729
O  O11  1  0.34230000  0.94160000  0.07000000  1.0 -0.5677323469
O  O12  1  0.41220000  0.89340000  0.12900000  1.0 -0.5824484729
O  O13  1  0.94160000  0.65770000  0.57000000  1.0 -0.5677323469
O  O14  1  0.89340000  0.58780000  0.62900000  1.0 -0.5824484729
O  O15  1  0.05840000  0.34230000  0.57000000  1.0 -0.5677323469
O  O16  1  0.10660000  0.41220000  0.62900000  1.0 -0.5824484729
O  O17  1  0.34230000  0.05840000  0.07000000  1.0 -0.5677323469
O  O18  1  0.41220000  0.10660000  0.12900000  1.0 -0.5824484729
O  O19  1  0.65770000  0.94160000  0.07000000  1.0 -0.5677323469
O  O20  1  0.58780000  0.89340000  0.12900000  1.0 -0.5824484729
O  O21  1  0.05840000  0.65770000  0.57000000  1.0 -0.5677323469
O  O22  1  0.10660000  0.58780000  0.62900000  1.0 -0.5824484729
O  O23  1  0.94160000  0.34230000  0.57000000  1.0 -0.5677323469
O  O24  1  0.89340000  0.41220000  0.62900000  1.0 -0.5824484729
O  O25  1  0.34230000  0.94160000  0.93000000  1.0 -0.5677323469
O  O26  1  0.41220000  0.89340000  0.87100000  1.0 -0.5824484729
O  O27  1  0.65770000  0.05840000  0.93000000  1.0 -0.5677323469
O  O28  1  0.58780000  0.10660000  0.87100000  1.0 -0.5824484729
O  O29  1  0.05840000  0.34230000  0.43000000  1.0 -0.5677323469
O  O30  1  0.10660000  0.41220000  0.37100000  1.0 -0.5824484729
O  O31  1  0.94160000  0.65770000  0.43000000  1.0 -0.5677323469
O  O32  1  0.89340000  0.58780000  0.37100000  1.0 -0.5824484729
O  O33  1  0.50000000  0.92780000  0.79170000  1.0 -0.6939604485
O  O34  1  0.50000000  0.80790000  0.79020000  1.0 -0.6263503337
O  O35  1  0.50000000  0.07220000  0.79170000  1.0 -0.6939604485
O  O36  1  0.50000000  0.19210000  0.79020000  1.0 -0.6263503337
O  O37  1  0.92780000  0.50000000  0.29170000  1.0 -0.6939604485
O  O38  1  0.80790000  0.50000000  0.29020000  1.0 -0.6263503337
O  O39  1  0.07220000  0.50000000  0.29170000  1.0 -0.6939604485
O  O40  1  0.19210000  0.50000000  0.29020000  1.0 -0.6263503337
O  O41  1  0.50000000  0.07220000  0.20830000  1.0 -0.6939604485
O  O42  1  0.50000000  0.19210000  0.20980000  1.0 -0.6263503337
O  O43  1  0.50000000  0.92780000  0.20830000  1.0 -0.6939604485
O  O44  1  0.50000000  0.80790000  0.20980000  1.0 -0.6263503337
O  O45  1  0.92780000  0.50000000  0.70830000  1.0 -0.6939604485
O  O46  1  0.80790000  0.50000000  0.70980000  1.0 -0.6263503337
O  O47  1  0.07220000  0.50000000  0.70830000  1.0 -0.6939604485
O  O48  1  0.19210000  0.50000000  0.70980000  1.0 -0.6263503337
O  O49  1  0.55150000  0.92350000  0.00000000  1.0 -1.1538998091
O  O50  1  0.44850000  0.07650000  0.00000000  1.0 -1.1538998091
O  O51  1  0.92350000  0.44850000  0.50000000  1.0 -1.1538998091
O  O52  1  0.07650000  0.55150000  0.50000000  1.0 -1.1551710569
O  O53  1  0.55150000  0.07650000  0.00000000  1.0 -1.1538998091
O  O54  1  0.44850000  0.92350000  0.00000000  1.0 -1.1538998091
O  O55  1  0.92350000  0.55150000  0.50000000  1.0 -1.1538998091
O  O56  1  0.07650000  0.44850000  0.50000000  1.0 -1.1551710569
O  O57  1  0.55290000  0.00000000  0.90770000  1.0 -1.0851364338
O  O58  1  0.44710000  0.00000000  0.90770000  1.0 -1.0851364338
O  O59  1  0.00000000  0.44710000  0.40770000  1.0 -1.0851364338
O  O60  1  0.00000000  0.55290000  0.40770000  1.0 -1.0851364338
O  O61  1  0.55290000  0.00000000  0.09230000  1.0 -1.0851364338
O  O62  1  0.44710000  0.00000000  0.09230000  1.0 -1.0851364338
O  O63  1  0.00000000  0.55290000  0.59230000  1.0 -1.0851364338
O  O64  1  0.00000000  0.44710000  0.59230000  1.0 -1.0851364338
F  F1  1  0.86710000  0.79140000  0.88000000  1.0 -0.1866979205
F  F2  1  0.88650000  0.85380000  0.80880000  1.0 -0.1718797066
F  F3  1  0.85570000  0.87720000  0.90720000  1.0 -0.1827873147
F  F4  1  0.41060000  0.74310000  0.57940000  1.0 -0.0804372306
F  F5  1  0.70170000  0.77950000  0.62360000  1.0 -0.1718797066
F  F6  1  0.67350000  0.71780000  0.69010000  1.0 -0.1579475293
F  F7  1  0.62330000  0.78690000  0.66940000  1.0 -0.1388356441
F  F8  1  0.13290000  0.20860000  0.88000000  1.0 -0.1866979205
F  F9  1  0.11350000  0.14620000  0.80880000  1.0 -0.1718797066
F  F10  1  0.14430000  0.12280000  0.90720000  1.0 -0.1827873147
F  F11  1  0.58940000  0.25690000  0.57940000  1.0 -0.0804372306
F  F12  1  0.29830000  0.22050000  0.62360000  1.0 -0.1718797066
F  F13  1  0.32650000  0.28220000  0.69010000  1.0 -0.1579475293
F  F14  1  0.37670000  0.21310000  0.66940000  1.0 -0.1388356441
F  F15  1  0.79140000  0.13290000  0.38000000  1.0 -0.1866979205
F  F16  1  0.85380000  0.11350000  0.30880000  1.0 -0.1718797066
F  F17  1  0.87720000  0.14430000  0.40720000  1.0 -0.1827873147
F  F18  1  0.74310000  0.58940000  0.07940000  1.0 -0.0804372306
F  F19  1  0.77950000  0.29830000  0.12360000  1.0 -0.1718797066
F  F20  1  0.71780000  0.32650000  0.19010000  1.0 -0.1579475293
F  F21  1  0.78690000  0.37670000  0.16940000  1.0 -0.1388356441
F  F22  1  0.20860000  0.86710000  0.38000000  1.0 -0.1866979205
F  F23  1  0.14620000  0.88650000  0.30880000  1.0 -0.1718797066
F  F24  1  0.12280000  0.85570000  0.40720000  1.0 -0.1827873147
F  F25  1  0.25690000  0.41060000  0.07940000  1.0 -0.0804372306
F  F26  1  0.22050000  0.70170000  0.12360000  1.0 -0.1718797066
F  F27  1  0.28220000  0.67350000  0.19010000  1.0 -0.1579475293
F  F28  1  0.21310000  0.62330000  0.16940000  1.0 -0.1388356441
F  F29  1  0.86710000  0.20860000  0.12000000  1.0 -0.1866979205
F  F30  1  0.88650000  0.14620000  0.19120000  1.0 -0.1718797066
F  F31  1  0.85570000  0.12280000  0.09280000  1.0 -0.1827873147
F  F32  1  0.41060000  0.25690000  0.42060000  1.0 -0.0804372306
F  F33  1  0.70170000  0.22050000  0.37640000  1.0 -0.1718797066
F  F34  1  0.67350000  0.28220000  0.30990000  1.0 -0.1579475293
F  F35  1  0.62330000  0.21310000  0.33060000  1.0 -0.1388356441
F  F36  1  0.13290000  0.79140000  0.12000000  1.0 -0.1866979205
F  F37  1  0.11350000  0.85380000  0.19120000  1.0 -0.1718797066
F  F38  1  0.14430000  0.87720000  0.09280000  1.0 -0.1827873147
F  F39  1  0.58940000  0.74310000  0.42060000  1.0 -0.0804372306
F  F40  1  0.29830000  0.77950000  0.37640000  1.0 -0.1718797066
F  F41  1  0.32650000  0.71780000  0.30990000  1.0 -0.1579475293
F  F42  1  0.37670000  0.78690000  0.33060000  1.0 -0.1388356441
F  F43  1  0.79140000  0.86710000  0.62000000  1.0 -0.1866979205
F  F44  1  0.85380000  0.88650000  0.69120000  1.0 -0.1718797066
F  F45  1  0.87720000  0.85570000  0.59280000  1.0 -0.1827873147
F  F46  1  0.74310000  0.41060000  0.92060000  1.0 -0.0804372306
F  F47  1  0.77950000  0.70170000  0.87640000  1.0 -0.1718797066
F  F48  1  0.71780000  0.67350000  0.80990000  1.0 -0.1579475293
F  F49  1  0.78690000  0.62330000  0.83060000  1.0 -0.1388356441
F  F50  1  0.20860000  0.13290000  0.62000000  1.0 -0.1866979205
F  F51  1  0.14620000  0.11350000  0.69120000  1.0 -0.1718797066
F  F52  1  0.12280000  0.14430000  0.59280000  1.0 -0.1827873147
F  F53  1  0.25690000  0.58940000  0.92060000  1.0 -0.0804372306
F  F54  1  0.22050000  0.29830000  0.87640000  1.0 -0.1718797066
F  F55  1  0.28220000  0.32650000  0.80990000  1.0 -0.1579475293
F  F56  1  0.21310000  0.37670000  0.83060000  1.0 -0.1388356441
F  F57  1  0.13290000  0.20860000  0.12000000  1.0 -0.1866979205
F  F58  1  0.11350000  0.14620000  0.19120000  1.0 -0.1718797066
F  F59  1  0.14430000  0.12280000  0.09280000  1.0 -0.1827873147
F  F60  1  0.58940000  0.25690000  0.42060000  1.0 -0.0804372306
F  F61  1  0.29830000  0.22050000  0.37640000  1.0 -0.1718797066
F  F62  1  0.32650000  0.28220000  0.30990000  1.0 -0.1579475293
F  F63  1  0.37670000  0.21310000  0.33060000  1.0 -0.1388356441
F  F64  1  0.86710000  0.79140000  0.12000000  1.0 -0.1866979205
F  F65  1  0.88650000  0.85380000  0.19120000  1.0 -0.1718797066
F  F66  1  0.85570000  0.87720000  0.09280000  1.0 -0.1827873147
F  F67  1  0.41060000  0.74310000  0.42060000  1.0 -0.0804372306
F  F68  1  0.70170000  0.77950000  0.37640000  1.0 -0.1718797066
F  F69  1  0.67350000  0.71780000  0.30990000  1.0 -0.1579475293
F  F70  1  0.62330000  0.78690000  0.33060000  1.0 -0.1388356441
F  F71  1  0.20860000  0.86710000  0.62000000  1.0 -0.1866979205
F  F72  1  0.14620000  0.88650000  0.69120000  1.0 -0.1718797066
F  F73  1  0.12280000  0.85570000  0.59280000  1.0 -0.1827873147
F  F74  1  0.25690000  0.41060000  0.92060000  1.0 -0.0804372306
F  F75  1  0.22050000  0.70170000  0.87640000  1.0 -0.1718797066
F  F76  1  0.28220000  0.67350000  0.80990000  1.0 -0.1579475293
F  F77  1  0.21310000  0.62330000  0.83060000  1.0 -0.1388356441
F  F78  1  0.79140000  0.13290000  0.62000000  1.0 -0.1866979205
F  F79  1  0.85380000  0.11350000  0.69120000  1.0 -0.1718797066
F  F80  1  0.87720000  0.14430000  0.59280000  1.0 -0.1827873147
F  F81  1  0.74310000  0.58940000  0.92060000  1.0 -0.0804372306
F  F82  1  0.77950000  0.29830000  0.87640000  1.0 -0.1718797066
F  F83  1  0.71780000  0.32650000  0.80990000  1.0 -0.1579475293
F  F84  1  0.78690000  0.37670000  0.83060000  1.0 -0.1388356441
F  F85  1  0.13290000  0.79140000  0.88000000  1.0 -0.1866979205
F  F86  1  0.11350000  0.85380000  0.80880000  1.0 -0.1718797066
F  F87  1  0.14430000  0.87720000  0.90720000  1.0 -0.1827873147
F  F88  1  0.58940000  0.74310000  0.57940000  1.0 -0.0804372306
F  F89  1  0.29830000  0.77950000  0.62360000  1.0 -0.1718797066
F  F90  1  0.32650000  0.71780000  0.69010000  1.0 -0.1579475293
F  F91  1  0.37670000  0.78690000  0.66940000  1.0 -0.1388356441
F  F92  1  0.86710000  0.20860000  0.88000000  1.0 -0.1866979205
F  F93  1  0.88650000  0.14620000  0.80880000  1.0 -0.1718797066
F  F94  1  0.85570000  0.12280000  0.90720000  1.0 -0.1827873147
F  F95  1  0.41060000  0.25690000  0.57940000  1.0 -0.0804372306
F  F96  1  0.70170000  0.22050000  0.62360000  1.0 -0.1718797066
F  F97  1  0.67350000  0.28220000  0.69010000  1.0 -0.1579475293
F  F98  1  0.62330000  0.21310000  0.66940000  1.0 -0.1388356441
F  F99  1  0.20860000  0.13290000  0.38000000  1.0 -0.1866979205
F  F100  1  0.14620000  0.11350000  0.30880000  1.0 -0.1718797066
F  F101  1  0.12280000  0.14430000  0.40720000  1.0 -0.1827873147
F  F102  1  0.25690000  0.58940000  0.07940000  1.0 -0.0804372306
F  F103  1  0.22050000  0.29830000  0.12360000  1.0 -0.1718797066
F  F104  1  0.28220000  0.32650000  0.19010000  1.0 -0.1579475293
F  F105  1  0.21310000  0.37670000  0.16940000  1.0 -0.1388356441
F  F106  1  0.79140000  0.86710000  0.38000000  1.0 -0.1866979205
F  F107  1  0.85380000  0.88650000  0.30880000  1.0 -0.1718797066
F  F108  1  0.87720000  0.85570000  0.40720000  1.0 -0.1827873147
F  F109  1  0.74310000  0.41060000  0.07940000  1.0 -0.0804372306
F  F110  1  0.77950000  0.70170000  0.12360000  1.0 -0.1718797066
F  F111  1  0.71780000  0.67350000  0.19010000  1.0 -0.1579475293
F  F112  1  0.78690000  0.62330000  0.16940000  1.0 -0.1388356441
F  F113  1  0.39360000  0.79590000  0.50000000  1.0 0.040578622
F  F114  1  0.46420000  0.74650000  0.50000000  1.0 0.0742382056
F  F115  1  0.60640000  0.20410000  0.50000000  1.0 0.040578622
F  F116  1  0.53580000  0.25350000  0.50000000  1.0 0.0742382056
F  F117  1  0.79590000  0.60640000  0.00000000  1.0 0.034487421
F  F118  1  0.74650000  0.53580000  0.00000000  1.0 0.0742382056
F  F119  1  0.20410000  0.39360000  0.00000000  1.0 0.040578622
F  F120  1  0.25350000  0.46420000  0.00000000  1.0 0.0742382056
F  F121  1  0.39360000  0.20410000  0.50000000  1.0 0.040578622
F  F122  1  0.46420000  0.25350000  0.50000000  1.0 0.0742382056
F  F123  1  0.60640000  0.79590000  0.50000000  1.0 0.040578622
F  F124  1  0.53580000  0.74650000  0.50000000  1.0 0.0742382056
F  F125  1  0.79590000  0.39360000  0.00000000  1.0 0.040578622
F  F126  1  0.74650000  0.46420000  0.00000000  1.0 0.0742382056
F  F127  1  0.20410000  0.60640000  0.00000000  1.0 0.040578622
F  F128  1  0.25350000  0.53580000  0.00000000  1.0 0.0742382056
