# DDEC6 charges by PACMAN v1.1 (https://github.com/mtap-research/PACMAN-charge/)
data_XUZFUU_ASR_pacman
_symmetry_space_group_name_H-M   'P 1'
_cell_length_a   16.69950000
_cell_length_b   16.71060000
_cell_length_c   9.79100000
_cell_angle_alpha   90.00000000
_cell_angle_beta   90.00000000
_cell_angle_gamma   90.00000000
_symmetry_Int_Tables_number   1
_chemical_formula_structural   Na5HoH4(C3O2)4
_chemical_formula_sum   'Na20 Ho4 H16 C48 O32'
_cell_volume   2732.26338608
_cell_formula_units_Z   4
loop_
 _symmetry_equiv_pos_site_id
 _symmetry_equiv_pos_as_xyz
  1  'x, y, z'
loop_
 _atom_site_type_symbol
 _atom_site_label
 _atom_site_symmetry_multiplicity
 _atom_site_fract_x
 _atom_site_fract_y
 _atom_site_fract_z
 _atom_site_occupancy
 _atom_site_charge
Na  Na1  1  0.00000000  0.75000000  0.46756000  1.0 0.8090164479
Na  Na2  1  0.00000000  0.25000000  0.53244000  1.0 0.8090164479
Na  Na3  1  0.50000000  0.25000000  0.96756000  1.0 0.8090164479
Na  Na4  1  0.50000000  0.75000000  0.03244000  1.0 0.8090164479
Na  Na5  1  0.86862000  0.65568000  0.87124000  1.0 0.7092764717
Na  Na6  1  0.13138000  0.34432000  0.12876000  1.0 0.7092764717
Na  Na7  1  0.13138000  0.84432000  0.87124000  1.0 0.7092764717
Na  Na8  1  0.86862000  0.15568000  0.12876000  1.0 0.7092764717
Na  Na9  1  0.13138000  0.15568000  0.12876000  1.0 0.7092764717
Na  Na10  1  0.86862000  0.84432000  0.87124000  1.0 0.7092764717
Na  Na11  1  0.86862000  0.34432000  0.12876000  1.0 0.7092764717
Na  Na12  1  0.13138000  0.65568000  0.87124000  1.0 0.7092764717
Na  Na13  1  0.36862000  0.15568000  0.37124000  1.0 0.7092764717
Na  Na14  1  0.63138000  0.84432000  0.62876000  1.0 0.7092764717
Na  Na15  1  0.63138000  0.34432000  0.37124000  1.0 0.7092764717
Na  Na16  1  0.36862000  0.65568000  0.62876000  1.0 0.7092764717
Na  Na17  1  0.63138000  0.65568000  0.62876000  1.0 0.7092764717
Na  Na18  1  0.36862000  0.34432000  0.37124000  1.0 0.7092764717
Na  Na19  1  0.36862000  0.84432000  0.62876000  1.0 0.7092764717
Na  Na20  1  0.63138000  0.15568000  0.37124000  1.0 0.7092764717
Ho  Ho1  1  0.00000000  0.75000000  0.12172000  1.0 1.9988262024
Ho  Ho2  1  0.00000000  0.25000000  0.87828000  1.0 1.9988262024
Ho  Ho3  1  0.50000000  0.25000000  0.62172000  1.0 1.9988262024
Ho  Ho4  1  0.50000000  0.75000000  0.37828000  1.0 1.9988262024
H  H1  1  0.00000000  0.53579000  0.74975000  1.0 0.1147483554
H  H2  1  0.00000000  0.46421000  0.25025000  1.0 0.1147483554
H  H3  1  0.00000000  0.96421000  0.74975000  1.0 0.1151775386
H  H4  1  0.00000000  0.03579000  0.25025000  1.0 0.1151775386
H  H5  1  0.50000000  0.03579000  0.24974000  1.0 0.1151775386
H  H6  1  0.50000000  0.96421000  0.75026000  1.0 0.1151775386
H  H7  1  0.50000000  0.46421000  0.24974000  1.0 0.1151775386
H  H8  1  0.50000000  0.53579000  0.75026000  1.0 0.1147483554
H  H9  1  0.20500000  0.75000000  0.49495000  1.0 0.0466347117
H  H10  1  0.79500000  0.25000000  0.50505000  1.0 0.0425502215
H  H11  1  0.79500000  0.75000000  0.49495000  1.0 0.0425502215
H  H12  1  0.20500000  0.25000000  0.50505000  1.0 0.0466347117
H  H13  1  0.70500000  0.25000000  0.99495000  1.0 0.0466347117
H  H14  1  0.29500000  0.75000000  0.00505000  1.0 0.0466347117
H  H15  1  0.29500000  0.25000000  0.99495000  1.0 0.0466347117
H  H16  1  0.70500000  0.75000000  0.00505000  1.0 0.0466347117
C  C1  1  0.16616000  0.75000000  0.28261000  1.0 0.2814981345
C  C2  1  0.83384000  0.25000000  0.71739000  1.0 0.2814981345
C  C3  1  0.83384000  0.75000000  0.28261000  1.0 0.2814981345
C  C4  1  0.16616000  0.25000000  0.71739000  1.0 0.2814981345
C  C5  1  0.66616000  0.25000000  0.78261000  1.0 0.2814981345
C  C6  1  0.33384000  0.75000000  0.21739000  1.0 0.2814981345
C  C7  1  0.33384000  0.25000000  0.78261000  1.0 0.2814981345
C  C8  1  0.66616000  0.75000000  0.21739000  1.0 0.2814981345
C  C9  1  0.19301000  0.75000000  0.14124000  1.0 0.2299588364
C  C10  1  0.80699000  0.25000000  0.85876000  1.0 0.2299588364
C  C11  1  0.80699000  0.75000000  0.14124000  1.0 0.2299588364
C  C12  1  0.19301000  0.25000000  0.85876000  1.0 0.2299588364
C  C13  1  0.69301000  0.25000000  0.64124000  1.0 0.2299588364
C  C14  1  0.30699000  0.75000000  0.35876000  1.0 0.2299588364
C  C15  1  0.30699000  0.25000000  0.64124000  1.0 0.2299588364
C  C16  1  0.69301000  0.75000000  0.35876000  1.0 0.2299588364
C  C17  1  0.00000000  0.52073000  0.86005000  1.0 -0.4046957526
C  C18  1  0.00000000  0.47927000  0.13995000  1.0 -0.4046957526
C  C19  1  0.00000000  0.97927000  0.86005000  1.0 -0.4046957526
C  C20  1  0.00000000  0.02073000  0.13995000  1.0 -0.4082785282
C  C21  1  0.50000000  0.02073000  0.36005000  1.0 -0.4082785282
C  C22  1  0.50000000  0.97927000  0.63995000  1.0 -0.4046957526
C  C23  1  0.50000000  0.47927000  0.36005000  1.0 -0.4046957526
C  C24  1  0.50000000  0.52073000  0.63995000  1.0 -0.4046957526
C  C25  1  0.00000000  0.58189000  0.95872000  1.0 0.127701335
C  C26  1  0.00000000  0.41811000  0.04128000  1.0 0.127701335
C  C27  1  0.00000000  0.91811000  0.95872000  1.0 0.127701335
C  C28  1  0.00000000  0.08189000  0.04128000  1.0 0.127701335
C  C29  1  0.50000000  0.08189000  0.45872000  1.0 0.127701335
C  C30  1  0.50000000  0.91811000  0.54128000  1.0 0.127701335
C  C31  1  0.50000000  0.41811000  0.45872000  1.0 0.127701335
C  C32  1  0.50000000  0.58189000  0.54128000  1.0 0.127701335
C  C33  1  0.00000000  0.56189000  0.10335000  1.0 0.2444965135
C  C34  1  0.00000000  0.43811000  0.89665000  1.0 0.2459194478
C  C35  1  0.00000000  0.93811000  0.10335000  1.0 0.2444965135
C  C36  1  0.00000000  0.06189000  0.89665000  1.0 0.2444965135
C  C37  1  0.50000000  0.06189000  0.60335000  1.0 0.2459194478
C  C38  1  0.50000000  0.93811000  0.39665000  1.0 0.2459194478
C  C39  1  0.50000000  0.43811000  0.60335000  1.0 0.2459194478
C  C40  1  0.50000000  0.56189000  0.39665000  1.0 0.2444965135
C  C41  1  0.22482000  0.75000000  0.38751000  1.0 -0.3835610482
C  C42  1  0.77518000  0.25000000  0.61249000  1.0 -0.3835610482
C  C43  1  0.77518000  0.75000000  0.38751000  1.0 -0.3835610482
C  C44  1  0.22482000  0.25000000  0.61249000  1.0 -0.3835610482
C  C45  1  0.72482000  0.25000000  0.88751000  1.0 -0.3835610482
C  C46  1  0.27518000  0.75000000  0.11249000  1.0 -0.3835610482
C  C47  1  0.27518000  0.25000000  0.88751000  1.0 -0.3835610482
C  C48  1  0.72482000  0.75000000  0.11249000  1.0 -0.3835610482
O  O1  1  0.08844000  0.75000000  0.30699000  1.0 -0.7577947933
O  O2  1  0.91156000  0.25000000  0.69301000  1.0 -0.7577947933
O  O3  1  0.91156000  0.75000000  0.30699000  1.0 -0.7577947933
O  O4  1  0.08844000  0.25000000  0.69301000  1.0 -0.7577947933
O  O5  1  0.58844000  0.25000000  0.80699000  1.0 -0.7577947933
O  O6  1  0.41156000  0.75000000  0.19301000  1.0 -0.7577947933
O  O7  1  0.41156000  0.25000000  0.80699000  1.0 -0.7577947933
O  O8  1  0.58844000  0.75000000  0.19301000  1.0 -0.7577947933
O  O9  1  0.13625000  0.75000000  0.04265000  1.0 -0.8415879418
O  O10  1  0.86375000  0.25000000  0.95735000  1.0 -0.8415879418
O  O11  1  0.86375000  0.75000000  0.04265000  1.0 -0.8415879418
O  O12  1  0.13625000  0.25000000  0.95735000  1.0 -0.8415879418
O  O13  1  0.63625000  0.25000000  0.54265000  1.0 -0.8415879418
O  O14  1  0.36375000  0.75000000  0.45735000  1.0 -0.8415879418
O  O15  1  0.36375000  0.25000000  0.54265000  1.0 -0.8415879418
O  O16  1  0.63625000  0.75000000  0.45735000  1.0 -0.8415879418
O  O17  1  0.00000000  0.62044000  0.19300000  1.0 -0.627723496
O  O18  1  0.00000000  0.37956000  0.80700000  1.0 -0.627723496
O  O19  1  0.00000000  0.87956000  0.19300000  1.0 -0.627723496
O  O20  1  0.00000000  0.12044000  0.80700000  1.0 -0.627723496
O  O21  1  0.50000000  0.12044000  0.69300000  1.0 -0.627723496
O  O22  1  0.50000000  0.87956000  0.30700000  1.0 -0.627723496
O  O23  1  0.50000000  0.37956000  0.69300000  1.0 -0.627723496
O  O24  1  0.50000000  0.62044000  0.30700000  1.0 -0.627723496
O  O25  1  0.00000000  0.66121000  0.92449000  1.0 -0.8512120132
O  O26  1  0.00000000  0.33879000  0.07551000  1.0 -0.8512120132
O  O27  1  0.00000000  0.83879000  0.92449000  1.0 -0.8512120132
O  O28  1  0.00000000  0.16121000  0.07551000  1.0 -0.8512120132
O  O29  1  0.50000000  0.16120000  0.42449000  1.0 -0.8512120132
O  O30  1  0.50000000  0.83880000  0.57551000  1.0 -0.8512120132
O  O31  1  0.50000000  0.33880000  0.42449000  1.0 -0.8512120132
O  O32  1  0.50000000  0.66120000  0.57551000  1.0 -0.8512120132
