# DDEC6 charges by PACMAN v1.1 (https://github.com/mtap-research/PACMAN-charge/)
data_YABHIV_ASR_pacman
_symmetry_space_group_name_H-M   'P 1'
_cell_length_a   28.97580000
_cell_length_b   28.97580000
_cell_length_c   28.97580000
_cell_angle_alpha   60.00000000
_cell_angle_beta   60.00000000
_cell_angle_gamma   60.00000000
_symmetry_Int_Tables_number   1
_chemical_formula_structural   Ni5H22C32O21
_chemical_formula_sum   'Ni30 H132 C192 O126'
_cell_volume   17202.48976801
_cell_formula_units_Z   6
loop_
 _symmetry_equiv_pos_site_id
 _symmetry_equiv_pos_as_xyz
  1  'x, y, z'
loop_
 _atom_site_type_symbol
 _atom_site_label
 _atom_site_symmetry_multiplicity
 _atom_site_fract_x
 _atom_site_fract_y
 _atom_site_fract_z
 _atom_site_occupancy
 _atom_site_charge
Ni  Ni1  1  0.36215000  0.63785000  0.63785000  1.0 0.8880551448
Ni  Ni2  1  0.63785000  0.36215000  0.63785000  1.0 0.8880551448
Ni  Ni3  1  0.63785000  0.36215000  0.36215000  1.0 0.8880551448
Ni  Ni4  1  0.36215000  0.63785000  0.36215000  1.0 0.8880551448
Ni  Ni5  1  0.36215000  0.36215000  0.63785000  1.0 0.8880551448
Ni  Ni6  1  0.63785000  0.63785000  0.36215000  1.0 0.8880551448
Ni  Ni7  1  0.28512000  0.76814000  0.66162000  1.0 0.4803092073
Ni  Ni8  1  0.71488000  0.33838000  0.71488000  1.0 0.4803092073
Ni  Ni9  1  0.76814000  0.28512000  0.28512000  1.0 0.4803092073
Ni  Ni10  1  0.33838000  0.71488000  0.23186000  1.0 0.4803092073
Ni  Ni11  1  0.23186000  0.71488000  0.71488000  1.0 0.4803092073
Ni  Ni12  1  0.28512000  0.66162000  0.76814000  1.0 0.4803092073
Ni  Ni13  1  0.33838000  0.71488000  0.71488000  1.0 0.4803092073
Ni  Ni14  1  0.23186000  0.33838000  0.71488000  1.0 0.4803092073
Ni  Ni15  1  0.66162000  0.28512000  0.28512000  1.0 0.4803092073
Ni  Ni16  1  0.71488000  0.71488000  0.23186000  1.0 0.4803092073
Ni  Ni17  1  0.66162000  0.28512000  0.76814000  1.0 0.4803092073
Ni  Ni18  1  0.76814000  0.66162000  0.28512000  1.0 0.4803092073
Ni  Ni19  1  0.66162000  0.76814000  0.28512000  1.0 0.4803092073
Ni  Ni20  1  0.28512000  0.76814000  0.28512000  1.0 0.4803092073
Ni  Ni21  1  0.28512000  0.28512000  0.76814000  1.0 0.4803092073
Ni  Ni22  1  0.28512000  0.66162000  0.28512000  1.0 0.4803092073
Ni  Ni23  1  0.76814000  0.28512000  0.66162000  1.0 0.4803092073
Ni  Ni24  1  0.28512000  0.28512000  0.66162000  1.0 0.4803092073
Ni  Ni25  1  0.71488000  0.23186000  0.71488000  1.0 0.4803092073
Ni  Ni26  1  0.23186000  0.71488000  0.33838000  1.0 0.4803092073
Ni  Ni27  1  0.71488000  0.23186000  0.33838000  1.0 0.4803092073
Ni  Ni28  1  0.71488000  0.33838000  0.23186000  1.0 0.4803092073
Ni  Ni29  1  0.71488000  0.71488000  0.33838000  1.0 0.4803092073
Ni  Ni30  1  0.33838000  0.23186000  0.71488000  1.0 0.4803092073
H  H1  1  0.18230000  0.81770000  0.56990000  1.0 0.1168885085
H  H2  1  0.56990000  0.43010000  0.81770000  1.0 0.1168885085
H  H3  1  0.81770000  0.18230000  0.43010000  1.0 0.1168885085
H  H4  1  0.43010000  0.56990000  0.18230000  1.0 0.1168885085
H  H5  1  0.18230000  0.56990000  0.81770000  1.0 0.1168885085
H  H6  1  0.43010000  0.56990000  0.81770000  1.0 0.1168885085
H  H7  1  0.43010000  0.81770000  0.56990000  1.0 0.1168885085
H  H8  1  0.18230000  0.43010000  0.56990000  1.0 0.1168885085
H  H9  1  0.56990000  0.43010000  0.18230000  1.0 0.1168885085
H  H10  1  0.56990000  0.81770000  0.18230000  1.0 0.1168885085
H  H11  1  0.56990000  0.18230000  0.81770000  1.0 0.1168885085
H  H12  1  0.81770000  0.56990000  0.18230000  1.0 0.1168885085
H  H13  1  0.56990000  0.81770000  0.43010000  1.0 0.1168885085
H  H14  1  0.43010000  0.81770000  0.18230000  1.0 0.1168885085
H  H15  1  0.18230000  0.43010000  0.81770000  1.0 0.1168885085
H  H16  1  0.18230000  0.56990000  0.43010000  1.0 0.1168885085
H  H17  1  0.81770000  0.43010000  0.56990000  1.0 0.1168885085
H  H18  1  0.43010000  0.18230000  0.56990000  1.0 0.1168885085
H  H19  1  0.81770000  0.18230000  0.56990000  1.0 0.1168885085
H  H20  1  0.18230000  0.81770000  0.43010000  1.0 0.1168885085
H  H21  1  0.56990000  0.18230000  0.43010000  1.0 0.1168885085
H  H22  1  0.81770000  0.43010000  0.18230000  1.0 0.1168885085
H  H23  1  0.81770000  0.56990000  0.43010000  1.0 0.1168885085
H  H24  1  0.43010000  0.18230000  0.81770000  1.0 0.1168885085
H  H25  1  0.30340000  0.69660000  0.50000000  1.0 0.1276751859
H  H26  1  0.50000000  0.50000000  0.69660000  1.0 0.1276751859
H  H27  1  0.69660000  0.30340000  0.50000000  1.0 0.1276751859
H  H28  1  0.50000000  0.50000000  0.30340000  1.0 0.1276751859
H  H29  1  0.30340000  0.50000000  0.69660000  1.0 0.1276751859
H  H30  1  0.50000000  0.69660000  0.50000000  1.0 0.1276751859
H  H31  1  0.30340000  0.50000000  0.50000000  1.0 0.1276751859
H  H32  1  0.50000000  0.69660000  0.30340000  1.0 0.1276751859
H  H33  1  0.50000000  0.30340000  0.69660000  1.0 0.1276751859
H  H34  1  0.69660000  0.50000000  0.30340000  1.0 0.1276751859
H  H35  1  0.69660000  0.50000000  0.50000000  1.0 0.1276751859
H  H36  1  0.50000000  0.30340000  0.50000000  1.0 0.1276751859
H  H37  1  0.08350000  0.01550000  0.45050000  1.0 0.1168885085
H  H38  1  0.54950000  0.54950000  0.91650000  1.0 0.1168885085
H  H39  1  0.01550000  0.08350000  0.45050000  1.0 0.1168885085
H  H40  1  0.54950000  0.54950000  0.98450000  1.0 0.1168885085
H  H41  1  0.98450000  0.54950000  0.91650000  1.0 0.1168885085
H  H42  1  0.45050000  0.45050000  0.01550000  1.0 0.1168885085
H  H43  1  0.54950000  0.91650000  0.54950000  1.0 0.1168885085
H  H44  1  0.98450000  0.54950000  0.54950000  1.0 0.1168885085
H  H45  1  0.45050000  0.45050000  0.08350000  1.0 0.1168885085
H  H46  1  0.54950000  0.91650000  0.98450000  1.0 0.1168885085
H  H47  1  0.45050000  0.08350000  0.01550000  1.0 0.1168885085
H  H48  1  0.01550000  0.45050000  0.08350000  1.0 0.1168885085
H  H49  1  0.45050000  0.01550000  0.45050000  1.0 0.1168885085
H  H50  1  0.45050000  0.01550000  0.08350000  1.0 0.1168885085
H  H51  1  0.08350000  0.45050000  0.01550000  1.0 0.1168885085
H  H52  1  0.08350000  0.45050000  0.45050000  1.0 0.1168885085
H  H53  1  0.01550000  0.45050000  0.45050000  1.0 0.1168885085
H  H54  1  0.45050000  0.08350000  0.45050000  1.0 0.1168885085
H  H55  1  0.91650000  0.98450000  0.54950000  1.0 0.1168885085
H  H56  1  0.98450000  0.91650000  0.54950000  1.0 0.1168885085
H  H57  1  0.54950000  0.98450000  0.54950000  1.0 0.1168885085
H  H58  1  0.91650000  0.54950000  0.98450000  1.0 0.1168885085
H  H59  1  0.91650000  0.54950000  0.54950000  1.0 0.1168885085
H  H60  1  0.54950000  0.98450000  0.91650000  1.0 0.1168885085
H  H61  1  0.21620000  0.89760000  0.44310000  1.0 0.1042055912
H  H62  1  0.55690000  0.55690000  0.78380000  1.0 0.1042055912
H  H63  1  0.89760000  0.21620000  0.44310000  1.0 0.1042055912
H  H64  1  0.55690000  0.55690000  0.10240000  1.0 0.1042055912
H  H65  1  0.10240000  0.55690000  0.78380000  1.0 0.1042055912
H  H66  1  0.44310000  0.44310000  0.89760000  1.0 0.1042055912
H  H67  1  0.55690000  0.78380000  0.55690000  1.0 0.1042055912
H  H68  1  0.10240000  0.55690000  0.55690000  1.0 0.1042055912
H  H69  1  0.44310000  0.44310000  0.21620000  1.0 0.1042055912
H  H70  1  0.55690000  0.78380000  0.10240000  1.0 0.1042055912
H  H71  1  0.44310000  0.21620000  0.89760000  1.0 0.1042055912
H  H72  1  0.89760000  0.44310000  0.21620000  1.0 0.1042055912
H  H73  1  0.44310000  0.89760000  0.44310000  1.0 0.1042055912
H  H74  1  0.44310000  0.89760000  0.21620000  1.0 0.1042055912
H  H75  1  0.21620000  0.44310000  0.89760000  1.0 0.1042055912
H  H76  1  0.21620000  0.44310000  0.44310000  1.0 0.1042055912
H  H77  1  0.89760000  0.44310000  0.44310000  1.0 0.1042055912
H  H78  1  0.44310000  0.21620000  0.44310000  1.0 0.1042055912
H  H79  1  0.78380000  0.10240000  0.55690000  1.0 0.1042055912
H  H80  1  0.10240000  0.78380000  0.55690000  1.0 0.1042055912
H  H81  1  0.55690000  0.10240000  0.55690000  1.0 0.1042055912
H  H82  1  0.78380000  0.55690000  0.10240000  1.0 0.1042055912
H  H83  1  0.78380000  0.55690000  0.55690000  1.0 0.1042055912
H  H84  1  0.55690000  0.10240000  0.78380000  1.0 0.1042055912
H  H85  1  0.19280000  0.95600000  0.45320000  1.0 0.1145087968
H  H86  1  0.60200000  0.54680000  0.80720000  1.0 0.1168885085
H  H87  1  0.95600000  0.19280000  0.39800000  1.0 0.1168885085
H  H88  1  0.54680000  0.60200000  0.04400000  1.0 0.1145087968
H  H89  1  0.04400000  0.60200000  0.80720000  1.0 0.1145087968
H  H90  1  0.39800000  0.45320000  0.95600000  1.0 0.1145087968
H  H91  1  0.54680000  0.80720000  0.60200000  1.0 0.1145087968
H  H92  1  0.04400000  0.54680000  0.60200000  1.0 0.1145087968
H  H93  1  0.45320000  0.39800000  0.19280000  1.0 0.1168885085
H  H94  1  0.60200000  0.80720000  0.04400000  1.0 0.1145087968
H  H95  1  0.45320000  0.19280000  0.95600000  1.0 0.1168885085
H  H96  1  0.95600000  0.45320000  0.19280000  1.0 0.1168885085
H  H97  1  0.45320000  0.95600000  0.39800000  1.0 0.1145087968
H  H98  1  0.39800000  0.95600000  0.19280000  1.0 0.1168885085
H  H99  1  0.19280000  0.39800000  0.95600000  1.0 0.1145087968
H  H100  1  0.19280000  0.45320000  0.39800000  1.0 0.1145087968
H  H101  1  0.95600000  0.39800000  0.45320000  1.0 0.1168885085
H  H102  1  0.39800000  0.19280000  0.45320000  1.0 0.1168885085
H  H103  1  0.80720000  0.04400000  0.60200000  1.0 0.1168885085
H  H104  1  0.04400000  0.80720000  0.54680000  1.0 0.1145087968
H  H105  1  0.60200000  0.04400000  0.54680000  1.0 0.1168885085
H  H106  1  0.80720000  0.54680000  0.04400000  1.0 0.1145087968
H  H107  1  0.80720000  0.60200000  0.54680000  1.0 0.1145087968
H  H108  1  0.54680000  0.04400000  0.80720000  1.0 0.1168885085
H  H109  1  0.80720000  0.04400000  0.54680000  1.0 0.1168885085
H  H110  1  0.39800000  0.45320000  0.19280000  1.0 0.1145087968
H  H111  1  0.04400000  0.80720000  0.60200000  1.0 0.1145087968
H  H112  1  0.45320000  0.39800000  0.95600000  1.0 0.1145087968
H  H113  1  0.95600000  0.39800000  0.19280000  1.0 0.1168885085
H  H114  1  0.60200000  0.54680000  0.04400000  1.0 0.1145087968
H  H115  1  0.45320000  0.19280000  0.39800000  1.0 0.1168885085
H  H116  1  0.95600000  0.45320000  0.39800000  1.0 0.1168885085
H  H117  1  0.54680000  0.60200000  0.80720000  1.0 0.1168885085
H  H118  1  0.39800000  0.19280000  0.95600000  1.0 0.1168885085
H  H119  1  0.54680000  0.80720000  0.04400000  1.0 0.1145087968
H  H120  1  0.04400000  0.54680000  0.80720000  1.0 0.1145087968
H  H121  1  0.54680000  0.04400000  0.60200000  1.0 0.1168885085
H  H122  1  0.60200000  0.04400000  0.80720000  1.0 0.1168885085
H  H123  1  0.80720000  0.60200000  0.04400000  1.0 0.1145087968
H  H124  1  0.80720000  0.54680000  0.60200000  1.0 0.1145087968
H  H125  1  0.04400000  0.60200000  0.54680000  1.0 0.1168885085
H  H126  1  0.60200000  0.80720000  0.54680000  1.0 0.1145087968
H  H127  1  0.19280000  0.95600000  0.39800000  1.0 0.1168885085
H  H128  1  0.95600000  0.19280000  0.45320000  1.0 0.1168885085
H  H129  1  0.39800000  0.95600000  0.45320000  1.0 0.1145087968
H  H130  1  0.19280000  0.45320000  0.95600000  1.0 0.1145087968
H  H131  1  0.19280000  0.39800000  0.45320000  1.0 0.1168885085
H  H132  1  0.45320000  0.95600000  0.19280000  1.0 0.1168885085
C  C1  1  0.19867000  0.80133000  0.54155000  1.0 -0.1771916856
C  C2  1  0.54155000  0.45845000  0.80133000  1.0 -0.1771916856
C  C3  1  0.80133000  0.19867000  0.45845000  1.0 -0.1771916856
C  C4  1  0.45845000  0.54155000  0.19867000  1.0 -0.1771916856
C  C5  1  0.19867000  0.54155000  0.80133000  1.0 -0.1771916856
C  C6  1  0.45845000  0.54155000  0.80133000  1.0 -0.1771916856
C  C7  1  0.45845000  0.80133000  0.54155000  1.0 -0.1771916856
C  C8  1  0.19867000  0.45845000  0.54155000  1.0 -0.1771916856
C  C9  1  0.54155000  0.45845000  0.19867000  1.0 -0.1771916856
C  C10  1  0.54155000  0.80133000  0.19867000  1.0 -0.1771916856
C  C11  1  0.54155000  0.19867000  0.80133000  1.0 -0.1771916856
C  C12  1  0.80133000  0.54155000  0.19867000  1.0 -0.1771916856
C  C13  1  0.54155000  0.80133000  0.45845000  1.0 -0.1771916856
C  C14  1  0.45845000  0.80133000  0.19867000  1.0 -0.1771916856
C  C15  1  0.19867000  0.45845000  0.80133000  1.0 -0.1771916856
C  C16  1  0.19867000  0.54155000  0.45845000  1.0 -0.1771916856
C  C17  1  0.80133000  0.45845000  0.54155000  1.0 -0.1771916856
C  C18  1  0.45845000  0.19867000  0.54155000  1.0 -0.1771916856
C  C19  1  0.80133000  0.19867000  0.54155000  1.0 -0.1771916856
C  C20  1  0.19867000  0.80133000  0.45845000  1.0 -0.1771916856
C  C21  1  0.54155000  0.19867000  0.45845000  1.0 -0.1771916856
C  C22  1  0.80133000  0.45845000  0.19867000  1.0 -0.1771916856
C  C23  1  0.80133000  0.54155000  0.45845000  1.0 -0.1771916856
C  C24  1  0.45845000  0.19867000  0.80133000  1.0 -0.1771916856
C  C25  1  0.24664000  0.75336000  0.54156000  1.0 -0.0213198378
C  C26  1  0.54156000  0.45844000  0.75336000  1.0 -0.0213198378
C  C27  1  0.75336000  0.24664000  0.45844000  1.0 -0.0213198378
C  C28  1  0.45844000  0.54156000  0.24664000  1.0 -0.0213198378
C  C29  1  0.24664000  0.54156000  0.75336000  1.0 -0.0213198378
C  C30  1  0.45844000  0.54156000  0.75336000  1.0 -0.0213198378
C  C31  1  0.45844000  0.75336000  0.54156000  1.0 -0.0213198378
C  C32  1  0.24664000  0.45844000  0.54156000  1.0 -0.0213198378
C  C33  1  0.54156000  0.45844000  0.24664000  1.0 -0.0213198378
C  C34  1  0.54156000  0.75336000  0.24664000  1.0 -0.0213198378
C  C35  1  0.54156000  0.24664000  0.75336000  1.0 -0.0213198378
C  C36  1  0.75336000  0.54156000  0.24664000  1.0 -0.0213198378
C  C37  1  0.54156000  0.75336000  0.45844000  1.0 -0.0213198378
C  C38  1  0.45844000  0.75336000  0.24664000  1.0 -0.0213198378
C  C39  1  0.24664000  0.45844000  0.75336000  1.0 -0.0213198378
C  C40  1  0.24664000  0.54156000  0.45844000  1.0 -0.0213198378
C  C41  1  0.75336000  0.45844000  0.54156000  1.0 -0.0213198378
C  C42  1  0.45844000  0.24664000  0.54156000  1.0 -0.0213198378
C  C43  1  0.75336000  0.24664000  0.54156000  1.0 -0.0213198378
C  C44  1  0.24664000  0.75336000  0.45844000  1.0 -0.0213198378
C  C45  1  0.54156000  0.24664000  0.45844000  1.0 -0.0213198378
C  C46  1  0.75336000  0.45844000  0.24664000  1.0 -0.0213198378
C  C47  1  0.75336000  0.54156000  0.45844000  1.0 -0.0213198378
C  C48  1  0.45844000  0.24664000  0.75336000  1.0 -0.0213198378
C  C49  1  0.27266000  0.72734000  0.58652000  1.0 0.4963108646
C  C50  1  0.58652000  0.41348000  0.72734000  1.0 0.4963108646
C  C51  1  0.72734000  0.27266000  0.41348000  1.0 0.4963108646
C  C52  1  0.41348000  0.58652000  0.27266000  1.0 0.4963108646
C  C53  1  0.27266000  0.58652000  0.72734000  1.0 0.4963108646
C  C54  1  0.41348000  0.58652000  0.72734000  1.0 0.4963108646
C  C55  1  0.41348000  0.72734000  0.58652000  1.0 0.4963108646
C  C56  1  0.27266000  0.41348000  0.58652000  1.0 0.4963108646
C  C57  1  0.58652000  0.41348000  0.27266000  1.0 0.4963108646
C  C58  1  0.58652000  0.72734000  0.27266000  1.0 0.4963108646
C  C59  1  0.58652000  0.27266000  0.72734000  1.0 0.4963108646
C  C60  1  0.72734000  0.58652000  0.27266000  1.0 0.4963108646
C  C61  1  0.58652000  0.72734000  0.41348000  1.0 0.4963108646
C  C62  1  0.41348000  0.72734000  0.27266000  1.0 0.4963108646
C  C63  1  0.27266000  0.41348000  0.72734000  1.0 0.4963108646
C  C64  1  0.27266000  0.58652000  0.41348000  1.0 0.4963108646
C  C65  1  0.72734000  0.41348000  0.58652000  1.0 0.4963108646
C  C66  1  0.41348000  0.27266000  0.58652000  1.0 0.4963108646
C  C67  1  0.72734000  0.27266000  0.58652000  1.0 0.4942881654
C  C68  1  0.27266000  0.72734000  0.41348000  1.0 0.4963108646
C  C69  1  0.58652000  0.27266000  0.41348000  1.0 0.4963108646
C  C70  1  0.72734000  0.41348000  0.27266000  1.0 0.4963108646
C  C71  1  0.72734000  0.58652000  0.41348000  1.0 0.4963108646
C  C72  1  0.41348000  0.27266000  0.72734000  1.0 0.4963108646
C  C73  1  0.17466000  0.82534000  0.50000000  1.0 0.0933919169
C  C74  1  0.50000000  0.50000000  0.82534000  1.0 0.1042055912
C  C75  1  0.82534000  0.17466000  0.50000000  1.0 0.0933919169
C  C76  1  0.50000000  0.50000000  0.17466000  1.0 0.0933919169
C  C77  1  0.17466000  0.50000000  0.82534000  1.0 0.0933919169
C  C78  1  0.50000000  0.82534000  0.50000000  1.0 0.0933919169
C  C79  1  0.17466000  0.50000000  0.50000000  1.0 0.0933919169
C  C80  1  0.50000000  0.82534000  0.17466000  1.0 0.0933919169
C  C81  1  0.50000000  0.17466000  0.82534000  1.0 0.0933919169
C  C82  1  0.82534000  0.50000000  0.17466000  1.0 0.0933919169
C  C83  1  0.82534000  0.50000000  0.50000000  1.0 0.0933919169
C  C84  1  0.50000000  0.17466000  0.50000000  1.0 0.0933919169
C  C85  1  0.27064000  0.72936000  0.50000000  1.0 -0.1271060367
C  C86  1  0.50000000  0.50000000  0.72936000  1.0 -0.1271060367
C  C87  1  0.72936000  0.27064000  0.50000000  1.0 -0.1271060367
C  C88  1  0.50000000  0.50000000  0.27064000  1.0 -0.1271060367
C  C89  1  0.27064000  0.50000000  0.72936000  1.0 -0.1271060367
C  C90  1  0.50000000  0.72936000  0.50000000  1.0 -0.1271060367
C  C91  1  0.27064000  0.50000000  0.50000000  1.0 -0.1271060367
C  C92  1  0.50000000  0.72936000  0.27064000  1.0 -0.1271060367
C  C93  1  0.50000000  0.27064000  0.72936000  1.0 -0.1271060367
C  C94  1  0.72936000  0.50000000  0.27064000  1.0 -0.1271060367
C  C95  1  0.72936000  0.50000000  0.50000000  1.0 -0.1271060367
C  C96  1  0.50000000  0.27064000  0.50000000  1.0 -0.1271060367
C  C97  1  0.12238000  0.87762000  0.50000000  1.0 -0.1024797817
C  C98  1  0.50000000  0.50000000  0.87762000  1.0 -0.1024797817
C  C99  1  0.87762000  0.12238000  0.50000000  1.0 -0.1024797817
C  C100  1  0.50000000  0.50000000  0.12238000  1.0 -0.1024797817
C  C101  1  0.12238000  0.50000000  0.87762000  1.0 -0.1024797817
C  C102  1  0.50000000  0.87762000  0.50000000  1.0 -0.1024797817
C  C103  1  0.12238000  0.50000000  0.50000000  1.0 -0.1024797817
C  C104  1  0.50000000  0.87762000  0.12238000  1.0 -0.1024797817
C  C105  1  0.50000000  0.12238000  0.87762000  1.0 -0.1024797817
C  C106  1  0.87762000  0.50000000  0.12238000  1.0 -0.1024797817
C  C107  1  0.87762000  0.50000000  0.50000000  1.0 -0.1024797817
C  C108  1  0.50000000  0.12238000  0.50000000  1.0 -0.1024797817
C  C109  1  0.02642000  0.97358000  0.50000000  1.0 0.0574271645
C  C110  1  0.50000000  0.50000000  0.97358000  1.0 0.0574271645
C  C111  1  0.97358000  0.02642000  0.50000000  1.0 0.0574271645
C  C112  1  0.50000000  0.50000000  0.02642000  1.0 0.0574271645
C  C113  1  0.02642000  0.50000000  0.97358000  1.0 0.0574271645
C  C114  1  0.50000000  0.97358000  0.50000000  1.0 0.0574271645
C  C115  1  0.02642000  0.50000000  0.50000000  1.0 0.0574271645
C  C116  1  0.50000000  0.97358000  0.02642000  1.0 0.0574271645
C  C117  1  0.50000000  0.02642000  0.97358000  1.0 0.0574271645
C  C118  1  0.97358000  0.50000000  0.02642000  1.0 0.0574271645
C  C119  1  0.97358000  0.50000000  0.50000000  1.0 0.0574271645
C  C120  1  0.50000000  0.02642000  0.50000000  1.0 0.0574271645
C  C121  1  0.12776000  0.93100000  0.47062000  1.0 0.1168885085
C  C122  1  0.52938000  0.52938000  0.87224000  1.0 0.1168885085
C  C123  1  0.93100000  0.12776000  0.47062000  1.0 0.1168885085
C  C124  1  0.52938000  0.52938000  0.06900000  1.0 0.1168885085
C  C125  1  0.06900000  0.52938000  0.87224000  1.0 0.1168885085
C  C126  1  0.47062000  0.47062000  0.93100000  1.0 0.1168885085
C  C127  1  0.52938000  0.87224000  0.52938000  1.0 0.1168885085
C  C128  1  0.06900000  0.52938000  0.52938000  1.0 0.1168885085
C  C129  1  0.47062000  0.47062000  0.12776000  1.0 0.1168885085
C  C130  1  0.52938000  0.87224000  0.06900000  1.0 0.1168885085
C  C131  1  0.47062000  0.12776000  0.93100000  1.0 0.1168885085
C  C132  1  0.93100000  0.47062000  0.12776000  1.0 0.1168885085
C  C133  1  0.47062000  0.93100000  0.47062000  1.0 0.1168885085
C  C134  1  0.47062000  0.93100000  0.12776000  1.0 0.1168885085
C  C135  1  0.12776000  0.47062000  0.93100000  1.0 0.1168885085
C  C136  1  0.12776000  0.47062000  0.47062000  1.0 0.1168885085
C  C137  1  0.93100000  0.47062000  0.47062000  1.0 0.1168885085
C  C138  1  0.47062000  0.12776000  0.47062000  1.0 0.1168885085
C  C139  1  0.87224000  0.06900000  0.52938000  1.0 0.1168885085
C  C140  1  0.06900000  0.87224000  0.52938000  1.0 0.1168885085
C  C141  1  0.52938000  0.06900000  0.52938000  1.0 0.1168885085
C  C142  1  0.87224000  0.52938000  0.06900000  1.0 0.1168885085
C  C143  1  0.87224000  0.52938000  0.52938000  1.0 0.1168885085
C  C144  1  0.52938000  0.06900000  0.87224000  1.0 0.1168885085
C  C145  1  0.07978000  0.97898000  0.47062000  1.0 -0.240159592
C  C146  1  0.52938000  0.52938000  0.92022000  1.0 -0.240159592
C  C147  1  0.97898000  0.07978000  0.47062000  1.0 -0.240159592
C  C148  1  0.52938000  0.52938000  0.02102000  1.0 -0.240159592
C  C149  1  0.02102000  0.52938000  0.92022000  1.0 -0.240159592
C  C150  1  0.47062000  0.47062000  0.97898000  1.0 -0.240159592
C  C151  1  0.52938000  0.92022000  0.52938000  1.0 -0.240159592
C  C152  1  0.02102000  0.52938000  0.52938000  1.0 -0.240159592
C  C153  1  0.47062000  0.47062000  0.07978000  1.0 -0.240159592
C  C154  1  0.52938000  0.92022000  0.02102000  1.0 -0.240159592
C  C155  1  0.47062000  0.07978000  0.97898000  1.0 -0.240159592
C  C156  1  0.97898000  0.47062000  0.07978000  1.0 -0.240159592
C  C157  1  0.47062000  0.97898000  0.47062000  1.0 -0.240159592
C  C158  1  0.47062000  0.97898000  0.07978000  1.0 -0.240159592
C  C159  1  0.07978000  0.47062000  0.97898000  1.0 -0.240159592
C  C160  1  0.07978000  0.47062000  0.47062000  1.0 -0.240159592
C  C161  1  0.97898000  0.47062000  0.47062000  1.0 -0.240159592
C  C162  1  0.47062000  0.07978000  0.47062000  1.0 -0.240159592
C  C163  1  0.92022000  0.02102000  0.52938000  1.0 -0.240159592
C  C164  1  0.02102000  0.92022000  0.52938000  1.0 -0.240159592
C  C165  1  0.52938000  0.02102000  0.52938000  1.0 -0.240159592
C  C166  1  0.92022000  0.52938000  0.02102000  1.0 -0.240159592
C  C167  1  0.92022000  0.52938000  0.52938000  1.0 -0.240159592
C  C168  1  0.52938000  0.02102000  0.92022000  1.0 -0.240159592
C  C169  1  0.18802000  0.93558000  0.43820000  1.0 -0.4385480282
C  C170  1  0.56180000  0.56180000  0.81198000  1.0 -0.4385480282
C  C171  1  0.93558000  0.18802000  0.43820000  1.0 -0.4385480282
C  C172  1  0.56180000  0.56180000  0.06442000  1.0 -0.4385480282
C  C173  1  0.06442000  0.56180000  0.81198000  1.0 -0.4385480282
C  C174  1  0.43820000  0.43820000  0.93558000  1.0 -0.4385480282
C  C175  1  0.56180000  0.81198000  0.56180000  1.0 -0.4385480282
C  C176  1  0.06442000  0.56180000  0.56180000  1.0 -0.4385480282
C  C177  1  0.43820000  0.43820000  0.18802000  1.0 -0.4385480282
C  C178  1  0.56180000  0.81198000  0.06442000  1.0 -0.4385480282
C  C179  1  0.43820000  0.18802000  0.93558000  1.0 -0.4385480282
C  C180  1  0.93558000  0.43820000  0.18802000  1.0 -0.4385480282
C  C181  1  0.43820000  0.93558000  0.43820000  1.0 -0.4385480282
C  C182  1  0.43820000  0.93558000  0.18802000  1.0 -0.4385480282
C  C183  1  0.18802000  0.43820000  0.93558000  1.0 -0.4385480282
C  C184  1  0.18802000  0.43820000  0.43820000  1.0 -0.4385480282
C  C185  1  0.93558000  0.43820000  0.43820000  1.0 -0.4385480282
C  C186  1  0.43820000  0.18802000  0.43820000  1.0 -0.4385480282
C  C187  1  0.81198000  0.06442000  0.56180000  1.0 -0.4385480282
C  C188  1  0.06442000  0.81198000  0.56180000  1.0 -0.4385480282
C  C189  1  0.56180000  0.06442000  0.56180000  1.0 -0.4385480282
C  C190  1  0.81198000  0.56180000  0.06442000  1.0 -0.4385480282
C  C191  1  0.81198000  0.56180000  0.56180000  1.0 -0.4385480282
C  C192  1  0.56180000  0.06442000  0.81198000  1.0 -0.4385480282
O  O1  1  0.31160000  0.68840000  0.68840000  1.0 -0.7718479296
O  O2  1  0.68840000  0.31160000  0.68840000  1.0 -0.7718479296
O  O3  1  0.68840000  0.31160000  0.31160000  1.0 -0.7774561157
O  O4  1  0.31160000  0.68840000  0.31160000  1.0 -0.7718479296
O  O5  1  0.31160000  0.31160000  0.68840000  1.0 -0.7718479296
O  O6  1  0.68840000  0.68840000  0.31160000  1.0 -0.7774561157
O  O7  1  0.25925000  0.76135000  0.61141000  1.0 -0.2182980205
O  O8  1  0.63201000  0.38859000  0.74075000  1.0 -0.2182980205
O  O9  1  0.76135000  0.25925000  0.36799000  1.0 -0.2182980205
O  O10  1  0.38859000  0.63201000  0.23865000  1.0 -0.2182980205
O  O11  1  0.23865000  0.63201000  0.74075000  1.0 -0.2182980205
O  O12  1  0.36799000  0.61141000  0.76135000  1.0 -0.2182980205
O  O13  1  0.38859000  0.74075000  0.63201000  1.0 -0.2182980205
O  O14  1  0.23865000  0.38859000  0.63201000  1.0 -0.2182980205
O  O15  1  0.61141000  0.36799000  0.25925000  1.0 -0.2182980205
O  O16  1  0.63201000  0.74075000  0.23865000  1.0 -0.2182980205
O  O17  1  0.61141000  0.25925000  0.76135000  1.0 -0.2182980205
O  O18  1  0.76135000  0.61141000  0.25925000  1.0 -0.2182980205
O  O19  1  0.61141000  0.76135000  0.36799000  1.0 -0.2182980205
O  O20  1  0.36799000  0.76135000  0.25925000  1.0 -0.2182980205
O  O21  1  0.25925000  0.36799000  0.76135000  1.0 -0.2182980205
O  O22  1  0.25925000  0.61141000  0.36799000  1.0 -0.2182980205
O  O23  1  0.76135000  0.36799000  0.61141000  1.0 -0.2182980205
O  O24  1  0.36799000  0.25925000  0.61141000  1.0 -0.2182980205
O  O25  1  0.74075000  0.23865000  0.63201000  1.0 -0.2182980205
O  O26  1  0.23865000  0.74075000  0.38859000  1.0 -0.2182980205
O  O27  1  0.63201000  0.23865000  0.38859000  1.0 -0.2182980205
O  O28  1  0.74075000  0.38859000  0.23865000  1.0 -0.2182980205
O  O29  1  0.74075000  0.63201000  0.38859000  1.0 -0.2182980205
O  O30  1  0.38859000  0.23865000  0.74075000  1.0 -0.2182980205
O  O31  1  0.74075000  0.23865000  0.38859000  1.0 -0.2182980205
O  O32  1  0.36799000  0.61141000  0.25925000  1.0 -0.2182980205
O  O33  1  0.23865000  0.74075000  0.63201000  1.0 -0.2182980205
O  O34  1  0.61141000  0.36799000  0.76135000  1.0 -0.2182980205
O  O35  1  0.76135000  0.36799000  0.25925000  1.0 -0.2182980205
O  O36  1  0.63201000  0.38859000  0.23865000  1.0 -0.2182980205
O  O37  1  0.61141000  0.25925000  0.36799000  1.0 -0.2182980205
O  O38  1  0.76135000  0.61141000  0.36799000  1.0 -0.2182980205
O  O39  1  0.38859000  0.63201000  0.74075000  1.0 -0.2182980205
O  O40  1  0.36799000  0.25925000  0.76135000  1.0 -0.2182980205
O  O41  1  0.38859000  0.74075000  0.23865000  1.0 -0.2182980205
O  O42  1  0.23865000  0.38859000  0.74075000  1.0 -0.2182980205
O  O43  1  0.38859000  0.23865000  0.63201000  1.0 -0.2182980205
O  O44  1  0.63201000  0.23865000  0.74075000  1.0 -0.2182980205
O  O45  1  0.74075000  0.63201000  0.23865000  1.0 -0.2182980205
O  O46  1  0.74075000  0.38859000  0.63201000  1.0 -0.2182980205
O  O47  1  0.23865000  0.63201000  0.38859000  1.0 -0.2182980205
O  O48  1  0.63201000  0.74075000  0.38859000  1.0 -0.2182980205
O  O49  1  0.25925000  0.76135000  0.36799000  1.0 -0.2182980205
O  O50  1  0.76135000  0.25925000  0.61141000  1.0 -0.2182980205
O  O51  1  0.36799000  0.76135000  0.61141000  1.0 -0.2182980205
O  O52  1  0.25925000  0.61141000  0.76135000  1.0 -0.2182980205
O  O53  1  0.25925000  0.36799000  0.61141000  1.0 -0.2182980205
O  O54  1  0.61141000  0.76135000  0.25925000  1.0 -0.2182980205
O  O55  1  0.31429000  0.68571000  0.58529000  1.0 -0.4385480282
O  O56  1  0.58529000  0.41471000  0.68571000  1.0 -0.4385480282
O  O57  1  0.68571000  0.31429000  0.41471000  1.0 -0.4385480282
O  O58  1  0.41471000  0.58529000  0.31429000  1.0 -0.4385480282
O  O59  1  0.31429000  0.58529000  0.68571000  1.0 -0.4385480282
O  O60  1  0.41471000  0.58529000  0.68571000  1.0 -0.4385480282
O  O61  1  0.41471000  0.68571000  0.58529000  1.0 -0.4385480282
O  O62  1  0.31429000  0.41471000  0.58529000  1.0 -0.4385480282
O  O63  1  0.58529000  0.41471000  0.31429000  1.0 -0.4385480282
O  O64  1  0.58529000  0.68571000  0.31429000  1.0 -0.4385480282
O  O65  1  0.58529000  0.31429000  0.68571000  1.0 -0.4385480282
O  O66  1  0.68571000  0.58529000  0.31429000  1.0 -0.4385480282
O  O67  1  0.58529000  0.68571000  0.41471000  1.0 -0.4385480282
O  O68  1  0.41471000  0.68571000  0.31429000  1.0 -0.4385480282
O  O69  1  0.31429000  0.41471000  0.68571000  1.0 -0.4385480282
O  O70  1  0.31429000  0.58529000  0.41471000  1.0 -0.4385480282
O  O71  1  0.68571000  0.41471000  0.58529000  1.0 -0.4385480282
O  O72  1  0.41471000  0.31429000  0.58529000  1.0 -0.4385480282
O  O73  1  0.68571000  0.31429000  0.58529000  1.0 -0.4385480282
O  O74  1  0.31429000  0.68571000  0.41471000  1.0 -0.4385480282
O  O75  1  0.58529000  0.31429000  0.41471000  1.0 -0.4385480282
O  O76  1  0.68571000  0.41471000  0.31429000  1.0 -0.4385480282
O  O77  1  0.68571000  0.58529000  0.41471000  1.0 -0.4385480282
O  O78  1  0.41471000  0.31429000  0.68571000  1.0 -0.4385480282
O  O79  1  0.28190000  0.79690000  0.69670000  1.0 0.0181836276
O  O80  1  0.77550000  0.30330000  0.71810000  1.0 0.0181836276
O  O81  1  0.79690000  0.28190000  0.22450000  1.0 0.0181836276
O  O82  1  0.30330000  0.77550000  0.20310000  1.0 0.0181836276
O  O83  1  0.20310000  0.77550000  0.71810000  1.0 0.0181836276
O  O84  1  0.22450000  0.69670000  0.79690000  1.0 0.0181836276
O  O85  1  0.30330000  0.71810000  0.77550000  1.0 0.0181836276
O  O86  1  0.20310000  0.30330000  0.77550000  1.0 0.0146135523
O  O87  1  0.69670000  0.22450000  0.28190000  1.0 0.0181836276
O  O88  1  0.77550000  0.71810000  0.20310000  1.0 0.0181836276
O  O89  1  0.69670000  0.28190000  0.79690000  1.0 0.0181836276
O  O90  1  0.79690000  0.69670000  0.28190000  1.0 0.0181836276
O  O91  1  0.69670000  0.79690000  0.22450000  1.0 0.0181836276
O  O92  1  0.22450000  0.79690000  0.28190000  1.0 0.0181836276
O  O93  1  0.28190000  0.22450000  0.79690000  1.0 0.0181836276
O  O94  1  0.28190000  0.69670000  0.22450000  1.0 0.0181836276
O  O95  1  0.79690000  0.22450000  0.69670000  1.0 0.0181836276
O  O96  1  0.22450000  0.28190000  0.69670000  1.0 0.0181836276
O  O97  1  0.71810000  0.20310000  0.77550000  1.0 0.0181836276
O  O98  1  0.20310000  0.71810000  0.30330000  1.0 0.0181836276
O  O99  1  0.77550000  0.20310000  0.30330000  1.0 0.0181836276
O  O100  1  0.71810000  0.30330000  0.20310000  1.0 0.0181836276
O  O101  1  0.71810000  0.77550000  0.30330000  1.0 0.0181836276
O  O102  1  0.30330000  0.20310000  0.71810000  1.0 0.0181836276
O  O103  1  0.71810000  0.20310000  0.30330000  1.0 0.0181836276
O  O104  1  0.22450000  0.69670000  0.28190000  1.0 0.0181836276
O  O105  1  0.20310000  0.71810000  0.77550000  1.0 0.0181836276
O  O106  1  0.69670000  0.22450000  0.79690000  1.0 0.0181836276
O  O107  1  0.79690000  0.22450000  0.28190000  1.0 0.0181836276
O  O108  1  0.77550000  0.30330000  0.20310000  1.0 0.0181836276
O  O109  1  0.69670000  0.28190000  0.22450000  1.0 0.0181836276
O  O110  1  0.79690000  0.69670000  0.22450000  1.0 0.0181836276
O  O111  1  0.30330000  0.77550000  0.71810000  1.0 0.0181836276
O  O112  1  0.22450000  0.28190000  0.79690000  1.0 0.0181836276
O  O113  1  0.30330000  0.71810000  0.20310000  1.0 0.0181836276
O  O114  1  0.20310000  0.30330000  0.71810000  1.0 0.0181836276
O  O115  1  0.30330000  0.20310000  0.77550000  1.0 0.0181836276
O  O116  1  0.77550000  0.20310000  0.71810000  1.0 0.0181836276
O  O117  1  0.71810000  0.77550000  0.20310000  1.0 0.0181836276
O  O118  1  0.71810000  0.30330000  0.77550000  1.0 0.0181836276
O  O119  1  0.20310000  0.77550000  0.30330000  1.0 0.0181836276
O  O120  1  0.77550000  0.71810000  0.30330000  1.0 0.0181836276
O  O121  1  0.28190000  0.79690000  0.22450000  1.0 0.0181836276
O  O122  1  0.79690000  0.28190000  0.69670000  1.0 0.0181836276
O  O123  1  0.22450000  0.79690000  0.69670000  1.0 0.0181836276
O  O124  1  0.28190000  0.69670000  0.79690000  1.0 0.0181836276
O  O125  1  0.28190000  0.22450000  0.69670000  1.0 0.0146135523
O  O126  1  0.69670000  0.79690000  0.28190000  1.0 0.0181836276
