# DDEC6 charges by PACMAN v1.1 (https://github.com/mtap-research/PACMAN-charge/)
data_YABHER_ASR_pacman
_symmetry_space_group_name_H-M   'P 1'
_cell_length_a   18.75700000
_cell_length_b   18.75700000
_cell_length_c   36.09200000
_cell_angle_alpha   90.00000000
_cell_angle_beta   90.00000000
_cell_angle_gamma   90.00000000
_symmetry_Int_Tables_number   1
_chemical_formula_structural   CuH11(C4O)4
_chemical_formula_sum   'Cu16 H176 C256 O64'
_cell_volume   12698.06966851
_cell_formula_units_Z   16
loop_
 _symmetry_equiv_pos_site_id
 _symmetry_equiv_pos_as_xyz
  1  'x, y, z'
loop_
 _atom_site_type_symbol
 _atom_site_label
 _atom_site_symmetry_multiplicity
 _atom_site_fract_x
 _atom_site_fract_y
 _atom_site_fract_z
 _atom_site_occupancy
 _atom_site_charge
Cu  Cu1  1  0.20137000  0.79863000  0.22637000  1.0 0.8750396151
Cu  Cu2  1  0.70137000  0.70137000  0.72637000  1.0 0.8750396151
Cu  Cu3  1  0.79863000  0.20137000  0.22637000  1.0 0.8750396151
Cu  Cu4  1  0.29863000  0.29863000  0.72637000  1.0 0.8750396151
Cu  Cu5  1  0.70137000  0.70137000  0.27363000  1.0 0.8750396151
Cu  Cu6  1  0.29863000  0.29863000  0.27363000  1.0 0.8750396151
Cu  Cu7  1  0.79863000  0.20137000  0.77363000  1.0 0.8750396151
Cu  Cu8  1  0.20137000  0.79863000  0.77363000  1.0 0.8690041283
Cu  Cu9  1  0.26578000  0.73422000  0.28279000  1.0 0.8690041283
Cu  Cu10  1  0.76578000  0.76578000  0.78279000  1.0 0.8690041283
Cu  Cu11  1  0.73422000  0.26578000  0.28279000  1.0 0.8690041283
Cu  Cu12  1  0.23422000  0.23422000  0.78279000  1.0 0.8690041283
Cu  Cu13  1  0.76578000  0.76578000  0.21721000  1.0 0.8690041283
Cu  Cu14  1  0.23422000  0.23422000  0.21721000  1.0 0.8690041283
Cu  Cu15  1  0.73422000  0.26578000  0.71721000  1.0 0.8690041283
Cu  Cu16  1  0.26578000  0.73422000  0.71721000  1.0 0.8690041283
H  H1  1  0.48490000  0.75800000  0.24260000  1.0 0.1407594952
H  H2  1  0.74200000  0.98490000  0.74260000  1.0 0.1407594952
H  H3  1  0.51510000  0.24200000  0.24260000  1.0 0.1407594952
H  H4  1  0.25800000  0.01510000  0.74260000  1.0 0.1407594952
H  H5  1  0.98490000  0.74200000  0.25740000  1.0 0.1407594952
H  H6  1  0.01510000  0.25800000  0.25740000  1.0 0.1407594952
H  H7  1  0.75800000  0.48490000  0.75740000  1.0 0.1407594952
H  H8  1  0.24200000  0.51510000  0.75740000  1.0 0.1407594952
H  H9  1  0.51510000  0.24200000  0.75740000  1.0 0.1407594952
H  H10  1  0.25800000  0.01510000  0.25740000  1.0 0.1407594952
H  H11  1  0.48490000  0.75800000  0.75740000  1.0 0.1407594952
H  H12  1  0.74200000  0.98490000  0.25740000  1.0 0.1407594952
H  H13  1  0.01510000  0.25800000  0.74260000  1.0 0.1407594952
H  H14  1  0.98490000  0.74200000  0.74260000  1.0 0.1407594952
H  H15  1  0.24200000  0.51510000  0.24260000  1.0 0.1407594952
H  H16  1  0.75800000  0.48490000  0.24260000  1.0 0.1407594952
H  H17  1  0.36960000  0.79300000  0.14940000  1.0 0.1292867093
H  H18  1  0.70700000  0.86960000  0.64940000  1.0 0.1292867093
H  H19  1  0.63040000  0.20700000  0.14940000  1.0 0.1292867093
H  H20  1  0.29300000  0.13040000  0.64940000  1.0 0.1292867093
H  H21  1  0.86960000  0.70700000  0.35060000  1.0 0.1292867093
H  H22  1  0.13040000  0.29300000  0.35060000  1.0 0.1292867093
H  H23  1  0.79300000  0.36960000  0.85060000  1.0 0.1292867093
H  H24  1  0.20700000  0.63040000  0.85060000  1.0 0.1292867093
H  H25  1  0.63040000  0.20700000  0.85060000  1.0 0.1292867093
H  H26  1  0.29300000  0.13040000  0.35060000  1.0 0.1292867093
H  H27  1  0.36960000  0.79300000  0.85060000  1.0 0.1292867093
H  H28  1  0.70700000  0.86960000  0.35060000  1.0 0.1292867093
H  H29  1  0.13040000  0.29300000  0.64940000  1.0 0.1292867093
H  H30  1  0.86960000  0.70700000  0.64940000  1.0 0.1292867093
H  H31  1  0.20700000  0.63040000  0.14940000  1.0 0.1292867093
H  H32  1  0.79300000  0.36960000  0.14940000  1.0 0.1292867093
H  H33  1  0.58400000  0.76930000  0.14290000  1.0 0.1292867093
H  H34  1  0.73070000  0.08400000  0.64290000  1.0 0.1292867093
H  H35  1  0.41600000  0.23070000  0.14290000  1.0 0.1292867093
H  H36  1  0.26930000  0.91600000  0.64290000  1.0 0.1292867093
H  H37  1  0.08400000  0.73070000  0.35710000  1.0 0.1292867093
H  H38  1  0.91600000  0.26930000  0.35710000  1.0 0.1292867093
H  H39  1  0.76930000  0.58400000  0.85710000  1.0 0.1292867093
H  H40  1  0.23070000  0.41600000  0.85710000  1.0 0.1292867093
H  H41  1  0.41600000  0.23070000  0.85710000  1.0 0.1292867093
H  H42  1  0.26930000  0.91600000  0.35710000  1.0 0.1292867093
H  H43  1  0.58400000  0.76930000  0.85710000  1.0 0.1292867093
H  H44  1  0.73070000  0.08400000  0.35710000  1.0 0.1292867093
H  H45  1  0.91600000  0.26930000  0.64290000  1.0 0.1292867093
H  H46  1  0.08400000  0.73070000  0.64290000  1.0 0.1292867093
H  H47  1  0.23070000  0.41600000  0.14290000  1.0 0.1292867093
H  H48  1  0.76930000  0.58400000  0.14290000  1.0 0.1292867093
H  H49  1  0.45690000  0.89120000  0.02830000  1.0 0.1192552116
H  H50  1  0.60880000  0.95690000  0.52830000  1.0 0.1192552116
H  H51  1  0.54310000  0.10880000  0.02830000  1.0 0.1192552116
H  H52  1  0.39120000  0.04310000  0.52830000  1.0 0.1192552116
H  H53  1  0.95690000  0.60880000  0.47170000  1.0 0.1192552116
H  H54  1  0.04310000  0.39120000  0.47170000  1.0 0.1192552116
H  H55  1  0.89120000  0.45690000  0.97170000  1.0 0.1192552116
H  H56  1  0.10880000  0.54310000  0.97170000  1.0 0.1192552116
H  H57  1  0.54310000  0.10880000  0.97170000  1.0 0.1192552116
H  H58  1  0.39120000  0.04310000  0.47170000  1.0 0.1192552116
H  H59  1  0.45690000  0.89120000  0.97170000  1.0 0.1192552116
H  H60  1  0.60880000  0.95690000  0.47170000  1.0 0.1192552116
H  H61  1  0.04310000  0.39120000  0.52830000  1.0 0.1192552116
H  H62  1  0.95690000  0.60880000  0.52830000  1.0 0.1192552116
H  H63  1  0.10880000  0.54310000  0.02830000  1.0 0.1192552116
H  H64  1  0.89120000  0.45690000  0.02830000  1.0 0.1192552116
H  H65  1  0.47820000  0.67620000  0.02650000  1.0 0.112764256
H  H66  1  0.82380000  0.97820000  0.52650000  1.0 0.112764256
H  H67  1  0.52180000  0.32380000  0.02650000  1.0 0.112764256
H  H68  1  0.17620000  0.02180000  0.52650000  1.0 0.112764256
H  H69  1  0.97820000  0.82380000  0.47350000  1.0 0.112764256
H  H70  1  0.02180000  0.17620000  0.47350000  1.0 0.112764256
H  H71  1  0.67620000  0.47820000  0.97350000  1.0 0.112764256
H  H72  1  0.32380000  0.52180000  0.97350000  1.0 0.112764256
H  H73  1  0.52180000  0.32380000  0.97350000  1.0 0.112764256
H  H74  1  0.17620000  0.02180000  0.47350000  1.0 0.112764256
H  H75  1  0.47820000  0.67620000  0.97350000  1.0 0.112764256
H  H76  1  0.82380000  0.97820000  0.47350000  1.0 0.112764256
H  H77  1  0.02180000  0.17620000  0.52650000  1.0 0.112764256
H  H78  1  0.97820000  0.82380000  0.52650000  1.0 0.112764256
H  H79  1  0.32380000  0.52180000  0.02650000  1.0 0.112764256
H  H80  1  0.67620000  0.47820000  0.02650000  1.0 0.112764256
H  H81  1  0.44890000  0.91090000  0.12730000  1.0 0.1292867093
H  H82  1  0.58910000  0.94890000  0.62730000  1.0 0.1292867093
H  H83  1  0.55110000  0.08910000  0.12730000  1.0 0.1292867093
H  H84  1  0.41090000  0.05110000  0.62730000  1.0 0.1292867093
H  H85  1  0.94890000  0.58910000  0.37270000  1.0 0.1292867093
H  H86  1  0.05110000  0.41090000  0.37270000  1.0 0.1292867093
H  H87  1  0.91090000  0.44890000  0.87270000  1.0 0.1292867093
H  H88  1  0.08910000  0.55110000  0.87270000  1.0 0.1292867093
H  H89  1  0.55110000  0.08910000  0.87270000  1.0 0.1292867093
H  H90  1  0.41090000  0.05110000  0.37270000  1.0 0.1292867093
H  H91  1  0.44890000  0.91090000  0.87270000  1.0 0.1292867093
H  H92  1  0.58910000  0.94890000  0.37270000  1.0 0.1292867093
H  H93  1  0.05110000  0.41090000  0.62730000  1.0 0.1292867093
H  H94  1  0.94890000  0.58910000  0.62730000  1.0 0.1292867093
H  H95  1  0.08910000  0.55110000  0.12730000  1.0 0.1292867093
H  H96  1  0.91090000  0.44890000  0.12730000  1.0 0.1292867093
H  H97  1  0.39670000  0.93260000  0.09410000  1.0 0.1407594952
H  H98  1  0.56740000  0.89670000  0.59410000  1.0 0.1407594952
H  H99  1  0.60330000  0.06740000  0.09410000  1.0 0.1407594952
H  H100  1  0.43260000  0.10330000  0.59410000  1.0 0.1407594952
H  H101  1  0.89670000  0.56740000  0.40590000  1.0 0.1407594952
H  H102  1  0.10330000  0.43260000  0.40590000  1.0 0.1407594952
H  H103  1  0.93260000  0.39670000  0.90590000  1.0 0.1407594952
H  H104  1  0.06740000  0.60330000  0.90590000  1.0 0.1407594952
H  H105  1  0.60330000  0.06740000  0.90590000  1.0 0.1407594952
H  H106  1  0.43260000  0.10330000  0.40590000  1.0 0.1407594952
H  H107  1  0.39670000  0.93260000  0.90590000  1.0 0.1407594952
H  H108  1  0.56740000  0.89670000  0.40590000  1.0 0.1407594952
H  H109  1  0.10330000  0.43260000  0.59410000  1.0 0.1407594952
H  H110  1  0.89670000  0.56740000  0.59410000  1.0 0.1407594952
H  H111  1  0.06740000  0.60330000  0.09410000  1.0 0.1407594952
H  H112  1  0.93260000  0.39670000  0.09410000  1.0 0.1407594952
H  H113  1  0.47870000  0.95580000  0.09290000  1.0 0.1192552116
H  H114  1  0.54420000  0.97870000  0.59290000  1.0 0.1192552116
H  H115  1  0.52130000  0.04420000  0.09290000  1.0 0.1192552116
H  H116  1  0.45580000  0.02130000  0.59290000  1.0 0.1192552116
H  H117  1  0.97870000  0.54420000  0.40710000  1.0 0.1192552116
H  H118  1  0.02130000  0.45580000  0.40710000  1.0 0.1192552116
H  H119  1  0.95580000  0.47870000  0.90710000  1.0 0.1192552116
H  H120  1  0.04420000  0.52130000  0.90710000  1.0 0.1192552116
H  H121  1  0.52130000  0.04420000  0.90710000  1.0 0.1192552116
H  H122  1  0.45580000  0.02130000  0.40710000  1.0 0.1192552116
H  H123  1  0.47870000  0.95580000  0.90710000  1.0 0.1192552116
H  H124  1  0.54420000  0.97870000  0.40710000  1.0 0.1192552116
H  H125  1  0.02130000  0.45580000  0.59290000  1.0 0.1192552116
H  H126  1  0.97870000  0.54420000  0.59290000  1.0 0.1192552116
H  H127  1  0.04420000  0.52130000  0.09290000  1.0 0.1192552116
H  H128  1  0.95580000  0.47870000  0.09290000  1.0 0.1192552116
H  H129  1  0.50100000  0.61110000  0.08120000  1.0 0.1407594952
H  H130  1  0.88890000  0.00100000  0.58120000  1.0 0.1407594952
H  H131  1  0.49900000  0.38890000  0.08120000  1.0 0.1407594952
H  H132  1  0.11110000  0.99900000  0.58120000  1.0 0.1407594952
H  H133  1  0.00100000  0.88890000  0.41880000  1.0 0.1407594952
H  H134  1  0.99900000  0.11110000  0.41880000  1.0 0.1407594952
H  H135  1  0.61110000  0.50100000  0.91880000  1.0 0.1407594952
H  H136  1  0.38890000  0.49900000  0.91880000  1.0 0.1407594952
H  H137  1  0.49900000  0.38890000  0.91880000  1.0 0.1407594952
H  H138  1  0.11110000  0.99900000  0.41880000  1.0 0.1407594952
H  H139  1  0.50100000  0.61110000  0.91880000  1.0 0.1407594952
H  H140  1  0.88890000  0.00100000  0.41880000  1.0 0.1407594952
H  H141  1  0.99900000  0.11110000  0.58120000  1.0 0.1407594952
H  H142  1  0.00100000  0.88890000  0.58120000  1.0 0.1407594952
H  H143  1  0.38890000  0.49900000  0.08120000  1.0 0.1407594952
H  H144  1  0.61110000  0.50100000  0.08120000  1.0 0.1407594952
H  H145  1  0.46380000  0.64010000  0.11820000  1.0 0.1407594952
H  H146  1  0.85990000  0.96380000  0.61820000  1.0 0.1407594952
H  H147  1  0.53620000  0.35990000  0.11820000  1.0 0.1407594952
H  H148  1  0.14010000  0.03620000  0.61820000  1.0 0.1407594952
H  H149  1  0.96380000  0.85990000  0.38180000  1.0 0.1407594952
H  H150  1  0.03620000  0.14010000  0.38180000  1.0 0.1407594952
H  H151  1  0.64010000  0.46380000  0.88180000  1.0 0.1407594952
H  H152  1  0.35990000  0.53620000  0.88180000  1.0 0.1407594952
H  H153  1  0.53620000  0.35990000  0.88180000  1.0 0.1407594952
H  H154  1  0.14010000  0.03620000  0.38180000  1.0 0.1407594952
H  H155  1  0.46380000  0.64010000  0.88180000  1.0 0.1407594952
H  H156  1  0.85990000  0.96380000  0.38180000  1.0 0.1407594952
H  H157  1  0.03620000  0.14010000  0.61820000  1.0 0.1407594952
H  H158  1  0.96380000  0.85990000  0.61820000  1.0 0.1407594952
H  H159  1  0.35990000  0.53620000  0.11820000  1.0 0.1407594952
H  H160  1  0.64010000  0.46380000  0.11820000  1.0 0.1407594952
H  H161  1  0.54590000  0.65760000  0.11020000  1.0 0.1407594952
H  H162  1  0.84240000  0.04590000  0.61020000  1.0 0.1407594952
H  H163  1  0.45410000  0.34240000  0.11020000  1.0 0.1407594952
H  H164  1  0.15760000  0.95410000  0.61020000  1.0 0.1407594952
H  H165  1  0.04590000  0.84240000  0.38980000  1.0 0.1407594952
H  H166  1  0.95410000  0.15760000  0.38980000  1.0 0.1407594952
H  H167  1  0.65760000  0.54590000  0.88980000  1.0 0.1407594952
H  H168  1  0.34240000  0.45410000  0.88980000  1.0 0.1407594952
H  H169  1  0.45410000  0.34240000  0.88980000  1.0 0.1407594952
H  H170  1  0.15760000  0.95410000  0.38980000  1.0 0.1407594952
H  H171  1  0.54590000  0.65760000  0.88980000  1.0 0.1407594952
H  H172  1  0.84240000  0.04590000  0.38980000  1.0 0.1407594952
H  H173  1  0.95410000  0.15760000  0.61020000  1.0 0.1407594952
H  H174  1  0.04590000  0.84240000  0.61020000  1.0 0.1407594952
H  H175  1  0.34240000  0.45410000  0.11020000  1.0 0.1407594952
H  H176  1  0.65760000  0.54590000  0.11020000  1.0 0.1407594952
C  C1  1  0.48273000  0.76427000  0.21648000  1.0 -0.1124978955
C  C2  1  0.73573000  0.98273000  0.71648000  1.0 -0.1124978955
C  C3  1  0.51727000  0.23573000  0.21648000  1.0 -0.1124978955
C  C4  1  0.26427000  0.01727000  0.71648000  1.0 -0.1124978955
C  C5  1  0.98273000  0.73573000  0.28352000  1.0 -0.1124978955
C  C6  1  0.01727000  0.26427000  0.28352000  1.0 -0.1124978955
C  C7  1  0.76427000  0.48273000  0.78352000  1.0 -0.1124978955
C  C8  1  0.23573000  0.51727000  0.78352000  1.0 -0.1124978955
C  C9  1  0.51727000  0.23573000  0.78352000  1.0 -0.1124978955
C  C10  1  0.26427000  0.01727000  0.28352000  1.0 -0.1124978955
C  C11  1  0.48273000  0.76427000  0.78352000  1.0 -0.1124978955
C  C12  1  0.73573000  0.98273000  0.28352000  1.0 -0.1124978955
C  C13  1  0.01727000  0.26427000  0.71648000  1.0 -0.1124978955
C  C14  1  0.98273000  0.73573000  0.71648000  1.0 -0.1124978955
C  C15  1  0.23573000  0.51727000  0.21648000  1.0 -0.1124978955
C  C16  1  0.76427000  0.48273000  0.21648000  1.0 -0.1124978955
C  C17  1  0.41742000  0.77588000  0.19931000  1.0 -0.0220368307
C  C18  1  0.72412000  0.91742000  0.69931000  1.0 -0.0220368307
C  C19  1  0.58258000  0.22412000  0.19931000  1.0 -0.0220368307
C  C20  1  0.27588000  0.08258000  0.69931000  1.0 -0.0220368307
C  C21  1  0.91742000  0.72412000  0.30069000  1.0 -0.0220368307
C  C22  1  0.08258000  0.27588000  0.30069000  1.0 -0.0220368307
C  C23  1  0.77588000  0.41742000  0.80069000  1.0 -0.0220368307
C  C24  1  0.22412000  0.58258000  0.80069000  1.0 -0.0220368307
C  C25  1  0.58258000  0.22412000  0.80069000  1.0 -0.0220368307
C  C26  1  0.27588000  0.08258000  0.30069000  1.0 -0.0220368307
C  C27  1  0.41742000  0.77588000  0.80069000  1.0 -0.0220368307
C  C28  1  0.72412000  0.91742000  0.30069000  1.0 -0.0220368307
C  C29  1  0.08258000  0.27588000  0.69931000  1.0 -0.0220368307
C  C30  1  0.91742000  0.72412000  0.69931000  1.0 -0.0220368307
C  C31  1  0.22412000  0.58258000  0.19931000  1.0 -0.0220368307
C  C32  1  0.77588000  0.41742000  0.19931000  1.0 -0.0220368307
C  C33  1  0.41419000  0.78502000  0.16113000  1.0 -0.1370007886
C  C34  1  0.71498000  0.91419000  0.66113000  1.0 -0.1370007886
C  C35  1  0.58581000  0.21498000  0.16113000  1.0 -0.1370007886
C  C36  1  0.28502000  0.08581000  0.66113000  1.0 -0.1370007886
C  C37  1  0.91419000  0.71498000  0.33887000  1.0 -0.1370007886
C  C38  1  0.08581000  0.28502000  0.33887000  1.0 -0.1370007886
C  C39  1  0.78502000  0.41419000  0.83887000  1.0 -0.1370007886
C  C40  1  0.21498000  0.58581000  0.83887000  1.0 -0.1370007886
C  C41  1  0.58581000  0.21498000  0.83887000  1.0 -0.1370007886
C  C42  1  0.28502000  0.08581000  0.33887000  1.0 -0.1370007886
C  C43  1  0.41419000  0.78502000  0.83887000  1.0 -0.1370007886
C  C44  1  0.71498000  0.91419000  0.33887000  1.0 -0.1370007886
C  C45  1  0.08581000  0.28502000  0.66113000  1.0 -0.1370007886
C  C46  1  0.91419000  0.71498000  0.66113000  1.0 -0.1370007886
C  C47  1  0.21498000  0.58581000  0.16113000  1.0 -0.1370007886
C  C48  1  0.78502000  0.41419000  0.16113000  1.0 -0.1370007886
C  C49  1  0.47625000  0.78255000  0.14012000  1.0 0.0870197816
C  C50  1  0.71745000  0.97625000  0.64012000  1.0 0.0870197816
C  C51  1  0.52375000  0.21745000  0.14012000  1.0 0.0870197816
C  C52  1  0.28255000  0.02375000  0.64012000  1.0 0.0870197816
C  C53  1  0.97625000  0.71745000  0.35988000  1.0 0.0870197816
C  C54  1  0.02375000  0.28255000  0.35988000  1.0 0.0870197816
C  C55  1  0.78255000  0.47625000  0.85988000  1.0 0.0870197816
C  C56  1  0.21745000  0.52375000  0.85988000  1.0 0.0870197816
C  C57  1  0.52375000  0.21745000  0.85988000  1.0 0.0870197816
C  C58  1  0.28255000  0.02375000  0.35988000  1.0 0.0870197816
C  C59  1  0.47625000  0.78255000  0.85988000  1.0 0.0870197816
C  C60  1  0.71745000  0.97625000  0.35988000  1.0 0.0870197816
C  C61  1  0.02375000  0.28255000  0.64012000  1.0 0.0870197816
C  C62  1  0.97625000  0.71745000  0.64012000  1.0 0.0870197816
C  C63  1  0.21745000  0.52375000  0.14012000  1.0 0.0870197816
C  C64  1  0.78255000  0.47625000  0.14012000  1.0 0.0870197816
C  C65  1  0.54155000  0.77094000  0.15730000  1.0 -0.1370007886
C  C66  1  0.72906000  0.04155000  0.65730000  1.0 -0.1370007886
C  C67  1  0.45845000  0.22906000  0.15730000  1.0 -0.1370007886
C  C68  1  0.27094000  0.95845000  0.65730000  1.0 -0.1370007886
C  C69  1  0.04155000  0.72906000  0.34270000  1.0 -0.1370007886
C  C70  1  0.95845000  0.27094000  0.34270000  1.0 -0.1370007886
C  C71  1  0.77094000  0.54155000  0.84270000  1.0 -0.1370007886
C  C72  1  0.22906000  0.45845000  0.84270000  1.0 -0.1370007886
C  C73  1  0.45845000  0.22906000  0.84270000  1.0 -0.1370007886
C  C74  1  0.27094000  0.95845000  0.34270000  1.0 -0.1370007886
C  C75  1  0.54155000  0.77094000  0.84270000  1.0 -0.1370007886
C  C76  1  0.72906000  0.04155000  0.34270000  1.0 -0.1370007886
C  C77  1  0.95845000  0.27094000  0.65730000  1.0 -0.1370007886
C  C78  1  0.04155000  0.72906000  0.65730000  1.0 -0.1370007886
C  C79  1  0.22906000  0.45845000  0.15730000  1.0 -0.1370007886
C  C80  1  0.77094000  0.54155000  0.15730000  1.0 -0.1370007886
C  C81  1  0.54479000  0.76180000  0.19548000  1.0 -0.0220368307
C  C82  1  0.73820000  0.04479000  0.69548000  1.0 -0.0220368307
C  C83  1  0.45521000  0.23820000  0.19548000  1.0 -0.0220368307
C  C84  1  0.26180000  0.95521000  0.69548000  1.0 -0.0220368307
C  C85  1  0.04479000  0.73820000  0.30452000  1.0 -0.0220368307
C  C86  1  0.95521000  0.26180000  0.30452000  1.0 -0.0220368307
C  C87  1  0.76180000  0.54479000  0.80452000  1.0 -0.0220368307
C  C88  1  0.23820000  0.45521000  0.80452000  1.0 -0.0220368307
C  C89  1  0.45521000  0.23820000  0.80452000  1.0 -0.0220368307
C  C90  1  0.26180000  0.95521000  0.30452000  1.0 -0.0220368307
C  C91  1  0.54479000  0.76180000  0.80452000  1.0 -0.0220368307
C  C92  1  0.73820000  0.04479000  0.30452000  1.0 -0.0220368307
C  C93  1  0.95521000  0.26180000  0.69548000  1.0 -0.0220368307
C  C94  1  0.04479000  0.73820000  0.69548000  1.0 -0.0220368307
C  C95  1  0.23820000  0.45521000  0.19548000  1.0 -0.0220368307
C  C96  1  0.76180000  0.54479000  0.19548000  1.0 -0.0220368307
C  C97  1  0.35035000  0.77848000  0.22116000  1.0 0.5821029884
C  C98  1  0.72152000  0.85035000  0.72116000  1.0 0.5821029884
C  C99  1  0.64965000  0.22152000  0.22116000  1.0 0.5821029884
C  C100  1  0.27848000  0.14965000  0.72116000  1.0 0.5821029884
C  C101  1  0.85035000  0.72152000  0.27884000  1.0 0.5821029884
C  C102  1  0.14965000  0.27848000  0.27884000  1.0 0.5821029884
C  C103  1  0.77848000  0.35035000  0.77884000  1.0 0.5821029884
C  C104  1  0.22152000  0.64965000  0.77884000  1.0 0.5821029884
C  C105  1  0.64965000  0.22152000  0.77884000  1.0 0.5821029884
C  C106  1  0.27848000  0.14965000  0.27884000  1.0 0.5821029884
C  C107  1  0.35035000  0.77848000  0.77884000  1.0 0.5821029884
C  C108  1  0.72152000  0.85035000  0.27884000  1.0 0.5821029884
C  C109  1  0.14965000  0.27848000  0.72116000  1.0 0.5821029884
C  C110  1  0.85035000  0.72152000  0.72116000  1.0 0.5821029884
C  C111  1  0.22152000  0.64965000  0.22116000  1.0 0.5821029884
C  C112  1  0.77848000  0.35035000  0.22116000  1.0 0.5821029884
C  C113  1  0.61517000  0.75215000  0.21357000  1.0 0.5821029884
C  C114  1  0.74785000  0.11517000  0.71357000  1.0 0.5821029884
C  C115  1  0.38483000  0.24785000  0.21357000  1.0 0.5821029884
C  C116  1  0.25215000  0.88483000  0.71357000  1.0 0.5821029884
C  C117  1  0.11517000  0.74785000  0.28643000  1.0 0.5821029884
C  C118  1  0.88483000  0.25215000  0.28643000  1.0 0.5821029884
C  C119  1  0.75215000  0.61517000  0.78643000  1.0 0.5821029884
C  C120  1  0.24785000  0.38483000  0.78643000  1.0 0.5821029884
C  C121  1  0.38483000  0.24785000  0.78643000  1.0 0.5821029884
C  C122  1  0.25215000  0.88483000  0.28643000  1.0 0.5821029884
C  C123  1  0.61517000  0.75215000  0.78643000  1.0 0.5821029884
C  C124  1  0.74785000  0.11517000  0.28643000  1.0 0.5821029884
C  C125  1  0.88483000  0.25215000  0.71357000  1.0 0.5821029884
C  C126  1  0.11517000  0.74785000  0.71357000  1.0 0.5821029884
C  C127  1  0.24785000  0.38483000  0.21357000  1.0 0.5821029884
C  C128  1  0.75215000  0.61517000  0.21357000  1.0 0.5821029884
C  C129  1  0.47210000  0.78201000  0.09829000  1.0 -0.0784961009
C  C130  1  0.71799000  0.97210000  0.59829000  1.0 -0.0784961009
C  C131  1  0.52790000  0.21799000  0.09829000  1.0 -0.0784961009
C  C132  1  0.28201000  0.02790000  0.59829000  1.0 -0.0784961009
C  C133  1  0.97210000  0.71799000  0.40171000  1.0 -0.0784961009
C  C134  1  0.02790000  0.28201000  0.40171000  1.0 -0.0784961009
C  C135  1  0.78201000  0.47210000  0.90171000  1.0 -0.0784961009
C  C136  1  0.21799000  0.52790000  0.90171000  1.0 -0.0784961009
C  C137  1  0.52790000  0.21799000  0.90171000  1.0 -0.0784961009
C  C138  1  0.28201000  0.02790000  0.40171000  1.0 -0.0784961009
C  C139  1  0.47210000  0.78201000  0.90171000  1.0 -0.0784961009
C  C140  1  0.71799000  0.97210000  0.40171000  1.0 -0.0784961009
C  C141  1  0.02790000  0.28201000  0.59829000  1.0 -0.0784961009
C  C142  1  0.97210000  0.71799000  0.59829000  1.0 -0.0784961009
C  C143  1  0.21799000  0.52790000  0.09829000  1.0 -0.0784961009
C  C144  1  0.78201000  0.47210000  0.09829000  1.0 -0.0784961009
C  C145  1  0.46460000  0.84633000  0.07957000  1.0 0.1505742775
C  C146  1  0.65367000  0.96460000  0.57957000  1.0 0.1505742775
C  C147  1  0.53540000  0.15367000  0.07957000  1.0 0.1505742775
C  C148  1  0.34633000  0.03540000  0.57957000  1.0 0.1505742775
C  C149  1  0.96460000  0.65367000  0.42043000  1.0 0.1505742775
C  C150  1  0.03540000  0.34633000  0.42043000  1.0 0.1505742775
C  C151  1  0.84633000  0.46460000  0.92043000  1.0 0.1505742775
C  C152  1  0.15367000  0.53540000  0.92043000  1.0 0.1505742775
C  C153  1  0.53540000  0.15367000  0.92043000  1.0 0.1505742775
C  C154  1  0.34633000  0.03540000  0.42043000  1.0 0.1505742775
C  C155  1  0.46460000  0.84633000  0.92043000  1.0 0.1505742775
C  C156  1  0.65367000  0.96460000  0.42043000  1.0 0.1505742775
C  C157  1  0.03540000  0.34633000  0.57957000  1.0 0.1505742775
C  C158  1  0.96460000  0.65367000  0.57957000  1.0 0.1505742775
C  C159  1  0.15367000  0.53540000  0.07957000  1.0 0.1505742775
C  C160  1  0.84633000  0.46460000  0.07957000  1.0 0.1505742775
C  C161  1  0.46210000  0.84724000  0.04108000  1.0 -0.229015647
C  C162  1  0.65276000  0.96210000  0.54108000  1.0 -0.229015647
C  C163  1  0.53790000  0.15276000  0.04108000  1.0 -0.229015647
C  C164  1  0.34724000  0.03790000  0.54108000  1.0 -0.229015647
C  C165  1  0.96210000  0.65276000  0.45892000  1.0 -0.229015647
C  C166  1  0.03790000  0.34724000  0.45892000  1.0 -0.229015647
C  C167  1  0.84724000  0.46210000  0.95892000  1.0 -0.229015647
C  C168  1  0.15276000  0.53790000  0.95892000  1.0 -0.229015647
C  C169  1  0.53790000  0.15276000  0.95892000  1.0 -0.229015647
C  C170  1  0.34724000  0.03790000  0.45892000  1.0 -0.229015647
C  C171  1  0.46210000  0.84724000  0.95892000  1.0 -0.229015647
C  C172  1  0.65276000  0.96210000  0.45892000  1.0 -0.229015647
C  C173  1  0.03790000  0.34724000  0.54108000  1.0 -0.229015647
C  C174  1  0.96210000  0.65276000  0.54108000  1.0 -0.229015647
C  C175  1  0.15276000  0.53790000  0.04108000  1.0 -0.229015647
C  C176  1  0.84724000  0.46210000  0.04108000  1.0 -0.229015647
C  C177  1  0.46710000  0.78380000  0.02132000  1.0 0.0870197816
C  C178  1  0.71620000  0.96710000  0.52132000  1.0 0.0870197816
C  C179  1  0.53290000  0.21620000  0.02132000  1.0 0.0870197816
C  C180  1  0.28380000  0.03290000  0.52132000  1.0 0.0870197816
C  C181  1  0.96710000  0.71620000  0.47868000  1.0 0.0870197816
C  C182  1  0.03290000  0.28380000  0.47868000  1.0 0.0870197816
C  C183  1  0.78380000  0.46710000  0.97868000  1.0 0.0870197816
C  C184  1  0.21620000  0.53290000  0.97868000  1.0 0.0870197816
C  C185  1  0.53290000  0.21620000  0.97868000  1.0 0.0870197816
C  C186  1  0.28380000  0.03290000  0.47868000  1.0 0.0870197816
C  C187  1  0.46710000  0.78380000  0.97868000  1.0 0.0870197816
C  C188  1  0.71620000  0.96710000  0.47868000  1.0 0.0870197816
C  C189  1  0.03290000  0.28380000  0.52132000  1.0 0.0870197816
C  C190  1  0.96710000  0.71620000  0.52132000  1.0 0.0870197816
C  C191  1  0.21620000  0.53290000  0.02132000  1.0 0.0870197816
C  C192  1  0.78380000  0.46710000  0.02132000  1.0 0.0870197816
C  C193  1  0.47470000  0.71953000  0.04004000  1.0 -0.229015647
C  C194  1  0.78047000  0.97470000  0.54004000  1.0 -0.229015647
C  C195  1  0.52530000  0.28047000  0.04004000  1.0 -0.229015647
C  C196  1  0.21953000  0.02530000  0.54004000  1.0 -0.229015647
C  C197  1  0.97470000  0.78047000  0.45996000  1.0 -0.229015647
C  C198  1  0.02530000  0.21953000  0.45996000  1.0 -0.229015647
C  C199  1  0.71953000  0.47470000  0.95996000  1.0 -0.229015647
C  C200  1  0.28047000  0.52530000  0.95996000  1.0 -0.229015647
C  C201  1  0.52530000  0.28047000  0.95996000  1.0 -0.229015647
C  C202  1  0.21953000  0.02530000  0.45996000  1.0 -0.229015647
C  C203  1  0.47470000  0.71953000  0.95996000  1.0 -0.229015647
C  C204  1  0.78047000  0.97470000  0.45996000  1.0 -0.229015647
C  C205  1  0.02530000  0.21953000  0.54004000  1.0 -0.229015647
C  C206  1  0.97470000  0.78047000  0.54004000  1.0 -0.229015647
C  C207  1  0.28047000  0.52530000  0.04004000  1.0 -0.229015647
C  C208  1  0.71953000  0.47470000  0.04004000  1.0 -0.229015647
C  C209  1  0.47720000  0.71861000  0.07853000  1.0 0.1407594952
C  C210  1  0.78139000  0.97720000  0.57853000  1.0 0.1407594952
C  C211  1  0.52280000  0.28139000  0.07853000  1.0 0.1407594952
C  C212  1  0.21861000  0.02280000  0.57853000  1.0 0.1407594952
C  C213  1  0.97720000  0.78139000  0.42147000  1.0 0.1407594952
C  C214  1  0.02280000  0.21861000  0.42147000  1.0 0.1407594952
C  C215  1  0.71861000  0.47720000  0.92147000  1.0 0.1407594952
C  C216  1  0.28139000  0.52280000  0.92147000  1.0 0.1407594952
C  C217  1  0.52280000  0.28139000  0.92147000  1.0 0.1407594952
C  C218  1  0.21861000  0.02280000  0.42147000  1.0 0.1407594952
C  C219  1  0.47720000  0.71861000  0.92147000  1.0 0.1407594952
C  C220  1  0.78139000  0.97720000  0.42147000  1.0 0.1407594952
C  C221  1  0.02280000  0.21861000  0.57853000  1.0 0.1407594952
C  C222  1  0.97720000  0.78139000  0.57853000  1.0 0.1407594952
C  C223  1  0.28139000  0.52280000  0.07853000  1.0 0.1407594952
C  C224  1  0.71861000  0.47720000  0.07853000  1.0 0.1407594952
C  C225  1  0.44540000  0.91830000  0.10045000  1.0 -0.4409700852
C  C226  1  0.58170000  0.94540000  0.60045000  1.0 -0.4409700852
C  C227  1  0.55460000  0.08170000  0.10045000  1.0 -0.4409700852
C  C228  1  0.41830000  0.05460000  0.60045000  1.0 -0.4409700852
C  C229  1  0.94540000  0.58170000  0.39955000  1.0 -0.4409700852
C  C230  1  0.05460000  0.41830000  0.39955000  1.0 -0.4409700852
C  C231  1  0.91830000  0.44540000  0.89955000  1.0 -0.4409700852
C  C232  1  0.08170000  0.55460000  0.89955000  1.0 -0.4409700852
C  C233  1  0.55460000  0.08170000  0.89955000  1.0 -0.4409700852
C  C234  1  0.41830000  0.05460000  0.39955000  1.0 -0.4409700852
C  C235  1  0.44540000  0.91830000  0.89955000  1.0 -0.4409700852
C  C236  1  0.58170000  0.94540000  0.39955000  1.0 -0.4409700852
C  C237  1  0.05460000  0.41830000  0.60045000  1.0 -0.4409700852
C  C238  1  0.94540000  0.58170000  0.60045000  1.0 -0.4409700852
C  C239  1  0.08170000  0.55460000  0.10045000  1.0 -0.4409700852
C  C240  1  0.91830000  0.44540000  0.10045000  1.0 -0.4409700852
C  C241  1  0.49890000  0.65080000  0.09884000  1.0 -0.463203752
C  C242  1  0.84920000  0.99890000  0.59884000  1.0 -0.463203752
C  C243  1  0.50110000  0.34920000  0.09884000  1.0 -0.463203752
C  C244  1  0.15080000  0.00110000  0.59884000  1.0 -0.463203752
C  C245  1  0.99890000  0.84920000  0.40116000  1.0 -0.463203752
C  C246  1  0.00110000  0.15080000  0.40116000  1.0 -0.463203752
C  C247  1  0.65080000  0.49890000  0.90116000  1.0 -0.463203752
C  C248  1  0.34920000  0.50110000  0.90116000  1.0 -0.463203752
C  C249  1  0.50110000  0.34920000  0.90116000  1.0 -0.463203752
C  C250  1  0.15080000  0.00110000  0.40116000  1.0 -0.463203752
C  C251  1  0.49890000  0.65080000  0.90116000  1.0 -0.463203752
C  C252  1  0.84920000  0.99890000  0.40116000  1.0 -0.463203752
C  C253  1  0.00110000  0.15080000  0.59884000  1.0 -0.463203752
C  C254  1  0.99890000  0.84920000  0.59884000  1.0 -0.463203752
C  C255  1  0.34920000  0.50110000  0.09884000  1.0 -0.463203752
C  C256  1  0.65080000  0.49890000  0.09884000  1.0 -0.463203752
O  O1  1  0.29616000  0.80305000  0.20531000  1.0 -0.5121818367
O  O2  1  0.69695000  0.79616000  0.70531000  1.0 -0.5121818367
O  O3  1  0.70384000  0.19695000  0.20531000  1.0 -0.5121818367
O  O4  1  0.30305000  0.20384000  0.70531000  1.0 -0.5121818367
O  O5  1  0.79616000  0.69695000  0.29469000  1.0 -0.5121818367
O  O6  1  0.20384000  0.30305000  0.29469000  1.0 -0.5121818367
O  O7  1  0.80305000  0.29616000  0.79469000  1.0 -0.5121818367
O  O8  1  0.19695000  0.70384000  0.79469000  1.0 -0.5121818367
O  O9  1  0.70384000  0.19695000  0.79469000  1.0 -0.5121818367
O  O10  1  0.30305000  0.20384000  0.29469000  1.0 -0.5121818367
O  O11  1  0.29616000  0.80305000  0.79469000  1.0 -0.5121818367
O  O12  1  0.69695000  0.79616000  0.29469000  1.0 -0.5121818367
O  O13  1  0.20384000  0.30305000  0.70531000  1.0 -0.5121818367
O  O14  1  0.79616000  0.69695000  0.70531000  1.0 -0.5121818367
O  O15  1  0.19695000  0.70384000  0.20531000  1.0 -0.5121818367
O  O16  1  0.80305000  0.29616000  0.20531000  1.0 -0.5121818367
O  O17  1  0.35305000  0.75031000  0.25339000  1.0 -0.5215136628
O  O18  1  0.74969000  0.85305000  0.75339000  1.0 -0.5215136628
O  O19  1  0.64695000  0.24969000  0.25339000  1.0 -0.5215136628
O  O20  1  0.25031000  0.14695000  0.75339000  1.0 -0.5215136628
O  O21  1  0.85305000  0.74969000  0.24661000  1.0 -0.5215136628
O  O22  1  0.14695000  0.25031000  0.24661000  1.0 -0.5215136628
O  O23  1  0.75031000  0.35305000  0.74661000  1.0 -0.5215136628
O  O24  1  0.24969000  0.64695000  0.74661000  1.0 -0.5215136628
O  O25  1  0.64695000  0.24969000  0.74661000  1.0 -0.5215136628
O  O26  1  0.25031000  0.14695000  0.24661000  1.0 -0.5215136628
O  O27  1  0.35305000  0.75031000  0.74661000  1.0 -0.5215136628
O  O28  1  0.74969000  0.85305000  0.24661000  1.0 -0.5215136628
O  O29  1  0.14695000  0.25031000  0.75339000  1.0 -0.5215136628
O  O30  1  0.85305000  0.74969000  0.75339000  1.0 -0.5215136628
O  O31  1  0.24969000  0.64695000  0.25339000  1.0 -0.5215136628
O  O32  1  0.75031000  0.35305000  0.25339000  1.0 -0.5215136628
O  O33  1  0.61530000  0.71982000  0.24486000  1.0 -0.527004547
O  O34  1  0.78018000  0.11530000  0.74486000  1.0 -0.527004547
O  O35  1  0.38470000  0.28018000  0.24486000  1.0 -0.527004547
O  O36  1  0.21982000  0.88470000  0.74486000  1.0 -0.527004547
O  O37  1  0.11530000  0.78018000  0.25514000  1.0 -0.527004547
O  O38  1  0.88470000  0.21982000  0.25514000  1.0 -0.527004547
O  O39  1  0.71982000  0.61530000  0.75514000  1.0 -0.527004547
O  O40  1  0.28018000  0.38470000  0.75514000  1.0 -0.527004547
O  O41  1  0.38470000  0.28018000  0.75514000  1.0 -0.527004547
O  O42  1  0.21982000  0.88470000  0.25514000  1.0 -0.527004547
O  O43  1  0.61530000  0.71982000  0.75514000  1.0 -0.527004547
O  O44  1  0.78018000  0.11530000  0.25514000  1.0 -0.527004547
O  O45  1  0.88470000  0.21982000  0.74486000  1.0 -0.527004547
O  O46  1  0.11530000  0.78018000  0.74486000  1.0 -0.527004547
O  O47  1  0.28018000  0.38470000  0.24486000  1.0 -0.527004547
O  O48  1  0.71982000  0.61530000  0.24486000  1.0 -0.527004547
O  O49  1  0.66978000  0.77253000  0.19638000  1.0 -0.5121818367
O  O50  1  0.72747000  0.16978000  0.69638000  1.0 -0.5121818367
O  O51  1  0.33022000  0.22747000  0.19638000  1.0 -0.5121818367
O  O52  1  0.27253000  0.83022000  0.69638000  1.0 -0.5121818367
O  O53  1  0.16978000  0.72747000  0.30362000  1.0 -0.5121818367
O  O54  1  0.83022000  0.27253000  0.30362000  1.0 -0.5121818367
O  O55  1  0.77253000  0.66978000  0.80362000  1.0 -0.5121818367
O  O56  1  0.22747000  0.33022000  0.80362000  1.0 -0.5121818367
O  O57  1  0.33022000  0.22747000  0.80362000  1.0 -0.5121818367
O  O58  1  0.27253000  0.83022000  0.30362000  1.0 -0.5121818367
O  O59  1  0.66978000  0.77253000  0.80362000  1.0 -0.5121818367
O  O60  1  0.72747000  0.16978000  0.30362000  1.0 -0.5121818367
O  O61  1  0.83022000  0.27253000  0.69638000  1.0 -0.5121818367
O  O62  1  0.16978000  0.72747000  0.69638000  1.0 -0.5121818367
O  O63  1  0.22747000  0.33022000  0.19638000  1.0 -0.5121818367
O  O64  1  0.77253000  0.66978000  0.19638000  1.0 -0.5121818367
