# DDEC6 charges by PACMAN v1.1 (https://github.com/mtap-research/PACMAN-charge/)
data_YAGHAS_ASR_pacman
_symmetry_space_group_name_H-M   'P 1'
_cell_length_a   22.80860000
_cell_length_b   22.80860000
_cell_length_c   9.14370000
_cell_angle_alpha   80.10470000
_cell_angle_beta   99.89530000
_cell_angle_gamma   122.93600000
_symmetry_Int_Tables_number   1
_chemical_formula_structural   K2H58Pb2C61O28
_chemical_formula_sum   'K4 H116 Pb4 C122 O56'
_cell_volume   3915.19934510
_cell_formula_units_Z   2
loop_
 _symmetry_equiv_pos_site_id
 _symmetry_equiv_pos_as_xyz
  1  'x, y, z'
loop_
 _atom_site_type_symbol
 _atom_site_label
 _atom_site_symmetry_multiplicity
 _atom_site_fract_x
 _atom_site_fract_y
 _atom_site_fract_z
 _atom_site_occupancy
 _atom_site_charge
K  K1  1  0.83875000  0.42065000  0.15150000  1.0 0.766311313
K  K2  1  0.42065000  0.83875000  0.34850000  1.0 0.7646288288
K  K3  1  0.16125000  0.57935000  0.84850000  1.0 0.7646288288
K  K4  1  0.57935000  0.16125000  0.65150000  1.0 0.7646288288
H  H1  1  0.74530000  0.55210000  0.68040000  1.0 0.1106415982
H  H2  1  0.55210000  0.74530000  0.81960000  1.0 0.1106415982
H  H3  1  0.25470000  0.44790000  0.31960000  1.0 0.1106415982
H  H4  1  0.44790000  0.25470000  0.18040000  1.0 0.1106415982
H  H5  1  0.76200000  0.51700000  0.57380000  1.0 0.0895159108
H  H6  1  0.51700000  0.76200000  0.92620000  1.0 0.0895159108
H  H7  1  0.23800000  0.48300000  0.42620000  1.0 0.0895159108
H  H8  1  0.48300000  0.23800000  0.07380000  1.0 0.0895159108
H  H9  1  0.79470000  0.62490000  0.46010000  1.0 0.1106415982
H  H10  1  0.62490000  0.79470000  0.03990000  1.0 0.1106415982
H  H11  1  0.20530000  0.37510000  0.53990000  1.0 0.1106415982
H  H12  1  0.37510000  0.20530000  0.96010000  1.0 0.1106415982
H  H13  1  0.85860000  0.72720000  0.31260000  1.0 0.1106415982
H  H14  1  0.72720000  0.85860000  0.18740000  1.0 0.1106415982
H  H15  1  0.14140000  0.27280000  0.68740000  1.0 0.1106415982
H  H16  1  0.27280000  0.14140000  0.81260000  1.0 0.1106415982
H  H17  1  0.03000000  0.77880000  0.58870000  1.0 0.1106415982
H  H18  1  0.77880000  0.03000000  0.91130000  1.0 0.1106415982
H  H19  1  0.97000000  0.22120000  0.41130000  1.0 0.1106415982
H  H20  1  0.22120000  0.97000000  0.08870000  1.0 0.1106415982
H  H21  1  0.96890000  0.67610000  0.73760000  1.0 0.1297831473
H  H22  1  0.67610000  0.96890000  0.76240000  1.0 0.1297831473
H  H23  1  0.03110000  0.32390000  0.26240000  1.0 0.1297831473
H  H24  1  0.32390000  0.03110000  0.23760000  1.0 0.1297831473
H  H25  1  0.21770000  0.74890000  0.30030000  1.0 0.1207753755
H  H26  1  0.74890000  0.21770000  0.19970000  1.0 0.1207753755
H  H27  1  0.78230000  0.25110000  0.69970000  1.0 0.1207753755
H  H28  1  0.25110000  0.78230000  0.80030000  1.0 0.1207753755
H  H29  1  0.25580000  0.81180000  0.17860000  1.0 0.1207753755
H  H30  1  0.81180000  0.25580000  0.32140000  1.0 0.1207753755
H  H31  1  0.74420000  0.18820000  0.82140000  1.0 0.1207753755
H  H32  1  0.18820000  0.74420000  0.67860000  1.0 0.1207753755
H  H33  1  0.20040000  0.84160000  0.30480000  1.0 0.1106415982
H  H34  1  0.84160000  0.20040000  0.19520000  1.0 0.1106415982
H  H35  1  0.79960000  0.15840000  0.69520000  1.0 0.1106415982
H  H36  1  0.15840000  0.79960000  0.80480000  1.0 0.1106415982
H  H37  1  0.13480000  0.87900000  0.37820000  1.0 0.1106415982
H  H38  1  0.87900000  0.13480000  0.12180000  1.0 0.1106415982
H  H39  1  0.86520000  0.12100000  0.62180000  1.0 0.1106415982
H  H40  1  0.12100000  0.86520000  0.87820000  1.0 0.1106415982
H  H41  1  0.96750000  0.74670000  0.12820000  1.0 0.1106415982
H  H42  1  0.74670000  0.96750000  0.37180000  1.0 0.1106415982
H  H43  1  0.03250000  0.25330000  0.87180000  1.0 0.1106415982
H  H44  1  0.25330000  0.03250000  0.62820000  1.0 0.1106415982
H  H45  1  0.03150000  0.70950000  0.04670000  1.0 0.1297831473
H  H46  1  0.70950000  0.03150000  0.45330000  1.0 0.1297831473
H  H47  1  0.96850000  0.29050000  0.95330000  1.0 0.1297831473
H  H48  1  0.29050000  0.96850000  0.54670000  1.0 0.1297831473
H  H49  1  0.91960000  0.85180000  0.24730000  1.0 0.1297831473
H  H50  1  0.85180000  0.91960000  0.25270000  1.0 0.1297831473
H  H51  1  0.08040000  0.14820000  0.75270000  1.0 0.1297831473
H  H52  1  0.14820000  0.08040000  0.74730000  1.0 0.1297831473
H  H53  1  0.98370000  0.89170000  0.15130000  1.0 0.1365136988
H  H54  1  0.89170000  0.98370000  0.34870000  1.0 0.1365136988
H  H55  1  0.01630000  0.10830000  0.84870000  1.0 0.1365136988
H  H56  1  0.10830000  0.01630000  0.65130000  1.0 0.1365136988
H  H57  1  0.92930000  0.81130000  0.14090000  1.0 0.1106415982
H  H58  1  0.81130000  0.92930000  0.35910000  1.0 0.1106415982
H  H59  1  0.07070000  0.18870000  0.85910000  1.0 0.1106415982
H  H60  1  0.18870000  0.07070000  0.64090000  1.0 0.1106415982
H  H61  1  0.06440000  0.88520000  0.51020000  1.0 0.1106415982
H  H62  1  0.88520000  0.06440000  0.98980000  1.0 0.1106415982
H  H63  1  0.93560000  0.11480000  0.48980000  1.0 0.1106415982
H  H64  1  0.11480000  0.93560000  0.01020000  1.0 0.1106415982
H  H65  1  0.07470000  0.93430000  0.36160000  1.0 0.1297831473
H  H66  1  0.93430000  0.07470000  0.13840000  1.0 0.1297831473
H  H67  1  0.92530000  0.06570000  0.63840000  1.0 0.1297831473
H  H68  1  0.06570000  0.92530000  0.86160000  1.0 0.1297831473
H  H69  1  0.01030000  0.90790000  0.45050000  1.0 0.1365136988
H  H70  1  0.90790000  0.01030000  0.04950000  1.0 0.1365136988
H  H71  1  0.98970000  0.09210000  0.54950000  1.0 0.1365136988
H  H72  1  0.09210000  0.98970000  0.95050000  1.0 0.1365136988
H  H73  1  0.44190000  0.18750000  0.67690000  1.0 0.0749054042
H  H74  1  0.18750000  0.44190000  0.82310000  1.0 0.0749054042
H  H75  1  0.55810000  0.81250000  0.32310000  1.0 0.0749054042
H  H76  1  0.81250000  0.55810000  0.17690000  1.0 0.0749054042
H  H77  1  0.47770000  0.25070000  0.55480000  1.0 0.1106415982
H  H78  1  0.25070000  0.47770000  0.94520000  1.0 0.1106415982
H  H79  1  0.52230000  0.74930000  0.44520000  1.0 0.1106415982
H  H80  1  0.74930000  0.52230000  0.05480000  1.0 0.1106415982
H  H81  1  0.36250000  0.15690000  0.46070000  1.0 0.1207753755
H  H82  1  0.15690000  0.36250000  0.03930000  1.0 0.1207753755
H  H83  1  0.63750000  0.84310000  0.53930000  1.0 0.1207753755
H  H84  1  0.84310000  0.63750000  0.96070000  1.0 0.1207753755
H  H85  1  0.25900000  0.12160000  0.30450000  1.0 0.1106415982
H  H86  1  0.12160000  0.25900000  0.19550000  1.0 0.1106415982
H  H87  1  0.74100000  0.87840000  0.69550000  1.0 0.1106415982
H  H88  1  0.87840000  0.74100000  0.80450000  1.0 0.1106415982
H  H89  1  0.23440000  0.26180000  0.44890000  1.0 0.1106415982
H  H90  1  0.26180000  0.23440000  0.05110000  1.0 0.1106415982
H  H91  1  0.76560000  0.73820000  0.55110000  1.0 0.1106415982
H  H92  1  0.73820000  0.76560000  0.94890000  1.0 0.1106415982
H  H93  1  0.32980000  0.28960000  0.62320000  1.0 0.1365136988
H  H94  1  0.28960000  0.32980000  0.87680000  1.0 0.1365136988
H  H95  1  0.67020000  0.71040000  0.37680000  1.0 0.1365136988
H  H96  1  0.71040000  0.67020000  0.12320000  1.0 0.1365136988
H  H97  1  0.18910000  0.12250000  0.10840000  1.0 0.1106415982
H  H98  1  0.12250000  0.18910000  0.39160000  1.0 0.1106415982
H  H99  1  0.81090000  0.87750000  0.89160000  1.0 0.1106415982
H  H100  1  0.87750000  0.81090000  0.60840000  1.0 0.1106415982
H  H101  1  0.13650000  0.06930000  0.22500000  1.0 0.1297831473
H  H102  1  0.06930000  0.13650000  0.27500000  1.0 0.1297831473
H  H103  1  0.86350000  0.93070000  0.77500000  1.0 0.1297831473
H  H104  1  0.93070000  0.86350000  0.72500000  1.0 0.1297831473
H  H105  1  0.11150000  0.10450000  0.08740000  1.0 0.1297831473
H  H106  1  0.10450000  0.11150000  0.41260000  1.0 0.1297831473
H  H107  1  0.88850000  0.89550000  0.91260000  1.0 0.1297831473
H  H108  1  0.89550000  0.88850000  0.58740000  1.0 0.1297831473
H  H109  1  0.41320000  0.15260000  0.71250000  1.0 0.1004191593
H  H110  1  0.15260000  0.41320000  0.78750000  1.0 0.1004191593
H  H111  1  0.58680000  0.84740000  0.28750000  1.0 0.1004191593
H  H112  1  0.84740000  0.58680000  0.21250000  1.0 0.1004191593
H  H113  1  0.45690000  0.18290000  0.57440000  1.0 0.0611535994
H  H114  1  0.18290000  0.45690000  0.92560000  1.0 0.0611535994
H  H115  1  0.54310000  0.81710000  0.42560000  1.0 0.0611535994
H  H116  1  0.81710000  0.54310000  0.07440000  1.0 0.0611535994
Pb  Pb1  1  0.66121000  0.32207000  0.93757000  1.0 0.766311313
Pb  Pb2  1  0.32207000  0.66121000  0.56243000  1.0 0.766311313
Pb  Pb3  1  0.33879000  0.67793000  0.06243000  1.0 0.766311313
Pb  Pb4  1  0.67793000  0.33879000  0.43757000  1.0 0.766311313
C  C1  1  0.74520000  0.46520000  0.78200000  1.0 0.4616645363
C  C2  1  0.46520000  0.74520000  0.71800000  1.0 0.4616645363
C  C3  1  0.25480000  0.53480000  0.21800000  1.0 0.4616645363
C  C4  1  0.53480000  0.25480000  0.28200000  1.0 0.4616645363
C  C5  1  0.77070000  0.52970000  0.67460000  1.0 -0.242070616
C  C6  1  0.52970000  0.77070000  0.82540000  1.0 -0.242070616
C  C7  1  0.22930000  0.47030000  0.32540000  1.0 -0.242070616
C  C8  1  0.47030000  0.22930000  0.17460000  1.0 -0.242070616
C  C9  1  0.87610000  0.63990000  0.61210000  1.0 0.2381031749
C  C10  1  0.63990000  0.87610000  0.88790000  1.0 0.2381031749
C  C11  1  0.12390000  0.36010000  0.38790000  1.0 0.2381031749
C  C12  1  0.36010000  0.12390000  0.11210000  1.0 0.2381031749
C  C13  1  0.84230000  0.65530000  0.48600000  1.0 -0.2295291002
C  C14  1  0.65530000  0.84230000  0.01400000  1.0 -0.2295291002
C  C15  1  0.15770000  0.34470000  0.51400000  1.0 -0.2295291002
C  C16  1  0.34470000  0.15770000  0.98600000  1.0 -0.2295291002
C  C17  1  0.88130000  0.71750000  0.39880000  1.0 -0.160687356
C  C18  1  0.71750000  0.88130000  0.10120000  1.0 -0.160687356
C  C19  1  0.11870000  0.28250000  0.60120000  1.0 -0.160687356
C  C20  1  0.28250000  0.11870000  0.89880000  1.0 -0.160687356
C  C21  1  0.95200000  0.76640000  0.43130000  1.0 0.0422701271
C  C22  1  0.76640000  0.95200000  0.06870000  1.0 0.0422701271
C  C23  1  0.04800000  0.23360000  0.56870000  1.0 0.0422701271
C  C24  1  0.23360000  0.04800000  0.93130000  1.0 0.0422701271
C  C25  1  0.98270000  0.74810000  0.56110000  1.0 -0.1413714128
C  C26  1  0.74810000  0.98270000  0.93890000  1.0 -0.1413714128
C  C27  1  0.01730000  0.25190000  0.43890000  1.0 -0.1413714128
C  C28  1  0.25190000  0.01730000  0.06110000  1.0 -0.1413714128
C  C29  1  0.94640000  0.68620000  0.65170000  1.0 -0.208520441
C  C30  1  0.68620000  0.94640000  0.84830000  1.0 -0.208520441
C  C31  1  0.05360000  0.31380000  0.34830000  1.0 -0.208520441
C  C32  1  0.31380000  0.05360000  0.15170000  1.0 -0.208520441
C  C33  1  0.24610000  0.72170000  0.13470000  1.0 0.5963528765
C  C34  1  0.72170000  0.24610000  0.36530000  1.0 0.5963528765
C  C35  1  0.75390000  0.27830000  0.86530000  1.0 0.5963528765
C  C36  1  0.27830000  0.75390000  0.63470000  1.0 0.5963528765
C  C37  1  0.22200000  0.76180000  0.19420000  1.0 -0.1798021483
C  C38  1  0.76180000  0.22200000  0.30580000  1.0 -0.1798021483
C  C39  1  0.77800000  0.23820000  0.80580000  1.0 -0.1798021483
C  C40  1  0.23820000  0.77800000  0.69420000  1.0 -0.1798021483
C  C41  1  0.12210000  0.77290000  0.16830000  1.0 0.2161043597
C  C42  1  0.77290000  0.12210000  0.33170000  1.0 0.2161043597
C  C43  1  0.87790000  0.22710000  0.83170000  1.0 0.2161043597
C  C44  1  0.22710000  0.87790000  0.66830000  1.0 0.2161043597
C  C45  1  0.15360000  0.82260000  0.26820000  1.0 -0.2295291002
C  C46  1  0.82260000  0.15360000  0.23180000  1.0 -0.2295291002
C  C47  1  0.84640000  0.17740000  0.73180000  1.0 -0.2295291002
C  C48  1  0.17740000  0.84640000  0.76820000  1.0 -0.2295291002
C  C49  1  0.11340000  0.84420000  0.31300000  1.0 -0.1498768205
C  C50  1  0.84420000  0.11340000  0.18700000  1.0 -0.1498768205
C  C51  1  0.88660000  0.15580000  0.68700000  1.0 -0.1498768205
C  C52  1  0.15580000  0.88660000  0.81300000  1.0 -0.1498768205
C  C53  1  0.04320000  0.81620000  0.26510000  1.0 0.0470952148
C  C54  1  0.81620000  0.04320000  0.23490000  1.0 0.0470952148
C  C55  1  0.95680000  0.18380000  0.73490000  1.0 0.0470952148
C  C56  1  0.18380000  0.95680000  0.76510000  1.0 0.0470952148
C  C57  1  0.01440000  0.76600000  0.16410000  1.0 -0.1498768205
C  C58  1  0.76600000  0.01440000  0.33590000  1.0 -0.1498768205
C  C59  1  0.98560000  0.23400000  0.83590000  1.0 -0.1498768205
C  C60  1  0.23400000  0.98560000  0.66410000  1.0 -0.1498768205
C  C61  1  0.05230000  0.74330000  0.11410000  1.0 -0.208520441
C  C62  1  0.74330000  0.05230000  0.38590000  1.0 -0.208520441
C  C63  1  0.94770000  0.25670000  0.88590000  1.0 -0.208520441
C  C64  1  0.25670000  0.94770000  0.61410000  1.0 -0.208520441
C  C65  1  0.99710000  0.83110000  0.33360000  1.0 0.1761758638
C  C66  1  0.83110000  0.99710000  0.16640000  1.0 0.1761758638
C  C67  1  0.00290000  0.16890000  0.66640000  1.0 0.1761758638
C  C68  1  0.16890000  0.00290000  0.83360000  1.0 0.1761758638
C  C69  1  0.95330000  0.84810000  0.20630000  1.0 -0.4820693015
C  C70  1  0.84810000  0.95330000  0.29370000  1.0 -0.4852188813
C  C71  1  0.04670000  0.15190000  0.79370000  1.0 -0.4820693015
C  C72  1  0.15190000  0.04670000  0.70630000  1.0 -0.4820693015
C  C73  1  0.04070000  0.89570000  0.42230000  1.0 -0.4820693015
C  C74  1  0.89570000  0.04070000  0.07770000  1.0 -0.4820693015
C  C75  1  0.95930000  0.10430000  0.57770000  1.0 -0.4820693015
C  C76  1  0.10430000  0.95930000  0.92230000  1.0 -0.4820693015
C  C77  1  0.52600000  0.27600000  0.76000000  1.0 0.0792016008
C  C78  1  0.27600000  0.52600000  0.74000000  1.0 0.0792016008
C  C79  1  0.47400000  0.72400000  0.24000000  1.0 0.0792016008
C  C80  1  0.72400000  0.47400000  0.26000000  1.0 0.0792016008
C  C81  1  0.46340000  0.23780000  0.65500000  1.0 0.1004191593
C  C82  1  0.23780000  0.46340000  0.84500000  1.0 0.1004191593
C  C83  1  0.53660000  0.76220000  0.34500000  1.0 0.1004191593
C  C84  1  0.76220000  0.53660000  0.15500000  1.0 0.1004191593
C  C85  1  0.35790000  0.22930000  0.55140000  1.0 0.2536454809
C  C86  1  0.22930000  0.35790000  0.94860000  1.0 0.2536454809
C  C87  1  0.64210000  0.77070000  0.44860000  1.0 0.2536454809
C  C88  1  0.77070000  0.64210000  0.05140000  1.0 0.2536454809
C  C89  1  0.33670000  0.17750000  0.45950000  1.0 -0.3289857793
C  C90  1  0.17750000  0.33670000  0.04050000  1.0 -0.3289857793
C  C91  1  0.66330000  0.82250000  0.54050000  1.0 -0.3289857793
C  C92  1  0.82250000  0.66330000  0.95950000  1.0 -0.3289857793
C  C93  1  0.27490000  0.15750000  0.36460000  1.0 -0.1263798016
C  C94  1  0.15750000  0.27490000  0.13540000  1.0 -0.1263798016
C  C95  1  0.72510000  0.84250000  0.63540000  1.0 -0.1263798016
C  C96  1  0.84250000  0.72510000  0.86460000  1.0 -0.1263798016
C  C97  1  0.23630000  0.18870000  0.35620000  1.0 0.0422701271
C  C98  1  0.18870000  0.23630000  0.14380000  1.0 0.0422701271
C  C99  1  0.76370000  0.81130000  0.64380000  1.0 0.0422701271
C  C100  1  0.81130000  0.76370000  0.85620000  1.0 0.0422701271
C  C101  1  0.25910000  0.23970000  0.45270000  1.0 -0.122213273
C  C102  1  0.23970000  0.25910000  0.04730000  1.0 -0.122213273
C  C103  1  0.74090000  0.76030000  0.54730000  1.0 -0.122213273
C  C104  1  0.76030000  0.74090000  0.95270000  1.0 -0.122213273
C  C105  1  0.31750000  0.25830000  0.55410000  1.0 -0.2515705048
C  C106  1  0.25830000  0.31750000  0.94590000  1.0 -0.2515705048
C  C107  1  0.68250000  0.74170000  0.44590000  1.0 -0.2515705048
C  C108  1  0.74170000  0.68250000  0.05410000  1.0 -0.2515705048
C  C109  1  0.17210000  0.17210000  0.25000000  1.0 0.1693470788
C  C110  1  0.82790000  0.82790000  0.75000000  1.0 0.1693470788
C  C111  1  0.15020000  0.11140000  0.15920000  1.0 -0.4820693015
C  C112  1  0.11140000  0.15020000  0.34080000  1.0 -0.4820693015
C  C113  1  0.84980000  0.88860000  0.84080000  1.0 -0.4820693015
C  C114  1  0.88860000  0.84980000  0.65920000  1.0 -0.4820693015
C  C115  1  0.51600000  0.22400000  0.76500000  1.0 0.2381031749
C  C116  1  0.22400000  0.51600000  0.73500000  1.0 0.2381031749
C  C117  1  0.48400000  0.77600000  0.23500000  1.0 0.2381031749
C  C118  1  0.77600000  0.48400000  0.26500000  1.0 0.2381031749
C  C119  1  0.44900000  0.19500000  0.66300000  1.0 -0.1015863406
C  C120  1  0.19500000  0.44900000  0.83700000  1.0 -0.1015863406
C  C121  1  0.55100000  0.80500000  0.33700000  1.0 -0.1015863406
C  C122  1  0.80500000  0.55100000  0.16300000  1.0 -0.1015863406
O  O1  1  0.69400000  0.41240000  0.73200000  1.0 -0.2890819895
O  O2  1  0.41240000  0.69400000  0.76800000  1.0 -0.2890819895
O  O3  1  0.30600000  0.58760000  0.26800000  1.0 -0.2890819895
O  O4  1  0.58760000  0.30600000  0.23200000  1.0 -0.2890819895
O  O5  1  0.78520000  0.46580000  0.89300000  1.0 -0.2515705048
O  O6  1  0.46580000  0.78520000  0.60700000  1.0 -0.2515705048
O  O7  1  0.21480000  0.53420000  0.10700000  1.0 -0.2515705048
O  O8  1  0.53420000  0.21480000  0.39300000  1.0 -0.2515705048
O  O9  1  0.84410000  0.57750000  0.70860000  1.0 -0.242070616
O  O10  1  0.57750000  0.84410000  0.79140000  1.0 -0.242070616
O  O11  1  0.15590000  0.42250000  0.29140000  1.0 -0.242070616
O  O12  1  0.42250000  0.15590000  0.20860000  1.0 -0.242070616
O  O13  1  0.30030000  0.72810000  0.20350000  1.0 -0.5646482098
O  O14  1  0.72810000  0.30030000  0.29650000  1.0 -0.5646482098
O  O15  1  0.69970000  0.27190000  0.79650000  1.0 -0.5646482098
O  O16  1  0.27190000  0.69970000  0.70350000  1.0 -0.5646482098
O  O17  1  0.21410000  0.68650000  0.02870000  1.0 -0.5476030993
O  O18  1  0.68650000  0.21410000  0.47130000  1.0 -0.5476030993
O  O19  1  0.78590000  0.31350000  0.97130000  1.0 -0.5476030993
O  O20  1  0.31350000  0.78590000  0.52870000  1.0 -0.5476030993
O  O21  1  0.15560000  0.74480000  0.11650000  1.0 -0.1930961671
O  O22  1  0.74480000  0.15560000  0.38350000  1.0 -0.1930961671
O  O23  1  0.84440000  0.25520000  0.88350000  1.0 -0.1930961671
O  O24  1  0.25520000  0.84440000  0.61650000  1.0 -0.1930961671
O  O25  1  0.57520000  0.27260000  0.73890000  1.0 -0.0838990181
O  O26  1  0.27260000  0.57520000  0.76110000  1.0 -0.0838990181
O  O27  1  0.42480000  0.72740000  0.26110000  1.0 -0.0838990181
O  O28  1  0.72740000  0.42480000  0.23890000  1.0 -0.0838990181
O  O29  1  0.53050000  0.31150000  0.85520000  1.0 -0.160687356
O  O30  1  0.31150000  0.53050000  0.64480000  1.0 -0.160687356
O  O31  1  0.46950000  0.68850000  0.14480000  1.0 -0.160687356
O  O32  1  0.68850000  0.46950000  0.35520000  1.0 -0.160687356
O  O33  1  0.41430000  0.25670000  0.66600000  1.0 -0.0599784168
O  O34  1  0.25670000  0.41430000  0.83400000  1.0 -0.0599784168
O  O35  1  0.58570000  0.74330000  0.33400000  1.0 -0.0599784168
O  O36  1  0.74330000  0.58570000  0.16600000  1.0 -0.0599784168
O  O37  1  0.68790000  0.44730000  0.82300000  1.0 -0.3117780971
O  O38  1  0.44730000  0.68790000  0.67700000  1.0 -0.3117780971
O  O39  1  0.31210000  0.55270000  0.17700000  1.0 -0.3117780971
O  O40  1  0.55270000  0.31210000  0.32300000  1.0 -0.3117780971
O  O41  1  0.78080000  0.44120000  0.83400000  1.0 -0.1082506019
O  O42  1  0.44120000  0.78080000  0.66600000  1.0 -0.1082506019
O  O43  1  0.21920000  0.55880000  0.16600000  1.0 -0.1082506019
O  O44  1  0.55880000  0.21920000  0.33400000  1.0 -0.1082506019
O  O45  1  0.54400000  0.28800000  0.77000000  1.0 0.0470952148
O  O46  1  0.28800000  0.54400000  0.73000000  1.0 0.0470952148
O  O47  1  0.45600000  0.71200000  0.23000000  1.0 0.0470952148
O  O48  1  0.71200000  0.45600000  0.27000000  1.0 0.0470952148
O  O49  1  0.53600000  0.18820000  0.84000000  1.0 -0.3807052958
O  O50  1  0.18820000  0.53600000  0.66000000  1.0 -0.3807052958
O  O51  1  0.46400000  0.81180000  0.16000000  1.0 -0.3807052958
O  O52  1  0.81180000  0.46400000  0.34000000  1.0 -0.3807052958
O  O53  1  0.42440000  0.24160000  0.61700000  1.0 0.001448457
O  O54  1  0.24160000  0.42440000  0.88300000  1.0 0.001448457
O  O55  1  0.57560000  0.75840000  0.38300000  1.0 0.001448457
O  O56  1  0.75840000  0.57560000  0.11700000  1.0 0.001448457
