# DDEC6 charges by PACMAN v1.1 (https://github.com/mtap-research/PACMAN-charge/)
data_YAJZIV_FSR_pacman
_symmetry_space_group_name_H-M   'P 1'
_cell_length_a   10.26150000
_cell_length_b   10.26150000
_cell_length_c   22.20270000
_cell_angle_alpha   70.01070000
_cell_angle_beta   109.98900000
_cell_angle_gamma   126.04400000
_symmetry_Int_Tables_number   1
_chemical_formula_structural   KDyH4C9SO11
_chemical_formula_sum   'K4 Dy4 H16 C36 S4 O44'
_cell_volume   1745.75161571
_cell_formula_units_Z   4
loop_
 _symmetry_equiv_pos_site_id
 _symmetry_equiv_pos_as_xyz
  1  'x, y, z'
loop_
 _atom_site_type_symbol
 _atom_site_label
 _atom_site_symmetry_multiplicity
 _atom_site_fract_x
 _atom_site_fract_y
 _atom_site_fract_z
 _atom_site_occupancy
 _atom_site_charge
K  K1  1  0.28966000  0.75274000  0.98604000  1.0 0.9052839154
K  K2  1  0.75274000  0.28966000  0.51396000  1.0 0.9052839154
K  K3  1  0.71034000  0.24726000  0.01396000  1.0 0.9052839154
K  K4  1  0.24726000  0.71034000  0.48604000  1.0 0.9052839154
Dy  Dy1  1  0.96309000  0.43311000  0.85859000  1.0 1.9837681525
Dy  Dy2  1  0.43311000  0.96309000  0.64141000  1.0 1.9837681525
Dy  Dy3  1  0.03691000  0.56689000  0.14141000  1.0 1.9837681525
Dy  Dy4  1  0.56689000  0.03691000  0.35859000  1.0 1.9837681525
H  H1  1  0.80300000  0.89040000  0.98860000  1.0 0.1485059732
H  H2  1  0.89040000  0.80300000  0.51140000  1.0 0.1485059732
H  H3  1  0.19700000  0.10960000  0.01140000  1.0 0.1485059732
H  H4  1  0.10960000  0.19700000  0.48860000  1.0 0.1485059732
H  H5  1  0.86430000  0.24510000  0.76950000  1.0 0.4031402939
H  H6  1  0.24510000  0.86430000  0.73050000  1.0 0.4031402939
H  H7  1  0.13570000  0.75490000  0.23050000  1.0 0.4031402939
H  H8  1  0.75490000  0.13570000  0.26950000  1.0 0.4031402939
H  H9  1  0.01900000  0.37880000  0.75910000  1.0 0.3891072371
H  H10  1  0.37880000  0.01900000  0.74090000  1.0 0.3891072371
H  H11  1  0.98100000  0.62120000  0.24090000  1.0 0.3891072371
H  H12  1  0.62120000  0.98100000  0.25910000  1.0 0.3891072371
H  H13  1  0.73140000  0.73280000  0.80060000  1.0 0.1430481957
H  H14  1  0.73280000  0.73140000  0.69940000  1.0 0.1430481957
H  H15  1  0.26860000  0.26720000  0.19940000  1.0 0.1430481957
H  H16  1  0.26720000  0.26860000  0.30060000  1.0 0.1430481957
C  C1  1  0.70960000  0.90700000  0.89180000  1.0 -0.0926306262
C  C2  1  0.90700000  0.70960000  0.60820000  1.0 -0.0926306262
C  C3  1  0.29040000  0.09300000  0.10820000  1.0 -0.0926306262
C  C4  1  0.09300000  0.29040000  0.39180000  1.0 -0.0926306262
C  C5  1  0.92910000  0.70850000  0.01950000  1.0 0.5541605625
C  C6  1  0.70850000  0.92910000  0.48050000  1.0 0.5541605625
C  C7  1  0.07090000  0.29150000  0.98050000  1.0 0.5596435302
C  C8  1  0.29150000  0.07090000  0.51950000  1.0 0.5541605625
C  C9  1  0.85250000  0.76770000  0.95370000  1.0 -0.033088061
C  C10  1  0.76770000  0.85250000  0.54630000  1.0 -0.033088061
C  C11  1  0.14750000  0.23230000  0.04630000  1.0 -0.033088061
C  C12  1  0.23230000  0.14750000  0.45370000  1.0 -0.033088061
C  C13  1  0.68750000  0.86050000  0.83440000  1.0 0.010974607
C  C14  1  0.86050000  0.68750000  0.66560000  1.0 0.010974607
C  C15  1  0.31250000  0.13950000  0.16560000  1.0 0.010974607
C  C16  1  0.13950000  0.31250000  0.33440000  1.0 0.010974607
C  C17  1  0.83200000  0.72080000  0.89750000  1.0 0.0033161921
C  C18  1  0.72080000  0.83200000  0.60250000  1.0 0.0033161921
C  C19  1  0.16800000  0.27920000  0.10250000  1.0 0.0033161921
C  C20  1  0.27920000  0.16800000  0.39750000  1.0 0.0033161921
C  C21  1  0.78980000  0.85900000  0.94980000  1.0 -0.0777291092
C  C22  1  0.85900000  0.78980000  0.55020000  1.0 -0.0777291092
C  C23  1  0.21020000  0.14100000  0.05020000  1.0 -0.0777291092
C  C24  1  0.14100000  0.21020000  0.44980000  1.0 -0.0777291092
C  C25  1  0.88760000  0.61820000  0.89350000  1.0 0.5932695144
C  C26  1  0.61820000  0.88760000  0.60650000  1.0 0.5932695144
C  C27  1  0.11240000  0.38180000  0.10650000  1.0 0.5932695144
C  C28  1  0.38180000  0.11240000  0.39350000  1.0 0.5932695144
C  C29  1  0.74790000  0.76730000  0.83900000  1.0 -0.1303412444
C  C30  1  0.76730000  0.74790000  0.66100000  1.0 -0.1303412444
C  C31  1  0.25210000  0.23270000  0.16100000  1.0 -0.1303412444
C  C32  1  0.23270000  0.25210000  0.33900000  1.0 -0.1303412444
C  C33  1  0.60180000  0.90300000  0.76830000  1.0 0.5596435302
C  C34  1  0.90300000  0.60180000  0.73170000  1.0 0.5596435302
C  C35  1  0.39820000  0.09700000  0.23170000  1.0 0.5596435302
C  C36  1  0.09700000  0.39820000  0.26830000  1.0 0.5596435302
S  S1  1  0.61790000  0.00976000  0.89203000  1.0 1.2144674533
S  S2  1  0.00976000  0.61790000  0.60797000  1.0 1.2154485458
S  S3  1  0.38210000  0.99024000  0.10797000  1.0 1.2154485458
S  S4  1  0.99024000  0.38210000  0.39203000  1.0 1.2144674533
O  O1  1  0.97400000  0.61540000  0.02190000  1.0 -0.6494749314
O  O2  1  0.61540000  0.97400000  0.47810000  1.0 -0.6494749314
O  O3  1  0.02600000  0.38460000  0.97810000  1.0 -0.6494749314
O  O4  1  0.38460000  0.02600000  0.52190000  1.0 -0.6494749314
O  O5  1  0.61990000  0.99290000  0.95950000  1.0 -0.6656869179
O  O6  1  0.99290000  0.61990000  0.54050000  1.0 -0.664506746
O  O7  1  0.38010000  0.00710000  0.04050000  1.0 -0.664506746
O  O8  1  0.00710000  0.38010000  0.45950000  1.0 -0.6656869179
O  O9  1  0.65230000  0.05070000  0.74150000  1.0 -0.5573731446
O  O10  1  0.05070000  0.65230000  0.75850000  1.0 -0.5573731446
O  O11  1  0.34770000  0.94930000  0.25850000  1.0 -0.5573731446
O  O12  1  0.94930000  0.34770000  0.24150000  1.0 -0.5573731446
O  O13  1  0.78520000  0.46700000  0.89530000  1.0 -0.6236782796
O  O14  1  0.46700000  0.78520000  0.60470000  1.0 -0.6236782796
O  O15  1  0.21480000  0.53300000  0.10470000  1.0 -0.6236782796
O  O16  1  0.53300000  0.21480000  0.39530000  1.0 -0.6236782796
O  O17  1  0.94580000  0.75080000  0.06930000  1.0 -0.5549979932
O  O18  1  0.75080000  0.94580000  0.43070000  1.0 -0.5573731446
O  O19  1  0.05420000  0.24920000  0.93070000  1.0 -0.5573731446
O  O20  1  0.24920000  0.05420000  0.56930000  1.0 -0.5573731446
O  O21  1  0.48480000  0.78780000  0.73930000  1.0 -0.5717553026
O  O22  1  0.78780000  0.48480000  0.76070000  1.0 -0.5717553026
O  O23  1  0.51520000  0.21220000  0.26070000  1.0 -0.5717553026
O  O24  1  0.21220000  0.51520000  0.23930000  1.0 -0.5717553026
O  O25  1  0.71580000  0.18120000  0.86170000  1.0 -0.6936321236
O  O26  1  0.18120000  0.71580000  0.63830000  1.0 -0.6936321236
O  O27  1  0.28420000  0.81880000  0.13830000  1.0 -0.6936321236
O  O28  1  0.81880000  0.28420000  0.36170000  1.0 -0.6936321236
O  O29  1  0.02820000  0.68460000  0.88240000  1.0 -0.6098308689
O  O30  1  0.68460000  0.02820000  0.61760000  1.0 -0.6098308689
O  O31  1  0.97180000  0.31540000  0.11760000  1.0 -0.6098308689
O  O32  1  0.31540000  0.97180000  0.38240000  1.0 -0.6098308689
O  O33  1  0.96230000  0.30570000  0.78790000  1.0 -0.7332250006
O  O34  1  0.30570000  0.96230000  0.71210000  1.0 -0.7332250006
O  O35  1  0.03770000  0.69430000  0.21210000  1.0 -0.7332250006
O  O36  1  0.69430000  0.03770000  0.28790000  1.0 -0.7332250006
O  O37  1  0.45510000  0.92870000  0.85350000  1.0 -0.513193605
O  O38  1  0.92870000  0.45510000  0.64650000  1.0 -0.513193605
O  O39  1  0.54490000  0.07130000  0.14650000  1.0 -0.513193605
O  O40  1  0.07130000  0.54490000  0.35350000  1.0 -0.513193605
O  O41  1  0.25240000  0.58780000  0.87610000  1.0 -0.4027184299
O  O42  1  0.58780000  0.25240000  0.62390000  1.0 -0.4027184299
O  O43  1  0.74760000  0.41220000  0.12390000  1.0 -0.4027184299
O  O44  1  0.41220000  0.74760000  0.37610000  1.0 -0.4027184299
