# DDEC6 charges by PACMAN v1.1 (https://github.com/mtap-research/PACMAN-charge/)
data_YAKCUM_ASR_pacman
_symmetry_space_group_name_H-M   'P 1'
_cell_length_a   23.19600000
_cell_length_b   23.76000000
_cell_length_c   31.48900000
_cell_angle_alpha   90.00000000
_cell_angle_beta   90.00000000
_cell_angle_gamma   90.00000000
_symmetry_Int_Tables_number   1
_chemical_formula_structural   Ca2Cu10H30C50N10O53
_chemical_formula_sum   'Ca8 Cu40 H120 C200 N40 O212'
_cell_volume   17354.75173344
_cell_formula_units_Z   4
loop_
 _symmetry_equiv_pos_site_id
 _symmetry_equiv_pos_as_xyz
  1  'x, y, z'
loop_
 _atom_site_type_symbol
 _atom_site_label
 _atom_site_symmetry_multiplicity
 _atom_site_fract_x
 _atom_site_fract_y
 _atom_site_fract_z
 _atom_site_occupancy
 _atom_site_charge
Ca  Ca1  1  0.85144000  0.07203000  0.98016000  1.0 1.1457345073
Ca  Ca2  1  0.66377000  0.51969000  0.62295000  1.0 0.9910190139
Ca  Ca3  1  0.64856000  0.92797000  0.48016000  1.0 1.1457345073
Ca  Ca4  1  0.83623000  0.48031000  0.12295000  1.0 0.9910190139
Ca  Ca5  1  0.14856000  0.57203000  0.51984000  1.0 1.1425702755
Ca  Ca6  1  0.33623000  0.01969000  0.87705000  1.0 0.9910190139
Ca  Ca7  1  0.35144000  0.42797000  0.01984000  1.0 1.1425702755
Ca  Ca8  1  0.16377000  0.98031000  0.37705000  1.0 0.9910190139
Cu  Cu1  1  0.22582000  0.99632000  0.54135000  1.0 0.8493578567
Cu  Cu2  1  0.83838000  0.27390000  0.83917000  1.0 0.8318562988
Cu  Cu3  1  0.98466000  0.42046000  0.41000000  1.0 0.8493578567
Cu  Cu4  1  0.25288000  0.02578000  0.70537000  1.0 0.842135388
Cu  Cu5  1  0.06293000  0.81042000  0.47453000  1.0 0.9265565459
Cu  Cu6  1  0.98325000  0.55233000  0.54312000  1.0 0.8136779253
Cu  Cu7  1  0.16211000  0.63306000  0.40703000  1.0 0.8236990009
Cu  Cu8  1  0.62865000  0.09157000  0.83858000  1.0 0.8690864925
Cu  Cu9  1  0.70376000  0.27819000  0.70559000  1.0 0.8493578567
Cu  Cu10  1  0.44563000  0.18526000  0.77027000  1.0 0.9507819597
Cu  Cu11  1  0.27418000  0.00368000  0.04135000  1.0 0.8493578567
Cu  Cu12  1  0.66162000  0.72610000  0.33917000  1.0 0.8318562988
Cu  Cu13  1  0.51534000  0.57954000  0.91000000  1.0 0.8493578567
Cu  Cu14  1  0.24712000  0.97422000  0.20537000  1.0 0.842135388
Cu  Cu15  1  0.43707000  0.18958000  0.97453000  1.0 0.9265565459
Cu  Cu16  1  0.51675000  0.44767000  0.04312000  1.0 0.8136779253
Cu  Cu17  1  0.33789000  0.36694000  0.90703000  1.0 0.8236990009
Cu  Cu18  1  0.87135000  0.90843000  0.33858000  1.0 0.8690864925
Cu  Cu19  1  0.79624000  0.72181000  0.20559000  1.0 0.8493578567
Cu  Cu20  1  0.05437000  0.81474000  0.27027000  1.0 0.9507819597
Cu  Cu21  1  0.77418000  0.49632000  0.95865000  1.0 0.8493578567
Cu  Cu22  1  0.16162000  0.77390000  0.66083000  1.0 0.8318562988
Cu  Cu23  1  0.01534000  0.92046000  0.09000000  1.0 0.8493578567
Cu  Cu24  1  0.74712000  0.52578000  0.79463000  1.0 0.842135388
Cu  Cu25  1  0.93707000  0.31042000  0.02547000  1.0 0.9265565459
Cu  Cu26  1  0.01675000  0.05233000  0.95688000  1.0 0.8136779253
Cu  Cu27  1  0.83789000  0.13306000  0.09297000  1.0 0.8236990009
Cu  Cu28  1  0.37135000  0.59157000  0.66142000  1.0 0.8690864925
Cu  Cu29  1  0.29624000  0.77819000  0.79441000  1.0 0.8493578567
Cu  Cu30  1  0.55437000  0.68526000  0.72973000  1.0 0.9507819597
Cu  Cu31  1  0.72582000  0.50368000  0.45865000  1.0 0.8493578567
Cu  Cu32  1  0.33838000  0.22610000  0.16083000  1.0 0.8318562988
Cu  Cu33  1  0.48466000  0.07954000  0.59000000  1.0 0.8493578567
Cu  Cu34  1  0.75288000  0.47422000  0.29463000  1.0 0.842135388
Cu  Cu35  1  0.56293000  0.68958000  0.52547000  1.0 0.9265565459
Cu  Cu36  1  0.48325000  0.94767000  0.45688000  1.0 0.8136779253
Cu  Cu37  1  0.66211000  0.86694000  0.59297000  1.0 0.8236990009
Cu  Cu38  1  0.12865000  0.40843000  0.16142000  1.0 0.8690864925
Cu  Cu39  1  0.20376000  0.22181000  0.29441000  1.0 0.8493578567
Cu  Cu40  1  0.94563000  0.31474000  0.22973000  1.0 0.9507819597
H  H1  1  0.11574000  0.94053000  0.62059000  1.0 0.11857788
H  H2  1  0.08320000  0.89079000  0.55997000  1.0 0.1574094174
H  H3  1  0.09529000  0.95514000  0.54823000  1.0 0.1417655261
H  H4  1  0.31157000  0.13104000  0.62658000  1.0 0.11857788
H  H5  1  0.36520000  0.16274000  0.68755000  1.0 0.1510797326
H  H6  1  0.29887000  0.15406000  0.69996000  1.0 0.1417655261
H  H7  1  0.81996000  0.38964000  0.71803000  1.0 0.11857788
H  H8  1  0.77546000  0.37474000  0.65230000  1.0 0.1417655261
H  H9  1  0.76307000  0.43841000  0.66610000  1.0 0.1417655261
H  H10  1  0.79178000  0.13971000  0.78440000  1.0 0.1320148469
H  H11  1  0.87169000  0.14639000  0.83283000  1.0 0.1417655261
H  H12  1  0.82741000  0.09854000  0.84788000  1.0 0.1574094174
H  H13  1  0.52907000  0.20718000  0.65336000  1.0 0.1417655261
H  H14  1  0.48291000  0.16481000  0.67339000  1.0 0.1510797326
H  H15  1  0.48003000  0.06439000  0.88196000  1.0 0.1085353136
H  H16  1  0.53381000  0.02478000  0.94101000  1.0 0.1574094174
H  H17  1  0.56303000  0.00449000  0.89746000  1.0 0.1510797326
H  H18  1  0.10753000  0.69057000  0.54129000  1.0 0.1031254042
H  H19  1  0.03941000  0.72935000  0.59132000  1.0 0.1417655261
H  H20  1  0.08288000  0.77511000  0.57250000  1.0 0.1510797326
H  H21  1  0.18468000  0.77965000  0.36133000  1.0 0.1320148469
H  H22  1  0.24651000  0.69992000  0.35061000  1.0 0.1417655261
H  H23  1  0.22753000  0.72585000  0.30583000  1.0 0.1574094174
H  H24  1  0.12294000  0.47022000  0.46014000  1.0 0.0859020237
H  H25  1  0.16416000  0.43728000  0.39592000  1.0 0.1574094174
H  H26  1  0.11848000  0.39201000  0.41291000  1.0 0.1417655261
H  H27  1  0.87093000  0.43488000  0.53278000  1.0 0.11857788
H  H28  1  0.82600000  0.49124000  0.58738000  1.0 0.1574094174
H  H29  1  0.89289000  0.48219000  0.59718000  1.0 0.1417655261
H  H30  1  0.57177000  0.14526000  0.70474000  1.0 0.11857788
H  H31  1  0.38426000  0.05947000  0.12059000  1.0 0.11857788
H  H32  1  0.41680000  0.10921000  0.05997000  1.0 0.1574094174
H  H33  1  0.40471000  0.04486000  0.04823000  1.0 0.1417655261
H  H34  1  0.18843000  0.86896000  0.12658000  1.0 0.11857788
H  H35  1  0.13480000  0.83726000  0.18755000  1.0 0.1510797326
H  H36  1  0.20113000  0.84594000  0.19996000  1.0 0.1417655261
H  H37  1  0.68004000  0.61036000  0.21803000  1.0 0.11857788
H  H38  1  0.72454000  0.62526000  0.15230000  1.0 0.1417655261
H  H39  1  0.73693000  0.56159000  0.16610000  1.0 0.1417655261
H  H40  1  0.70822000  0.86029000  0.28440000  1.0 0.1320148469
H  H41  1  0.62831000  0.85361000  0.33283000  1.0 0.1417655261
H  H42  1  0.67259000  0.90146000  0.34788000  1.0 0.1574094174
H  H43  1  0.97093000  0.79282000  0.15336000  1.0 0.1417655261
H  H44  1  0.01709000  0.83519000  0.17339000  1.0 0.1510797326
H  H45  1  0.01997000  0.93561000  0.38196000  1.0 0.1085353136
H  H46  1  0.96619000  0.97522000  0.44101000  1.0 0.1574094174
H  H47  1  0.93697000  0.99551000  0.39746000  1.0 0.1510797326
H  H48  1  0.39247000  0.30943000  0.04129000  1.0 0.1031254042
H  H49  1  0.46059000  0.27065000  0.09132000  1.0 0.1417655261
H  H50  1  0.41712000  0.22489000  0.07250000  1.0 0.1510797326
H  H51  1  0.31532000  0.22035000  0.86133000  1.0 0.1320148469
H  H52  1  0.25349000  0.30008000  0.85061000  1.0 0.1320148469
H  H53  1  0.27247000  0.27415000  0.80583000  1.0 0.1574094174
H  H54  1  0.37706000  0.52978000  0.96014000  1.0 0.0859020237
H  H55  1  0.33584000  0.56272000  0.89592000  1.0 0.1574094174
H  H56  1  0.38152000  0.60799000  0.91291000  1.0 0.1417655261
H  H57  1  0.62907000  0.56512000  0.03278000  1.0 0.11857788
H  H58  1  0.67400000  0.50876000  0.08738000  1.0 0.1574094174
H  H59  1  0.60711000  0.51781000  0.09718000  1.0 0.1417655261
H  H60  1  0.92823000  0.85474000  0.20474000  1.0 0.11857788
H  H61  1  0.88426000  0.44053000  0.87941000  1.0 0.11857788
H  H62  1  0.91680000  0.39079000  0.94003000  1.0 0.1574094174
H  H63  1  0.90471000  0.45514000  0.95177000  1.0 0.1417655261
H  H64  1  0.68843000  0.63104000  0.87342000  1.0 0.11857788
H  H65  1  0.63480000  0.66274000  0.81245000  1.0 0.1510797326
H  H66  1  0.70113000  0.65406000  0.80004000  1.0 0.1417655261
H  H67  1  0.18004000  0.88964000  0.78197000  1.0 0.11857788
H  H68  1  0.22454000  0.87474000  0.84770000  1.0 0.1417655261
H  H69  1  0.23693000  0.93841000  0.83390000  1.0 0.1417655261
H  H70  1  0.20822000  0.63971000  0.71560000  1.0 0.1320148469
H  H71  1  0.12831000  0.64639000  0.66717000  1.0 0.1417655261
H  H72  1  0.17259000  0.59854000  0.65212000  1.0 0.1574094174
H  H73  1  0.47093000  0.70718000  0.84664000  1.0 0.1417655261
H  H74  1  0.51709000  0.66481000  0.82661000  1.0 0.1510797326
H  H75  1  0.51997000  0.56439000  0.61804000  1.0 0.1085353136
H  H76  1  0.46619000  0.52478000  0.55899000  1.0 0.1652718667
H  H77  1  0.43697000  0.50449000  0.60254000  1.0 0.1510797326
H  H78  1  0.89247000  0.19057000  0.95871000  1.0 0.1031254042
H  H79  1  0.96059000  0.22935000  0.90868000  1.0 0.1417655261
H  H80  1  0.91712000  0.27511000  0.92750000  1.0 0.1510797326
H  H81  1  0.81532000  0.27965000  0.13867000  1.0 0.1320148469
H  H82  1  0.75349000  0.19992000  0.14939000  1.0 0.1320148469
H  H83  1  0.77247000  0.22585000  0.19417000  1.0 0.1574094174
H  H84  1  0.87706000  0.97022000  0.03986000  1.0 0.0859020237
H  H85  1  0.83584000  0.93728000  0.10408000  1.0 0.1574094174
H  H86  1  0.88152000  0.89201000  0.08709000  1.0 0.1417655261
H  H87  1  0.12907000  0.93488000  0.96722000  1.0 0.11857788
H  H88  1  0.17400000  0.99124000  0.91262000  1.0 0.1574094174
H  H89  1  0.10711000  0.98219000  0.90282000  1.0 0.1417655261
H  H90  1  0.42823000  0.64526000  0.79526000  1.0 0.11857788
H  H91  1  0.61574000  0.55947000  0.37941000  1.0 0.11857788
H  H92  1  0.58320000  0.60921000  0.44003000  1.0 0.1574094174
H  H93  1  0.59529000  0.54486000  0.45177000  1.0 0.1417655261
H  H94  1  0.81157000  0.36896000  0.37342000  1.0 0.11857788
H  H95  1  0.86520000  0.33726000  0.31245000  1.0 0.1510797326
H  H96  1  0.79887000  0.34594000  0.30004000  1.0 0.1417655261
H  H97  1  0.31996000  0.11036000  0.28197000  1.0 0.11857788
H  H98  1  0.27546000  0.12526000  0.34770000  1.0 0.1417655261
H  H99  1  0.26307000  0.06159000  0.33390000  1.0 0.1417655261
H  H100  1  0.29178000  0.36029000  0.21560000  1.0 0.1320148469
H  H101  1  0.37169000  0.35361000  0.16717000  1.0 0.1417655261
H  H102  1  0.32741000  0.40146000  0.15212000  1.0 0.1574094174
H  H103  1  0.02907000  0.29282000  0.34664000  1.0 0.1417655261
H  H104  1  0.98291000  0.33519000  0.32661000  1.0 0.1510797326
H  H105  1  0.98003000  0.43561000  0.11804000  1.0 0.1085353136
H  H106  1  0.03381000  0.47522000  0.05899000  1.0 0.1574094174
H  H107  1  0.06303000  0.49551000  0.10254000  1.0 0.1510797326
H  H108  1  0.60753000  0.80943000  0.45871000  1.0 0.1031254042
H  H109  1  0.53941000  0.77065000  0.40868000  1.0 0.1417655261
H  H110  1  0.58288000  0.72489000  0.42750000  1.0 0.1510797326
H  H111  1  0.68468000  0.72035000  0.63867000  1.0 0.1320148469
H  H112  1  0.74651000  0.80008000  0.64939000  1.0 0.1320148469
H  H113  1  0.72753000  0.77415000  0.69417000  1.0 0.1574094174
H  H114  1  0.62294000  0.02978000  0.53986000  1.0 0.0859020237
H  H115  1  0.66416000  0.06272000  0.60408000  1.0 0.1574094174
H  H116  1  0.61848000  0.10799000  0.58709000  1.0 0.1417655261
H  H117  1  0.37093000  0.06512000  0.46722000  1.0 0.11857788
H  H118  1  0.32600000  0.00876000  0.41262000  1.0 0.1574094174
H  H119  1  0.39289000  0.01781000  0.40282000  1.0 0.1417655261
H  H120  1  0.07177000  0.35474000  0.29526000  1.0 0.11857788
C  C1  1  0.21050000  0.99750000  0.62860000  1.0 0.3695071805
C  C2  1  0.25510000  0.04040000  0.61780000  1.0 0.3761133585
C  C3  1  0.14500000  0.92750000  0.59940000  1.0 0.0395380696
C  C4  1  0.11400000  0.91930000  0.55630000  1.0 -0.3503942444
C  C5  1  0.15380000  0.90040000  0.51980000  1.0 0.6603856717
C  C6  1  0.32400000  0.10270000  0.64820000  1.0 0.0469250039
C  C7  1  0.33460000  0.13420000  0.69150000  1.0 -0.3503942444
C  C8  1  0.35260000  0.09330000  0.72740000  1.0 0.6603856717
C  C9  1  0.82780000  0.50240000  0.50220000  1.0 0.5774828378
C  C10  1  0.75180000  0.42850000  0.75050000  1.0 0.5695862332
C  C11  1  0.77390000  0.24410000  0.77050000  1.0 0.3280031193
C  C12  1  0.78740000  0.30400000  0.76390000  1.0 0.3695071805
C  C13  1  0.77700000  0.38560000  0.71810000  1.0 0.0395380696
C  C14  1  0.75460000  0.39860000  0.67300000  1.0 -0.3610811051
C  C15  1  0.68870000  0.38810000  0.66840000  1.0 0.6685687586
C  C16  1  0.78730000  0.16140000  0.81140000  1.0 0.0209625136
C  C17  1  0.72820000  0.15310000  0.82730000  1.0 0.5695862332
C  C18  1  0.83230000  0.13960000  0.84380000  1.0 -0.3503942444
C  C19  1  0.82430000  0.17070000  0.88740000  1.0 0.6685687586
C  C20  1  0.17050000  0.87210000  0.61540000  1.0 0.5695862332
C  C21  1  0.51870000  0.12510000  0.82130000  1.0 0.3695071805
C  C22  1  0.55300000  0.14000000  0.78240000  1.0 0.3695071805
C  C23  1  0.50790000  0.19750000  0.67970000  1.0 -0.3610811051
C  C24  1  0.47100000  0.24620000  0.69210000  1.0 0.629746731
C  C25  1  0.51720000  0.08300000  0.88980000  1.0 0.0469250039
C  C26  1  0.55530000  0.03760000  0.91560000  1.0 -0.3610811051
C  C27  1  0.61170000  0.06410000  0.92910000  1.0 0.6685687586
C  C28  1  0.10990000  0.70570000  0.46160000  1.0 0.3695071805
C  C29  1  0.12520000  0.74010000  0.42370000  1.0 0.3619682674
C  C30  1  0.07040000  0.70700000  0.53090000  1.0 0.0395380696
C  C31  1  0.05000000  0.75030000  0.56530000  1.0 -0.3702707853
C  C32  1  0.00100000  0.78560000  0.55270000  1.0 0.629746731
C  C33  1  0.02800000  0.65940000  0.52770000  1.0 0.5695862332
C  C34  1  0.16750000  0.74230000  0.35390000  1.0 0.0015106382
C  C35  1  0.11720000  0.75070000  0.32720000  1.0 0.5478268448
C  C36  1  0.21340000  0.70570000  0.33130000  1.0 -0.3297477554
C  C37  1  0.18900000  0.64700000  0.31760000  1.0 0.6453172747
C  C38  1  0.50330000  0.13140000  0.91950000  1.0 0.5594984625
C  C39  1  0.95620000  0.47140000  0.48580000  1.0 0.353421453
C  C40  1  0.01690000  0.48860000  0.47680000  1.0 0.3761133585
C  C41  1  0.09940000  0.47430000  0.43370000  1.0 0.0307970416
C  C42  1  0.10650000  0.53440000  0.41850000  1.0 0.5594984625
C  C43  1  0.12260000  0.43040000  0.40100000  1.0 -0.3503942444
C  C44  1  0.09010000  0.43400000  0.35900000  1.0 0.6413706187
C  C45  1  0.87420000  0.47680000  0.53230000  1.0 0.0395380696
C  C46  1  0.86540000  0.50100000  0.57780000  1.0 -0.3503942444
C  C47  1  0.87310000  0.56360000  0.58190000  1.0 0.6413706187
C  C48  1  0.38280000  0.07620000  0.63330000  1.0 0.5695862332
C  C49  1  0.55230000  0.18050000  0.71460000  1.0 0.0469250039
C  C50  1  0.59970000  0.22610000  0.71980000  1.0 0.5695862332
C  C51  1  0.28950000  0.00250000  0.12860000  1.0 0.3695071805
C  C52  1  0.24490000  0.95960000  0.11780000  1.0 0.3761133585
C  C53  1  0.35500000  0.07250000  0.09940000  1.0 0.0395380696
C  C54  1  0.38600000  0.08070000  0.05630000  1.0 -0.3503942444
C  C55  1  0.34620000  0.09960000  0.01980000  1.0 0.6603856717
C  C56  1  0.17600000  0.89730000  0.14820000  1.0 0.0469250039
C  C57  1  0.16540000  0.86580000  0.19150000  1.0 -0.3503942444
C  C58  1  0.14740000  0.90670000  0.22740000  1.0 0.6603856717
C  C59  1  0.67220000  0.49760000  0.00220000  1.0 0.5774828378
C  C60  1  0.74820000  0.57150000  0.25050000  1.0 0.5695862332
C  C61  1  0.72610000  0.75590000  0.27050000  1.0 0.3280031193
C  C62  1  0.71260000  0.69600000  0.26390000  1.0 0.3695071805
C  C63  1  0.72300000  0.61440000  0.21810000  1.0 0.0395380696
C  C64  1  0.74540000  0.60140000  0.17300000  1.0 -0.3610811051
C  C65  1  0.81130000  0.61190000  0.16840000  1.0 0.6685687586
C  C66  1  0.71270000  0.83860000  0.31140000  1.0 0.0209625136
C  C67  1  0.77180000  0.84690000  0.32730000  1.0 0.5695862332
C  C68  1  0.66770000  0.86040000  0.34380000  1.0 -0.3503942444
C  C69  1  0.67570000  0.82930000  0.38740000  1.0 0.6685687586
C  C70  1  0.32950000  0.12790000  0.11540000  1.0 0.5695862332
C  C71  1  0.98130000  0.87490000  0.32130000  1.0 0.3695071805
C  C72  1  0.94700000  0.86000000  0.28240000  1.0 0.3695071805
C  C73  1  0.99210000  0.80250000  0.17970000  1.0 -0.3610811051
C  C74  1  0.02900000  0.75380000  0.19210000  1.0 0.629746731
C  C75  1  0.98280000  0.91700000  0.38980000  1.0 0.0395380696
C  C76  1  0.94470000  0.96240000  0.41560000  1.0 -0.3610811051
C  C77  1  0.88830000  0.93590000  0.42910000  1.0 0.6685687586
C  C78  1  0.39010000  0.29430000  0.96160000  1.0 0.3695071805
C  C79  1  0.37480000  0.25990000  0.92370000  1.0 0.3619682674
C  C80  1  0.42960000  0.29300000  0.03090000  1.0 0.0395380696
C  C81  1  0.45000000  0.24970000  0.06530000  1.0 -0.3702707853
C  C82  1  0.49900000  0.21440000  0.05270000  1.0 0.629746731
C  C83  1  0.47200000  0.34060000  0.02770000  1.0 0.5695862332
C  C84  1  0.33250000  0.25770000  0.85390000  1.0 0.0015106382
C  C85  1  0.38280000  0.24930000  0.82720000  1.0 0.5478268448
C  C86  1  0.28660000  0.29430000  0.83130000  1.0 -0.3297477554
C  C87  1  0.31100000  0.35300000  0.81760000  1.0 0.6413706187
C  C88  1  0.99670000  0.86860000  0.41950000  1.0 0.5594984625
C  C89  1  0.54380000  0.52860000  0.98580000  1.0 0.353421453
C  C90  1  0.48310000  0.51140000  0.97680000  1.0 0.3761133585
C  C91  1  0.40060000  0.52570000  0.93370000  1.0 0.0307970416
C  C92  1  0.39350000  0.46560000  0.91850000  1.0 0.5594984625
C  C93  1  0.37740000  0.56960000  0.90100000  1.0 -0.3503942444
C  C94  1  0.40990000  0.56600000  0.85900000  1.0 0.6413706187
C  C95  1  0.62580000  0.52320000  0.03230000  1.0 0.0395380696
C  C96  1  0.63460000  0.49900000  0.07780000  1.0 -0.3503942444
C  C97  1  0.62690000  0.43640000  0.08190000  1.0 0.6413706187
C  C98  1  0.11720000  0.92380000  0.13330000  1.0 0.5695862332
C  C99  1  0.94770000  0.81950000  0.21460000  1.0 0.0469250039
C  C100  1  0.90030000  0.77390000  0.21980000  1.0 0.5695862332
C  C101  1  0.78950000  0.49750000  0.87140000  1.0 0.3695071805
C  C102  1  0.74490000  0.54040000  0.88220000  1.0 0.3761133585
C  C103  1  0.85500000  0.42750000  0.90060000  1.0 0.0395380696
C  C104  1  0.88600000  0.41930000  0.94370000  1.0 -0.3503942444
C  C105  1  0.84620000  0.40040000  0.98020000  1.0 0.6603856717
C  C106  1  0.67600000  0.60270000  0.85180000  1.0 0.0469250039
C  C107  1  0.66540000  0.63420000  0.80850000  1.0 -0.3503942444
C  C108  1  0.64740000  0.59330000  0.77260000  1.0 0.6603856717
C  C109  1  0.17220000  0.00240000  0.99780000  1.0 0.5774828378
C  C110  1  0.24820000  0.92850000  0.74950000  1.0 0.5695862332
C  C111  1  0.22610000  0.74410000  0.72950000  1.0 0.3280031193
C  C112  1  0.21260000  0.80400000  0.73610000  1.0 0.3695071805
C  C113  1  0.22300000  0.88560000  0.78190000  1.0 0.0395380696
C  C114  1  0.24540000  0.89860000  0.82700000  1.0 -0.3610811051
C  C115  1  0.31130000  0.88810000  0.83160000  1.0 0.6685687586
C  C116  1  0.21270000  0.66140000  0.68860000  1.0 0.0209625136
C  C117  1  0.27180000  0.65310000  0.67270000  1.0 0.5695862332
C  C118  1  0.16770000  0.63960000  0.65620000  1.0 -0.3503942444
C  C119  1  0.17570000  0.67070000  0.61260000  1.0 0.6685687586
C  C120  1  0.82950000  0.37210000  0.88460000  1.0 0.5695862332
C  C121  1  0.48130000  0.62510000  0.67870000  1.0 0.3695071805
C  C122  1  0.44700000  0.64000000  0.71760000  1.0 0.3695071805
C  C123  1  0.49210000  0.69750000  0.82030000  1.0 -0.3610811051
C  C124  1  0.52900000  0.74620000  0.80790000  1.0 0.629746731
C  C125  1  0.48280000  0.58300000  0.61020000  1.0 0.0469250039
C  C126  1  0.44470000  0.53760000  0.58440000  1.0 -0.3610811051
C  C127  1  0.38830000  0.56410000  0.57090000  1.0 0.6685687586
C  C128  1  0.89010000  0.20570000  0.03840000  1.0 0.3695071805
C  C129  1  0.87480000  0.24010000  0.07630000  1.0 0.3619682674
C  C130  1  0.92960000  0.20700000  0.96910000  1.0 0.0395380696
C  C131  1  0.95000000  0.25030000  0.93470000  1.0 -0.3702707853
C  C132  1  0.99900000  0.28560000  0.94730000  1.0 0.629746731
C  C133  1  0.97200000  0.15940000  0.97230000  1.0 0.5695862332
C  C134  1  0.83250000  0.24230000  0.14610000  1.0 0.0015106382
C  C135  1  0.88280000  0.25070000  0.17280000  1.0 0.5478268448
C  C136  1  0.78660000  0.20570000  0.16870000  1.0 -0.3297477554
C  C137  1  0.81100000  0.14700000  0.18240000  1.0 0.6413706187
C  C138  1  0.49670000  0.63140000  0.58050000  1.0 0.5594984625
C  C139  1  0.04380000  0.97140000  0.01420000  1.0 0.353421453
C  C140  1  0.98310000  0.98860000  0.02320000  1.0 0.3761133585
C  C141  1  0.90060000  0.97430000  0.06630000  1.0 0.0307970416
C  C142  1  0.89350000  0.03440000  0.08150000  1.0 0.5594984625
C  C143  1  0.87740000  0.93040000  0.09900000  1.0 -0.3503942444
C  C144  1  0.90990000  0.93400000  0.14100000  1.0 0.6413706187
C  C145  1  0.12580000  0.97680000  0.96770000  1.0 0.0395380696
C  C146  1  0.13460000  0.00100000  0.92220000  1.0 -0.3503942444
C  C147  1  0.12690000  0.06360000  0.91810000  1.0 0.6413706187
C  C148  1  0.61720000  0.57620000  0.86670000  1.0 0.5695862332
C  C149  1  0.44770000  0.68050000  0.78540000  1.0 0.0469250039
C  C150  1  0.40030000  0.72610000  0.78020000  1.0 0.5695862332
C  C151  1  0.71050000  0.50250000  0.37140000  1.0 0.3695071805
C  C152  1  0.75510000  0.45960000  0.38220000  1.0 0.3761133585
C  C153  1  0.64500000  0.57250000  0.40060000  1.0 0.0395380696
C  C154  1  0.61400000  0.58070000  0.44370000  1.0 -0.3503942444
C  C155  1  0.65380000  0.59960000  0.48020000  1.0 0.6603856717
C  C156  1  0.82400000  0.39730000  0.35180000  1.0 0.0469250039
C  C157  1  0.83460000  0.36580000  0.30850000  1.0 -0.3503942444
C  C158  1  0.85260000  0.40670000  0.27260000  1.0 0.6603856717
C  C159  1  0.32780000  0.99760000  0.49780000  1.0 0.5774828378
C  C160  1  0.25180000  0.07150000  0.24950000  1.0 0.5695862332
C  C161  1  0.27390000  0.25590000  0.22950000  1.0 0.3280031193
C  C162  1  0.28740000  0.19600000  0.23610000  1.0 0.3695071805
C  C163  1  0.27700000  0.11440000  0.28190000  1.0 0.0395380696
C  C164  1  0.25460000  0.10140000  0.32700000  1.0 -0.3610811051
C  C165  1  0.18870000  0.11190000  0.33160000  1.0 0.6685687586
C  C166  1  0.28730000  0.33860000  0.18860000  1.0 0.0209625136
C  C167  1  0.22820000  0.34690000  0.17270000  1.0 0.5695862332
C  C168  1  0.33230000  0.36040000  0.15620000  1.0 -0.3503942444
C  C169  1  0.32430000  0.32930000  0.11260000  1.0 0.6685687586
C  C170  1  0.67050000  0.62790000  0.38460000  1.0 0.5695862332
C  C171  1  0.01870000  0.37490000  0.17870000  1.0 0.3695071805
C  C172  1  0.05300000  0.36000000  0.21760000  1.0 0.3695071805
C  C173  1  0.00790000  0.30250000  0.32030000  1.0 -0.3610811051
C  C174  1  0.97100000  0.25380000  0.30790000  1.0 0.629746731
C  C175  1  0.01720000  0.41700000  0.11020000  1.0 0.0395380696
C  C176  1  0.05530000  0.46240000  0.08440000  1.0 -0.3610811051
C  C177  1  0.11170000  0.43590000  0.07090000  1.0 0.6685687586
C  C178  1  0.60990000  0.79430000  0.53840000  1.0 0.3695071805
C  C179  1  0.62520000  0.75990000  0.57630000  1.0 0.3619682674
C  C180  1  0.57040000  0.79300000  0.46910000  1.0 0.0395380696
C  C181  1  0.55000000  0.74970000  0.43470000  1.0 -0.3702707853
C  C182  1  0.50100000  0.71440000  0.44730000  1.0 0.629746731
C  C183  1  0.52800000  0.84060000  0.47230000  1.0 0.5695862332
C  C184  1  0.66750000  0.75770000  0.64610000  1.0 0.0015106382
C  C185  1  0.61720000  0.74930000  0.67280000  1.0 0.5478268448
C  C186  1  0.71340000  0.79430000  0.66870000  1.0 -0.3297477554
C  C187  1  0.68900000  0.85300000  0.68240000  1.0 0.6453172747
C  C188  1  0.00330000  0.36860000  0.08050000  1.0 0.5594984625
C  C189  1  0.45620000  0.02860000  0.51420000  1.0 0.353421453
C  C190  1  0.51690000  0.01140000  0.52320000  1.0 0.3761133585
C  C191  1  0.59940000  0.02570000  0.56630000  1.0 0.0307970416
C  C192  1  0.60650000  0.96560000  0.58150000  1.0 0.5594984625
C  C193  1  0.62260000  0.06960000  0.59900000  1.0 -0.3503942444
C  C194  1  0.59010000  0.06600000  0.64100000  1.0 0.6413706187
C  C195  1  0.37420000  0.02320000  0.46770000  1.0 0.0395380696
C  C196  1  0.36540000  0.99900000  0.42220000  1.0 -0.3503942444
C  C197  1  0.37310000  0.93640000  0.41810000  1.0 0.6413706187
C  C198  1  0.88280000  0.42380000  0.36670000  1.0 0.5695862332
C  C199  1  0.05230000  0.31950000  0.28540000  1.0 0.0469250039
C  C200  1  0.09970000  0.27390000  0.28020000  1.0 0.5695862332
N  N1  1  0.18800000  0.97320000  0.59380000  1.0 -0.3985941476
N  N2  1  0.27760000  0.06160000  0.65340000  1.0 -0.4085015174
N  N3  1  0.79900000  0.21910000  0.80290000  1.0 -0.3702707853
N  N4  1  0.76270000  0.32720000  0.73130000  1.0 -0.387455781
N  N5  1  0.54610000  0.09900000  0.85030000  1.0 -0.387455781
N  N6  1  0.52420000  0.16770000  0.75380000  1.0 -0.3803419765
N  N7  1  0.08250000  0.73420000  0.49160000  1.0 -0.387455781
N  N8  1  0.15190000  0.71120000  0.39410000  1.0 -0.387455781
N  N9  1  0.03890000  0.46040000  0.44510000  1.0 -0.387455781
N  N10  1  0.93300000  0.49360000  0.51990000  1.0 -0.387455781
N  N11  1  0.31200000  0.02680000  0.09380000  1.0 -0.4085015174
N  N12  1  0.22240000  0.93840000  0.15340000  1.0 -0.3985941476
N  N13  1  0.70100000  0.78090000  0.30290000  1.0 -0.3702707853
N  N14  1  0.73730000  0.67280000  0.23130000  1.0 -0.3803419765
N  N15  1  0.95390000  0.90100000  0.35030000  1.0 -0.387455781
N  N16  1  0.97580000  0.83230000  0.25380000  1.0 -0.3803419765
N  N17  1  0.41750000  0.26580000  0.99160000  1.0 -0.387455781
N  N18  1  0.34810000  0.28880000  0.89410000  1.0 -0.387455781
N  N19  1  0.46110000  0.53960000  0.94510000  1.0 -0.387455781
N  N20  1  0.56700000  0.50640000  0.01990000  1.0 -0.387455781
N  N21  1  0.81200000  0.47320000  0.90620000  1.0 -0.4085015174
N  N22  1  0.72240000  0.56160000  0.84660000  1.0 -0.4085015174
N  N23  1  0.20100000  0.71910000  0.69710000  1.0 -0.3702707853
N  N24  1  0.23730000  0.82720000  0.76870000  1.0 -0.3803419765
N  N25  1  0.45390000  0.59900000  0.64970000  1.0 -0.387455781
N  N26  1  0.47580000  0.66770000  0.74620000  1.0 -0.3803419765
N  N27  1  0.91750000  0.23420000  0.00840000  1.0 -0.3803419765
N  N28  1  0.84810000  0.21120000  0.10590000  1.0 -0.387455781
N  N29  1  0.96110000  0.96040000  0.05490000  1.0 -0.387455781
N  N30  1  0.06700000  0.99360000  0.98010000  1.0 -0.387455781
N  N31  1  0.68800000  0.52680000  0.40620000  1.0 -0.4085015174
N  N32  1  0.77760000  0.43840000  0.34660000  1.0 -0.4085015174
N  N33  1  0.29900000  0.28090000  0.19710000  1.0 -0.3702707853
N  N34  1  0.26270000  0.17280000  0.26870000  1.0 -0.3803419765
N  N35  1  0.04610000  0.40100000  0.14970000  1.0 -0.387455781
N  N36  1  0.02420000  0.33230000  0.24620000  1.0 -0.3803419765
N  N37  1  0.58250000  0.76580000  0.50840000  1.0 -0.3803419765
N  N38  1  0.65190000  0.78880000  0.60590000  1.0 -0.387455781
N  N39  1  0.53890000  0.03960000  0.55490000  1.0 -0.387455781
N  N40  1  0.43300000  0.00640000  0.48010000  1.0 -0.387455781
O  O1  1  0.26780000  0.05070000  0.58012000  1.0 -0.4085015174
O  O2  1  0.19680000  0.98620000  0.66721000  1.0 -0.4085015174
O  O3  1  0.14420000  0.85470000  0.50293000  1.0 -0.5227252526
O  O4  1  0.32030000  0.05370000  0.73590000  1.0 -0.4607651484
O  O5  1  0.77810000  0.48310000  0.50542000  1.0 -0.4983459285
O  O6  1  0.77020000  0.47690000  0.74631000  1.0 -0.4684893567
O  O7  1  0.82180000  0.32670000  0.79019000  1.0 -0.4217427177
O  O8  1  0.73530000  0.22060000  0.74510000  1.0 -0.4275725472
O  O9  1  0.65850000  0.42810000  0.65800000  1.0 -0.4899972828
O  O10  1  0.69600000  0.18780000  0.84420000  1.0 -0.4405201874
O  O11  1  0.81200000  0.14080000  0.91940000  1.0 -0.5495358949
O  O12  1  0.60630000  0.12520000  0.78280000  1.0 -0.4217427177
O  O13  1  0.46480000  0.14010000  0.82260000  1.0 -0.4217427177
O  O14  1  0.47130000  0.29050000  0.67230000  1.0 -0.3503942444
O  O15  1  0.62430000  0.06880000  0.96720000  1.0 -0.3702707853
O  O16  1  0.10960000  0.79250000  0.42192000  1.0 -0.4085015174
O  O17  1  0.12650000  0.65550000  0.46410000  1.0 -0.5105377797
O  O18  1  0.95370000  0.78250000  0.57160000  1.0 -0.4217427177
O  O19  1  0.98800000  0.66210000  0.50018000  1.0 -0.4789350123
O  O20  1  0.07270000  0.72650000  0.33003000  1.0 -0.387455781
O  O21  1  0.18550000  0.63650000  0.27860000  1.0 -0.3610811051
O  O22  1  0.46460000  0.11960000  0.94580000  1.0 -0.4899972828
O  O23  1  0.93180000  0.43410000  0.46011000  1.0 -0.4275725472
O  O24  1  0.04100000  0.52300000  0.50086000  1.0 -0.5105377797
O  O25  1  0.83160000  0.59290000  0.59230000  1.0 -0.3985941476
O  O26  1  0.06700000  0.56150000  0.40209000  1.0 -0.4405201874
O  O27  1  0.11800000  0.44550000  0.32630000  1.0 -0.4503369699
O  O28  1  0.38870000  0.02290000  0.63616000  1.0 -0.4789350123
O  O29  1  0.59550000  0.26150000  0.74984000  1.0 -0.4899972828
O  O30  1  0.22320000  0.86630000  0.61540000  1.0 -0.4503369699
O  O31  1  0.84190000  0.53870000  0.47480000  1.0 -0.4684893567
O  O32  1  0.71540000  0.41290000  0.77790000  1.0 -0.4607651484
O  O33  1  0.71020000  0.09980000  0.82330000  1.0 -0.5227252526
O  O34  1  0.13380000  0.83670000  0.62642000  1.0 -0.5105377797
O  O35  1  0.03400000  0.61770000  0.55309000  1.0 -0.5714072402
O  O36  1  0.12850000  0.79140000  0.29694000  1.0 -0.5406012948
O  O37  1  0.52840000  0.17540000  0.91584000  1.0 -0.4217427177
O  O38  1  0.15760000  0.55330000  0.42330000  1.0 -0.5606821146
O  O39  1  0.41900000  0.10970000  0.62151000  1.0 -0.4789350123
O  O40  1  0.63960000  0.22830000  0.69324000  1.0 -0.4899972828
O  O41  1  0.19620000  0.93180000  0.51014000  1.0 -0.4899972828
O  O42  1  0.40000000  0.10340000  0.74580000  1.0 -0.5495358949
O  O43  1  0.66600000  0.34250000  0.67717000  1.0 -0.4085015174
O  O44  1  0.83310000  0.22290000  0.88800000  1.0 -0.4983459285
O  O45  1  0.43590000  0.24040000  0.72500000  1.0 -0.5105377797
O  O46  1  0.64830000  0.07960000  0.89900000  1.0 -0.5227252526
O  O47  1  0.00450000  0.81790000  0.51878000  1.0 -0.5105377797
O  O48  1  0.17510000  0.61310000  0.34560000  1.0 -0.4503369699
O  O49  1  0.91880000  0.58560000  0.57550000  1.0 -0.4085015174
O  O50  1  0.03510000  0.42680000  0.35892000  1.0 -0.5269710239
O  O51  1  0.71830000  0.57470000  0.57580000  1.0 -0.387455781
O  O52  1  0.73720000  0.54330000  0.67270000  1.0 -0.4607651484
O  O53  1  0.73700000  0.58880000  0.62730000  1.0 0.4882741753
O  O54  1  0.23220000  0.94930000  0.08012000  1.0 -0.4085015174
O  O55  1  0.30320000  0.01380000  0.16721000  1.0 -0.4085015174
O  O56  1  0.35580000  0.14530000  0.00293000  1.0 -0.5105377797
O  O57  1  0.17970000  0.94630000  0.23590000  1.0 -0.4607651484
O  O58  1  0.72190000  0.51690000  0.00542000  1.0 -0.4983459285
O  O59  1  0.72980000  0.52310000  0.24631000  1.0 -0.4684893567
O  O60  1  0.67820000  0.67330000  0.29019000  1.0 -0.4217427177
O  O61  1  0.76470000  0.77940000  0.24510000  1.0 -0.4275725472
O  O62  1  0.84150000  0.57190000  0.15800000  1.0 -0.4983459285
O  O63  1  0.80400000  0.81220000  0.34420000  1.0 -0.4275725472
O  O64  1  0.68800000  0.85920000  0.41940000  1.0 -0.5495358949
O  O65  1  0.89370000  0.87480000  0.28280000  1.0 -0.4217427177
O  O66  1  0.03520000  0.85990000  0.32260000  1.0 -0.4217427177
O  O67  1  0.02870000  0.70950000  0.17230000  1.0 -0.3503942444
O  O68  1  0.87570000  0.93120000  0.46720000  1.0 -0.3702707853
O  O69  1  0.39040000  0.20750000  0.92192000  1.0 -0.4085015174
O  O70  1  0.37350000  0.34450000  0.96410000  1.0 -0.5105377797
O  O71  1  0.54630000  0.21750000  0.07160000  1.0 -0.4217427177
O  O72  1  0.51200000  0.33790000  0.00018000  1.0 -0.4789350123
O  O73  1  0.42730000  0.27350000  0.83003000  1.0 -0.387455781
O  O74  1  0.31450000  0.36350000  0.77860000  1.0 -0.3610811051
O  O75  1  0.03540000  0.88040000  0.44580000  1.0 -0.4899972828
O  O76  1  0.56820000  0.56590000  0.96011000  1.0 -0.4217427177
O  O77  1  0.45900000  0.47700000  0.00086000  1.0 -0.5105377797
O  O78  1  0.66840000  0.40710000  0.09230000  1.0 -0.3985941476
O  O79  1  0.43300000  0.43850000  0.90209000  1.0 -0.4405201874
O  O80  1  0.38200000  0.55450000  0.82630000  1.0 -0.4503369699
O  O81  1  0.11130000  0.97710000  0.13616000  1.0 -0.4789350123
O  O82  1  0.90450000  0.73850000  0.24984000  1.0 -0.4899972828
O  O83  1  0.27680000  0.13370000  0.11540000  1.0 -0.4503369699
O  O84  1  0.65810000  0.46130000  0.97480000  1.0 -0.4684893567
O  O85  1  0.78460000  0.58710000  0.27790000  1.0 -0.4607651484
O  O86  1  0.78980000  0.90020000  0.32330000  1.0 -0.5227252526
O  O87  1  0.36620000  0.16330000  0.12642000  1.0 -0.5105377797
O  O88  1  0.46600000  0.38230000  0.05309000  1.0 -0.5714072402
O  O89  1  0.37150000  0.20860000  0.79694000  1.0 -0.5406012948
O  O90  1  0.97160000  0.82460000  0.41584000  1.0 -0.4217427177
O  O91  1  0.34240000  0.44670000  0.92330000  1.0 -0.5606821146
O  O92  1  0.08100000  0.89030000  0.12151000  1.0 -0.4789350123
O  O93  1  0.86040000  0.77170000  0.19324000  1.0 -0.4899972828
O  O94  1  0.30380000  0.06820000  0.01014000  1.0 -0.4899972828
O  O95  1  0.10000000  0.89660000  0.24580000  1.0 -0.5495358949
O  O96  1  0.83400000  0.65750000  0.17717000  1.0 -0.4085015174
O  O97  1  0.66690000  0.77710000  0.38800000  1.0 -0.4983459285
O  O98  1  0.06410000  0.75960000  0.22500000  1.0 -0.5105377797
O  O99  1  0.85170000  0.92040000  0.39900000  1.0 -0.5227252526
O  O100  1  0.49550000  0.18210000  0.01878000  1.0 -0.5105377797
O  O101  1  0.32490000  0.38690000  0.84560000  1.0 -0.4503369699
O  O102  1  0.58120000  0.41440000  0.07550000  1.0 -0.4085015174
O  O103  1  0.46490000  0.57320000  0.85892000  1.0 -0.5269710239
O  O104  1  0.78170000  0.42530000  0.07580000  1.0 -0.387455781
O  O105  1  0.76280000  0.45670000  0.17270000  1.0 -0.4607651484
O  O106  1  0.76300000  0.41120000  0.12730000  1.0 0.4882741753
O  O107  1  0.73220000  0.55070000  0.91988000  1.0 -0.4085015174
O  O108  1  0.80320000  0.48620000  0.83279000  1.0 -0.4085015174
O  O109  1  0.85580000  0.35470000  0.99707000  1.0 -0.5105377797
O  O110  1  0.67970000  0.55370000  0.76410000  1.0 -0.4607651484
O  O111  1  0.22190000  0.98310000  0.99458000  1.0 -0.4983459285
O  O112  1  0.22980000  0.97690000  0.75369000  1.0 -0.4684893567
O  O113  1  0.17820000  0.82670000  0.70981000  1.0 -0.4217427177
O  O114  1  0.26470000  0.72060000  0.75490000  1.0 -0.4275725472
O  O115  1  0.34150000  0.92810000  0.84200000  1.0 -0.4983459285
O  O116  1  0.30400000  0.68780000  0.65580000  1.0 -0.4405201874
O  O117  1  0.18800000  0.64080000  0.58060000  1.0 -0.5495358949
O  O118  1  0.39370000  0.62520000  0.71720000  1.0 -0.4217427177
O  O119  1  0.53520000  0.64010000  0.67740000  1.0 -0.4217427177
O  O120  1  0.52870000  0.79050000  0.82770000  1.0 -0.3503942444
O  O121  1  0.37570000  0.56880000  0.53280000  1.0 -0.3610811051
O  O122  1  0.89040000  0.29250000  0.07808000  1.0 -0.4085015174
O  O123  1  0.87350000  0.15550000  0.03590000  1.0 -0.5105377797
O  O124  1  0.04630000  0.28250000  0.92840000  1.0 -0.4217427177
O  O125  1  0.01200000  0.16210000  0.99982000  1.0 -0.4789350123
O  O126  1  0.92730000  0.22650000  0.16997000  1.0 -0.3803419765
O  O127  1  0.81450000  0.13650000  0.22140000  1.0 -0.3610811051
O  O128  1  0.53540000  0.61960000  0.55420000  1.0 -0.4899972828
O  O129  1  0.06820000  0.93410000  0.03989000  1.0 -0.4217427177
O  O130  1  0.95900000  0.02300000  0.99914000  1.0 -0.5105377797
O  O131  1  0.16840000  0.09290000  0.90770000  1.0 -0.3985941476
O  O132  1  0.93300000  0.06150000  0.09791000  1.0 -0.4405201874
O  O133  1  0.88200000  0.94550000  0.17370000  1.0 -0.4503369699
O  O134  1  0.61130000  0.52290000  0.86384000  1.0 -0.4789350123
O  O135  1  0.40450000  0.76150000  0.75016000  1.0 -0.4899972828
O  O136  1  0.77680000  0.36630000  0.88460000  1.0 -0.4503369699
O  O137  1  0.15810000  0.03870000  0.02520000  1.0 -0.4684893567
O  O138  1  0.28460000  0.91290000  0.72210000  1.0 -0.4607651484
O  O139  1  0.28980000  0.59980000  0.67670000  1.0 -0.5227252526
O  O140  1  0.86620000  0.33670000  0.87358000  1.0 -0.5105377797
O  O141  1  0.96600000  0.11770000  0.94691000  1.0 -0.5714072402
O  O142  1  0.87150000  0.29140000  0.20306000  1.0 -0.5406012948
O  O143  1  0.47160000  0.67540000  0.58416000  1.0 -0.4275725472
O  O144  1  0.84240000  0.05330000  0.07670000  1.0 -0.5606821146
O  O145  1  0.58100000  0.60970000  0.87849000  1.0 -0.4789350123
O  O146  1  0.36040000  0.72830000  0.80676000  1.0 -0.4899972828
O  O147  1  0.80380000  0.43180000  0.98986000  1.0 -0.4899972828
O  O148  1  0.60000000  0.60340000  0.75420000  1.0 -0.5495358949
O  O149  1  0.33400000  0.84250000  0.82283000  1.0 -0.4085015174
O  O150  1  0.16690000  0.72290000  0.61200000  1.0 -0.4983459285
O  O151  1  0.56410000  0.74040000  0.77500000  1.0 -0.5105377797
O  O152  1  0.35170000  0.57960000  0.60100000  1.0 -0.5269710239
O  O153  1  0.99550000  0.31790000  0.98122000  1.0 -0.5105377797
O  O154  1  0.82490000  0.11310000  0.15440000  1.0 -0.4503369699
O  O155  1  0.08120000  0.08560000  0.92450000  1.0 -0.4085015174
O  O156  1  0.96490000  0.92680000  0.14108000  1.0 -0.5227252526
O  O157  1  0.28170000  0.07470000  0.92420000  1.0 -0.387455781
O  O158  1  0.26280000  0.04330000  0.82730000  1.0 -0.4607651484
O  O159  1  0.26300000  0.08880000  0.87270000  1.0 0.4882741753
O  O160  1  0.76780000  0.44930000  0.41988000  1.0 -0.4085015174
O  O161  1  0.69680000  0.51380000  0.33279000  1.0 -0.4085015174
O  O162  1  0.64420000  0.64530000  0.49707000  1.0 -0.5105377797
O  O163  1  0.82030000  0.44630000  0.26410000  1.0 -0.4503369699
O  O164  1  0.27810000  0.01690000  0.49458000  1.0 -0.4983459285
O  O165  1  0.27020000  0.02310000  0.25369000  1.0 -0.4684893567
O  O166  1  0.32180000  0.17330000  0.20981000  1.0 -0.4217427177
O  O167  1  0.23530000  0.27940000  0.25490000  1.0 -0.4275725472
O  O168  1  0.15850000  0.07190000  0.34200000  1.0 -0.4983459285
O  O169  1  0.19600000  0.31220000  0.15580000  1.0 -0.4405201874
O  O170  1  0.31200000  0.35920000  0.08060000  1.0 -0.5495358949
O  O171  1  0.10630000  0.37480000  0.21720000  1.0 -0.4217427177
O  O172  1  0.96480000  0.35990000  0.17740000  1.0 -0.4217427177
O  O173  1  0.97130000  0.20950000  0.32770000  1.0 -0.3503942444
O  O174  1  0.12430000  0.43120000  0.03280000  1.0 -0.3610811051
O  O175  1  0.60960000  0.70750000  0.57808000  1.0 -0.4085015174
O  O176  1  0.62650000  0.84450000  0.53590000  1.0 -0.5105377797
O  O177  1  0.45370000  0.71750000  0.42840000  1.0 -0.4217427177
O  O178  1  0.48800000  0.83790000  0.49982000  1.0 -0.4789350123
O  O179  1  0.57270000  0.77350000  0.66997000  1.0 -0.387455781
O  O180  1  0.68550000  0.86350000  0.72140000  1.0 -0.3610811051
O  O181  1  0.96460000  0.38040000  0.05420000  1.0 -0.4899972828
O  O182  1  0.43180000  0.06590000  0.53989000  1.0 -0.4217427177
O  O183  1  0.54100000  0.97700000  0.49914000  1.0 -0.5105377797
O  O184  1  0.33160000  0.90710000  0.40770000  1.0 -0.3985941476
O  O185  1  0.56700000  0.93850000  0.59791000  1.0 -0.4405201874
O  O186  1  0.61800000  0.05450000  0.67370000  1.0 -0.4503369699
O  O187  1  0.88870000  0.47710000  0.36384000  1.0 -0.4789350123
O  O188  1  0.09550000  0.23850000  0.25016000  1.0 -0.4899972828
O  O189  1  0.72320000  0.63370000  0.38460000  1.0 -0.4503369699
O  O190  1  0.34190000  0.96130000  0.52520000  1.0 -0.4684893567
O  O191  1  0.21540000  0.08710000  0.22210000  1.0 -0.4607651484
O  O192  1  0.21020000  0.40020000  0.17670000  1.0 -0.5227252526
O  O193  1  0.63380000  0.66330000  0.37358000  1.0 -0.5105377797
O  O194  1  0.53400000  0.88230000  0.44691000  1.0 -0.5714072402
O  O195  1  0.62850000  0.70860000  0.70306000  1.0 -0.5406012948
O  O196  1  0.02840000  0.32460000  0.08416000  1.0 -0.4217427177
O  O197  1  0.65760000  0.94670000  0.57670000  1.0 -0.5606821146
O  O198  1  0.91900000  0.39030000  0.37849000  1.0 -0.4789350123
O  O199  1  0.13960000  0.27170000  0.30676000  1.0 -0.4899972828
O  O200  1  0.69620000  0.56820000  0.48986000  1.0 -0.4899972828
O  O201  1  0.90000000  0.39660000  0.25420000  1.0 -0.5406012948
O  O202  1  0.16600000  0.15750000  0.32283000  1.0 -0.4085015174
O  O203  1  0.33310000  0.27710000  0.11200000  1.0 -0.4983459285
O  O204  1  0.93590000  0.25960000  0.27500000  1.0 -0.5105377797
O  O205  1  0.14830000  0.42040000  0.10100000  1.0 -0.5227252526
O  O206  1  0.50450000  0.68210000  0.48122000  1.0 -0.5105377797
O  O207  1  0.67510000  0.88690000  0.65440000  1.0 -0.4503369699
O  O208  1  0.41880000  0.91440000  0.42450000  1.0 -0.4085015174
O  O209  1  0.53510000  0.07320000  0.64108000  1.0 -0.5269710239
O  O210  1  0.21830000  0.92530000  0.42420000  1.0 -0.387455781
O  O211  1  0.23720000  0.95670000  0.32730000  1.0 -0.4607651484
O  O212  1  0.23700000  0.91120000  0.37270000  1.0 0.4846742932
