# DDEC6 charges by PACMAN v1.1 (https://github.com/mtap-research/PACMAN-charge/)
data_YAKROV_ASR_pacman
_symmetry_space_group_name_H-M   'P 1'
_cell_length_a   17.13720000
_cell_length_b   17.13720000
_cell_length_c   33.43000000
_cell_angle_alpha   89.39340000
_cell_angle_beta   90.60660000
_cell_angle_gamma   90.39010000
_symmetry_Int_Tables_number   1
_chemical_formula_structural   Zn4H37C54N5O13
_chemical_formula_sum   'Zn16 H148 C216 N20 O52'
_cell_volume   9816.52297113
_cell_formula_units_Z   4
loop_
 _symmetry_equiv_pos_site_id
 _symmetry_equiv_pos_as_xyz
  1  'x, y, z'
loop_
 _atom_site_type_symbol
 _atom_site_label
 _atom_site_symmetry_multiplicity
 _atom_site_fract_x
 _atom_site_fract_y
 _atom_site_fract_z
 _atom_site_occupancy
 _atom_site_charge
Zn  Zn1  1  0.41845000  0.71219000  0.38436000  1.0 0.9315392322
Zn  Zn2  1  0.41616000  0.83750000  0.45180000  1.0 0.939531537
Zn  Zn3  1  0.28546000  0.71248000  0.44441000  1.0 0.9315392322
Zn  Zn4  1  0.29384000  0.84988000  0.37604000  1.0 0.7955600194
Zn  Zn5  1  0.71219000  0.41845000  0.11564000  1.0 0.9315392322
Zn  Zn6  1  0.83750000  0.41616000  0.04820000  1.0 0.939531537
Zn  Zn7  1  0.71248000  0.28546000  0.05559000  1.0 0.9315392322
Zn  Zn8  1  0.84988000  0.29384000  0.12396000  1.0 0.7955600194
Zn  Zn9  1  0.58155000  0.28781000  0.61564000  1.0 0.9315392322
Zn  Zn10  1  0.58384000  0.16250000  0.54820000  1.0 0.939531537
Zn  Zn11  1  0.71454000  0.28752000  0.55559000  1.0 0.9315392322
Zn  Zn12  1  0.70616000  0.15012000  0.62396000  1.0 0.7955600194
Zn  Zn13  1  0.28781000  0.58155000  0.88436000  1.0 0.9315392322
Zn  Zn14  1  0.16250000  0.58384000  0.95180000  1.0 0.939531537
Zn  Zn15  1  0.28752000  0.71454000  0.94441000  1.0 0.9315392322
Zn  Zn16  1  0.15012000  0.70616000  0.87604000  1.0 0.7955600194
H  H1  1  0.34500000  0.57650000  0.75989000  1.0 0.1196877555
H  H2  1  0.37248000  0.60898000  0.69306000  1.0 0.1119399073
H  H3  1  0.26330000  0.79688000  0.77038000  1.0 0.100238262
H  H4  1  0.28197000  0.62463000  0.63237000  1.0 0.1196877555
H  H5  1  0.29998000  0.63744000  0.56365000  1.0 0.1274556963
H  H6  1  0.41686000  0.83832000  0.58084000  1.0 0.1196877555
H  H7  1  0.40300000  0.82218000  0.64929000  1.0 0.1119399073
H  H8  1  0.45140000  0.08636000  0.46426000  1.0 0.1274556963
H  H9  1  0.45098000  0.22100000  0.46073000  1.0 0.1196877555
H  H10  1  0.24634000  0.21544000  0.40176000  1.0 0.1119399073
H  H11  1  0.24846000  0.08074000  0.40347000  1.0 0.100238262
H  H12  1  0.24660000  0.47266000  0.44542000  1.0 0.1274556963
H  H13  1  0.46190000  0.46666000  0.39974000  1.0 0.1196877555
H  H14  1  0.45614000  0.32914000  0.40583000  1.0 0.1196877555
H  H15  1  0.04738000  0.85196000  0.37320000  1.0 0.100238262
H  H16  1  0.91236000  0.85622000  0.37124000  1.0 0.1196877555
H  H17  1  0.90960000  0.71878000  0.47327000  1.0 0.1119399073
H  H18  1  0.04555000  0.71625000  0.47017000  1.0 0.1196877555
H  H19  1  0.79698000  0.73710000  0.36595000  1.0 0.1196877555
H  H20  1  0.66283000  0.73117000  0.36353000  1.0 0.1196877555
H  H21  1  0.65903000  0.82715000  0.47254000  1.0 0.1196877555
H  H22  1  0.28548000  0.86328000  0.67611000  1.0 0.2815512837
H  H23  1  0.25912000  0.88366000  0.71699000  1.0 0.2923935934
H  H24  1  0.17755000  0.36119000  0.46648000  1.0 0.2923935934
H  H25  1  0.20848000  0.28098000  0.46120000  1.0 0.2657700798
H  H26  1  0.85093000  0.83847000  0.49201000  1.0 0.2815512837
H  H27  1  0.77081000  0.85043000  0.50757000  1.0 0.2815512837
H  H28  1  0.02044000  0.30868000  0.15663000  1.0 0.0699222398
H  H29  1  0.10497000  0.24223000  0.19939000  1.0 0.0899779082
H  H30  1  0.93513000  0.08713000  0.22462000  1.0 0.0899779082
H  H31  1  0.85060000  0.15358000  0.18186000  1.0 0.1119399073
H  H32  1  0.03868000  0.01342000  0.24195000  1.0 0.0607795197
H  H33  1  0.12168000  0.14610000  0.25587000  1.0 0.0699222398
H  H34  1  0.82709000  0.15225000  0.17761000  1.0 0.0699222398
H  H35  1  0.01223000  0.29667000  0.17037000  1.0 0.100238262
H  H36  1  0.21553000  0.08185000  0.28647000  1.0 0.0899779082
H  H37  1  0.07111000  0.89671000  0.27923000  1.0 0.0796454787
H  H38  1  0.57650000  0.34500000  0.74011000  1.0 0.1196877555
H  H39  1  0.60898000  0.37248000  0.80694000  1.0 0.1119399073
H  H40  1  0.79688000  0.26330000  0.72962000  1.0 0.100238262
H  H41  1  0.62463000  0.28197000  0.86763000  1.0 0.1196877555
H  H42  1  0.63744000  0.29998000  0.93635000  1.0 0.1274556963
H  H43  1  0.83832000  0.41686000  0.91916000  1.0 0.1196877555
H  H44  1  0.82218000  0.40300000  0.85071000  1.0 0.1119399073
H  H45  1  0.08636000  0.45140000  0.03574000  1.0 0.1274556963
H  H46  1  0.22100000  0.45098000  0.03927000  1.0 0.1196877555
H  H47  1  0.21544000  0.24634000  0.09824000  1.0 0.1119399073
H  H48  1  0.08074000  0.24846000  0.09653000  1.0 0.100238262
H  H49  1  0.47266000  0.24660000  0.05458000  1.0 0.1274556963
H  H50  1  0.46666000  0.46190000  0.10026000  1.0 0.1196877555
H  H51  1  0.32914000  0.45614000  0.09417000  1.0 0.1196877555
H  H52  1  0.85196000  0.04738000  0.12680000  1.0 0.100238262
H  H53  1  0.85622000  0.91236000  0.12876000  1.0 0.1196877555
H  H54  1  0.71878000  0.90960000  0.02673000  1.0 0.1119399073
H  H55  1  0.71625000  0.04555000  0.02983000  1.0 0.1196877555
H  H56  1  0.73710000  0.79698000  0.13405000  1.0 0.1196877555
H  H57  1  0.73117000  0.66283000  0.13647000  1.0 0.1196877555
H  H58  1  0.82715000  0.65903000  0.02746000  1.0 0.1274556963
H  H59  1  0.86328000  0.28548000  0.82389000  1.0 0.2815512837
H  H60  1  0.88366000  0.25912000  0.78301000  1.0 0.2923935934
H  H61  1  0.36119000  0.17755000  0.03352000  1.0 0.2923935934
H  H62  1  0.28098000  0.20848000  0.03880000  1.0 0.2657700798
H  H63  1  0.83847000  0.85093000  0.00799000  1.0 0.2815512837
H  H64  1  0.85043000  0.77081000  0.99243000  1.0 0.2815512837
H  H65  1  0.30868000  0.02044000  0.34337000  1.0 0.0699222398
H  H66  1  0.24223000  0.10497000  0.30061000  1.0 0.0899779082
H  H67  1  0.08713000  0.93513000  0.27538000  1.0 0.0899779082
H  H68  1  0.15358000  0.85060000  0.31814000  1.0 0.1119399073
H  H69  1  0.01342000  0.03868000  0.25805000  1.0 0.0607795197
H  H70  1  0.14610000  0.12168000  0.24413000  1.0 0.0699222398
H  H71  1  0.15225000  0.82709000  0.32239000  1.0 0.0699222398
H  H72  1  0.29667000  0.01223000  0.32963000  1.0 0.100238262
H  H73  1  0.08185000  0.21553000  0.21353000  1.0 0.0899779082
H  H74  1  0.89671000  0.07111000  0.22077000  1.0 0.0796454787
H  H75  1  0.65500000  0.42350000  0.24011000  1.0 0.1196877555
H  H76  1  0.62752000  0.39102000  0.30694000  1.0 0.1119399073
H  H77  1  0.73670000  0.20312000  0.22962000  1.0 0.100238262
H  H78  1  0.71803000  0.37537000  0.36763000  1.0 0.1196877555
H  H79  1  0.70002000  0.36256000  0.43635000  1.0 0.1274556963
H  H80  1  0.58314000  0.16168000  0.41916000  1.0 0.1196877555
H  H81  1  0.59700000  0.17782000  0.35071000  1.0 0.1119399073
H  H82  1  0.54860000  0.91364000  0.53574000  1.0 0.1274556963
H  H83  1  0.54902000  0.77900000  0.53927000  1.0 0.1196877555
H  H84  1  0.75366000  0.78456000  0.59824000  1.0 0.1119399073
H  H85  1  0.75154000  0.91926000  0.59653000  1.0 0.100238262
H  H86  1  0.75340000  0.52734000  0.55458000  1.0 0.1274556963
H  H87  1  0.53810000  0.53334000  0.60026000  1.0 0.1196877555
H  H88  1  0.54386000  0.67086000  0.59417000  1.0 0.1196877555
H  H89  1  0.95262000  0.14804000  0.62680000  1.0 0.100238262
H  H90  1  0.08764000  0.14378000  0.62876000  1.0 0.1196877555
H  H91  1  0.09040000  0.28122000  0.52673000  1.0 0.1119399073
H  H92  1  0.95445000  0.28375000  0.52983000  1.0 0.1196877555
H  H93  1  0.20302000  0.26290000  0.63405000  1.0 0.1196877555
H  H94  1  0.33717000  0.26883000  0.63647000  1.0 0.1196877555
H  H95  1  0.34097000  0.17285000  0.52746000  1.0 0.1196877555
H  H96  1  0.71452000  0.13672000  0.32389000  1.0 0.2815512837
H  H97  1  0.74088000  0.11634000  0.28301000  1.0 0.2923935934
H  H98  1  0.82245000  0.63881000  0.53352000  1.0 0.2923935934
H  H99  1  0.79152000  0.71902000  0.53880000  1.0 0.2657700798
H  H100  1  0.14907000  0.16153000  0.50799000  1.0 0.2815512837
H  H101  1  0.22919000  0.14957000  0.49243000  1.0 0.2815512837
H  H102  1  0.97956000  0.69132000  0.84337000  1.0 0.0699222398
H  H103  1  0.89503000  0.75777000  0.80061000  1.0 0.0899779082
H  H104  1  0.06487000  0.91287000  0.77538000  1.0 0.0899779082
H  H105  1  0.14940000  0.84642000  0.81814000  1.0 0.1119399073
H  H106  1  0.96132000  0.98658000  0.75805000  1.0 0.0607795197
H  H107  1  0.87832000  0.85390000  0.74413000  1.0 0.0699222398
H  H108  1  0.17291000  0.84775000  0.82239000  1.0 0.0699222398
H  H109  1  0.98777000  0.70333000  0.82963000  1.0 0.100238262
H  H110  1  0.78447000  0.91815000  0.71353000  1.0 0.0899779082
H  H111  1  0.92889000  0.10329000  0.72077000  1.0 0.0796454787
H  H112  1  0.42350000  0.65500000  0.25989000  1.0 0.1196877555
H  H113  1  0.39102000  0.62752000  0.19306000  1.0 0.1119399073
H  H114  1  0.20312000  0.73670000  0.27038000  1.0 0.100238262
H  H115  1  0.37537000  0.71803000  0.13237000  1.0 0.1196877555
H  H116  1  0.36256000  0.70002000  0.06365000  1.0 0.1274556963
H  H117  1  0.16168000  0.58314000  0.08084000  1.0 0.1196877555
H  H118  1  0.17782000  0.59700000  0.14929000  1.0 0.1119399073
H  H119  1  0.91364000  0.54860000  0.96426000  1.0 0.1274556963
H  H120  1  0.77900000  0.54902000  0.96073000  1.0 0.1196877555
H  H121  1  0.78456000  0.75366000  0.90176000  1.0 0.1119399073
H  H122  1  0.91926000  0.75154000  0.90347000  1.0 0.100238262
H  H123  1  0.52734000  0.75340000  0.94542000  1.0 0.1274556963
H  H124  1  0.53334000  0.53810000  0.89974000  1.0 0.1196877555
H  H125  1  0.67086000  0.54386000  0.90583000  1.0 0.1196877555
H  H126  1  0.14804000  0.95262000  0.87320000  1.0 0.100238262
H  H127  1  0.14378000  0.08764000  0.87124000  1.0 0.1196877555
H  H128  1  0.28122000  0.09040000  0.97327000  1.0 0.1119399073
H  H129  1  0.28375000  0.95445000  0.97017000  1.0 0.1196877555
H  H130  1  0.26290000  0.20302000  0.86595000  1.0 0.1196877555
H  H131  1  0.26883000  0.33717000  0.86353000  1.0 0.1196877555
H  H132  1  0.17285000  0.34097000  0.97254000  1.0 0.1196877555
H  H133  1  0.13672000  0.71452000  0.17611000  1.0 0.2815512837
H  H134  1  0.11634000  0.74088000  0.21699000  1.0 0.2923935934
H  H135  1  0.63881000  0.82245000  0.96648000  1.0 0.2923935934
H  H136  1  0.71902000  0.79152000  0.96120000  1.0 0.2657700798
H  H137  1  0.16153000  0.14907000  0.99201000  1.0 0.2815512837
H  H138  1  0.14957000  0.22919000  0.00757000  1.0 0.2815512837
H  H139  1  0.69132000  0.97956000  0.65663000  1.0 0.0699222398
H  H140  1  0.75777000  0.89503000  0.69939000  1.0 0.0899779082
H  H141  1  0.91287000  0.06487000  0.72462000  1.0 0.0899779082
H  H142  1  0.84642000  0.14940000  0.68186000  1.0 0.1119399073
H  H143  1  0.98658000  0.96132000  0.74195000  1.0 0.0607795197
H  H144  1  0.85390000  0.87832000  0.75587000  1.0 0.0699222398
H  H145  1  0.84775000  0.17291000  0.67761000  1.0 0.0699222398
H  H146  1  0.70333000  0.98777000  0.67037000  1.0 0.100238262
H  H147  1  0.91815000  0.78447000  0.78647000  1.0 0.0899779082
H  H148  1  0.10329000  0.92889000  0.77923000  1.0 0.0796454787
C  C1  1  0.27990000  0.66810000  0.81500000  1.0 0.5814817917
C  C2  1  0.29820000  0.68600000  0.77170000  1.0 0.0100041519
C  C3  1  0.33270000  0.62510000  0.74900000  1.0 -0.1186590453
C  C4  1  0.34660000  0.64500000  0.70860000  1.0 -0.1410442849
C  C5  1  0.32450000  0.71390000  0.69070000  1.0 -0.0429124649
C  C6  1  0.29540000  0.77020000  0.71470000  1.0 0.2088302395
C  C7  1  0.28260000  0.75700000  0.75470000  1.0 -0.236189624
C  C8  1  0.33500000  0.72440000  0.64790000  1.0 0.0899779082
C  C9  1  0.30760000  0.66840000  0.62220000  1.0 -0.1534159498
C  C10  1  0.31800000  0.67640000  0.58070000  1.0 -0.0937169285
C  C11  1  0.35490000  0.74250000  0.56480000  1.0 -0.0677495177
C  C12  1  0.38840000  0.79620000  0.59090000  1.0 -0.0937169285
C  C13  1  0.37940000  0.78680000  0.63200000  1.0 -0.1696439439
C  C14  1  0.35680000  0.75340000  0.52100000  1.0 0.5814817917
C  C15  1  0.35290000  0.98250000  0.43300000  1.0 0.5814817917
C  C16  1  0.35150000  0.07070000  0.43420000  1.0 -0.0307871983
C  C17  1  0.41070000  0.11210000  0.45123000  1.0 -0.0937169285
C  C18  1  0.40990000  0.19330000  0.44910000  1.0 -0.1410442849
C  C19  1  0.35040000  0.23420000  0.43030000  1.0 0.0796454787
C  C20  1  0.28830000  0.18990000  0.41380000  1.0 -0.1696439439
C  C21  1  0.28900000  0.10920000  0.41510000  1.0 -0.1410442849
C  C22  1  0.35110000  0.31890000  0.42800000  1.0 -0.0071221038
C  C23  1  0.28470000  0.36350000  0.44040000  1.0 0.2310565731
C  C24  1  0.28900000  0.44360000  0.43720000  1.0 -0.193191659
C  C25  1  0.35100000  0.48160000  0.42280000  1.0 -0.0071221038
C  C26  1  0.41820000  0.44120000  0.40990000  1.0 -0.110755148
C  C27  1  0.41330000  0.35810000  0.41370000  1.0 -0.1410442849
C  C28  1  0.35160000  0.56980000  0.41840000  1.0 0.5989388249
C  C29  1  0.14670000  0.78210000  0.42190000  1.0 0.5933162591
C  C30  1  0.05930000  0.78530000  0.42170000  1.0 -0.0429124649
C  C31  1  0.01920000  0.82540000  0.39280000  1.0 -0.110755148
C  C32  1  0.93840000  0.82840000  0.39130000  1.0 -0.1587650755
C  C33  1  0.89690000  0.78690000  0.42180000  1.0 0.1196877555
C  C34  1  0.93640000  0.74460000  0.45300000  1.0 -0.1977756714
C  C35  1  0.01770000  0.74470000  0.45100000  1.0 -0.0823543125
C  C36  1  0.81040000  0.78640000  0.42080000  1.0 -0.0429124649
C  C37  1  0.76880000  0.75540000  0.38750000  1.0 -0.1299623435
C  C38  1  0.68870000  0.75150000  0.38570000  1.0 -0.1299623435
C  C39  1  0.64810000  0.77890000  0.41830000  1.0 -0.0208016073
C  C40  1  0.68680000  0.80820000  0.45100000  1.0 -0.193191659
C  C41  1  0.76890000  0.80950000  0.45190000  1.0 0.2088302395
C  C42  1  0.56150000  0.77590000  0.41790000  1.0 0.5933162591
C  C43  1  0.00330000  0.26430000  0.17030000  1.0 0.0607795197
C  C44  1  0.05400000  0.22440000  0.19590000  1.0 -0.110755148
C  C45  1  0.02850000  0.15810000  0.21620000  1.0 0.0322680616
C  C46  1  0.95220000  0.13160000  0.21100000  1.0 -0.0208016073
C  C47  1  0.90160000  0.17140000  0.18540000  1.0 0.0699222398
C  C48  1  0.08010000  0.04150000  0.25290000  1.0 -0.0823543125
C  C49  1  0.08250000  0.11650000  0.24380000  1.0 -0.0677495177
C  C50  1  0.25150000  0.98910000  0.31950000  1.0 0.0607795197
C  C51  1  0.16490000  0.87810000  0.31520000  1.0 0.0796454787
C  C52  1  0.20280000  0.03080000  0.29370000  1.0 -0.0307871983
C  C53  1  0.13520000  0.99620000  0.27860000  1.0 0.0322680616
C  C54  1  0.11630000  0.91990000  0.28930000  1.0 -0.110755148
C  C55  1  0.66810000  0.27990000  0.68500000  1.0 0.5814817917
C  C56  1  0.68600000  0.29820000  0.72830000  1.0 0.0100041519
C  C57  1  0.62510000  0.33270000  0.75100000  1.0 -0.1186590453
C  C58  1  0.64500000  0.34660000  0.79140000  1.0 -0.1410442849
C  C59  1  0.71390000  0.32450000  0.80930000  1.0 -0.0429124649
C  C60  1  0.77020000  0.29540000  0.78530000  1.0 0.2088302395
C  C61  1  0.75700000  0.28260000  0.74530000  1.0 -0.236189624
C  C62  1  0.72440000  0.33500000  0.85210000  1.0 0.0899779082
C  C63  1  0.66840000  0.30760000  0.87780000  1.0 -0.1534159498
C  C64  1  0.67640000  0.31800000  0.91930000  1.0 -0.0937169285
C  C65  1  0.74250000  0.35490000  0.93520000  1.0 -0.0677495177
C  C66  1  0.79620000  0.38840000  0.90910000  1.0 -0.0937169285
C  C67  1  0.78680000  0.37940000  0.86800000  1.0 -0.1696439439
C  C68  1  0.75340000  0.35680000  0.97900000  1.0 0.5814817917
C  C69  1  0.98250000  0.35290000  0.06700000  1.0 0.5814817917
C  C70  1  0.07070000  0.35150000  0.06580000  1.0 -0.0307871983
C  C71  1  0.11210000  0.41070000  0.04877000  1.0 -0.0937169285
C  C72  1  0.19330000  0.40990000  0.05090000  1.0 -0.1410442849
C  C73  1  0.23420000  0.35040000  0.06970000  1.0 0.0796454787
C  C74  1  0.18990000  0.28830000  0.08620000  1.0 -0.1696439439
C  C75  1  0.10920000  0.28900000  0.08490000  1.0 -0.1410442849
C  C76  1  0.31890000  0.35110000  0.07200000  1.0 -0.0071221038
C  C77  1  0.36350000  0.28470000  0.05960000  1.0 0.2310565731
C  C78  1  0.44360000  0.28900000  0.06280000  1.0 -0.193191659
C  C79  1  0.48160000  0.35100000  0.07720000  1.0 -0.0071221038
C  C80  1  0.44120000  0.41820000  0.09010000  1.0 -0.110755148
C  C81  1  0.35810000  0.41330000  0.08630000  1.0 -0.1410442849
C  C82  1  0.56980000  0.35160000  0.08160000  1.0 0.5989388249
C  C83  1  0.78210000  0.14670000  0.07810000  1.0 0.5933162591
C  C84  1  0.78530000  0.05930000  0.07830000  1.0 -0.0429124649
C  C85  1  0.82540000  0.01920000  0.10720000  1.0 -0.110755148
C  C86  1  0.82840000  0.93840000  0.10870000  1.0 -0.1587650755
C  C87  1  0.78690000  0.89690000  0.07820000  1.0 0.1196877555
C  C88  1  0.74460000  0.93640000  0.04700000  1.0 -0.1977756714
C  C89  1  0.74470000  0.01770000  0.04900000  1.0 -0.0823543125
C  C90  1  0.78640000  0.81040000  0.07920000  1.0 -0.0429124649
C  C91  1  0.75540000  0.76880000  0.11250000  1.0 -0.1299623435
C  C92  1  0.75150000  0.68870000  0.11430000  1.0 -0.1299623435
C  C93  1  0.77890000  0.64810000  0.08170000  1.0 -0.0208016073
C  C94  1  0.80820000  0.68680000  0.04900000  1.0 -0.1977756714
C  C95  1  0.80950000  0.76890000  0.04810000  1.0 0.2088302395
C  C96  1  0.77590000  0.56150000  0.08210000  1.0 0.5933162591
C  C97  1  0.26430000  0.00330000  0.32970000  1.0 0.0607795197
C  C98  1  0.22440000  0.05400000  0.30410000  1.0 -0.110755148
C  C99  1  0.15810000  0.02850000  0.28380000  1.0 0.0322680616
C  C100  1  0.13160000  0.95220000  0.28900000  1.0 -0.0208016073
C  C101  1  0.17140000  0.90160000  0.31460000  1.0 0.0699222398
C  C102  1  0.04150000  0.08010000  0.24710000  1.0 -0.0823543125
C  C103  1  0.11650000  0.08250000  0.25620000  1.0 -0.0677495177
C  C104  1  0.98910000  0.25150000  0.18050000  1.0 0.0607795197
C  C105  1  0.87810000  0.16490000  0.18480000  1.0 0.0796454787
C  C106  1  0.03080000  0.20280000  0.20630000  1.0 -0.0208016073
C  C107  1  0.99620000  0.13520000  0.22140000  1.0 0.0322680616
C  C108  1  0.91990000  0.11630000  0.21070000  1.0 -0.110755148
C  C109  1  0.72010000  0.33190000  0.18500000  1.0 0.5814817917
C  C110  1  0.70180000  0.31400000  0.22830000  1.0 0.0100041519
C  C111  1  0.66730000  0.37490000  0.25100000  1.0 -0.1186590453
C  C112  1  0.65340000  0.35500000  0.29140000  1.0 -0.1410442849
C  C113  1  0.67550000  0.28610000  0.30930000  1.0 -0.0429124649
C  C114  1  0.70460000  0.22980000  0.28530000  1.0 0.2088302395
C  C115  1  0.71740000  0.24300000  0.24530000  1.0 -0.236189624
C  C116  1  0.66500000  0.27560000  0.35210000  1.0 0.0899779082
C  C117  1  0.69240000  0.33160000  0.37780000  1.0 -0.1534159498
C  C118  1  0.68200000  0.32360000  0.41930000  1.0 -0.0937169285
C  C119  1  0.64510000  0.25750000  0.43520000  1.0 -0.0677495177
C  C120  1  0.61160000  0.20380000  0.40910000  1.0 -0.0954743901
C  C121  1  0.62060000  0.21320000  0.36800000  1.0 -0.1696439439
C  C122  1  0.64320000  0.24660000  0.47900000  1.0 0.5814817917
C  C123  1  0.64710000  0.01750000  0.56700000  1.0 0.5814817917
C  C124  1  0.64850000  0.92930000  0.56580000  1.0 -0.0307871983
C  C125  1  0.58930000  0.88790000  0.54877000  1.0 -0.0937169285
C  C126  1  0.59010000  0.80670000  0.55090000  1.0 -0.1410442849
C  C127  1  0.64960000  0.76580000  0.56970000  1.0 0.0796454787
C  C128  1  0.71170000  0.81010000  0.58620000  1.0 -0.1696439439
C  C129  1  0.71100000  0.89080000  0.58490000  1.0 -0.1410442849
C  C130  1  0.64890000  0.68110000  0.57200000  1.0 -0.0071221038
C  C131  1  0.71530000  0.63650000  0.55960000  1.0 0.2310565731
C  C132  1  0.71100000  0.55640000  0.56280000  1.0 -0.193191659
C  C133  1  0.64900000  0.51840000  0.57720000  1.0 -0.0071221038
C  C134  1  0.58180000  0.55880000  0.59010000  1.0 -0.110755148
C  C135  1  0.58670000  0.64190000  0.58630000  1.0 -0.1410442849
C  C136  1  0.64840000  0.43020000  0.58160000  1.0 0.5989388249
C  C137  1  0.85330000  0.21790000  0.57810000  1.0 0.5933162591
C  C138  1  0.94070000  0.21470000  0.57830000  1.0 -0.0429124649
C  C139  1  0.98080000  0.17460000  0.60720000  1.0 -0.110755148
C  C140  1  0.06160000  0.17160000  0.60870000  1.0 -0.1587650755
C  C141  1  0.10310000  0.21310000  0.57820000  1.0 0.1196877555
C  C142  1  0.06360000  0.25540000  0.54700000  1.0 -0.1977756714
C  C143  1  0.98230000  0.25530000  0.54900000  1.0 -0.0823543125
C  C144  1  0.18960000  0.21360000  0.57920000  1.0 -0.0429124649
C  C145  1  0.23120000  0.24460000  0.61250000  1.0 -0.1299623435
C  C146  1  0.31130000  0.24850000  0.61430000  1.0 -0.1299623435
C  C147  1  0.35190000  0.22110000  0.58170000  1.0 -0.0208016073
C  C148  1  0.31320000  0.19180000  0.54900000  1.0 -0.193191659
C  C149  1  0.23110000  0.19050000  0.54810000  1.0 0.2088302395
C  C150  1  0.43850000  0.22410000  0.58210000  1.0 0.5933162591
C  C151  1  0.99670000  0.73570000  0.82970000  1.0 0.0607795197
C  C152  1  0.94600000  0.77560000  0.80410000  1.0 -0.110755148
C  C153  1  0.97150000  0.84190000  0.78380000  1.0 0.0322680616
C  C154  1  0.04780000  0.86840000  0.78900000  1.0 -0.0208016073
C  C155  1  0.09840000  0.82860000  0.81460000  1.0 0.0699222398
C  C156  1  0.91990000  0.95850000  0.74710000  1.0 -0.0823543125
C  C157  1  0.91750000  0.88350000  0.75620000  1.0 -0.0677495177
C  C158  1  0.74850000  0.01090000  0.68050000  1.0 0.0607795197
C  C159  1  0.83510000  0.12190000  0.68480000  1.0 0.0796454787
C  C160  1  0.79720000  0.96920000  0.70630000  1.0 -0.0208016073
C  C161  1  0.86480000  0.00380000  0.72140000  1.0 0.0322680616
C  C162  1  0.88370000  0.08010000  0.71070000  1.0 -0.110755148
C  C163  1  0.33190000  0.72010000  0.31500000  1.0 0.5814817917
C  C164  1  0.31400000  0.70180000  0.27170000  1.0 0.0100041519
C  C165  1  0.37490000  0.66730000  0.24900000  1.0 -0.1186590453
C  C166  1  0.35500000  0.65340000  0.20860000  1.0 -0.1410442849
C  C167  1  0.28610000  0.67550000  0.19070000  1.0 -0.0429124649
C  C168  1  0.22980000  0.70460000  0.21470000  1.0 0.2088302395
C  C169  1  0.24300000  0.71740000  0.25470000  1.0 -0.236189624
C  C170  1  0.27560000  0.66500000  0.14790000  1.0 0.0899779082
C  C171  1  0.33160000  0.69240000  0.12220000  1.0 -0.1534159498
C  C172  1  0.32360000  0.68200000  0.08070000  1.0 -0.0937169285
C  C173  1  0.25750000  0.64510000  0.06480000  1.0 -0.0677495177
C  C174  1  0.20380000  0.61160000  0.09090000  1.0 -0.0954743901
C  C175  1  0.21320000  0.62060000  0.13200000  1.0 -0.1696439439
C  C176  1  0.24660000  0.64320000  0.02100000  1.0 0.5814817917
C  C177  1  0.01750000  0.64710000  0.93300000  1.0 0.5814817917
C  C178  1  0.92930000  0.64850000  0.93420000  1.0 -0.0307871983
C  C179  1  0.88790000  0.58930000  0.95123000  1.0 -0.0937169285
C  C180  1  0.80670000  0.59010000  0.94910000  1.0 -0.1410442849
C  C181  1  0.76580000  0.64960000  0.93030000  1.0 0.0796454787
C  C182  1  0.81010000  0.71170000  0.91380000  1.0 -0.1696439439
C  C183  1  0.89080000  0.71100000  0.91510000  1.0 -0.1410442849
C  C184  1  0.68110000  0.64890000  0.92800000  1.0 -0.0071221038
C  C185  1  0.63650000  0.71530000  0.94040000  1.0 0.2310565731
C  C186  1  0.55640000  0.71100000  0.93720000  1.0 -0.193191659
C  C187  1  0.51840000  0.64900000  0.92280000  1.0 -0.0071221038
C  C188  1  0.55880000  0.58180000  0.90990000  1.0 -0.110755148
C  C189  1  0.64190000  0.58670000  0.91370000  1.0 -0.1410442849
C  C190  1  0.43020000  0.64840000  0.91840000  1.0 0.5989388249
C  C191  1  0.21790000  0.85330000  0.92190000  1.0 0.5933162591
C  C192  1  0.21470000  0.94070000  0.92170000  1.0 -0.0429124649
C  C193  1  0.17460000  0.98080000  0.89280000  1.0 -0.110755148
C  C194  1  0.17160000  0.06160000  0.89130000  1.0 -0.1587650755
C  C195  1  0.21310000  0.10310000  0.92180000  1.0 0.1196877555
C  C196  1  0.25540000  0.06360000  0.95300000  1.0 -0.1977756714
C  C197  1  0.25530000  0.98230000  0.95100000  1.0 -0.0823543125
C  C198  1  0.21360000  0.18960000  0.92080000  1.0 -0.0429124649
C  C199  1  0.24460000  0.23120000  0.88750000  1.0 -0.1299623435
C  C200  1  0.24850000  0.31130000  0.88570000  1.0 -0.1299623435
C  C201  1  0.22110000  0.35190000  0.91830000  1.0 -0.0208016073
C  C202  1  0.19180000  0.31320000  0.95100000  1.0 -0.193191659
C  C203  1  0.19050000  0.23110000  0.95190000  1.0 0.2088302395
C  C204  1  0.22410000  0.43850000  0.91790000  1.0 0.5933162591
C  C205  1  0.73570000  0.99670000  0.67030000  1.0 0.0607795197
C  C206  1  0.77560000  0.94600000  0.69590000  1.0 -0.110755148
C  C207  1  0.84190000  0.97150000  0.71620000  1.0 0.0322680616
C  C208  1  0.86840000  0.04780000  0.71100000  1.0 -0.0208016073
C  C209  1  0.82860000  0.09840000  0.68540000  1.0 0.0699222398
C  C210  1  0.95850000  0.91990000  0.75290000  1.0 -0.0823543125
C  C211  1  0.88350000  0.91750000  0.74380000  1.0 -0.0677495177
C  C212  1  0.01090000  0.74850000  0.81950000  1.0 0.0607795197
C  C213  1  0.12190000  0.83510000  0.81520000  1.0 0.0796454787
C  C214  1  0.96920000  0.79720000  0.79370000  1.0 -0.0208016073
C  C215  1  0.00380000  0.86480000  0.77860000  1.0 0.0322680616
C  C216  1  0.08010000  0.88370000  0.78930000  1.0 -0.110755148
N  N1  1  0.27750000  0.85010000  0.70060000  1.0 -0.5962988266
N  N2  1  0.21370000  0.33070000  0.45850000  1.0 -0.6052147427
N  N3  1  0.80110000  0.83630000  0.48870000  1.0 -0.5962988266
N  N4  1  0.92710000  0.23770000  0.16500000  1.0 -0.1977756714
N  N5  1  0.23250000  0.91270000  0.33030000  1.0 -0.193191659
N  N6  1  0.85010000  0.27750000  0.79940000  1.0 -0.5962988266
N  N7  1  0.33070000  0.21370000  0.04150000  1.0 -0.6052147427
N  N8  1  0.83630000  0.80110000  0.01130000  1.0 -0.5962988266
N  N9  1  0.23770000  0.92710000  0.33500000  1.0 -0.1977756714
N  N10  1  0.91270000  0.23250000  0.16970000  1.0 -0.193191659
N  N11  1  0.72250000  0.14990000  0.29940000  1.0 -0.5962988266
N  N12  1  0.78630000  0.66930000  0.54150000  1.0 -0.6052147427
N  N13  1  0.19890000  0.16370000  0.51130000  1.0 -0.5962988266
N  N14  1  0.07290000  0.76230000  0.83500000  1.0 -0.1977756714
N  N15  1  0.76750000  0.08730000  0.66970000  1.0 -0.193191659
N  N16  1  0.14990000  0.72250000  0.20060000  1.0 -0.5962988266
N  N17  1  0.66930000  0.78630000  0.95850000  1.0 -0.6052147427
N  N18  1  0.16370000  0.19890000  0.98870000  1.0 -0.5962988266
N  N19  1  0.76230000  0.07290000  0.66500000  1.0 -0.1977756714
N  N20  1  0.08730000  0.76750000  0.83030000  1.0 -0.193191659
O  O1  1  0.24382000  0.71878000  0.83419000  1.0 -0.5802742371
O  O2  1  0.30503000  0.60357000  0.82880000  1.0 -0.5383540978
O  O3  1  0.39799000  0.80961000  0.50819000  1.0 -0.5303431444
O  O4  1  0.32330000  0.70430000  0.49982000  1.0 -0.5214075276
O  O5  1  0.41075000  0.95033000  0.45114000  1.0 -0.5476119001
O  O6  1  0.29867000  0.94653000  0.41540000  1.0 -0.5668246874
O  O7  1  0.41312000  0.60336000  0.40664000  1.0 -0.5383540978
O  O8  1  0.28921000  0.60405000  0.42825000  1.0 -0.5383540978
O  O9  1  0.18198000  0.82182000  0.39646000  1.0 -0.5476119001
O  O10  1  0.17841000  0.73739000  0.44803000  1.0 -0.5303431444
O  O11  1  0.52901000  0.73653000  0.39020000  1.0 -0.5303431444
O  O12  1  0.52637000  0.81219000  0.44505000  1.0 -0.5476119001
O  O13  1  0.35283000  0.77991000  0.41482000  1.0 -1.000876961
O  O14  1  0.71878000  0.24382000  0.66581000  1.0 -0.5802742371
O  O15  1  0.60357000  0.30503000  0.67120000  1.0 -0.5383540978
O  O16  1  0.80961000  0.39799000  0.99181000  1.0 -0.5303431444
O  O17  1  0.70430000  0.32330000  0.00018000  1.0 -0.5214075276
O  O18  1  0.95033000  0.41075000  0.04886000  1.0 -0.5476119001
O  O19  1  0.94653000  0.29867000  0.08460000  1.0 -0.5668246874
O  O20  1  0.60336000  0.41312000  0.09336000  1.0 -0.5383540978
O  O21  1  0.60405000  0.28921000  0.07175000  1.0 -0.5383540978
O  O22  1  0.82182000  0.18198000  0.10354000  1.0 -0.5476119001
O  O23  1  0.73739000  0.17841000  0.05197000  1.0 -0.5303431444
O  O24  1  0.73653000  0.52901000  0.10980000  1.0 -0.5303431444
O  O25  1  0.81219000  0.52637000  0.05495000  1.0 -0.5476119001
O  O26  1  0.77991000  0.35283000  0.08518000  1.0 -1.000876961
O  O27  1  0.75618000  0.28122000  0.16581000  1.0 -0.5802742371
O  O28  1  0.69497000  0.39643000  0.17120000  1.0 -0.5383540978
O  O29  1  0.60201000  0.19039000  0.49181000  1.0 -0.5303431444
O  O30  1  0.67670000  0.29570000  0.50018000  1.0 -0.5214075276
O  O31  1  0.58925000  0.04967000  0.54886000  1.0 -0.5476119001
O  O32  1  0.70133000  0.05347000  0.58460000  1.0 -0.5668246874
O  O33  1  0.58688000  0.39664000  0.59336000  1.0 -0.5383540978
O  O34  1  0.71079000  0.39595000  0.57175000  1.0 -0.5383540978
O  O35  1  0.81802000  0.17818000  0.60354000  1.0 -0.5476119001
O  O36  1  0.82159000  0.26261000  0.55197000  1.0 -0.5383540978
O  O37  1  0.47099000  0.26347000  0.60980000  1.0 -0.5303431444
O  O38  1  0.47363000  0.18781000  0.55495000  1.0 -0.5476119001
O  O39  1  0.64717000  0.22009000  0.58518000  1.0 -1.000876961
O  O40  1  0.28122000  0.75618000  0.33419000  1.0 -0.5802742371
O  O41  1  0.39643000  0.69497000  0.32880000  1.0 -0.5383540978
O  O42  1  0.19039000  0.60201000  0.00819000  1.0 -0.5303431444
O  O43  1  0.29570000  0.67670000  0.99982000  1.0 -0.5214075276
O  O44  1  0.04967000  0.58925000  0.95114000  1.0 -0.5476119001
O  O45  1  0.05347000  0.70133000  0.91540000  1.0 -0.5668246874
O  O46  1  0.39664000  0.58688000  0.90664000  1.0 -0.5383540978
O  O47  1  0.39595000  0.71079000  0.92825000  1.0 -0.5383540978
O  O48  1  0.17818000  0.81802000  0.89646000  1.0 -0.5476119001
O  O49  1  0.26261000  0.82159000  0.94803000  1.0 -0.5303431444
O  O50  1  0.26347000  0.47099000  0.89020000  1.0 -0.5303431444
O  O51  1  0.18781000  0.47363000  0.94505000  1.0 -0.5476119001
O  O52  1  0.22009000  0.64717000  0.91482000  1.0 -1.000876961
