# DDEC6 charges by PACMAN v1.1 (https://github.com/mtap-research/PACMAN-charge/)
data_YAMPIP_ion_pacman
_chemical_formula_sum              "Li12 Zn4 O136 C144 H104 N40"
_cell_length_a       17.75
_cell_length_b       17.1266
_cell_length_c       17.9998
_cell_angle_alpha    90
_cell_angle_beta     90
_cell_angle_gamma    90

_symmetry_space_group_name_H-M    "P 1"
_symmetry_Int_Tables_number       1

loop_
  _symmetry_equiv_pos_as_xyz
  'x, y, z'

loop_
  _atom_site_type_symbol
  _atom_site_label
  _atom_site_symmetry_multiplicity
  _atom_site_fract_x
  _atom_site_fract_y
  _atom_site_fract_z
  _atom_site_occupancy
 _atom_site_charge
Li  Li1       1.0  0.80850  0.40600  0.78965  1.0000 0.8163637736
Zn  Zn1       1.0  0.98751  0.41998  0.79001  1.0000 0.8163637736
O   O1        1.0  0.84860  0.35500  0.70530  1.0000 -0.6391230082
O   O2        1.0  0.97220  0.36800  0.69596  1.0000 -0.5908022603
O   O3        1.0  0.84145  0.15060  0.37342  1.0000 -0.5908022603
O   O4        1.0  0.96607  0.13496  0.38108  1.0000 -0.5610239139
C   C1        1.0  0.90870  0.34590  0.67320  1.0000 0.5617010961
C   C2        1.0  0.90780  0.30190  0.60120  1.0000 -0.0935468577
C   C3        1.0  0.84310  0.29180  0.56070  1.0000 0.037154616
C   C4        1.0  0.84130  0.24690  0.49680  1.0000 -0.2605626775
H   H1        1.0  0.79561  0.24108  0.46995  1.0000 0.1122256193
C   C5        1.0  0.90590  0.21050  0.47230  1.0000 -0.0299797008
C   C6        1.0  0.90300  0.16140  0.40300  1.0000 0.6073327134
C   C7        1.0  0.97110  0.22150  0.51140  1.0000 0.061049713
C   C8        1.0  0.97290  0.26720  0.57550  1.0000 -0.1505602268
H   H2        1.0  0.01902  0.27453  0.60145  1.0000 0.1502343411
O   O5        1.0  0.77800  0.40920  0.58590  1.0000 -0.2162324419
N   N1        1.0  0.77460  0.33690  0.57560  1.0000 0.4039409825
O   O6        1.0  0.71320  0.30020  0.57630  1.0000 0.061049713
O   O7        1.0  0.70353  0.41639  0.77477  1.0000 -0.6095677098
O   O8        1.0  0.59869  0.42620  0.71064  1.0000 -0.5610239139
O   O9        1.0  0.65890  0.01226  0.79250  1.0000 -0.6015634244
O   O10       1.0  0.53520  0.03073  0.78680  1.0000 -0.5347949198
C   C9        1.0  0.64711  0.38640  0.74690  1.0000 0.5793407405
C   C10       1.0  0.63536  0.29979  0.75470  1.0000 -0.0470658025
C   C11       1.0  0.67100  0.26050  0.81240  1.0000 -0.100670193
H   H3        1.0  0.70343  0.28801  0.84521  1.0000 0.1210195181
C   C12       1.0  0.65900  0.18030  0.82220  1.0000 -0.1305063894
H   H4        1.0  0.68120  0.15401  0.86322  1.0000 0.1210195181
C   C13       1.0  0.61500  0.13930  0.77260  1.0000 -0.0299797008
C   C14       1.0  0.58170  0.17950  0.71480  1.0000 0.0303794252
C   C15       1.0  0.59050  0.25910  0.70560  1.0000 -0.1816200061
H   H5        1.0  0.56596  0.28542  0.66597  1.0000 0.1122256193
C   C16       1.0  0.60270  0.05250  0.78440  1.0000 0.5793407405
N   N2        1.0  0.54090  0.13790  0.65730  1.0000 0.5100857535
O   O11       1.0  0.48390  0.16730  0.63290  1.0000 -0.3084691992
O   O12       1.0  0.56480  0.07470  0.63680  1.0000 -0.2881491165
Li  Li2       1.0  0.48751  0.41998  0.70999  1.0000 0.940470762
O   O13       1.0  0.06400  0.01040  0.48350  1.0000 0.0303794252
N   N3        1.0  0.77520  0.33570  0.58200  1.0000 0.4240564252
O   O14       1.0  0.73210  0.29150  0.61910  1.0000 0.0222835219
N   N4        1.0  0.03710  0.16950  0.50730  1.0000 0.5100857535
O   O15       1.0  0.03960  0.09830  0.52610  1.0000 -0.1816200061
O   O16       1.0  0.09390  0.20560  0.48320  1.0000 -0.3806541717
O   O17       1.0  0.07310  0.95770  0.43070  1.0000 -0.1245486146
Li  Li3       1.0  0.69150  0.59400  0.28965  1.0000 0.8163637736
Zn  Zn2       1.0  0.51249  0.58002  0.29001  1.0000 0.8163637736
O   O18       1.0  0.65140  0.64500  0.20530  1.0000 -0.6391230082
O   O19       1.0  0.52780  0.63200  0.19596  1.0000 -0.5908022603
O   O20       1.0  0.65855  0.84940  0.87342  1.0000 -0.5908022603
O   O21       1.0  0.53393  0.86504  0.88108  1.0000 -0.5610239139
C   C17       1.0  0.59130  0.65410  0.17320  1.0000 0.5617010961
C   C18       1.0  0.59220  0.69810  0.10120  1.0000 -0.0935468577
C   C19       1.0  0.65690  0.70820  0.06070  1.0000 0.037154616
C   C20       1.0  0.65870  0.75310  0.99680  1.0000 -0.2605626775
H   H6        1.0  0.70439  0.75892  0.96995  1.0000 0.1122256193
C   C21       1.0  0.59410  0.78950  0.97230  1.0000 -0.0299797008
C   C22       1.0  0.59700  0.83860  0.90300  1.0000 0.6073327134
C   C23       1.0  0.52890  0.77850  0.01140  1.0000 0.061049713
C   C24       1.0  0.52710  0.73280  0.07550  1.0000 -0.1505602268
H   H7        1.0  0.48098  0.72547  0.10145  1.0000 0.1502343411
O   O22       1.0  0.72200  0.59080  0.08590  1.0000 -0.2162324419
N   N5        1.0  0.72540  0.66310  0.07560  1.0000 0.405935193
O   O23       1.0  0.78680  0.69980  0.07630  1.0000 0.061049713
O   O24       1.0  0.79647  0.58361  0.27477  1.0000 -0.6095677098
O   O25       1.0  0.90131  0.57380  0.21064  1.0000 -0.5610239139
O   O26       1.0  0.84110  0.98774  0.29250  1.0000 -0.6015634244
O   O27       1.0  0.96480  0.96927  0.28680  1.0000 -0.5347949198
C   C25       1.0  0.85289  0.61360  0.24690  1.0000 0.5793407405
C   C26       1.0  0.86464  0.70021  0.25470  1.0000 -0.0470658025
C   C27       1.0  0.82900  0.73950  0.31240  1.0000 -0.100670193
H   H8        1.0  0.79657  0.71199  0.34521  1.0000 0.1210195181
C   C28       1.0  0.84100  0.81970  0.32220  1.0000 -0.1305063894
H   H9        1.0  0.81880  0.84599  0.36322  1.0000 0.1210195181
C   C29       1.0  0.88500  0.86070  0.27260  1.0000 -0.0299797008
C   C30       1.0  0.91830  0.82050  0.21480  1.0000 0.0303794252
C   C31       1.0  0.90950  0.74090  0.20560  1.0000 -0.1816200061
H   H10       1.0  0.93404  0.71458  0.16597  1.0000 0.1122256193
C   C32       1.0  0.89730  0.94750  0.28440  1.0000 0.5793407405
N   N6        1.0  0.95910  0.86210  0.15730  1.0000 0.5100857535
O   O28       1.0  0.01610  0.83270  0.13290  1.0000 -0.3084691992
O   O29       1.0  0.93520  0.92530  0.13680  1.0000 -0.2881491165
Li  Li4       1.0  0.01249  0.58002  0.20999  1.0000 0.940470762
O   O30       1.0  0.43600  0.98960  0.98350  1.0000 0.0303794252
N   N7        1.0  0.72480  0.66430  0.08200  1.0000 0.4240564252
O   O31       1.0  0.76790  0.70850  0.11910  1.0000 0.0222835219
N   N8        1.0  0.46290  0.83050  0.00730  1.0000 0.5100857535
O   O32       1.0  0.46040  0.90170  0.02610  1.0000 -0.1816200061
O   O33       1.0  0.40610  0.79440  0.98320  1.0000 -0.3806541717
O   O34       1.0  0.42690  0.04230  0.93070  1.0000 -0.1245486146
Li  Li5       1.0  0.19150  0.90600  0.71035  1.0000 0.8163637736
Zn  Zn3       1.0  0.01249  0.91998  0.70999  1.0000 0.8163637736
O   O35       1.0  0.15140  0.85500  0.79470  1.0000 -0.6391230082
O   O36       1.0  0.02780  0.86800  0.80404  1.0000 -0.5908022603
O   O37       1.0  0.15855  0.65060  0.12658  1.0000 -0.5908022603
O   O38       1.0  0.03393  0.63496  0.11892  1.0000 -0.5610239139
C   C33       1.0  0.09130  0.84590  0.82680  1.0000 0.5617010961
C   C34       1.0  0.09220  0.80190  0.89880  1.0000 -0.0935468577
C   C35       1.0  0.15690  0.79180  0.93930  1.0000 0.0303794252
C   C36       1.0  0.15870  0.74690  0.00320  1.0000 -0.2605626775
H   H11       1.0  0.20439  0.74108  0.03005  1.0000 0.1122256193
C   C37       1.0  0.09410  0.71050  0.02770  1.0000 -0.0299797008
C   C38       1.0  0.09700  0.66140  0.09700  1.0000 0.6073327134
C   C39       1.0  0.02890  0.72150  0.98860  1.0000 0.061049713
C   C40       1.0  0.02710  0.76720  0.92450  1.0000 -0.1505602268
H   H12       1.0  0.98098  0.77453  0.89855  1.0000 0.1502343411
O   O39       1.0  0.22200  0.90920  0.91410  1.0000 -0.2162324419
N   N9        1.0  0.22540  0.83690  0.92440  1.0000 0.4039409825
O   O40       1.0  0.28680  0.80020  0.92370  1.0000 0.061049713
O   O41       1.0  0.29647  0.91639  0.72523  1.0000 -0.6095677098
O   O42       1.0  0.40131  0.92620  0.78936  1.0000 -0.5610239139
O   O43       1.0  0.34110  0.51226  0.70750  1.0000 -0.6015634244
O   O44       1.0  0.46480  0.53073  0.71320  1.0000 -0.5347949198
C   C41       1.0  0.35289  0.88640  0.75310  1.0000 0.5793407405
C   C42       1.0  0.36464  0.79979  0.74530  1.0000 -0.0470658025
C   C43       1.0  0.32900  0.76050  0.68760  1.0000 -0.100670193
H   H13       1.0  0.29657  0.78801  0.65479  1.0000 0.1210195181
C   C44       1.0  0.34100  0.68030  0.67780  1.0000 -0.1305063894
H   H14       1.0  0.31880  0.65401  0.63678  1.0000 0.1210195181
C   C45       1.0  0.38500  0.63930  0.72740  1.0000 -0.0299797008
C   C46       1.0  0.41830  0.67950  0.78520  1.0000 0.0303794252
C   C47       1.0  0.40950  0.75910  0.79440  1.0000 -0.1816200061
H   H15       1.0  0.43404  0.78542  0.83403  1.0000 0.1122256193
C   C48       1.0  0.39730  0.55250  0.71560  1.0000 0.5793407405
N   N10       1.0  0.45910  0.63790  0.84270  1.0000 0.5100857535
O   O45       1.0  0.51610  0.66730  0.86710  1.0000 -0.3084691992
O   O46       1.0  0.43520  0.57470  0.86320  1.0000 -0.2881491165
Li  Li6       1.0  0.51249  0.91998  0.79001  1.0000 0.940470762
O   O47       1.0  0.93600  0.51040  0.01650  1.0000 0.0303794252
N   N11       1.0  0.22480  0.83570  0.91800  1.0000 0.4240564252
O   O48       1.0  0.26790  0.79150  0.88090  1.0000 0.0222835219
N   N12       1.0  0.96290  0.66950  0.99270  1.0000 0.5100857535
O   O49       1.0  0.96040  0.59830  0.97390  1.0000 -0.1816200061
O   O50       1.0  0.90610  0.70560  0.01680  1.0000 -0.3806541717
O   O51       1.0  0.92690  0.45770  0.06930  1.0000 -0.1245486146
Li  Li7       1.0  0.30850  0.09400  0.21035  1.0000 0.8163637736
Zn  Zn4       1.0  0.48751  0.08002  0.20999  1.0000 0.8163637736
O   O52       1.0  0.34860  0.14500  0.29470  1.0000 -0.6391230082
O   O53       1.0  0.47220  0.13200  0.30404  1.0000 -0.5908022603
O   O54       1.0  0.34145  0.34940  0.62658  1.0000 -0.5908022603
O   O55       1.0  0.46607  0.36504  0.61892  1.0000 -0.5610239139
C   C49       1.0  0.40870  0.15410  0.32680  1.0000 0.5617010961
C   C50       1.0  0.40780  0.19810  0.39880  1.0000 -0.0935468577
C   C51       1.0  0.34310  0.20820  0.43930  1.0000 0.037154616
C   C52       1.0  0.34130  0.25310  0.50320  1.0000 -0.2605626775
H   H16       1.0  0.29561  0.25892  0.53005  1.0000 0.1122256193
C   C53       1.0  0.40590  0.28950  0.52770  1.0000 -0.0299797008
C   C54       1.0  0.40300  0.33860  0.59700  1.0000 0.6073327134
C   C55       1.0  0.47110  0.27850  0.48860  1.0000 0.061049713
C   C56       1.0  0.47290  0.23280  0.42450  1.0000 -0.1505602268
H   H17       1.0  0.51902  0.22547  0.39855  1.0000 0.1502343411
O   O56       1.0  0.27800  0.09080  0.41410  1.0000 -0.2162324419
N   N13       1.0  0.27460  0.16310  0.42440  1.0000 0.4039409825
O   O57       1.0  0.21320  0.19980  0.42370  1.0000 0.061049713
O   O58       1.0  0.20353  0.08361  0.22523  1.0000 -0.6095677098
O   O59       1.0  0.09869  0.07380  0.28936  1.0000 -0.5610239139
O   O60       1.0  0.15890  0.48774  0.20750  1.0000 -0.6015634244
O   O61       1.0  0.03520  0.46927  0.21320  1.0000 -0.5347949198
C   C57       1.0  0.14711  0.11360  0.25310  1.0000 0.5793407405
C   C58       1.0  0.13536  0.20021  0.24530  1.0000 -0.0470658025
C   C59       1.0  0.17100  0.23950  0.18760  1.0000 -0.100670193
H   H18       1.0  0.20343  0.21199  0.15479  1.0000 0.1210195181
C   C60       1.0  0.15900  0.31970  0.17780  1.0000 -0.1305063894
H   H19       1.0  0.18120  0.34599  0.13678  1.0000 0.1210195181
C   C61       1.0  0.11500  0.36070  0.22740  1.0000 -0.0299797008
C   C62       1.0  0.08170  0.32050  0.28520  1.0000 0.0303794252
C   C63       1.0  0.09050  0.24090  0.29440  1.0000 -0.1816200061
H   H20       1.0  0.06596  0.21458  0.33403  1.0000 0.1122256193
C   C64       1.0  0.10270  0.44750  0.21560  1.0000 0.5793407405
N   N14       1.0  0.04090  0.36210  0.34270  1.0000 0.5100857535
O   O62       1.0  0.98390  0.33270  0.36710  1.0000 -0.3084691992
O   O63       1.0  0.06480  0.42530  0.36320  1.0000 -0.2881491165
Li  Li8       1.0  0.98751  0.08002  0.29001  1.0000 0.940470762
O   O64       1.0  0.56400  0.48960  0.51650  1.0000 0.0303794252
N   N15       1.0  0.27520  0.16430  0.41800  1.0000 0.4240564252
O   O65       1.0  0.23210  0.20850  0.38090  1.0000 0.0222835219
N   N16       1.0  0.53710  0.33050  0.49270  1.0000 0.5100857535
O   O66       1.0  0.53960  0.40170  0.47390  1.0000 -0.1816200061
O   O67       1.0  0.59390  0.29440  0.51680  1.0000 -0.3806541717
O   O68       1.0  0.57310  0.54230  0.56930  1.0000 -0.1245486146
Li  Li9       1.0  0.19150  0.59400  0.21035  1.0000 0.8110092351
O   O69       1.0  0.15140  0.64500  0.29470  1.0000 -0.6302862857
O   O70       1.0  0.02780  0.63200  0.30404  1.0000 -0.5176793268
O   O71       1.0  0.15855  0.84940  0.62658  1.0000 -0.6015634244
O   O72       1.0  0.03393  0.86504  0.61892  1.0000 -0.6302862857
C   C65       1.0  0.09130  0.65410  0.32680  1.0000 0.5617010961
C   C66       1.0  0.09220  0.69810  0.39880  1.0000 -0.100670193
C   C67       1.0  0.15690  0.70820  0.43930  1.0000 0.037154616
C   C68       1.0  0.15870  0.75310  0.50320  1.0000 -0.2605626775
H   H21       1.0  0.20439  0.75892  0.53005  1.0000 0.1122256193
C   C69       1.0  0.09410  0.78950  0.52770  1.0000 -0.0182854553
C   C70       1.0  0.09700  0.83860  0.59700  1.0000 0.6073327134
C   C71       1.0  0.02890  0.77850  0.48860  1.0000 0.061049713
C   C72       1.0  0.02710  0.73280  0.42450  1.0000 -0.1612891486
H   H22       1.0  0.98098  0.72547  0.39855  1.0000 0.1502343411
O   O73       1.0  0.22200  0.59080  0.41410  1.0000 -0.2162324419
N   N17       1.0  0.22540  0.66310  0.42440  1.0000 0.405935193
O   O74       1.0  0.28680  0.69980  0.42370  1.0000 0.061049713
O   O75       1.0  0.29647  0.58361  0.22523  1.0000 -0.6302862857
O   O76       1.0  0.40131  0.57380  0.28936  1.0000 -0.6391230082
O   O77       1.0  0.34110  0.98774  0.20750  1.0000 -0.6204229286
O   O78       1.0  0.46480  0.96927  0.21320  1.0000 -0.6095677098
C   C73       1.0  0.35289  0.61360  0.25310  1.0000 0.5793407405
C   C74       1.0  0.36464  0.70021  0.24530  1.0000 -0.0396625256
C   C75       1.0  0.32900  0.73950  0.18760  1.0000 -0.1131207278
H   H23       1.0  0.29657  0.71199  0.15479  1.0000 0.1210195181
C   C76       1.0  0.34100  0.81970  0.17780  1.0000 -0.1372464193
H   H24       1.0  0.31880  0.84599  0.13678  1.0000 0.1122256193
C   C77       1.0  0.38500  0.86070  0.22740  1.0000 -0.0299797008
C   C78       1.0  0.41830  0.82050  0.28520  1.0000 0.0222835219
C   C79       1.0  0.40950  0.74090  0.29440  1.0000 -0.1612891486
H   H25       1.0  0.43404  0.71458  0.33403  1.0000 0.1210195181
C   C80       1.0  0.39730  0.94750  0.21560  1.0000 0.5793407405
N   N18       1.0  0.45910  0.86210  0.34270  1.0000 0.5100857535
O   O79       1.0  0.51610  0.83270  0.36710  1.0000 -0.3023798099
O   O80       1.0  0.43520  0.92530  0.36320  1.0000 -0.2881491165
O   O81       1.0  0.93600  0.98960  0.51650  1.0000 0.0303794252
N   N19       1.0  0.22480  0.66430  0.41800  1.0000 0.4240564252
O   O82       1.0  0.26790  0.70850  0.38090  1.0000 0.0222835219
N   N20       1.0  0.96290  0.83050  0.49270  1.0000 0.5100857535
O   O83       1.0  0.96040  0.90170  0.47390  1.0000 -0.1816200061
O   O84       1.0  0.90610  0.79440  0.51680  1.0000 -0.3806541717
O   O85       1.0  0.92690  0.04230  0.56930  1.0000 -0.0935468577
Li  Li10      1.0  0.30850  0.40600  0.71035  1.0000 0.8110092351
O   O86       1.0  0.34860  0.35500  0.79470  1.0000 -0.6302862857
O   O87       1.0  0.47220  0.36800  0.80404  1.0000 -0.5176793268
O   O88       1.0  0.34145  0.15060  0.12658  1.0000 -0.6015634244
O   O89       1.0  0.46607  0.13496  0.11892  1.0000 -0.6204229286
C   C81       1.0  0.40870  0.34590  0.82680  1.0000 0.5617010961
C   C82       1.0  0.40780  0.30190  0.89880  1.0000 -0.100670193
C   C83       1.0  0.34310  0.29180  0.93930  1.0000 0.037154616
C   C84       1.0  0.34130  0.24690  0.00320  1.0000 -0.2605626775
H   H26       1.0  0.29561  0.24108  0.03005  1.0000 0.1122256193
C   C85       1.0  0.40590  0.21050  0.02770  1.0000 -0.0182854553
C   C86       1.0  0.40300  0.16140  0.09700  1.0000 0.6073327134
C   C87       1.0  0.47110  0.22150  0.98860  1.0000 0.061049713
C   C88       1.0  0.47290  0.26720  0.92450  1.0000 -0.1612891486
H   H27       1.0  0.51902  0.27453  0.89855  1.0000 0.1502343411
O   O90       1.0  0.27800  0.40920  0.91410  1.0000 -0.2162324419
N   N21       1.0  0.27460  0.33690  0.92440  1.0000 0.405935193
O   O91       1.0  0.21320  0.30020  0.92370  1.0000 0.0651854942
O   O92       1.0  0.20353  0.41639  0.72523  1.0000 -0.6302862857
O   O93       1.0  0.09869  0.42620  0.78936  1.0000 -0.6391230082
O   O94       1.0  0.15890  0.01226  0.70750  1.0000 -0.6204229286
O   O95       1.0  0.03520  0.03073  0.71320  1.0000 -0.6095677098
C   C89       1.0  0.14711  0.38640  0.75310  1.0000 0.5793407405
C   C90       1.0  0.13536  0.29979  0.74530  1.0000 -0.0396625256
C   C91       1.0  0.17100  0.26050  0.68760  1.0000 -0.1131207278
H   H28       1.0  0.20343  0.28801  0.65479  1.0000 0.1210195181
C   C92       1.0  0.15900  0.18030  0.67780  1.0000 -0.1372464193
H   H29       1.0  0.18120  0.15401  0.63678  1.0000 0.1122256193
C   C93       1.0  0.11500  0.13930  0.72740  1.0000 -0.0299797008
C   C94       1.0  0.08170  0.17950  0.78520  1.0000 0.0222835219
C   C95       1.0  0.09050  0.25910  0.79440  1.0000 -0.1612891486
H   H30       1.0  0.06596  0.28542  0.83403  1.0000 0.1210195181
C   C96       1.0  0.10270  0.05250  0.71560  1.0000 0.5793407405
N   N22       1.0  0.04090  0.13790  0.84270  1.0000 0.5100857535
O   O96       1.0  0.98390  0.16730  0.86710  1.0000 -0.3023798099
O   O97       1.0  0.06480  0.07470  0.86320  1.0000 -0.284923189
O   O98       1.0  0.56400  0.01040  0.01650  1.0000 0.0303794252
N   N23       1.0  0.27520  0.33570  0.91800  1.0000 0.4240564252
O   O99       1.0  0.23210  0.29150  0.88090  1.0000 0.0222835219
N   N24       1.0  0.53710  0.16950  0.99270  1.0000 0.5100857535
O   O100      1.0  0.53960  0.09830  0.97390  1.0000 -0.1816200061
O   O101      1.0  0.59390  0.20560  0.01680  1.0000 -0.3806541717
O   O102      1.0  0.57310  0.95770  0.06930  1.0000 -0.0935468577
Li  Li11      1.0  0.80850  0.09400  0.28965  1.0000 0.8110092351
O   O103      1.0  0.84860  0.14500  0.20530  1.0000 -0.6302862857
O   O104      1.0  0.97220  0.13200  0.19596  1.0000 -0.5176793268
O   O105      1.0  0.84145  0.34940  0.87342  1.0000 -0.6015634244
O   O106      1.0  0.96607  0.36504  0.88108  1.0000 -0.6302862857
C   C97       1.0  0.90870  0.15410  0.17320  1.0000 0.5617010961
C   C98       1.0  0.90780  0.19810  0.10120  1.0000 -0.100670193
C   C99       1.0  0.84310  0.20820  0.06070  1.0000 0.037154616
C   C100      1.0  0.84130  0.25310  0.99680  1.0000 -0.2605626775
H   H31       1.0  0.79561  0.25892  0.96995  1.0000 0.1122256193
C   C101      1.0  0.90590  0.28950  0.97230  1.0000 -0.0182854553
C   C102      1.0  0.90300  0.33860  0.90300  1.0000 0.6073327134
C   C103      1.0  0.97110  0.27850  0.01140  1.0000 0.061049713
C   C104      1.0  0.97290  0.23280  0.07550  1.0000 -0.1612891486
H   H32       1.0  0.01902  0.22547  0.10145  1.0000 0.1502343411
O   O107      1.0  0.77800  0.09080  0.08590  1.0000 -0.2162324419
N   N25       1.0  0.77460  0.16310  0.07560  1.0000 0.405935193
O   O108      1.0  0.71320  0.19980  0.07630  1.0000 0.0651854942
O   O109      1.0  0.70353  0.08361  0.27477  1.0000 -0.6302862857
O   O110      1.0  0.59869  0.07380  0.21064  1.0000 -0.6391230082
O   O111      1.0  0.65890  0.48774  0.29250  1.0000 -0.6204229286
O   O112      1.0  0.53520  0.46927  0.28680  1.0000 -0.6095677098
C   C105      1.0  0.64711  0.11360  0.24690  1.0000 0.5793407405
C   C106      1.0  0.63536  0.20021  0.25470  1.0000 -0.0396625256
C   C107      1.0  0.67100  0.23950  0.31240  1.0000 -0.1131207278
H   H33       1.0  0.70343  0.21199  0.34521  1.0000 0.1210195181
C   C108      1.0  0.65900  0.31970  0.32220  1.0000 -0.1372464193
H   H34       1.0  0.68120  0.34599  0.36322  1.0000 0.1122256193
C   C109      1.0  0.61500  0.36070  0.27260  1.0000 -0.0299797008
C   C110      1.0  0.58170  0.32050  0.21480  1.0000 0.0222835219
C   C111      1.0  0.59050  0.24090  0.20560  1.0000 -0.1612891486
H   H35       1.0  0.56596  0.21458  0.16597  1.0000 0.1210195181
C   C112      1.0  0.60270  0.44750  0.28440  1.0000 0.5793407405
N   N26       1.0  0.54090  0.36210  0.15730  1.0000 0.5100857535
O   O113      1.0  0.48390  0.33270  0.13290  1.0000 -0.3023798099
O   O114      1.0  0.56480  0.42530  0.13680  1.0000 -0.284923189
O   O115      1.0  0.06400  0.48960  0.98350  1.0000 0.0303794252
N   N27       1.0  0.77520  0.16430  0.08200  1.0000 0.4240564252
O   O116      1.0  0.73210  0.20850  0.11910  1.0000 0.0222835219
N   N28       1.0  0.03710  0.33050  0.00730  1.0000 0.5100857535
O   O117      1.0  0.03960  0.40170  0.02610  1.0000 -0.1816200061
O   O118      1.0  0.09390  0.29440  0.98320  1.0000 -0.3806541717
O   O119      1.0  0.07310  0.54230  0.93070  1.0000 -0.0935468577
Li  Li12      1.0  0.69150  0.90600  0.78965  1.0000 0.8110092351
O   O120      1.0  0.65140  0.85500  0.70530  1.0000 -0.6302862857
O   O121      1.0  0.52780  0.86800  0.69596  1.0000 -0.5176793268
O   O122      1.0  0.65855  0.65060  0.37342  1.0000 -0.6015634244
O   O123      1.0  0.53393  0.63496  0.38108  1.0000 -0.6302862857
C   C113      1.0  0.59130  0.84590  0.67320  1.0000 0.5617010961
C   C114      1.0  0.59220  0.80190  0.60120  1.0000 -0.100670193
C   C115      1.0  0.65690  0.79180  0.56070  1.0000 0.037154616
C   C116      1.0  0.65870  0.74690  0.49680  1.0000 -0.2605626775
H   H36       1.0  0.70439  0.74108  0.46995  1.0000 0.1122256193
C   C117      1.0  0.59410  0.71050  0.47230  1.0000 -0.0182854553
C   C118      1.0  0.59700  0.66140  0.40300  1.0000 0.6073327134
C   C119      1.0  0.52890  0.72150  0.51140  1.0000 0.061049713
C   C120      1.0  0.52710  0.76720  0.57550  1.0000 -0.1612891486
H   H37       1.0  0.48098  0.77453  0.60145  1.0000 0.1502343411
O   O124      1.0  0.72200  0.90920  0.58590  1.0000 -0.2162324419
N   N29       1.0  0.72540  0.83690  0.57560  1.0000 0.405935193
O   O125      1.0  0.78680  0.80020  0.57630  1.0000 0.0651854942
O   O126      1.0  0.79647  0.91639  0.77477  1.0000 -0.6302862857
O   O127      1.0  0.90131  0.92620  0.71064  1.0000 -0.6391230082
O   O128      1.0  0.84110  0.51226  0.79250  1.0000 -0.6204229286
O   O129      1.0  0.96480  0.53073  0.78680  1.0000 -0.6095677098
C   C121      1.0  0.85289  0.88640  0.74690  1.0000 0.5793407405
C   C122      1.0  0.86464  0.79979  0.75470  1.0000 -0.0396625256
C   C123      1.0  0.82900  0.76050  0.81240  1.0000 -0.1131207278
H   H38       1.0  0.79657  0.78801  0.84521  1.0000 0.1210195181
C   C124      1.0  0.84100  0.68030  0.82220  1.0000 -0.1372464193
H   H39       1.0  0.81880  0.65401  0.86322  1.0000 0.1122256193
C   C125      1.0  0.88500  0.63930  0.77260  1.0000 -0.0299797008
C   C126      1.0  0.91830  0.67950  0.71480  1.0000 0.0222835219
C   C127      1.0  0.90950  0.75910  0.70560  1.0000 -0.1612891486
H   H40       1.0  0.93404  0.78542  0.66597  1.0000 0.1210195181
C   C128      1.0  0.89730  0.55250  0.78440  1.0000 0.5793407405
N   N30       1.0  0.95910  0.63790  0.65730  1.0000 0.5100857535
O   O130      1.0  0.01610  0.66730  0.63290  1.0000 -0.3023798099
O   O131      1.0  0.93520  0.57470  0.63680  1.0000 -0.2881491165
O   O132      1.0  0.43600  0.51040  0.48350  1.0000 0.0303794252
N   N31       1.0  0.72480  0.83570  0.58200  1.0000 0.4240564252
O   O133      1.0  0.76790  0.79150  0.61910  1.0000 0.0222835219
N   N32       1.0  0.46290  0.66950  0.50730  1.0000 0.5100857535
O   O134      1.0  0.46040  0.59830  0.52610  1.0000 -0.1816200061
O   O135      1.0  0.40610  0.70560  0.48320  1.0000 -0.3806541717
O   O136      1.0  0.42690  0.45770  0.43070  1.0000 -0.0935468577
N   N33       1.0  0.82240  0.07520  0.72200  1.0000 -0.0762316031
H   H41       1.0  0.85458  0.03422  0.71670  1.0000 0.2582584316
H   H42       1.0  0.79261  0.06415  0.76171  1.0000 0.2582584316
C   C129      1.0  0.86450  0.13700  0.74110  1.0000 -0.2605626775
H   H43       1.0  0.87502  0.13511  0.79453  1.0000 0.1294523919
H   H44       1.0  0.91203  0.13580  0.71346  1.0000 0.1210195181
H   H45       1.0  0.83718  0.18513  0.72936  1.0000 0.1122256193
C   C130      1.0  0.77580  0.07510  0.65970  1.0000 -0.3219593843
H   H46       1.0  0.73918  0.03252  0.66388  1.0000 0.1294523919
H   H47       1.0  0.74915  0.12505  0.65640  1.0000 0.0992954889
H   H48       1.0  0.80641  0.06754  0.61490  1.0000 0.1122256193
N   N34       1.0  0.67760  0.92480  0.22200  1.0000 -0.0762316031
H   H49       1.0  0.64542  0.96578  0.21670  1.0000 0.2582584316
H   H50       1.0  0.70739  0.93585  0.26171  1.0000 0.2582584316
C   C131      1.0  0.63550  0.86300  0.24110  1.0000 -0.2605626775
H   H51       1.0  0.62498  0.86489  0.29453  1.0000 0.1294523919
H   H52       1.0  0.58797  0.86420  0.21346  1.0000 0.1210195181
H   H53       1.0  0.66282  0.81487  0.22936  1.0000 0.1122256193
C   C132      1.0  0.72420  0.92490  0.15970  1.0000 -0.3219593843
H   H54       1.0  0.76082  0.96748  0.16388  1.0000 0.1294523919
H   H55       1.0  0.75085  0.87495  0.15640  1.0000 0.0992954889
H   H56       1.0  0.69359  0.93246  0.11490  1.0000 0.1122256193
N   N35       1.0  0.17760  0.57520  0.77800  1.0000 -0.0762316031
H   H57       1.0  0.14542  0.53422  0.78330  1.0000 0.2582584316
H   H58       1.0  0.20739  0.56415  0.73829  1.0000 0.2582584316
C   C133      1.0  0.13550  0.63700  0.75890  1.0000 -0.2605626775
H   H59       1.0  0.12498  0.63511  0.70547  1.0000 0.1294523919
H   H60       1.0  0.08797  0.63580  0.78654  1.0000 0.1210195181
H   H61       1.0  0.16282  0.68513  0.77064  1.0000 0.1122256193
C   C134      1.0  0.22420  0.57510  0.84030  1.0000 -0.3219593843
H   H62       1.0  0.26082  0.53252  0.83612  1.0000 0.1294523919
H   H63       1.0  0.25085  0.62505  0.84360  1.0000 0.0992954889
H   H64       1.0  0.19359  0.56754  0.88510  1.0000 0.1122256193
N   N36       1.0  0.32240  0.42480  0.27800  1.0000 -0.0762316031
H   H65       1.0  0.35458  0.46578  0.28330  1.0000 0.2582584316
H   H66       1.0  0.29261  0.43585  0.23829  1.0000 0.2582584316
C   C135      1.0  0.36450  0.36300  0.25890  1.0000 -0.2605626775
H   H67       1.0  0.37502  0.36489  0.20547  1.0000 0.1294523919
H   H68       1.0  0.41203  0.36420  0.28654  1.0000 0.1210195181
H   H69       1.0  0.33718  0.31487  0.27064  1.0000 0.1122256193
C   C136      1.0  0.27580  0.42490  0.34030  1.0000 -0.3219593843
H   H70       1.0  0.23918  0.46748  0.33612  1.0000 0.1294523919
H   H71       1.0  0.24915  0.37495  0.34360  1.0000 0.0992954889
H   H72       1.0  0.30641  0.43246  0.38510  1.0000 0.1122256193
N   N37       1.0  0.17760  0.92480  0.27800  1.0000 -0.0762316031
H   H73       1.0  0.14542  0.96578  0.28330  1.0000 0.2582584316
H   H74       1.0  0.20739  0.93585  0.23829  1.0000 0.2582584316
C   C137      1.0  0.13550  0.86300  0.25890  1.0000 -0.2605626775
H   H75       1.0  0.12498  0.86489  0.20547  1.0000 0.1294523919
H   H76       1.0  0.08797  0.86420  0.28654  1.0000 0.1210195181
H   H77       1.0  0.16282  0.81487  0.27064  1.0000 0.1122256193
C   C138      1.0  0.22420  0.92490  0.34030  1.0000 -0.3219593843
H   H78       1.0  0.26082  0.96748  0.33612  1.0000 0.1294523919
H   H79       1.0  0.25085  0.87495  0.34360  1.0000 0.0992954889
H   H80       1.0  0.19359  0.93246  0.38510  1.0000 0.1122256193
N   N38       1.0  0.32240  0.07520  0.77800  1.0000 -0.0762316031
H   H81       1.0  0.35458  0.03422  0.78330  1.0000 0.2582584316
H   H82       1.0  0.29261  0.06415  0.73829  1.0000 0.2582584316
C   C139      1.0  0.36450  0.13700  0.75890  1.0000 -0.2605626775
H   H83       1.0  0.37502  0.13511  0.70547  1.0000 0.1294523919
H   H84       1.0  0.41203  0.13580  0.78654  1.0000 0.1210195181
H   H85       1.0  0.33718  0.18513  0.77064  1.0000 0.1122256193
C   C140      1.0  0.27580  0.07510  0.84030  1.0000 -0.3219593843
H   H86       1.0  0.23918  0.03252  0.83612  1.0000 0.1294523919
H   H87       1.0  0.24915  0.12505  0.84360  1.0000 0.0992954889
H   H88       1.0  0.30641  0.06754  0.88510  1.0000 0.1122256193
N   N39       1.0  0.82240  0.42480  0.22200  1.0000 -0.0762316031
H   H89       1.0  0.85458  0.46578  0.21670  1.0000 0.2582584316
H   H90       1.0  0.79261  0.43585  0.26171  1.0000 0.2582584316
C   C141      1.0  0.86450  0.36300  0.24110  1.0000 -0.2605626775
H   H91       1.0  0.87502  0.36489  0.29453  1.0000 0.1294523919
H   H92       1.0  0.91203  0.36420  0.21346  1.0000 0.1210195181
H   H93       1.0  0.83718  0.31487  0.22936  1.0000 0.1122256193
C   C142      1.0  0.77580  0.42490  0.15970  1.0000 -0.3219593843
H   H94       1.0  0.73918  0.46748  0.16388  1.0000 0.1294523919
H   H95       1.0  0.74915  0.37495  0.15640  1.0000 0.0992954889
H   H96       1.0  0.80641  0.43246  0.11490  1.0000 0.1122256193
N   N40       1.0  0.67760  0.57520  0.72200  1.0000 -0.0762316031
H   H97       1.0  0.64542  0.53422  0.71670  1.0000 0.2582584316
H   H98       1.0  0.70739  0.56415  0.76171  1.0000 0.2582584316
C   C143      1.0  0.63550  0.63700  0.74110  1.0000 -0.2605626775
H   H99       1.0  0.62498  0.63511  0.79453  1.0000 0.1294523919
H   H100      1.0  0.58797  0.63580  0.71346  1.0000 0.1210195181
H   H101      1.0  0.66282  0.68513  0.72936  1.0000 0.1122256193
C   C144      1.0  0.72420  0.57510  0.65970  1.0000 -0.3219593843
H   H102      1.0  0.76082  0.53252  0.66388  1.0000 0.1294523919
H   H103      1.0  0.75085  0.62505  0.65640  1.0000 0.0992954889
H   H104      1.0  0.69359  0.56754  0.61490  1.0000 0.1122256193
  Li  Li13      1.0  0.98751  0.41998  0.79001  1.0000
  Zn  Zn5       1.0  0.48751  0.41998  0.70999  1.0000
  Li  Li14      1.0  0.51249  0.58002  0.29001  1.0000
  Zn  Zn6       1.0  0.01249  0.58002  0.20999  1.0000
  Li  Li15      1.0  0.01249  0.91998  0.70999  1.0000
  Zn  Zn7       1.0  0.51249  0.91998  0.79001  1.0000
  Li  Li16      1.0  0.48751  0.08002  0.20999  1.0000
  Zn  Zn8       1.0  0.98751  0.08002  0.29001  1.0000
