# DDEC6 charges by PACMAN v1.1 (https://github.com/mtap-research/PACMAN-charge/)
data_YAMYUJ_ASR_pacman
_symmetry_space_group_name_H-M   'P 1'
_cell_length_a   19.07780000
_cell_length_b   19.07780000
_cell_length_c   31.99600000
_cell_angle_alpha   74.63110000
_cell_angle_beta   105.36900000
_cell_angle_gamma   87.47710000
_symmetry_Int_Tables_number   1
_chemical_formula_structural   Zn4H13C79O14
_chemical_formula_sum   'Zn16 H52 C316 O56'
_cell_volume   10745.26772541
_cell_formula_units_Z   4
loop_
 _symmetry_equiv_pos_site_id
 _symmetry_equiv_pos_as_xyz
  1  'x, y, z'
loop_
 _atom_site_type_symbol
 _atom_site_label
 _atom_site_symmetry_multiplicity
 _atom_site_fract_x
 _atom_site_fract_y
 _atom_site_fract_z
 _atom_site_occupancy
 _atom_site_charge
Zn  Zn1  1  0.75916000  0.46108000  0.13953000  1.0 0.9352286209
Zn  Zn2  1  0.53892000  0.24084000  0.63953000  1.0 0.9334611246
Zn  Zn3  1  0.61312000  0.54704000  0.06894000  1.0 0.9334611246
Zn  Zn4  1  0.45296000  0.38688000  0.56894000  1.0 0.9334611246
Zn  Zn5  1  0.69759000  0.61355000  0.14688000  1.0 0.9177642215
Zn  Zn6  1  0.38645000  0.30241000  0.64688000  1.0 0.9177642215
Zn  Zn7  1  0.76273000  0.60609000  0.06532000  1.0 0.9477115024
Zn  Zn8  1  0.39391000  0.23727000  0.56532000  1.0 0.9477115024
Zn  Zn9  1  0.46108000  0.75916000  0.36047000  1.0 0.9352286209
Zn  Zn10  1  0.24084000  0.53892000  0.86047000  1.0 0.9334611246
Zn  Zn11  1  0.54704000  0.61312000  0.43106000  1.0 0.9334611246
Zn  Zn12  1  0.38688000  0.45296000  0.93106000  1.0 0.9334611246
Zn  Zn13  1  0.61355000  0.69759000  0.35312000  1.0 0.9177642215
Zn  Zn14  1  0.30241000  0.38645000  0.85312000  1.0 0.9177642215
Zn  Zn15  1  0.60609000  0.76273000  0.43468000  1.0 0.9477115024
Zn  Zn16  1  0.23727000  0.39391000  0.93468000  1.0 0.9477115024
H  H1  1  0.52830000  0.60730000  0.20250000  1.0 0.1287873054
H  H2  1  0.39270000  0.47170000  0.70250000  1.0 0.1287873054
H  H3  1  0.41570000  0.53170000  0.10240000  1.0 0.1198776273
H  H4  1  0.46830000  0.58430000  0.60240000  1.0 0.1198776273
H  H5  1  0.43800000  0.57980000  0.24040000  1.0 0.1198776273
H  H6  1  0.42020000  0.56200000  0.74040000  1.0 0.1198776273
H  H7  1  0.33090000  0.49670000  0.14080000  1.0 0.1123910744
H  H8  1  0.50330000  0.66910000  0.64080000  1.0 0.1123910744
H  H9  1  0.39210000  0.48670000  0.28300000  1.0 0.1198776273
H  H10  1  0.51330000  0.60790000  0.78300000  1.0 0.1198776273
H  H11  1  0.23310000  0.52650000  0.16430000  1.0 0.1198776273
H  H12  1  0.47350000  0.76690000  0.66430000  1.0 0.1198776273
H  H13  1  0.18440000  0.44460000  0.28170000  1.0 0.1287873054
H  H14  1  0.55540000  0.81560000  0.78170000  1.0 0.1287873054
H  H15  1  0.37810000  0.51590000  0.35130000  1.0 0.1287873054
H  H16  1  0.48410000  0.62190000  0.85130000  1.0 0.1287873054
H  H17  1  0.11850000  0.57790000  0.14110000  1.0 0.1198776273
H  H18  1  0.42210000  0.88150000  0.64110000  1.0 0.1198776273
H  H19  1  0.09780000  0.39840000  0.23240000  1.0 0.1198776273
H  H20  1  0.60160000  0.90220000  0.73240000  1.0 0.1198776273
H  H21  1  0.41140000  0.47840000  0.42920000  1.0 0.1373762202
H  H22  1  0.52160000  0.58860000  0.92920000  1.0 0.1373762202
H  H23  1  0.99540000  0.59320000  0.10310000  1.0 0.1287873054
H  H24  1  0.40680000  0.00460000  0.60310000  1.0 0.1287873054
H  H25  1  0.97540000  0.40680000  0.19560000  1.0 0.1373762202
H  H26  1  0.59320000  0.02460000  0.69560000  1.0 0.1373762202
H  H27  1  0.60730000  0.52830000  0.29750000  1.0 0.1287873054
H  H28  1  0.47170000  0.39270000  0.79750000  1.0 0.1287873054
H  H29  1  0.53170000  0.41570000  0.39760000  1.0 0.1198776273
H  H30  1  0.58430000  0.46830000  0.89760000  1.0 0.1198776273
H  H31  1  0.57980000  0.43800000  0.25960000  1.0 0.1198776273
H  H32  1  0.56200000  0.42020000  0.75960000  1.0 0.1198776273
H  H33  1  0.49670000  0.33090000  0.35920000  1.0 0.1123910744
H  H34  1  0.66910000  0.50330000  0.85920000  1.0 0.1123910744
H  H35  1  0.48670000  0.39210000  0.21700000  1.0 0.1198776273
H  H36  1  0.60790000  0.51330000  0.71700000  1.0 0.1198776273
H  H37  1  0.52650000  0.23310000  0.33570000  1.0 0.1198776273
H  H38  1  0.76690000  0.47350000  0.83570000  1.0 0.1198776273
H  H39  1  0.44460000  0.18440000  0.21830000  1.0 0.1287873054
H  H40  1  0.81560000  0.55540000  0.71830000  1.0 0.1287873054
H  H41  1  0.51590000  0.37810000  0.14870000  1.0 0.1287873054
H  H42  1  0.62190000  0.48410000  0.64870000  1.0 0.1287873054
H  H43  1  0.57790000  0.11850000  0.35890000  1.0 0.1198776273
H  H44  1  0.88150000  0.42210000  0.85890000  1.0 0.1198776273
H  H45  1  0.39840000  0.09780000  0.26760000  1.0 0.1198776273
H  H46  1  0.90220000  0.60160000  0.76760000  1.0 0.1198776273
H  H47  1  0.47840000  0.41140000  0.07080000  1.0 0.1373762202
H  H48  1  0.58860000  0.52160000  0.57080000  1.0 0.1373762202
H  H49  1  0.59320000  0.99540000  0.39690000  1.0 0.1287873054
H  H50  1  0.00460000  0.40680000  0.89690000  1.0 0.1287873054
H  H51  1  0.40680000  0.97540000  0.30440000  1.0 0.1373762202
H  H52  1  0.02460000  0.59320000  0.80440000  1.0 0.1373762202
C  C1  1  0.65690000  0.39150000  0.08510000  1.0 0.5981767643
C  C2  1  0.60850000  0.34310000  0.58510000  1.0 0.5981767643
C  C3  1  0.64170000  0.33130000  0.06120000  1.0 -0.0293404015
C  C4  1  0.66870000  0.35830000  0.56120000  1.0 -0.0379437891
C  C5  1  0.53860000  0.58560000  0.12560000  1.0 0.5887741594
C  C6  1  0.41440000  0.46140000  0.62560000  1.0 0.5887741594
C  C7  1  0.58040000  0.34520000  0.02380000  1.0 -0.0026193865
C  C8  1  0.65480000  0.41960000  0.52380000  1.0 -0.0026193865
C  C9  1  0.68570000  0.26430000  0.07640000  1.0 0.0028433063
C  C10  1  0.73570000  0.31430000  0.57640000  1.0 0.0106804949
C  C11  1  0.47870000  0.57330000  0.14840000  1.0 0.019401183
C  C12  1  0.42670000  0.52130000  0.64840000  1.0 0.019401183
C  C13  1  0.56320000  0.29200000  0.00150000  1.0 -0.0600669637
C  C14  1  0.70800000  0.43680000  0.50150000  1.0 -0.0600669637
C  C15  1  0.66850000  0.21130000  0.05410000  1.0 0.0028433063
C  C16  1  0.78870000  0.33150000  0.55410000  1.0 -0.0026193865
C  C17  1  0.48680000  0.58620000  0.18960000  1.0 -0.1211043547
C  C18  1  0.41380000  0.51320000  0.68960000  1.0 -0.1211043547
C  C19  1  0.42110000  0.54070000  0.13080000  1.0 -0.0997877924
C  C20  1  0.45930000  0.57890000  0.63080000  1.0 -0.0997877924
C  C21  1  0.60720000  0.22520000  0.01660000  1.0 0.0106804949
C  C22  1  0.77480000  0.39280000  0.51660000  1.0 0.0106804949
C  C23  1  0.43380000  0.56840000  0.21270000  1.0 -0.1563607778
C  C24  1  0.43160000  0.56620000  0.71270000  1.0 -0.1563607778
C  C25  1  0.37030000  0.52050000  0.15360000  1.0 -0.1405622002
C  C26  1  0.47950000  0.62970000  0.65360000  1.0 -0.1405622002
C  C27  1  0.59890000  0.17150000  0.98910000  1.0 0.0028433063
C  C28  1  0.82850000  0.40110000  0.48910000  1.0 0.0028433063
C  C29  1  0.37470000  0.53390000  0.19480000  1.0 0.0788001839
C  C30  1  0.46610000  0.62530000  0.69480000  1.0 0.0788001839
C  C31  1  0.57700000  0.19500000  0.94210000  1.0 -0.0491882617
C  C32  1  0.80500000  0.42300000  0.44210000  1.0 -0.0491882617
C  C33  1  0.61680000  0.09720000  0.01170000  1.0 -0.0026193865
C  C34  1  0.90280000  0.38320000  0.51170000  1.0 -0.0026193865
C  C35  1  0.32110000  0.51010000  0.21890000  1.0 0.096613181
C  C36  1  0.48990000  0.67890000  0.71890000  1.0 0.096613181
C  C37  1  0.57310000  0.14430000  0.91760000  1.0 0.019401183
C  C38  1  0.85570000  0.42690000  0.41760000  1.0 0.019401183
C  C39  1  0.61270000  0.04650000  0.98720000  1.0 0.0106804949
C  C40  1  0.95350000  0.38730000  0.48720000  1.0 0.0106804949
C  C41  1  0.34260000  0.48640000  0.26670000  1.0 -0.2115506406
C  C42  1  0.51360000  0.65740000  0.76670000  1.0 -0.2115506406
C  C43  1  0.24800000  0.51040000  0.19640000  1.0 -0.1931331407
C  C44  1  0.48960000  0.75200000  0.69640000  1.0 -0.1931331407
C  C45  1  0.59080000  0.07000000  0.94020000  1.0 -0.0026193865
C  C46  1  0.93000000  0.40920000  0.44020000  1.0 -0.0110012563
C  C47  1  0.54730000  0.16650000  0.86810000  1.0 0.0028433063
C  C48  1  0.83350000  0.45270000  0.36810000  1.0 0.0028433063
C  C49  1  0.64870000  0.96730000  0.01510000  1.0 0.0481580805
C  C50  1  0.03270000  0.35130000  0.51510000  1.0 0.0481580805
C  C51  1  0.29060000  0.46180000  0.29100000  1.0 0.0911720891
C  C52  1  0.53820000  0.70940000  0.79100000  1.0 0.0911720891
C  C53  1  0.19640000  0.48900000  0.21780000  1.0 0.0911720891
C  C54  1  0.51100000  0.80360000  0.71780000  1.0 0.0911720891
C  C55  1  0.48670000  0.21730000  0.84230000  1.0 -0.1266541184
C  C56  1  0.78270000  0.51330000  0.34230000  1.0 -0.1266541184
C  C57  1  0.59240000  0.13860000  0.84700000  1.0 0.0307433446
C  C58  1  0.86140000  0.40760000  0.34700000  1.0 0.0307433446
C  C59  1  0.69890000  0.92730000  0.00320000  1.0 0.0307433446
C  C60  1  0.07270000  0.30110000  0.50320000  1.0 0.019401183
C  C61  1  0.62070000  0.93370000  0.05030000  1.0 -0.1063840453
C  C62  1  0.06630000  0.37930000  0.55030000  1.0 -0.0997877924
C  C63  1  0.21910000  0.46230000  0.26630000  1.0 -0.2115506406
C  C64  1  0.53770000  0.78090000  0.76630000  1.0 -0.215093876
C  C65  1  0.31540000  0.43640000  0.34160000  1.0 0.039080763
C  C66  1  0.56360000  0.68460000  0.84160000  1.0 0.039080763
C  C67  1  0.11990000  0.49050000  0.19160000  1.0 0.0788001839
C  C68  1  0.50950000  0.88010000  0.69160000  1.0 0.0788001839
C  C69  1  0.47120000  0.24060000  0.79540000  1.0 -0.0491882617
C  C70  1  0.75940000  0.52880000  0.29540000  1.0 -0.0491882617
C  C71  1  0.57690000  0.16170000  0.80010000  1.0 0.039080763
C  C72  1  0.83830000  0.42310000  0.30010000  1.0 0.0307433446
C  C73  1  0.72110000  0.85370000  0.02640000  1.0 0.019401183
C  C74  1  0.14630000  0.27890000  0.52640000  1.0 0.019401183
C  C75  1  0.64290000  0.86010000  0.07360000  1.0 -0.0379437891
C  C76  1  0.13990000  0.35710000  0.57360000  1.0 -0.0379437891
C  C77  1  0.36070000  0.47350000  0.36650000  1.0 -0.1563607778
C  C78  1  0.52650000  0.63930000  0.86650000  1.0 -0.1487266466
C  C79  1  0.27690000  0.38410000  0.36200000  1.0 -0.0026193865
C  C80  1  0.61590000  0.72310000  0.86200000  1.0 -0.0026193865
C  C81  1  0.08840000  0.54420000  0.15280000  1.0 -0.1487266466
C  C82  1  0.45580000  0.91160000  0.65280000  1.0 -0.1487266466
C  C83  1  0.07630000  0.43830000  0.20620000  1.0 -0.1405622002
C  C84  1  0.56170000  0.92370000  0.70620000  1.0 -0.1405622002
C  C85  1  0.51630000  0.21270000  0.77440000  1.0 0.0106804949
C  C86  1  0.78730000  0.48370000  0.27440000  1.0 0.0106804949
C  C87  1  0.69310000  0.82010000  0.06160000  1.0 0.0106804949
C  C88  1  0.17990000  0.30690000  0.56160000  1.0 0.0106804949
C  C89  1  0.38120000  0.45100000  0.41250000  1.0 -0.1487266466
C  C90  1  0.54900000  0.61880000  0.91250000  1.0 -0.1487266466
C  C91  1  0.29230000  0.37270000  0.40840000  1.0 -0.0293404015
C  C92  1  0.62730000  0.70770000  0.90840000  1.0 -0.0293404015
C  C93  1  0.01580000  0.55300000  0.12930000  1.0 -0.0997877924
C  C94  1  0.44700000  0.98420000  0.62930000  1.0 -0.0997877924
C  C95  1  0.00420000  0.44260000  0.18450000  1.0 -0.0916132741
C  C96  1  0.55740000  0.99580000  0.68450000  1.0 -0.0916132741
C  C97  1  0.51190000  0.23850000  0.72485000  1.0 0.3997128729
C  C98  1  0.76150000  0.48810000  0.22485000  1.0 0.3997128729
C  C99  1  0.72220000  0.74280000  0.08220000  1.0 0.4965011228
C  C100  1  0.25720000  0.27780000  0.58220000  1.0 0.4965011228
C  C101  1  0.35730000  0.38650000  0.43530000  1.0 -0.0110012563
C  C102  1  0.61350000  0.64270000  0.93530000  1.0 -0.0110012563
C  C103  1  0.97300000  0.50080000  0.14540000  1.0 -0.0196387576
C  C104  1  0.49920000  0.02700000  0.64540000  1.0 -0.0196387576
C  C105  1  0.38020000  0.36100000  0.48530000  1.0 0.5981767643
C  C106  1  0.63900000  0.61980000  0.98530000  1.0 0.5887741594
C  C107  1  0.89250000  0.50650000  0.12160000  1.0 0.5981767643
C  C108  1  0.49350000  0.10750000  0.62160000  1.0 0.5981767643
C  C109  1  0.32190000  0.34130000  0.41100000  1.0 0.019401183
C  C110  1  0.65870000  0.67810000  0.91100000  1.0 0.019401183
C  C111  1  0.30220000  0.36740000  0.36400000  1.0 -0.0196387576
C  C112  1  0.63260000  0.69780000  0.86400000  1.0 -0.0196387576
C  C113  1  0.66880000  0.17480000  0.99060000  1.0 0.0307433446
C  C114  1  0.82520000  0.33120000  0.49060000  1.0 0.039080763
C  C115  1  0.64420000  0.19860000  0.94050000  1.0 -0.0110012563
C  C116  1  0.80140000  0.35580000  0.44050000  1.0 -0.0110012563
C  C117  1  0.64670000  0.14610000  0.91950000  1.0 0.0106804949
C  C118  1  0.85390000  0.35330000  0.41950000  1.0 0.0106804949
C  C119  1  0.67000000  0.07340000  0.94220000  1.0 0.019401183
C  C120  1  0.92660000  0.33000000  0.44220000  1.0 0.0106804949
C  C121  1  0.69270000  0.05190000  0.99050000  1.0 0.019401183
C  C122  1  0.94810000  0.30730000  0.49050000  1.0 0.0307433446
C  C123  1  0.69360000  0.10460000  0.01190000  1.0 -0.0379437891
C  C124  1  0.89540000  0.30640000  0.51190000  1.0 -0.0379437891
C  C125  1  0.69160000  0.97360000  0.01150000  1.0 0.039080763
C  C126  1  0.02640000  0.30840000  0.51150000  1.0 0.039080763
C  C127  1  0.72890000  0.92690000  0.99820000  1.0 -0.0706612456
C  C128  1  0.07310000  0.27110000  0.49820000  1.0 -0.0600669637
C  C129  1  0.74440000  0.85240000  0.02050000  1.0 -0.0196387576
C  C130  1  0.14760000  0.25560000  0.52050000  1.0 -0.0293404015
C  C131  1  0.72060000  0.82480000  0.05770000  1.0 0.0028433063
C  C132  1  0.17520000  0.27940000  0.55770000  1.0 0.0106804949
C  C133  1  0.67940000  0.86800000  0.07200000  1.0 0.019401183
C  C134  1  0.13200000  0.32060000  0.57200000  1.0 0.0307433446
C  C135  1  0.66860000  0.94580000  0.04800000  1.0 0.039080763
C  C136  1  0.05420000  0.33140000  0.54800000  1.0 0.039080763
C  C137  1  0.55380000  0.21860000  0.84310000  1.0 0.0106804949
C  C138  1  0.78140000  0.44620000  0.34310000  1.0 0.0106804949
C  C139  1  0.53260000  0.24100000  0.79810000  1.0 0.0106804949
C  C140  1  0.75900000  0.46740000  0.29810000  1.0 0.0106804949
C  C141  1  0.56880000  0.21020000  0.77120000  1.0 0.0481580805
C  C142  1  0.78980000  0.43120000  0.27120000  1.0 0.0481580805
C  C143  1  0.62900000  0.15080000  0.79460000  1.0 -0.0792391624
C  C144  1  0.84920000  0.37100000  0.29460000  1.0 -0.0792391624
C  C145  1  0.65070000  0.13470000  0.84400000  1.0 -0.0600669637
C  C146  1  0.86530000  0.34930000  0.34400000  1.0 -0.0600669637
C  C147  1  0.61640000  0.16960000  0.86730000  1.0 0.019401183
C  C148  1  0.83040000  0.38360000  0.36730000  1.0 0.019401183
C  C149  1  0.60840000  0.28900000  0.99660000  1.0 0.019401183
C  C150  1  0.71100000  0.39160000  0.49660000  1.0 0.019401183
C  C151  1  0.60920000  0.34760000  0.01490000  1.0 0.0106804949
C  C152  1  0.65240000  0.39080000  0.51490000  1.0 0.0106804949
C  C153  1  0.72400000  0.22900000  0.05490000  1.0 -0.0997877924
C  C154  1  0.77100000  0.27600000  0.55490000  1.0 -0.0997877924
C  C155  1  0.70350000  0.28010000  0.07460000  1.0 0.019401183
C  C156  1  0.71990000  0.29650000  0.57460000  1.0 0.019401183
C  C157  1  0.66750000  0.23410000  0.01600000  1.0 0.0106804949
C  C158  1  0.76590000  0.33250000  0.51600000  1.0 0.0106804949
C  C159  1  0.39150000  0.65690000  0.41490000  1.0 0.5981767643
C  C160  1  0.34310000  0.60850000  0.91490000  1.0 0.5981767643
C  C161  1  0.33130000  0.64170000  0.43880000  1.0 -0.0379437891
C  C162  1  0.35830000  0.66870000  0.93880000  1.0 -0.0379437891
C  C163  1  0.58560000  0.53860000  0.37440000  1.0 0.5887741594
C  C164  1  0.46140000  0.41440000  0.87440000  1.0 0.5887741594
C  C165  1  0.34520000  0.58040000  0.47620000  1.0 -0.0026193865
C  C166  1  0.41960000  0.65480000  0.97620000  1.0 -0.0026193865
C  C167  1  0.26430000  0.68570000  0.42360000  1.0 -0.0026193865
C  C168  1  0.31430000  0.73570000  0.92360000  1.0 0.0028433063
C  C169  1  0.57330000  0.47870000  0.35160000  1.0 0.019401183
C  C170  1  0.52130000  0.42670000  0.85160000  1.0 0.0106804949
C  C171  1  0.29200000  0.56320000  0.49850000  1.0 -0.0600669637
C  C172  1  0.43680000  0.70800000  0.99850000  1.0 -0.0600669637
C  C173  1  0.21130000  0.66850000  0.44590000  1.0 0.0028433063
C  C174  1  0.33150000  0.78870000  0.94590000  1.0 0.0106804949
C  C175  1  0.58620000  0.48680000  0.31040000  1.0 -0.1211043547
C  C176  1  0.51320000  0.41380000  0.81040000  1.0 -0.1211043547
C  C177  1  0.54070000  0.42110000  0.36920000  1.0 -0.0997877924
C  C178  1  0.57890000  0.45930000  0.86920000  1.0 -0.0997877924
C  C179  1  0.22520000  0.60720000  0.48340000  1.0 0.0106804949
C  C180  1  0.39280000  0.77480000  0.98340000  1.0 0.0106804949
C  C181  1  0.56840000  0.43380000  0.28730000  1.0 -0.1563607778
C  C182  1  0.56620000  0.43160000  0.78730000  1.0 -0.1563607778
C  C183  1  0.52050000  0.37030000  0.34640000  1.0 -0.1405622002
C  C184  1  0.62970000  0.47950000  0.84640000  1.0 -0.1405622002
C  C185  1  0.17150000  0.59890000  0.51090000  1.0 0.0028433063
C  C186  1  0.40110000  0.82850000  0.01090000  1.0 0.0028433063
C  C187  1  0.53390000  0.37470000  0.30520000  1.0 0.0788001839
C  C188  1  0.62530000  0.46610000  0.80520000  1.0 0.0788001839
C  C189  1  0.19500000  0.57700000  0.55790000  1.0 -0.0491882617
C  C190  1  0.42300000  0.80500000  0.05790000  1.0 -0.0491882617
C  C191  1  0.09720000  0.61680000  0.48830000  1.0 -0.0026193865
C  C192  1  0.38320000  0.90280000  0.98830000  1.0 -0.0026193865
C  C193  1  0.51010000  0.32110000  0.28110000  1.0 0.096613181
C  C194  1  0.67890000  0.48990000  0.78110000  1.0 0.096613181
C  C195  1  0.14430000  0.57310000  0.58240000  1.0 0.019401183
C  C196  1  0.42690000  0.85570000  0.08240000  1.0 0.019401183
C  C197  1  0.04650000  0.61270000  0.51280000  1.0 0.0106804949
C  C198  1  0.38730000  0.95350000  0.01280000  1.0 0.0106804949
C  C199  1  0.48640000  0.34260000  0.23330000  1.0 -0.2115506406
C  C200  1  0.65740000  0.51360000  0.73330000  1.0 -0.2115506406
C  C201  1  0.51040000  0.24800000  0.30360000  1.0 -0.1931331407
C  C202  1  0.75200000  0.48960000  0.80360000  1.0 -0.1931331407
C  C203  1  0.07000000  0.59080000  0.55980000  1.0 -0.0026193865
C  C204  1  0.40920000  0.93000000  0.05980000  1.0 -0.0110012563
C  C205  1  0.16650000  0.54730000  0.63190000  1.0 0.0028433063
C  C206  1  0.45270000  0.83350000  0.13190000  1.0 0.0028433063
C  C207  1  0.96730000  0.64870000  0.48490000  1.0 0.0481580805
C  C208  1  0.35130000  0.03270000  0.98490000  1.0 0.0481580805
C  C209  1  0.46180000  0.29060000  0.20900000  1.0 0.0911720891
C  C210  1  0.70940000  0.53820000  0.70900000  1.0 0.0911720891
C  C211  1  0.48900000  0.19640000  0.28220000  1.0 0.0911720891
C  C212  1  0.80360000  0.51100000  0.78220000  1.0 0.0911720891
C  C213  1  0.21730000  0.48670000  0.65770000  1.0 -0.1211043547
C  C214  1  0.51330000  0.78270000  0.15770000  1.0 -0.1266541184
C  C215  1  0.13860000  0.59240000  0.65300000  1.0 0.0307433446
C  C216  1  0.40760000  0.86140000  0.15300000  1.0 0.0307433446
C  C217  1  0.92730000  0.69890000  0.49680000  1.0 0.019401183
C  C218  1  0.30110000  0.07270000  0.99680000  1.0 0.019401183
C  C219  1  0.93370000  0.62070000  0.44970000  1.0 -0.0997877924
C  C220  1  0.37930000  0.06630000  0.94970000  1.0 -0.0997877924
C  C221  1  0.46230000  0.21910000  0.23370000  1.0 -0.2115506406
C  C222  1  0.78090000  0.53770000  0.73370000  1.0 -0.215093876
C  C223  1  0.43640000  0.31540000  0.15840000  1.0 0.039080763
C  C224  1  0.68460000  0.56360000  0.65840000  1.0 0.039080763
C  C225  1  0.49050000  0.11990000  0.30840000  1.0 0.0788001839
C  C226  1  0.88010000  0.50950000  0.80840000  1.0 0.0788001839
C  C227  1  0.24060000  0.47120000  0.70460000  1.0 -0.0491882617
C  C228  1  0.52880000  0.75940000  0.20460000  1.0 -0.0491882617
C  C229  1  0.16170000  0.57690000  0.69990000  1.0 0.039080763
C  C230  1  0.42310000  0.83830000  0.19990000  1.0 0.039080763
C  C231  1  0.85370000  0.72110000  0.47360000  1.0 0.019401183
C  C232  1  0.27890000  0.14630000  0.97360000  1.0 0.019401183
C  C233  1  0.86010000  0.64290000  0.42640000  1.0 -0.0379437891
C  C234  1  0.35710000  0.13990000  0.92640000  1.0 -0.0379437891
C  C235  1  0.47350000  0.36070000  0.13350000  1.0 -0.1487266466
C  C236  1  0.63930000  0.52650000  0.63350000  1.0 -0.1563607778
C  C237  1  0.38410000  0.27690000  0.13800000  1.0 -0.0026193865
C  C238  1  0.72310000  0.61590000  0.63800000  1.0 -0.0026193865
C  C239  1  0.54420000  0.08840000  0.34720000  1.0 -0.1405622002
C  C240  1  0.91160000  0.45580000  0.84720000  1.0 -0.1487266466
C  C241  1  0.43830000  0.07630000  0.29380000  1.0 -0.1405622002
C  C242  1  0.92370000  0.56170000  0.79380000  1.0 -0.1405622002
C  C243  1  0.21270000  0.51630000  0.72560000  1.0 0.0106804949
C  C244  1  0.48370000  0.78730000  0.22560000  1.0 0.0106804949
C  C245  1  0.82010000  0.69310000  0.43840000  1.0 0.0106804949
C  C246  1  0.30690000  0.17990000  0.93840000  1.0 0.0106804949
C  C247  1  0.45100000  0.38120000  0.08750000  1.0 -0.1487266466
C  C248  1  0.61880000  0.54900000  0.58750000  1.0 -0.1405622002
C  C249  1  0.37270000  0.29230000  0.09160000  1.0 -0.0293404015
C  C250  1  0.70770000  0.62730000  0.59160000  1.0 -0.0293404015
C  C251  1  0.55300000  0.01580000  0.37070000  1.0 -0.0997877924
C  C252  1  0.98420000  0.44700000  0.87070000  1.0 -0.0916132741
C  C253  1  0.44260000  0.00420000  0.31550000  1.0 -0.0916132741
C  C254  1  0.99580000  0.55740000  0.81550000  1.0 -0.0916132741
C  C255  1  0.23850000  0.51190000  0.77515000  1.0 0.3997128729
C  C256  1  0.48810000  0.76150000  0.27515000  1.0 0.3997128729
C  C257  1  0.74280000  0.72220000  0.41780000  1.0 0.4965011228
C  C258  1  0.27780000  0.25720000  0.91780000  1.0 0.4965011228
C  C259  1  0.38650000  0.35730000  0.06470000  1.0 -0.0110012563
C  C260  1  0.64270000  0.61350000  0.56470000  1.0 -0.0110012563
C  C261  1  0.50080000  0.97300000  0.35460000  1.0 -0.0196387576
C  C262  1  0.02700000  0.49920000  0.85460000  1.0 -0.0196387576
C  C263  1  0.36100000  0.38020000  0.01470000  1.0 0.5887741594
C  C264  1  0.61980000  0.63900000  0.51470000  1.0 0.5981767643
C  C265  1  0.50650000  0.89250000  0.37840000  1.0 0.5981767643
C  C266  1  0.10750000  0.49350000  0.87840000  1.0 0.5981767643
C  C267  1  0.34130000  0.32190000  0.08900000  1.0 0.019401183
C  C268  1  0.67810000  0.65870000  0.58900000  1.0 0.019401183
C  C269  1  0.36740000  0.30220000  0.13600000  1.0 -0.0196387576
C  C270  1  0.69780000  0.63260000  0.63600000  1.0 -0.0196387576
C  C271  1  0.17480000  0.66880000  0.50940000  1.0 0.0307433446
C  C272  1  0.33120000  0.82520000  0.00940000  1.0 0.0307433446
C  C273  1  0.19860000  0.64420000  0.55950000  1.0 -0.0110012563
C  C274  1  0.35580000  0.80140000  0.05950000  1.0 -0.0110012563
C  C275  1  0.14610000  0.64670000  0.58050000  1.0 0.0106804949
C  C276  1  0.35330000  0.85390000  0.08050000  1.0 0.0106804949
C  C277  1  0.07340000  0.67000000  0.55780000  1.0 0.0106804949
C  C278  1  0.33000000  0.92660000  0.05780000  1.0 0.0106804949
C  C279  1  0.05190000  0.69270000  0.50950000  1.0 0.0307433446
C  C280  1  0.30730000  0.94810000  0.00950000  1.0 0.0307433446
C  C281  1  0.10460000  0.69360000  0.48810000  1.0 -0.0379437891
C  C282  1  0.30640000  0.89540000  0.98810000  1.0 -0.0379437891
C  C283  1  0.97360000  0.69160000  0.48850000  1.0 0.039080763
C  C284  1  0.30840000  0.02640000  0.98850000  1.0 0.039080763
C  C285  1  0.92690000  0.72890000  0.50180000  1.0 -0.0706612456
C  C286  1  0.27110000  0.07310000  0.00180000  1.0 -0.0600669637
C  C287  1  0.85240000  0.74440000  0.47950000  1.0 -0.0196387576
C  C288  1  0.25560000  0.14760000  0.97950000  1.0 -0.0293404015
C  C289  1  0.82480000  0.72060000  0.44230000  1.0 0.0106804949
C  C290  1  0.27940000  0.17520000  0.94230000  1.0 0.0106804949
C  C291  1  0.86800000  0.67940000  0.42800000  1.0 0.019401183
C  C292  1  0.32060000  0.13200000  0.92800000  1.0 0.0307433446
C  C293  1  0.94580000  0.66860000  0.45200000  1.0 0.039080763
C  C294  1  0.33140000  0.05420000  0.95200000  1.0 0.039080763
C  C295  1  0.21860000  0.55380000  0.65690000  1.0 0.0106804949
C  C296  1  0.44620000  0.78140000  0.15690000  1.0 0.0106804949
C  C297  1  0.24100000  0.53260000  0.70190000  1.0 0.0106804949
C  C298  1  0.46740000  0.75900000  0.20190000  1.0 0.0106804949
C  C299  1  0.21020000  0.56880000  0.72880000  1.0 0.0481580805
C  C300  1  0.43120000  0.78980000  0.22880000  1.0 0.0481580805
C  C301  1  0.15080000  0.62900000  0.70540000  1.0 -0.0792391624
C  C302  1  0.37100000  0.84920000  0.20540000  1.0 -0.0792391624
C  C303  1  0.13470000  0.65070000  0.65600000  1.0 -0.0600669637
C  C304  1  0.34930000  0.86530000  0.15600000  1.0 -0.0600669637
C  C305  1  0.16960000  0.61640000  0.63270000  1.0 0.0106804949
C  C306  1  0.38360000  0.83040000  0.13270000  1.0 0.019401183
C  C307  1  0.28900000  0.60840000  0.50340000  1.0 0.019401183
C  C308  1  0.39160000  0.71100000  0.00340000  1.0 0.0307433446
C  C309  1  0.34760000  0.60920000  0.48510000  1.0 0.0106804949
C  C310  1  0.39080000  0.65240000  0.98510000  1.0 0.0106804949
C  C311  1  0.22900000  0.72400000  0.44510000  1.0 -0.0997877924
C  C312  1  0.27600000  0.77100000  0.94510000  1.0 -0.0997877924
C  C313  1  0.28010000  0.70350000  0.42540000  1.0 0.019401183
C  C314  1  0.29650000  0.71990000  0.92540000  1.0 0.0106804949
C  C315  1  0.23410000  0.66750000  0.48400000  1.0 0.0106804949
C  C316  1  0.33250000  0.76590000  0.98400000  1.0 0.0106804949
O  O1  1  0.70870000  0.55670000  0.10574000  1.0 -1.0328637313
O  O2  1  0.44330000  0.29130000  0.60574000  1.0 -1.0328637313
O  O3  1  0.71740000  0.38340000  0.11690000  1.0 -0.5127749692
O  O4  1  0.61660000  0.28260000  0.61690000  1.0 -0.5127749692
O  O5  1  0.55868000  0.22532000  0.70616000  1.0 -0.4114826943
O  O6  1  0.77468000  0.44132000  0.20616000  1.0 -0.4114826943
O  O7  1  0.85820000  0.45580000  0.13650000  1.0 -0.5322585007
O  O8  1  0.54420000  0.14180000  0.63650000  1.0 -0.5322585007
O  O9  1  0.60850000  0.44450000  0.07180000  1.0 -0.5004483512
O  O10  1  0.55550000  0.39150000  0.57180000  1.0 -0.5004483512
O  O11  1  0.53180000  0.56880000  0.09080000  1.0 -0.4797984313
O  O12  1  0.43120000  0.46820000  0.59080000  1.0 -0.4797984313
O  O13  1  0.40610000  0.40650000  0.50520000  1.0 -0.5127749692
O  O14  1  0.59350000  0.59390000  0.00520000  1.0 -0.5127749692
O  O15  1  0.59100000  0.61700000  0.14390000  1.0 -0.5322585007
O  O16  1  0.38300000  0.40900000  0.64390000  1.0 -0.5322585007
O  O17  1  0.44350000  0.24550000  0.70990000  1.0 -0.3015704852
O  O18  1  0.75450000  0.55650000  0.20990000  1.0 -0.3015704852
O  O19  1  0.69870000  0.71710000  0.11360000  1.0 -0.4231310587
O  O20  1  0.28290000  0.30130000  0.61360000  1.0 -0.4231310587
O  O21  1  0.76410000  0.70750000  0.06670000  1.0 -0.5004483512
O  O22  1  0.29250000  0.23590000  0.56670000  1.0 -0.5004483512
O  O23  1  0.86440000  0.56300000  0.09020000  1.0 -0.5322585007
O  O24  1  0.43700000  0.13560000  0.59020000  1.0 -0.5322585007
O  O25  1  0.37970000  0.29370000  0.50086000  1.0 -0.5004483512
O  O26  1  0.70630000  0.62030000  0.00086000  1.0 -0.5004483512
O  O27  1  0.35560000  0.28300000  0.71100000  1.0 -0.1063840453
O  O28  1  0.71700000  0.64440000  0.21100000  1.0 -0.1063840453
O  O29  1  0.55670000  0.70870000  0.39426000  1.0 -1.0328637313
O  O30  1  0.29130000  0.44330000  0.89426000  1.0 -1.0328637313
O  O31  1  0.38340000  0.71740000  0.38310000  1.0 -0.5127749692
O  O32  1  0.28260000  0.61660000  0.88310000  1.0 -0.5127749692
O  O33  1  0.22532000  0.55868000  0.79384000  1.0 -0.4114826943
O  O34  1  0.44132000  0.77468000  0.29384000  1.0 -0.4114826943
O  O35  1  0.45580000  0.85820000  0.36350000  1.0 -0.5322585007
O  O36  1  0.14180000  0.54420000  0.86350000  1.0 -0.5322585007
O  O37  1  0.44450000  0.60850000  0.42820000  1.0 -0.5004483512
O  O38  1  0.39150000  0.55550000  0.92820000  1.0 -0.5004483512
O  O39  1  0.56880000  0.53180000  0.40920000  1.0 -0.4797984313
O  O40  1  0.46820000  0.43120000  0.90920000  1.0 -0.4797984313
O  O41  1  0.40650000  0.40610000  0.99480000  1.0 -0.5127749692
O  O42  1  0.59390000  0.59350000  0.49480000  1.0 -0.5127749692
O  O43  1  0.61700000  0.59100000  0.35610000  1.0 -0.5322585007
O  O44  1  0.40900000  0.38300000  0.85610000  1.0 -0.5322585007
O  O45  1  0.24550000  0.44350000  0.79010000  1.0 -0.3015704852
O  O46  1  0.55650000  0.75450000  0.29010000  1.0 -0.3015704852
O  O47  1  0.71710000  0.69870000  0.38640000  1.0 -0.4231310587
O  O48  1  0.30130000  0.28290000  0.88640000  1.0 -0.4231310587
O  O49  1  0.70750000  0.76410000  0.43330000  1.0 -0.5004483512
O  O50  1  0.23590000  0.29250000  0.93330000  1.0 -0.5004483512
O  O51  1  0.56300000  0.86440000  0.40980000  1.0 -0.5322585007
O  O52  1  0.13560000  0.43700000  0.90980000  1.0 -0.5322585007
O  O53  1  0.29370000  0.37970000  0.99914000  1.0 -0.5004483512
O  O54  1  0.62030000  0.70630000  0.49914000  1.0 -0.5004483512
O  O55  1  0.28300000  0.35560000  0.78900000  1.0 -0.1063840453
O  O56  1  0.64440000  0.71700000  0.28900000  1.0 -0.0916132741
