# DDEC6 charges by PACMAN v1.1 (https://github.com/mtap-research/PACMAN-charge/)
data_YANFAY_FSR_pacman
_symmetry_space_group_name_H-M   'P 1'
_cell_length_a   10.10050000
_cell_length_b   15.04070000
_cell_length_c   21.78220000
_cell_angle_alpha   90.00000000
_cell_angle_beta   113.98800000
_cell_angle_gamma   90.00000000
_symmetry_Int_Tables_number   1
_chemical_formula_structural   Eu2H20C24S2O19
_chemical_formula_sum   'Eu8 H80 C96 S8 O76'
_cell_volume   3023.31439368
_cell_formula_units_Z   4
loop_
 _symmetry_equiv_pos_site_id
 _symmetry_equiv_pos_as_xyz
  1  'x, y, z'
loop_
 _atom_site_type_symbol
 _atom_site_label
 _atom_site_symmetry_multiplicity
 _atom_site_fract_x
 _atom_site_fract_y
 _atom_site_fract_z
 _atom_site_occupancy
 _atom_site_charge
Eu  Eu1  1  0.31014000  0.22740000  0.68197000  1.0 2.0765174415
Eu  Eu2  1  0.87544000  0.24166000  0.66125000  1.0 2.0108040359
Eu  Eu3  1  0.68986000  0.72740000  0.81803000  1.0 2.0765174415
Eu  Eu4  1  0.12456000  0.74166000  0.83875000  1.0 2.0108040359
Eu  Eu5  1  0.68986000  0.77260000  0.31803000  1.0 2.0765174415
Eu  Eu6  1  0.12456000  0.75834000  0.33875000  1.0 2.0108040359
Eu  Eu7  1  0.31014000  0.27260000  0.18197000  1.0 2.0765174415
Eu  Eu8  1  0.87544000  0.25834000  0.16125000  1.0 2.0108040359
H  H1  1  0.45349000  0.09907000  0.63208000  1.0 0.3427099373
H  H2  1  0.49800000  0.17976000  0.61728000  1.0 0.3817755069
H  H3  1  0.75913000  0.08689000  0.71057000  1.0 0.3312061031
H  H4  1  0.69045000  0.15865000  0.72381000  1.0 0.3584556591
H  H5  1  0.20901000  0.06330000  0.60898000  1.0 0.3312061031
H  H6  1  0.27875000  0.03641000  0.67527000  1.0 0.3584556591
H  H7  1  0.01756000  0.07714000  0.65057000  1.0 0.1933755364
H  H8  1  0.92063000  0.04967000  0.67666000  1.0 0.2025916334
H  H9  1  0.76298000  0.54182000  0.70828000  1.0 0.1210875396
H  H10  1  0.39016000  0.42907000  0.57866000  1.0 0.1294438525
H  H11  1  0.86641000  0.59437000  0.50605000  1.0 0.1210875396
H  H12  1  0.30262000  0.55797000  0.69499000  1.0 0.1294438525
H  H13  1  0.34657000  0.54862000  0.50725000  1.0 0.1210875396
H  H14  1  0.15406000  0.83216000  0.49756000  1.0 0.1102918845
H  H15  1  0.88943000  0.48195000  0.58255000  1.0 0.1294438525
H  H16  1  0.59315000  0.81133000  0.50791000  1.0 0.1210875396
H  H17  1  0.35944000  0.82556000  0.59935000  1.0 0.1294438525
H  H18  1  0.79891000  0.80834000  0.60859000  1.0 0.1210875396
H  H19  1  0.96312000  0.07879000  0.61897000  1.0 0.2025916334
H  H20  1  0.86030000  0.05065000  0.63756000  1.0 0.2197979179
H  H21  1  0.54651000  0.59907000  0.86792000  1.0 0.3427099373
H  H22  1  0.50200000  0.67976000  0.88272000  1.0 0.3817755069
H  H23  1  0.24087000  0.58689000  0.78943000  1.0 0.3312061031
H  H24  1  0.30955000  0.65865000  0.77619000  1.0 0.3584556591
H  H25  1  0.79099000  0.56330000  0.89102000  1.0 0.3312061031
H  H26  1  0.72125000  0.53641000  0.82473000  1.0 0.3584556591
H  H27  1  0.98244000  0.57714000  0.84943000  1.0 0.1933755364
H  H28  1  0.07937000  0.54967000  0.82334000  1.0 0.2059946295
H  H29  1  0.23702000  0.04182000  0.79172000  1.0 0.1210875396
H  H30  1  0.60984000  0.92907000  0.92134000  1.0 0.1294438525
H  H31  1  0.13359000  0.09437000  0.99395000  1.0 0.1210875396
H  H32  1  0.69738000  0.05797000  0.80501000  1.0 0.1294438525
H  H33  1  0.65343000  0.04862000  0.99275000  1.0 0.1210875396
H  H34  1  0.84594000  0.33216000  0.00244000  1.0 0.1102918845
H  H35  1  0.11057000  0.98195000  0.91745000  1.0 0.1294438525
H  H36  1  0.40685000  0.31133000  0.99209000  1.0 0.1210875396
H  H37  1  0.64056000  0.32556000  0.90065000  1.0 0.1294438525
H  H38  1  0.20109000  0.30834000  0.89141000  1.0 0.1210875396
H  H39  1  0.03688000  0.57879000  0.88103000  1.0 0.2025916334
H  H40  1  0.13970000  0.55065000  0.86244000  1.0 0.2197979179
H  H41  1  0.54651000  0.90093000  0.36792000  1.0 0.3427099373
H  H42  1  0.50200000  0.82024000  0.38272000  1.0 0.3817755069
H  H43  1  0.24087000  0.91311000  0.28943000  1.0 0.3312061031
H  H44  1  0.30955000  0.84135000  0.27619000  1.0 0.3584556591
H  H45  1  0.79099000  0.93670000  0.39102000  1.0 0.3312061031
H  H46  1  0.72125000  0.96359000  0.32473000  1.0 0.3584556591
H  H47  1  0.98244000  0.92286000  0.34943000  1.0 0.1933755364
H  H48  1  0.07937000  0.95033000  0.32334000  1.0 0.2059946295
H  H49  1  0.23702000  0.45818000  0.29172000  1.0 0.1210875396
H  H50  1  0.60984000  0.57093000  0.42134000  1.0 0.1294438525
H  H51  1  0.13359000  0.40563000  0.49395000  1.0 0.1210875396
H  H52  1  0.69738000  0.44203000  0.30501000  1.0 0.1294438525
H  H53  1  0.65343000  0.45138000  0.49275000  1.0 0.1210875396
H  H54  1  0.84594000  0.16784000  0.50244000  1.0 0.1102918845
H  H55  1  0.11057000  0.51805000  0.41745000  1.0 0.1294438525
H  H56  1  0.40685000  0.18867000  0.49209000  1.0 0.1210875396
H  H57  1  0.64056000  0.17444000  0.40065000  1.0 0.1294438525
H  H58  1  0.20109000  0.19166000  0.39141000  1.0 0.1210875396
H  H59  1  0.03688000  0.92121000  0.38103000  1.0 0.2025916334
H  H60  1  0.13970000  0.94935000  0.36244000  1.0 0.2197979179
H  H61  1  0.45349000  0.40093000  0.13208000  1.0 0.3427099373
H  H62  1  0.49800000  0.32024000  0.11728000  1.0 0.3817755069
H  H63  1  0.75913000  0.41311000  0.21057000  1.0 0.3312061031
H  H64  1  0.69045000  0.34135000  0.22381000  1.0 0.3584556591
H  H65  1  0.20901000  0.43670000  0.10898000  1.0 0.3312061031
H  H66  1  0.27875000  0.46359000  0.17527000  1.0 0.3584556591
H  H67  1  0.01756000  0.42286000  0.15057000  1.0 0.1933755364
H  H68  1  0.92063000  0.45033000  0.17666000  1.0 0.2059946295
H  H69  1  0.76298000  0.95818000  0.20828000  1.0 0.1210875396
H  H70  1  0.39016000  0.07093000  0.07866000  1.0 0.1294438525
H  H71  1  0.86641000  0.90563000  0.00605000  1.0 0.1210875396
H  H72  1  0.30262000  0.94203000  0.19499000  1.0 0.1294438525
H  H73  1  0.34657000  0.95138000  0.00725000  1.0 0.1210875396
H  H74  1  0.15406000  0.66784000  0.99756000  1.0 0.1102918845
H  H75  1  0.88943000  0.01805000  0.08255000  1.0 0.1294438525
H  H76  1  0.59315000  0.68867000  0.00791000  1.0 0.1210875396
H  H77  1  0.35944000  0.67444000  0.09935000  1.0 0.1294438525
H  H78  1  0.79891000  0.69166000  0.10859000  1.0 0.1210875396
H  H79  1  0.96312000  0.42121000  0.11897000  1.0 0.2025916334
H  H80  1  0.86030000  0.44935000  0.13756000  1.0 0.2197979179
C  C1  1  0.87200000  0.70560000  0.71080000  1.0 0.5893800493
C  C2  1  0.93240000  0.73190000  0.44420000  1.0 0.5997416165
C  C3  1  0.44670000  0.71030000  0.69420000  1.0 0.5660236862
C  C4  1  0.58290000  0.47480000  0.64980000  1.0 -0.0682252436
C  C5  1  0.09970000  0.51230000  0.64580000  1.0 -0.082403627
C  C6  1  0.67890000  0.54430000  0.66730000  1.0 -0.146631059
C  C7  1  0.36910000  0.71380000  0.45800000  1.0 0.5622885164
C  C8  1  0.45710000  0.47700000  0.58990000  1.0 -0.0967533875
C  C9  1  0.95370000  0.58920000  0.54530000  1.0 -0.129310649
C  C10  1  0.21290000  0.56870000  0.65800000  1.0 -0.129310649
C  C11  1  0.43140000  0.54800000  0.54790000  1.0 -0.129310649
C  C12  1  0.19790000  0.64300000  0.61610000  1.0 0.0664587796
C  C13  1  0.65450000  0.61950000  0.62530000  1.0 0.0614740618
C  C14  1  0.06650000  0.65180000  0.55660000  1.0 0.0614740618
C  C15  1  0.52820000  0.62120000  0.56330000  1.0 0.049009802
C  C16  1  0.75120000  0.69300000  0.64270000  1.0 -0.0466737047
C  C17  1  0.16370000  0.78470000  0.52790000  1.0 -0.116974822
C  C18  1  0.96750000  0.52160000  0.58960000  1.0 -0.0967533875
C  C19  1  0.05580000  0.72260000  0.51160000  1.0 -0.0682252436
C  C20  1  0.30820000  0.70980000  0.63140000  1.0 -0.0568103937
C  C21  1  0.60660000  0.76300000  0.53790000  1.0 -0.082403627
C  C22  1  0.50470000  0.69720000  0.52040000  1.0 -0.0682252436
C  C23  1  0.28840000  0.77990000  0.58830000  1.0 -0.0936798764
C  C24  1  0.72990000  0.76170000  0.59830000  1.0 -0.082403627
C  C25  1  0.12800000  0.20560000  0.78920000  1.0 0.5893800493
C  C26  1  0.06760000  0.23190000  0.05580000  1.0 0.5997416165
C  C27  1  0.55330000  0.21030000  0.80580000  1.0 0.5660236862
C  C28  1  0.41710000  0.97480000  0.85020000  1.0 -0.0682252436
C  C29  1  0.90030000  0.01230000  0.85420000  1.0 -0.082403627
C  C30  1  0.32110000  0.04430000  0.83270000  1.0 -0.146631059
C  C31  1  0.63090000  0.21380000  0.04200000  1.0 0.5622885164
C  C32  1  0.54290000  0.97700000  0.91010000  1.0 -0.0967533875
C  C33  1  0.04630000  0.08920000  0.95470000  1.0 -0.129310649
C  C34  1  0.78710000  0.06870000  0.84200000  1.0 -0.129310649
C  C35  1  0.56860000  0.04800000  0.95210000  1.0 -0.129310649
C  C36  1  0.80210000  0.14300000  0.88390000  1.0 0.0664587796
C  C37  1  0.34550000  0.11950000  0.87470000  1.0 0.0614740618
C  C38  1  0.93350000  0.15180000  0.94340000  1.0 0.0614740618
C  C39  1  0.47180000  0.12120000  0.93670000  1.0 0.049009802
C  C40  1  0.24880000  0.19300000  0.85730000  1.0 -0.0466737047
C  C41  1  0.83630000  0.28470000  0.97210000  1.0 -0.116974822
C  C42  1  0.03250000  0.02160000  0.91040000  1.0 -0.0936798764
C  C43  1  0.94420000  0.22260000  0.98840000  1.0 -0.0682252436
C  C44  1  0.69180000  0.20980000  0.86860000  1.0 -0.0568103937
C  C45  1  0.39340000  0.26300000  0.96210000  1.0 -0.082403627
C  C46  1  0.49530000  0.19720000  0.97960000  1.0 -0.0682252436
C  C47  1  0.71160000  0.27990000  0.91170000  1.0 -0.0936798764
C  C48  1  0.27010000  0.26170000  0.90170000  1.0 -0.082403627
C  C49  1  0.12800000  0.29440000  0.28920000  1.0 0.5893800493
C  C50  1  0.06760000  0.26810000  0.55580000  1.0 0.5997416165
C  C51  1  0.55330000  0.28970000  0.30580000  1.0 0.5660236862
C  C52  1  0.41710000  0.52520000  0.35020000  1.0 -0.0682252436
C  C53  1  0.90030000  0.48770000  0.35420000  1.0 -0.082403627
C  C54  1  0.32110000  0.45570000  0.33270000  1.0 -0.146631059
C  C55  1  0.63090000  0.28620000  0.54200000  1.0 0.5622885164
C  C56  1  0.54290000  0.52300000  0.41010000  1.0 -0.0967533875
C  C57  1  0.04630000  0.41080000  0.45470000  1.0 -0.129310649
C  C58  1  0.78710000  0.43130000  0.34200000  1.0 -0.129310649
C  C59  1  0.56860000  0.45200000  0.45210000  1.0 -0.129310649
C  C60  1  0.80210000  0.35700000  0.38390000  1.0 0.0664587796
C  C61  1  0.34550000  0.38050000  0.37470000  1.0 0.0614740618
C  C62  1  0.93350000  0.34820000  0.44340000  1.0 0.0614740618
C  C63  1  0.47180000  0.37880000  0.43670000  1.0 0.049009802
C  C64  1  0.24880000  0.30700000  0.35730000  1.0 -0.0466737047
C  C65  1  0.83630000  0.21530000  0.47210000  1.0 -0.116974822
C  C66  1  0.03250000  0.47840000  0.41040000  1.0 -0.0936798764
C  C67  1  0.94420000  0.27740000  0.48840000  1.0 -0.0682252436
C  C68  1  0.69180000  0.29020000  0.36860000  1.0 -0.0568103937
C  C69  1  0.39340000  0.23700000  0.46210000  1.0 -0.082403627
C  C70  1  0.49530000  0.30280000  0.47960000  1.0 -0.0682252436
C  C71  1  0.71160000  0.22010000  0.41170000  1.0 -0.0936798764
C  C72  1  0.27010000  0.23830000  0.40170000  1.0 -0.082403627
C  C73  1  0.87200000  0.79440000  0.21080000  1.0 0.5893800493
C  C74  1  0.93240000  0.76810000  0.94420000  1.0 0.5997416165
C  C75  1  0.44670000  0.78970000  0.19420000  1.0 0.5660236862
C  C76  1  0.58290000  0.02520000  0.14980000  1.0 -0.0682252436
C  C77  1  0.09970000  0.98770000  0.14580000  1.0 -0.082403627
C  C78  1  0.67890000  0.95570000  0.16730000  1.0 -0.146631059
C  C79  1  0.36910000  0.78620000  0.95800000  1.0 0.5622885164
C  C80  1  0.45710000  0.02300000  0.08990000  1.0 -0.0967533875
C  C81  1  0.95370000  0.91080000  0.04530000  1.0 -0.129310649
C  C82  1  0.21290000  0.93130000  0.15800000  1.0 -0.129310649
C  C83  1  0.43140000  0.95200000  0.04790000  1.0 -0.129310649
C  C84  1  0.19790000  0.85700000  0.11610000  1.0 0.0664587796
C  C85  1  0.65450000  0.88050000  0.12530000  1.0 0.0614740618
C  C86  1  0.06650000  0.84820000  0.05660000  1.0 0.0614740618
C  C87  1  0.52820000  0.87880000  0.06330000  1.0 0.049009802
C  C88  1  0.75120000  0.80700000  0.14270000  1.0 -0.0466737047
C  C89  1  0.16370000  0.71530000  0.02790000  1.0 -0.116974822
C  C90  1  0.96750000  0.97840000  0.08960000  1.0 -0.0967533875
C  C91  1  0.05580000  0.77740000  0.01160000  1.0 -0.0682252436
C  C92  1  0.30820000  0.79020000  0.13140000  1.0 -0.0568103937
C  C93  1  0.60660000  0.73700000  0.03790000  1.0 -0.082403627
C  C94  1  0.50470000  0.80280000  0.02040000  1.0 -0.0682252436
C  C95  1  0.28840000  0.72010000  0.08830000  1.0 -0.0936798764
C  C96  1  0.72990000  0.73830000  0.09830000  1.0 -0.082403627
S  S1  1  0.12616000  0.42765000  0.70534000  1.0 1.2542969372
S  S2  1  0.61612000  0.38261000  0.70439000  1.0 1.2671617952
S  S3  1  0.87384000  0.92765000  0.79466000  1.0 1.2542969372
S  S4  1  0.38388000  0.88261000  0.79561000  1.0 1.2671617952
S  S5  1  0.87384000  0.57235000  0.29466000  1.0 1.2542969372
S  S6  1  0.38388000  0.61739000  0.29561000  1.0 1.2671617952
S  S7  1  0.12616000  0.07235000  0.20534000  1.0 1.2542969372
S  S8  1  0.61612000  0.11739000  0.20439000  1.0 1.2671617952
O  O1  1  0.98797000  0.38220000  0.68567000  1.0 -0.6981754143
O  O2  1  0.48666000  0.32820000  0.67546000  1.0 -0.7103263948
O  O3  1  0.42105000  0.15080000  0.61435000  1.0 -0.7839740876
O  O4  1  0.74480000  0.14360000  0.70310000  1.0 -0.7974797848
O  O5  1  0.24027000  0.37100000  0.70297000  1.0 -0.6981754143
O  O6  1  0.84973000  0.68980000  0.76333000  1.0 -0.7575346593
O  O7  1  0.96242000  0.76170000  0.39582000  1.0 -0.7868924651
O  O8  1  0.17099000  0.47000000  0.77099000  1.0 -0.5958140407
O  O9  1  0.26641000  0.66040000  0.43551000  1.0 -0.5905795955
O  O10  1  0.80494000  0.71430000  0.43404000  1.0 -0.5830532525
O  O11  1  0.74209000  0.33580000  0.70479000  1.0 -0.6790135268
O  O12  1  0.64346000  0.41750000  0.77076000  1.0 -0.5905795955
O  O13  1  0.46389000  0.65810000  0.74319000  1.0 -0.6790135268
O  O14  1  0.54412000  0.76430000  0.69912000  1.0 -0.5905795955
O  O15  1  0.36052000  0.78750000  0.42762000  1.0 -0.6437328223
O  O16  1  0.98971000  0.73600000  0.71561000  1.0 -0.5698828314
O  O17  1  0.21540000  0.07520000  0.64950000  1.0 -0.7424332712
O  O18  1  0.92720000  0.08250000  0.64490000  1.0 -0.146631059
O  O19  1  0.87550000  0.09480000  0.61720000  1.0 -0.1864239413
O  O20  1  0.01203000  0.88220000  0.81433000  1.0 -0.6981754143
O  O21  1  0.51334000  0.82820000  0.82454000  1.0 -0.7103263948
O  O22  1  0.57895000  0.65080000  0.88565000  1.0 -0.7839740876
O  O23  1  0.25520000  0.64360000  0.79690000  1.0 -0.7974797848
O  O24  1  0.75973000  0.87100000  0.79703000  1.0 -0.6981754143
O  O25  1  0.15027000  0.18980000  0.73667000  1.0 -0.7575346593
O  O26  1  0.03758000  0.26170000  0.10418000  1.0 -0.7868924651
O  O27  1  0.82901000  0.97000000  0.72901000  1.0 -0.5958140407
O  O28  1  0.73359000  0.16040000  0.06449000  1.0 -0.5905795955
O  O29  1  0.19506000  0.21430000  0.06596000  1.0 -0.5830532525
O  O30  1  0.25791000  0.83580000  0.79521000  1.0 -0.6790135268
O  O31  1  0.35654000  0.91750000  0.72924000  1.0 -0.5905795955
O  O32  1  0.53611000  0.15810000  0.75681000  1.0 -0.6790135268
O  O33  1  0.45588000  0.26430000  0.80088000  1.0 -0.5905795955
O  O34  1  0.63948000  0.28750000  0.07238000  1.0 -0.6437328223
O  O35  1  0.01029000  0.23600000  0.78439000  1.0 -0.5698828314
O  O36  1  0.78460000  0.57520000  0.85050000  1.0 -0.7424332712
O  O37  1  0.07280000  0.58250000  0.85510000  1.0 -0.146631059
O  O38  1  0.12450000  0.59480000  0.88280000  1.0 -0.1864239413
O  O39  1  0.01203000  0.61780000  0.31433000  1.0 -0.6981754143
O  O40  1  0.51334000  0.67180000  0.32454000  1.0 -0.7103263948
O  O41  1  0.57895000  0.84920000  0.38565000  1.0 -0.7839740876
O  O42  1  0.25520000  0.85640000  0.29690000  1.0 -0.7974797848
O  O43  1  0.75973000  0.62900000  0.29703000  1.0 -0.6981754143
O  O44  1  0.15027000  0.31020000  0.23667000  1.0 -0.7575346593
O  O45  1  0.03758000  0.23830000  0.60418000  1.0 -0.7868924651
O  O46  1  0.82901000  0.53000000  0.22901000  1.0 -0.5958140407
O  O47  1  0.73359000  0.33960000  0.56449000  1.0 -0.5905795955
O  O48  1  0.19506000  0.28570000  0.56596000  1.0 -0.5830532525
O  O49  1  0.25791000  0.66420000  0.29521000  1.0 -0.6790135268
O  O50  1  0.35654000  0.58250000  0.22924000  1.0 -0.5905795955
O  O51  1  0.53611000  0.34190000  0.25681000  1.0 -0.6790135268
O  O52  1  0.45588000  0.23570000  0.30088000  1.0 -0.5905795955
O  O53  1  0.63948000  0.21250000  0.57238000  1.0 -0.6437328223
O  O54  1  0.01029000  0.26400000  0.28439000  1.0 -0.5698828314
O  O55  1  0.78460000  0.92480000  0.35050000  1.0 -0.7424332712
O  O56  1  0.07280000  0.91750000  0.35510000  1.0 -0.146631059
O  O57  1  0.12450000  0.90520000  0.38280000  1.0 -0.1864239413
O  O58  1  0.98797000  0.11780000  0.18567000  1.0 -0.6981754143
O  O59  1  0.48666000  0.17180000  0.17546000  1.0 -0.7103263948
O  O60  1  0.42105000  0.34920000  0.11435000  1.0 -0.7839740876
O  O61  1  0.74480000  0.35640000  0.20310000  1.0 -0.7974797848
O  O62  1  0.24027000  0.12900000  0.20297000  1.0 -0.6981754143
O  O63  1  0.84973000  0.81020000  0.26333000  1.0 -0.7575346593
O  O64  1  0.96242000  0.73830000  0.89582000  1.0 -0.7868924651
O  O65  1  0.17099000  0.03000000  0.27099000  1.0 -0.5958140407
O  O66  1  0.26641000  0.83960000  0.93551000  1.0 -0.5905795955
O  O67  1  0.80494000  0.78570000  0.93404000  1.0 -0.5830532525
O  O68  1  0.74209000  0.16420000  0.20479000  1.0 -0.6790135268
O  O69  1  0.64346000  0.08250000  0.27076000  1.0 -0.5905795955
O  O70  1  0.46389000  0.84190000  0.24319000  1.0 -0.6790135268
O  O71  1  0.54412000  0.73570000  0.19912000  1.0 -0.5905795955
O  O72  1  0.36052000  0.71250000  0.92762000  1.0 -0.6437328223
O  O73  1  0.98971000  0.76400000  0.21561000  1.0 -0.5698828314
O  O74  1  0.21540000  0.42480000  0.14950000  1.0 -0.7424332712
O  O75  1  0.92720000  0.41750000  0.14490000  1.0 -0.146631059
O  O76  1  0.87550000  0.40520000  0.11720000  1.0 -0.1864239413
