# DDEC6 charges by PACMAN v1.1 (https://github.com/mtap-research/PACMAN-charge/)
data_YAPMAF_ASR_pacman
_symmetry_space_group_name_H-M   'P 1'
_cell_length_a   29.31620000
_cell_length_b   29.31620000
_cell_length_c   29.31620000
_cell_angle_alpha   109.47100000
_cell_angle_beta   109.47100000
_cell_angle_gamma   109.47100000
_symmetry_Int_Tables_number   1
_chemical_formula_structural   NiH8(C5N4)2
_chemical_formula_sum   'Ni48 H384 C480 N384'
_cell_volume   19395.66544735
_cell_formula_units_Z   48
loop_
 _symmetry_equiv_pos_site_id
 _symmetry_equiv_pos_as_xyz
  1  'x, y, z'
loop_
 _atom_site_type_symbol
 _atom_site_label
 _atom_site_symmetry_multiplicity
 _atom_site_fract_x
 _atom_site_fract_y
 _atom_site_fract_z
 _atom_site_occupancy
 _atom_site_charge
Ni  Ni1  1  0.43873000  0.15680000  0.57961000  1.0 0.4746528694
Ni  Ni2  1  0.15680000  0.07719000  0.71807000  1.0 0.4746528694
Ni  Ni3  1  0.07719000  0.85912000  0.92039000  1.0 0.4746528694
Ni  Ni4  1  0.85912000  0.43873000  0.78193000  1.0 0.4756246942
Ni  Ni5  1  0.42281000  0.57961000  0.64088000  1.0 0.4756246942
Ni  Ni6  1  0.06127000  0.64088000  0.71807000  1.0 0.4746528694
Ni  Ni7  1  0.07719000  0.71807000  0.15680000  1.0 0.4756246942
Ni  Ni8  1  0.78193000  0.85912000  0.43873000  1.0 0.4756246942
Ni  Ni9  1  0.42281000  0.34320000  0.78193000  1.0 0.4756246942
Ni  Ni10  1  0.57961000  0.64088000  0.42281000  1.0 0.4756246942
Ni  Ni11  1  0.57961000  0.43873000  0.15680000  1.0 0.4756246942
Ni  Ni12  1  0.15680000  0.57961000  0.43873000  1.0 0.4746528694
Ni  Ni13  1  0.64088000  0.71807000  0.06127000  1.0 0.4756246942
Ni  Ni14  1  0.92039000  0.07719000  0.85912000  1.0 0.4756246942
Ni  Ni15  1  0.85912000  0.92039000  0.07719000  1.0 0.4756246942
Ni  Ni16  1  0.78193000  0.42281000  0.34320000  1.0 0.4756246942
Ni  Ni17  1  0.71807000  0.06127000  0.64088000  1.0 0.4756246942
Ni  Ni18  1  0.34320000  0.78193000  0.42281000  1.0 0.4756246942
Ni  Ni19  1  0.64088000  0.42281000  0.57961000  1.0 0.4756246942
Ni  Ni20  1  0.34320000  0.06127000  0.92039000  1.0 0.4746528694
Ni  Ni21  1  0.43873000  0.78193000  0.85912000  1.0 0.4756246942
Ni  Ni22  1  0.06127000  0.92039000  0.34320000  1.0 0.4746528694
Ni  Ni23  1  0.71807000  0.15680000  0.07719000  1.0 0.4756246942
Ni  Ni24  1  0.92039000  0.34320000  0.06127000  1.0 0.4756246942
Ni  Ni25  1  0.56127000  0.84320000  0.42039000  1.0 0.4756246942
Ni  Ni26  1  0.84320000  0.92281000  0.28193000  1.0 0.4756246942
Ni  Ni27  1  0.92281000  0.14088000  0.07961000  1.0 0.4756246942
Ni  Ni28  1  0.14088000  0.56127000  0.21807000  1.0 0.4746528694
Ni  Ni29  1  0.57719000  0.42039000  0.35912000  1.0 0.4756246942
Ni  Ni30  1  0.93873000  0.35912000  0.28193000  1.0 0.4756246942
Ni  Ni31  1  0.92281000  0.28193000  0.84320000  1.0 0.4756246942
Ni  Ni32  1  0.21807000  0.14088000  0.56127000  1.0 0.4746528694
Ni  Ni33  1  0.57719000  0.65680000  0.21807000  1.0 0.4756246942
Ni  Ni34  1  0.42039000  0.35912000  0.57719000  1.0 0.4756246942
Ni  Ni35  1  0.42039000  0.56127000  0.84320000  1.0 0.4756246942
Ni  Ni36  1  0.84320000  0.42039000  0.56127000  1.0 0.4756246942
Ni  Ni37  1  0.35912000  0.28193000  0.93873000  1.0 0.4756246942
Ni  Ni38  1  0.07961000  0.92281000  0.14088000  1.0 0.4746528694
Ni  Ni39  1  0.14088000  0.07961000  0.92281000  1.0 0.4746528694
Ni  Ni40  1  0.21807000  0.57719000  0.65680000  1.0 0.4756246942
Ni  Ni41  1  0.28193000  0.93873000  0.35912000  1.0 0.4746528694
Ni  Ni42  1  0.65680000  0.21807000  0.57719000  1.0 0.4746528694
Ni  Ni43  1  0.35912000  0.57719000  0.42039000  1.0 0.4756246942
Ni  Ni44  1  0.65680000  0.93873000  0.07961000  1.0 0.4756246942
Ni  Ni45  1  0.56127000  0.21807000  0.14088000  1.0 0.4756246942
Ni  Ni46  1  0.93873000  0.07961000  0.65680000  1.0 0.4756246942
Ni  Ni47  1  0.28193000  0.84320000  0.92281000  1.0 0.4756246942
Ni  Ni48  1  0.07961000  0.65680000  0.93873000  1.0 0.4746528694
H  H1  1  0.33110000  0.18060000  0.55570000  1.0 0.1023635495
H  H2  1  0.18060000  0.12490000  0.84950000  1.0 0.1023635495
H  H3  1  0.12490000  0.77540000  0.94430000  1.0 0.1023635495
H  H4  1  0.77540000  0.33110000  0.65050000  1.0 0.1023635495
H  H5  1  0.37510000  0.55570000  0.72460000  1.0 0.1023635495
H  H6  1  0.16890000  0.72460000  0.84950000  1.0 0.1023635495
H  H7  1  0.12490000  0.84950000  0.18060000  1.0 0.1023635495
H  H8  1  0.65050000  0.77540000  0.33110000  1.0 0.1023635495
H  H9  1  0.37510000  0.31940000  0.65050000  1.0 0.1023635495
H  H10  1  0.55570000  0.72460000  0.37510000  1.0 0.1023635495
H  H11  1  0.55570000  0.33110000  0.18060000  1.0 0.1023635495
H  H12  1  0.18060000  0.55570000  0.33110000  1.0 0.1023635495
H  H13  1  0.72460000  0.84950000  0.16890000  1.0 0.1023635495
H  H14  1  0.94430000  0.12490000  0.77540000  1.0 0.1023635495
H  H15  1  0.77540000  0.94430000  0.12490000  1.0 0.1023635495
H  H16  1  0.65050000  0.37510000  0.31940000  1.0 0.1023635495
H  H17  1  0.84950000  0.16890000  0.72460000  1.0 0.1023635495
H  H18  1  0.31940000  0.65050000  0.37510000  1.0 0.1023635495
H  H19  1  0.72460000  0.37510000  0.55570000  1.0 0.1023635495
H  H20  1  0.31940000  0.16890000  0.94430000  1.0 0.1023635495
H  H21  1  0.33110000  0.65050000  0.77540000  1.0 0.1023635495
H  H22  1  0.16890000  0.94430000  0.31940000  1.0 0.1023635495
H  H23  1  0.84950000  0.18060000  0.12490000  1.0 0.1023635495
H  H24  1  0.94430000  0.31940000  0.16890000  1.0 0.1023635495
H  H25  1  0.66890000  0.81940000  0.44430000  1.0 0.1023635495
H  H26  1  0.81940000  0.87510000  0.15050000  1.0 0.1023635495
H  H27  1  0.87510000  0.22460000  0.05570000  1.0 0.1023635495
H  H28  1  0.22460000  0.66890000  0.34950000  1.0 0.1023635495
H  H29  1  0.62490000  0.44430000  0.27540000  1.0 0.1023635495
H  H30  1  0.83110000  0.27540000  0.15050000  1.0 0.1023635495
H  H31  1  0.87510000  0.15050000  0.81940000  1.0 0.1023635495
H  H32  1  0.34950000  0.22460000  0.66890000  1.0 0.1023635495
H  H33  1  0.62490000  0.68060000  0.34950000  1.0 0.1023635495
H  H34  1  0.44430000  0.27540000  0.62490000  1.0 0.1023635495
H  H35  1  0.44430000  0.66890000  0.81940000  1.0 0.1023635495
H  H36  1  0.81940000  0.44430000  0.66890000  1.0 0.1023635495
H  H37  1  0.27540000  0.15050000  0.83110000  1.0 0.1023635495
H  H38  1  0.05570000  0.87510000  0.22460000  1.0 0.1023635495
H  H39  1  0.22460000  0.05570000  0.87510000  1.0 0.1023635495
H  H40  1  0.34950000  0.62490000  0.68060000  1.0 0.1023635495
H  H41  1  0.15050000  0.83110000  0.27540000  1.0 0.1023635495
H  H42  1  0.68060000  0.34950000  0.62490000  1.0 0.1023635495
H  H43  1  0.27540000  0.62490000  0.44430000  1.0 0.1023635495
H  H44  1  0.68060000  0.83110000  0.05570000  1.0 0.1023635495
H  H45  1  0.66890000  0.34950000  0.22460000  1.0 0.1023635495
H  H46  1  0.83110000  0.05570000  0.68060000  1.0 0.1023635495
H  H47  1  0.15050000  0.81940000  0.87510000  1.0 0.1023635495
H  H48  1  0.05570000  0.68060000  0.83110000  1.0 0.1023635495
H  H49  1  0.55590000  0.23320000  0.58630000  1.0 0.1094342524
H  H50  1  0.23320000  0.14690000  0.67730000  1.0 0.1094342524
H  H51  1  0.14690000  0.96960000  0.91370000  1.0 0.1094342524
H  H52  1  0.96960000  0.55590000  0.82270000  1.0 0.1094342524
H  H53  1  0.35310000  0.58630000  0.53040000  1.0 0.1094342524
H  H54  1  0.94410000  0.53040000  0.67730000  1.0 0.1094342524
H  H55  1  0.14690000  0.67730000  0.23320000  1.0 0.1094342524
H  H56  1  0.82270000  0.96960000  0.55590000  1.0 0.1094342524
H  H57  1  0.35310000  0.26680000  0.82270000  1.0 0.1094342524
H  H58  1  0.58630000  0.53040000  0.35310000  1.0 0.1094342524
H  H59  1  0.58630000  0.55590000  0.23320000  1.0 0.1094342524
H  H60  1  0.23320000  0.58630000  0.55590000  1.0 0.1094342524
H  H61  1  0.53040000  0.67730000  0.94410000  1.0 0.1094342524
H  H62  1  0.91370000  0.14690000  0.96960000  1.0 0.1094342524
H  H63  1  0.96960000  0.91370000  0.14690000  1.0 0.1094342524
H  H64  1  0.82270000  0.35310000  0.26680000  1.0 0.1094342524
H  H65  1  0.67730000  0.94410000  0.53040000  1.0 0.1094342524
H  H66  1  0.26680000  0.82270000  0.35310000  1.0 0.1094342524
H  H67  1  0.53040000  0.35310000  0.58630000  1.0 0.1094342524
H  H68  1  0.26680000  0.94410000  0.91370000  1.0 0.1094342524
H  H69  1  0.55590000  0.82270000  0.96960000  1.0 0.1094342524
H  H70  1  0.94410000  0.91370000  0.26680000  1.0 0.1094342524
H  H71  1  0.67730000  0.23320000  0.14690000  1.0 0.1094342524
H  H72  1  0.91370000  0.26680000  0.94410000  1.0 0.1094342524
H  H73  1  0.44410000  0.76680000  0.41370000  1.0 0.1094342524
H  H74  1  0.76680000  0.85310000  0.32270000  1.0 0.1094342524
H  H75  1  0.85310000  0.03040000  0.08630000  1.0 0.1094342524
H  H76  1  0.03040000  0.44410000  0.17730000  1.0 0.1094342524
H  H77  1  0.64690000  0.41370000  0.46960000  1.0 0.1094342524
H  H78  1  0.05590000  0.46960000  0.32270000  1.0 0.1094342524
H  H79  1  0.85310000  0.32270000  0.76680000  1.0 0.1094342524
H  H80  1  0.17730000  0.03040000  0.44410000  1.0 0.1094342524
H  H81  1  0.64690000  0.73320000  0.17730000  1.0 0.1094342524
H  H82  1  0.41370000  0.46960000  0.64690000  1.0 0.1094342524
H  H83  1  0.41370000  0.44410000  0.76680000  1.0 0.1094342524
H  H84  1  0.76680000  0.41370000  0.44410000  1.0 0.1094342524
H  H85  1  0.46960000  0.32270000  0.05590000  1.0 0.1094342524
H  H86  1  0.08630000  0.85310000  0.03040000  1.0 0.1094342524
H  H87  1  0.03040000  0.08630000  0.85310000  1.0 0.1094342524
H  H88  1  0.17730000  0.64690000  0.73320000  1.0 0.1094342524
H  H89  1  0.32270000  0.05590000  0.46960000  1.0 0.1094342524
H  H90  1  0.73320000  0.17730000  0.64690000  1.0 0.1094342524
H  H91  1  0.46960000  0.64690000  0.41370000  1.0 0.1094342524
H  H92  1  0.73320000  0.05590000  0.08630000  1.0 0.1094342524
H  H93  1  0.44410000  0.17730000  0.03040000  1.0 0.1094342524
H  H94  1  0.05590000  0.08630000  0.73320000  1.0 0.1094342524
H  H95  1  0.32270000  0.76680000  0.85310000  1.0 0.1094342524
H  H96  1  0.08630000  0.73320000  0.05590000  1.0 0.1094342524
H  H97  1  0.60040000  0.12620000  0.61440000  1.0 0.1183549763
H  H98  1  0.12620000  0.01180000  0.52580000  1.0 0.1183549763
H  H99  1  0.01180000  0.98600000  0.88560000  1.0 0.1183549763
H  H100  1  0.98600000  0.60040000  0.97420000  1.0 0.1183549763
H  H101  1  0.48820000  0.61440000  0.51400000  1.0 0.1183549763
H  H102  1  0.89960000  0.51400000  0.52580000  1.0 0.1183549763
H  H103  1  0.01180000  0.52580000  0.12620000  1.0 0.1183549763
H  H104  1  0.97420000  0.98600000  0.60040000  1.0 0.1183549763
H  H105  1  0.48820000  0.37380000  0.97420000  1.0 0.1183549763
H  H106  1  0.61440000  0.51400000  0.48820000  1.0 0.1183549763
H  H107  1  0.61440000  0.60040000  0.12620000  1.0 0.1183549763
H  H108  1  0.12620000  0.61440000  0.60040000  1.0 0.1183549763
H  H109  1  0.51400000  0.52580000  0.89960000  1.0 0.1183549763
H  H110  1  0.88560000  0.01180000  0.98600000  1.0 0.1183549763
H  H111  1  0.98600000  0.88560000  0.01180000  1.0 0.1183549763
H  H112  1  0.97420000  0.48820000  0.37380000  1.0 0.1183549763
H  H113  1  0.52580000  0.89960000  0.51400000  1.0 0.1183549763
H  H114  1  0.37380000  0.97420000  0.48820000  1.0 0.1183549763
H  H115  1  0.51400000  0.48820000  0.61440000  1.0 0.1183549763
H  H116  1  0.37380000  0.89960000  0.88560000  1.0 0.1183549763
H  H117  1  0.60040000  0.97420000  0.98600000  1.0 0.1183549763
H  H118  1  0.89960000  0.88560000  0.37380000  1.0 0.1183549763
H  H119  1  0.52580000  0.12620000  0.01180000  1.0 0.1183549763
H  H120  1  0.88560000  0.37380000  0.89960000  1.0 0.1183549763
H  H121  1  0.39960000  0.87380000  0.38560000  1.0 0.1183549763
H  H122  1  0.87380000  0.98820000  0.47420000  1.0 0.1183549763
H  H123  1  0.98820000  0.01400000  0.11440000  1.0 0.1183549763
H  H124  1  0.01400000  0.39960000  0.02580000  1.0 0.1183549763
H  H125  1  0.51180000  0.38560000  0.48600000  1.0 0.1183549763
H  H126  1  0.10040000  0.48600000  0.47420000  1.0 0.1183549763
H  H127  1  0.98820000  0.47420000  0.87380000  1.0 0.1183549763
H  H128  1  0.02580000  0.01400000  0.39960000  1.0 0.1183549763
H  H129  1  0.51180000  0.62620000  0.02580000  1.0 0.1183549763
H  H130  1  0.38560000  0.48600000  0.51180000  1.0 0.1183549763
H  H131  1  0.38560000  0.39960000  0.87380000  1.0 0.1183549763
H  H132  1  0.87380000  0.38560000  0.39960000  1.0 0.1183549763
H  H133  1  0.48600000  0.47420000  0.10040000  1.0 0.1183549763
H  H134  1  0.11440000  0.98820000  0.01400000  1.0 0.1183549763
H  H135  1  0.01400000  0.11440000  0.98820000  1.0 0.1183549763
H  H136  1  0.02580000  0.51180000  0.62620000  1.0 0.1183549763
H  H137  1  0.47420000  0.10040000  0.48600000  1.0 0.1183549763
H  H138  1  0.62620000  0.02580000  0.51180000  1.0 0.1183549763
H  H139  1  0.48600000  0.51180000  0.38560000  1.0 0.1183549763
H  H140  1  0.62620000  0.10040000  0.11440000  1.0 0.1183549763
H  H141  1  0.39960000  0.02580000  0.01400000  1.0 0.1183549763
H  H142  1  0.10040000  0.11440000  0.62620000  1.0 0.1183549763
H  H143  1  0.47420000  0.87380000  0.98820000  1.0 0.1183549763
H  H144  1  0.11440000  0.62620000  0.10040000  1.0 0.1183549763
H  H145  1  0.26070000  0.05420000  0.57510000  1.0 0.1283713202
H  H146  1  0.05420000  0.97910000  0.79350000  1.0 0.1283713202
H  H147  1  0.97910000  0.68560000  0.92490000  1.0 0.1283713202
H  H148  1  0.68560000  0.26070000  0.70650000  1.0 0.1283713202
H  H149  1  0.52090000  0.57510000  0.81440000  1.0 0.1283713202
H  H150  1  0.23930000  0.81440000  0.79350000  1.0 0.1283713202
H  H151  1  0.97910000  0.79350000  0.05420000  1.0 0.1183549763
H  H152  1  0.70650000  0.68560000  0.26070000  1.0 0.1283713202
H  H153  1  0.52090000  0.44580000  0.70650000  1.0 0.1283713202
H  H154  1  0.57510000  0.81440000  0.52090000  1.0 0.1283713202
H  H155  1  0.57510000  0.26070000  0.05420000  1.0 0.1283713202
H  H156  1  0.05420000  0.57510000  0.26070000  1.0 0.1283713202
H  H157  1  0.81440000  0.79350000  0.23930000  1.0 0.1183549763
H  H158  1  0.92490000  0.97910000  0.68560000  1.0 0.1183549763
H  H159  1  0.68560000  0.92490000  0.97910000  1.0 0.1283713202
H  H160  1  0.70650000  0.52090000  0.44580000  1.0 0.1283713202
H  H161  1  0.79350000  0.23930000  0.81440000  1.0 0.1283713202
H  H162  1  0.44580000  0.70650000  0.52090000  1.0 0.1283713202
H  H163  1  0.81440000  0.52090000  0.57510000  1.0 0.1283713202
H  H164  1  0.44580000  0.23930000  0.92490000  1.0 0.1283713202
H  H165  1  0.26070000  0.70650000  0.68560000  1.0 0.1283713202
H  H166  1  0.23930000  0.92490000  0.44580000  1.0 0.1283713202
H  H167  1  0.79350000  0.05420000  0.97910000  1.0 0.1283713202
H  H168  1  0.92490000  0.44580000  0.23930000  1.0 0.1183549763
H  H169  1  0.73930000  0.94580000  0.42490000  1.0 0.1283713202
H  H170  1  0.94580000  0.02090000  0.20650000  1.0 0.1283713202
H  H171  1  0.02090000  0.31440000  0.07510000  1.0 0.1283713202
H  H172  1  0.31440000  0.73930000  0.29350000  1.0 0.1283713202
H  H173  1  0.47910000  0.42490000  0.18560000  1.0 0.1283713202
H  H174  1  0.76070000  0.18560000  0.20650000  1.0 0.1283713202
H  H175  1  0.02090000  0.20650000  0.94580000  1.0 0.1283713202
H  H176  1  0.29350000  0.31440000  0.73930000  1.0 0.1283713202
H  H177  1  0.47910000  0.55420000  0.29350000  1.0 0.1283713202
H  H178  1  0.42490000  0.18560000  0.47910000  1.0 0.1283713202
H  H179  1  0.42490000  0.73930000  0.94580000  1.0 0.1283713202
H  H180  1  0.94580000  0.42490000  0.73930000  1.0 0.1283713202
H  H181  1  0.18560000  0.20650000  0.76070000  1.0 0.1283713202
H  H182  1  0.07510000  0.02090000  0.31440000  1.0 0.1283713202
H  H183  1  0.31440000  0.07510000  0.02090000  1.0 0.1283713202
H  H184  1  0.29350000  0.47910000  0.55420000  1.0 0.1283713202
H  H185  1  0.20650000  0.76070000  0.18560000  1.0 0.1283713202
H  H186  1  0.55420000  0.29350000  0.47910000  1.0 0.1283713202
H  H187  1  0.18560000  0.47910000  0.42490000  1.0 0.1283713202
H  H188  1  0.55420000  0.76070000  0.07510000  1.0 0.1283713202
H  H189  1  0.73930000  0.29350000  0.31440000  1.0 0.1283713202
H  H190  1  0.76070000  0.07510000  0.55420000  1.0 0.1283713202
H  H191  1  0.20650000  0.94580000  0.02090000  1.0 0.1283713202
H  H192  1  0.07510000  0.55420000  0.76070000  1.0 0.1283713202
H  H193  1  0.53240000  0.08540000  0.64360000  1.0 0.0617170015
H  H194  1  0.08540000  0.94180000  0.55300000  1.0 0.0617170015
H  H195  1  0.94180000  0.88880000  0.85640000  1.0 0.0617170015
H  H196  1  0.88880000  0.53240000  0.94700000  1.0 0.0617170015
H  H197  1  0.55820000  0.64360000  0.61120000  1.0 0.0617170015
H  H198  1  0.96760000  0.61120000  0.55300000  1.0 0.0617170015
H  H199  1  0.94180000  0.55300000  0.08540000  1.0 0.0617170015
H  H200  1  0.94700000  0.88880000  0.53240000  1.0 0.0617170015
H  H201  1  0.55820000  0.41460000  0.94700000  1.0 0.0617170015
H  H202  1  0.64360000  0.61120000  0.55820000  1.0 0.0617170015
H  H203  1  0.64360000  0.53240000  0.08540000  1.0 0.0617170015
H  H204  1  0.08540000  0.64360000  0.53240000  1.0 0.0617170015
H  H205  1  0.61120000  0.55300000  0.96760000  1.0 0.0617170015
H  H206  1  0.85640000  0.94180000  0.88880000  1.0 0.0617170015
H  H207  1  0.88880000  0.85640000  0.94180000  1.0 0.0617170015
H  H208  1  0.94700000  0.55820000  0.41460000  1.0 0.0617170015
H  H209  1  0.55300000  0.96760000  0.61120000  1.0 0.0617170015
H  H210  1  0.41460000  0.94700000  0.55820000  1.0 0.0617170015
H  H211  1  0.61120000  0.55820000  0.64360000  1.0 0.0617170015
H  H212  1  0.41460000  0.96760000  0.85640000  1.0 0.0617170015
H  H213  1  0.53240000  0.94700000  0.88880000  1.0 0.0617170015
H  H214  1  0.96760000  0.85640000  0.41460000  1.0 0.0617170015
H  H215  1  0.55300000  0.08540000  0.94180000  1.0 0.0617170015
H  H216  1  0.85640000  0.41460000  0.96760000  1.0 0.0617170015
H  H217  1  0.46760000  0.91460000  0.35640000  1.0 0.0617170015
H  H218  1  0.91460000  0.05820000  0.44700000  1.0 0.0617170015
H  H219  1  0.05820000  0.11120000  0.14360000  1.0 0.0617170015
H  H220  1  0.11120000  0.46760000  0.05300000  1.0 0.0617170015
H  H221  1  0.44180000  0.35640000  0.38880000  1.0 0.0617170015
H  H222  1  0.03240000  0.38880000  0.44700000  1.0 0.0617170015
H  H223  1  0.05820000  0.44700000  0.91460000  1.0 0.0617170015
H  H224  1  0.05300000  0.11120000  0.46760000  1.0 0.0617170015
H  H225  1  0.44180000  0.58540000  0.05300000  1.0 0.0617170015
H  H226  1  0.35640000  0.38880000  0.44180000  1.0 0.0617170015
H  H227  1  0.35640000  0.46760000  0.91460000  1.0 0.0617170015
H  H228  1  0.91460000  0.35640000  0.46760000  1.0 0.0617170015
H  H229  1  0.38880000  0.44700000  0.03240000  1.0 0.0617170015
H  H230  1  0.14360000  0.05820000  0.11120000  1.0 0.0617170015
H  H231  1  0.11120000  0.14360000  0.05820000  1.0 0.0617170015
H  H232  1  0.05300000  0.44180000  0.58540000  1.0 0.0617170015
H  H233  1  0.44700000  0.03240000  0.38880000  1.0 0.0617170015
H  H234  1  0.58540000  0.05300000  0.44180000  1.0 0.0617170015
H  H235  1  0.38880000  0.44180000  0.35640000  1.0 0.0617170015
H  H236  1  0.58540000  0.03240000  0.14360000  1.0 0.0617170015
H  H237  1  0.46760000  0.05300000  0.11120000  1.0 0.0617170015
H  H238  1  0.03240000  0.14360000  0.58540000  1.0 0.0617170015
H  H239  1  0.44700000  0.91460000  0.05820000  1.0 0.0617170015
H  H240  1  0.14360000  0.58540000  0.03240000  1.0 0.0617170015
H  H241  1  0.36070000  0.03040000  0.59490000  1.0 0.1183549763
H  H242  1  0.03040000  0.93550000  0.66970000  1.0 0.1183549763
H  H243  1  0.93550000  0.76580000  0.90510000  1.0 0.1183549763
H  H244  1  0.76580000  0.36070000  0.83030000  1.0 0.1183549763
H  H245  1  0.56450000  0.59490000  0.73420000  1.0 0.1183549763
H  H246  1  0.13930000  0.73420000  0.66970000  1.0 0.1183549763
H  H247  1  0.93550000  0.66970000  0.03040000  1.0 0.1183549763
H  H248  1  0.83030000  0.76580000  0.36070000  1.0 0.1183549763
H  H249  1  0.56450000  0.46960000  0.83030000  1.0 0.1183549763
H  H250  1  0.59490000  0.73420000  0.56450000  1.0 0.1183549763
H  H251  1  0.59490000  0.36070000  0.03040000  1.0 0.1183549763
H  H252  1  0.03040000  0.59490000  0.36070000  1.0 0.1183549763
H  H253  1  0.73420000  0.66970000  0.13930000  1.0 0.1183549763
H  H254  1  0.90510000  0.93550000  0.76580000  1.0 0.1183549763
H  H255  1  0.76580000  0.90510000  0.93550000  1.0 0.1183549763
H  H256  1  0.83030000  0.56450000  0.46960000  1.0 0.1183549763
H  H257  1  0.66970000  0.13930000  0.73420000  1.0 0.1183549763
H  H258  1  0.46960000  0.83030000  0.56450000  1.0 0.1183549763
H  H259  1  0.73420000  0.56450000  0.59490000  1.0 0.1183549763
H  H260  1  0.46960000  0.13930000  0.90510000  1.0 0.1183549763
H  H261  1  0.36070000  0.83030000  0.76580000  1.0 0.1183549763
H  H262  1  0.13930000  0.90510000  0.46960000  1.0 0.1183549763
H  H263  1  0.66970000  0.03040000  0.93550000  1.0 0.1183549763
H  H264  1  0.90510000  0.46960000  0.13930000  1.0 0.1183549763
H  H265  1  0.63930000  0.96960000  0.40510000  1.0 0.1183549763
H  H266  1  0.96960000  0.06450000  0.33030000  1.0 0.1183549763
H  H267  1  0.06450000  0.23420000  0.09490000  1.0 0.1183549763
H  H268  1  0.23420000  0.63930000  0.16970000  1.0 0.1183549763
H  H269  1  0.43550000  0.40510000  0.26580000  1.0 0.1183549763
H  H270  1  0.86070000  0.26580000  0.33030000  1.0 0.1183549763
H  H271  1  0.06450000  0.33030000  0.96960000  1.0 0.1183549763
H  H272  1  0.16970000  0.23420000  0.63930000  1.0 0.1183549763
H  H273  1  0.43550000  0.53040000  0.16970000  1.0 0.1183549763
H  H274  1  0.40510000  0.26580000  0.43550000  1.0 0.1183549763
H  H275  1  0.40510000  0.63930000  0.96960000  1.0 0.1183549763
H  H276  1  0.96960000  0.40510000  0.63930000  1.0 0.1183549763
H  H277  1  0.26580000  0.33030000  0.86070000  1.0 0.1183549763
H  H278  1  0.09490000  0.06450000  0.23420000  1.0 0.1183549763
H  H279  1  0.23420000  0.09490000  0.06450000  1.0 0.1183549763
H  H280  1  0.16970000  0.43550000  0.53040000  1.0 0.1183549763
H  H281  1  0.33030000  0.86070000  0.26580000  1.0 0.1183549763
H  H282  1  0.53040000  0.16970000  0.43550000  1.0 0.1183549763
H  H283  1  0.26580000  0.43550000  0.40510000  1.0 0.1183549763
H  H284  1  0.53040000  0.86070000  0.09490000  1.0 0.1183549763
H  H285  1  0.63930000  0.16970000  0.23420000  1.0 0.1183549763
H  H286  1  0.86070000  0.09490000  0.53040000  1.0 0.1183549763
H  H287  1  0.33030000  0.96960000  0.06450000  1.0 0.1183549763
H  H288  1  0.09490000  0.53040000  0.86070000  1.0 0.1183549763
H  H289  1  0.39830000  0.23370000  0.42840000  1.0 0.0887822952
H  H290  1  0.23370000  0.30530000  0.83540000  1.0 0.0887822952
H  H291  1  0.30530000  0.96990000  0.07160000  1.0 0.0887822952
H  H292  1  0.96990000  0.39830000  0.66460000  1.0 0.0887822952
H  H293  1  0.19470000  0.42840000  0.53010000  1.0 0.0887822952
H  H294  1  0.10170000  0.53010000  0.83540000  1.0 0.0887822952
H  H295  1  0.30530000  0.83540000  0.23370000  1.0 0.0887822952
H  H296  1  0.66460000  0.96990000  0.39830000  1.0 0.0887822952
H  H297  1  0.19470000  0.26630000  0.66460000  1.0 0.0887822952
H  H298  1  0.42840000  0.53010000  0.19470000  1.0 0.0887822952
H  H299  1  0.42840000  0.39830000  0.23370000  1.0 0.0887822952
H  H300  1  0.23370000  0.42840000  0.39830000  1.0 0.0887822952
H  H301  1  0.53010000  0.83540000  0.10170000  1.0 0.0887822952
H  H302  1  0.07160000  0.30530000  0.96990000  1.0 0.0887822952
H  H303  1  0.96990000  0.07160000  0.30530000  1.0 0.0887822952
H  H304  1  0.66460000  0.19470000  0.26630000  1.0 0.0887822952
H  H305  1  0.83540000  0.10170000  0.53010000  1.0 0.0887822952
H  H306  1  0.26630000  0.66460000  0.19470000  1.0 0.0887822952
H  H307  1  0.53010000  0.19470000  0.42840000  1.0 0.0887822952
H  H308  1  0.26630000  0.10170000  0.07160000  1.0 0.0887822952
H  H309  1  0.39830000  0.66460000  0.96990000  1.0 0.0887822952
H  H310  1  0.10170000  0.07160000  0.26630000  1.0 0.0887822952
H  H311  1  0.83540000  0.23370000  0.30530000  1.0 0.0887822952
H  H312  1  0.07160000  0.26630000  0.10170000  1.0 0.0887822952
H  H313  1  0.60170000  0.76630000  0.57160000  1.0 0.0887822952
H  H314  1  0.76630000  0.69470000  0.16460000  1.0 0.0887822952
H  H315  1  0.69470000  0.03010000  0.92840000  1.0 0.0887822952
H  H316  1  0.03010000  0.60170000  0.33540000  1.0 0.0887822952
H  H317  1  0.80530000  0.57160000  0.46990000  1.0 0.0887822952
H  H318  1  0.89830000  0.46990000  0.16460000  1.0 0.0887822952
H  H319  1  0.69470000  0.16460000  0.76630000  1.0 0.0887822952
H  H320  1  0.33540000  0.03010000  0.60170000  1.0 0.0887822952
H  H321  1  0.80530000  0.73370000  0.33540000  1.0 0.0887822952
H  H322  1  0.57160000  0.46990000  0.80530000  1.0 0.0887822952
H  H323  1  0.57160000  0.60170000  0.76630000  1.0 0.0887822952
H  H324  1  0.76630000  0.57160000  0.60170000  1.0 0.0887822952
H  H325  1  0.46990000  0.16460000  0.89830000  1.0 0.0887822952
H  H326  1  0.92840000  0.69470000  0.03010000  1.0 0.0887822952
H  H327  1  0.03010000  0.92840000  0.69470000  1.0 0.0887822952
H  H328  1  0.33540000  0.80530000  0.73370000  1.0 0.0887822952
H  H329  1  0.16460000  0.89830000  0.46990000  1.0 0.0887822952
H  H330  1  0.73370000  0.33540000  0.80530000  1.0 0.0887822952
H  H331  1  0.46990000  0.80530000  0.57160000  1.0 0.0887822952
H  H332  1  0.73370000  0.89830000  0.92840000  1.0 0.0887822952
H  H333  1  0.60170000  0.33540000  0.03010000  1.0 0.0887822952
H  H334  1  0.89830000  0.92840000  0.73370000  1.0 0.0887822952
H  H335  1  0.16460000  0.76630000  0.69470000  1.0 0.0887822952
H  H336  1  0.92840000  0.73370000  0.89830000  1.0 0.0887822952
H  H337  1  0.38930000  0.37830000  0.44500000  1.0 0.0887822952
H  H338  1  0.37830000  0.43330000  0.98900000  1.0 0.0887822952
H  H339  1  0.43330000  0.94430000  0.05500000  1.0 0.0887822952
H  H340  1  0.94430000  0.38930000  0.51100000  1.0 0.0887822952
H  H341  1  0.06670000  0.44500000  0.55570000  1.0 0.0887822952
H  H342  1  0.11070000  0.55570000  0.98900000  1.0 0.0887822952
H  H343  1  0.43330000  0.98900000  0.37830000  1.0 0.0887822952
H  H344  1  0.51100000  0.94430000  0.38930000  1.0 0.0887822952
H  H345  1  0.06670000  0.12170000  0.51100000  1.0 0.0887822952
H  H346  1  0.44500000  0.55570000  0.06670000  1.0 0.0887822952
H  H347  1  0.44500000  0.38930000  0.37830000  1.0 0.0887822952
H  H348  1  0.37830000  0.44500000  0.38930000  1.0 0.0887822952
H  H349  1  0.55570000  0.98900000  0.11070000  1.0 0.0887822952
H  H350  1  0.05500000  0.43330000  0.94430000  1.0 0.0887822952
H  H351  1  0.94430000  0.05500000  0.43330000  1.0 0.0887822952
H  H352  1  0.51100000  0.06670000  0.12170000  1.0 0.0887822952
H  H353  1  0.98900000  0.11070000  0.55570000  1.0 0.0887822952
H  H354  1  0.12170000  0.51100000  0.06670000  1.0 0.0887822952
H  H355  1  0.55570000  0.06670000  0.44500000  1.0 0.0887822952
H  H356  1  0.12170000  0.11070000  0.05500000  1.0 0.0887822952
H  H357  1  0.38930000  0.51100000  0.94430000  1.0 0.0887822952
H  H358  1  0.11070000  0.05500000  0.12170000  1.0 0.0887822952
H  H359  1  0.98900000  0.37830000  0.43330000  1.0 0.0887822952
H  H360  1  0.05500000  0.12170000  0.11070000  1.0 0.0887822952
H  H361  1  0.61070000  0.62170000  0.55500000  1.0 0.0887822952
H  H362  1  0.62170000  0.56670000  0.01100000  1.0 0.0887822952
H  H363  1  0.56670000  0.05570000  0.94500000  1.0 0.0887822952
H  H364  1  0.05570000  0.61070000  0.48900000  1.0 0.0887822952
H  H365  1  0.93330000  0.55500000  0.44430000  1.0 0.0887822952
H  H366  1  0.88930000  0.44430000  0.01100000  1.0 0.0887822952
H  H367  1  0.56670000  0.01100000  0.62170000  1.0 0.0887822952
H  H368  1  0.48900000  0.05570000  0.61070000  1.0 0.0887822952
H  H369  1  0.93330000  0.87830000  0.48900000  1.0 0.0887822952
H  H370  1  0.55500000  0.44430000  0.93330000  1.0 0.0887822952
H  H371  1  0.55500000  0.61070000  0.62170000  1.0 0.0887822952
H  H372  1  0.62170000  0.55500000  0.61070000  1.0 0.0887822952
H  H373  1  0.44430000  0.01100000  0.88930000  1.0 0.0887822952
H  H374  1  0.94500000  0.56670000  0.05570000  1.0 0.0887822952
H  H375  1  0.05570000  0.94500000  0.56670000  1.0 0.0887822952
H  H376  1  0.48900000  0.93330000  0.87830000  1.0 0.0887822952
H  H377  1  0.01100000  0.88930000  0.44430000  1.0 0.0887822952
H  H378  1  0.87830000  0.48900000  0.93330000  1.0 0.0887822952
H  H379  1  0.44430000  0.93330000  0.55500000  1.0 0.0887822952
H  H380  1  0.87830000  0.88930000  0.94500000  1.0 0.0887822952
H  H381  1  0.61070000  0.48900000  0.05570000  1.0 0.0887822952
H  H382  1  0.88930000  0.94500000  0.87830000  1.0 0.0887822952
H  H383  1  0.01100000  0.62170000  0.56670000  1.0 0.0887822952
H  H384  1  0.94500000  0.87830000  0.88930000  1.0 0.0887822952
C  C1  1  0.32510000  0.15010000  0.56240000  1.0 0.1424434481
C  C2  1  0.15010000  0.08770000  0.82500000  1.0 0.1424434481
C  C3  1  0.08770000  0.76270000  0.93760000  1.0 0.1424434481
C  C4  1  0.76270000  0.32510000  0.67500000  1.0 0.1424434481
C  C5  1  0.41230000  0.56240000  0.73730000  1.0 0.1424434481
C  C6  1  0.17490000  0.73730000  0.82500000  1.0 0.1424434481
C  C7  1  0.08770000  0.82500000  0.15010000  1.0 0.1424434481
C  C8  1  0.67500000  0.76270000  0.32510000  1.0 0.1424434481
C  C9  1  0.41230000  0.34990000  0.67500000  1.0 0.1424434481
C  C10  1  0.56240000  0.73730000  0.41230000  1.0 0.1424434481
C  C11  1  0.56240000  0.32510000  0.15010000  1.0 0.1424434481
C  C12  1  0.15010000  0.56240000  0.32510000  1.0 0.1424434481
C  C13  1  0.73730000  0.82500000  0.17490000  1.0 0.1424434481
C  C14  1  0.93760000  0.08770000  0.76270000  1.0 0.1424434481
C  C15  1  0.76270000  0.93760000  0.08770000  1.0 0.1424434481
C  C16  1  0.67500000  0.41230000  0.34990000  1.0 0.1424434481
C  C17  1  0.82500000  0.17490000  0.73730000  1.0 0.1424434481
C  C18  1  0.34990000  0.67500000  0.41230000  1.0 0.1424434481
C  C19  1  0.73730000  0.41230000  0.56240000  1.0 0.1424434481
C  C20  1  0.34990000  0.17490000  0.93760000  1.0 0.1424434481
C  C21  1  0.32510000  0.67500000  0.76270000  1.0 0.1424434481
C  C22  1  0.17490000  0.93760000  0.34990000  1.0 0.1424434481
C  C23  1  0.82500000  0.15010000  0.08770000  1.0 0.1424434481
C  C24  1  0.93760000  0.34990000  0.17490000  1.0 0.1424434481
C  C25  1  0.67490000  0.84990000  0.43760000  1.0 0.1424434481
C  C26  1  0.84990000  0.91230000  0.17500000  1.0 0.1424434481
C  C27  1  0.91230000  0.23730000  0.06240000  1.0 0.1424434481
C  C28  1  0.23730000  0.67490000  0.32500000  1.0 0.1424434481
C  C29  1  0.58770000  0.43760000  0.26270000  1.0 0.1424434481
C  C30  1  0.82510000  0.26270000  0.17500000  1.0 0.1424434481
C  C31  1  0.91230000  0.17500000  0.84990000  1.0 0.1424434481
C  C32  1  0.32500000  0.23730000  0.67490000  1.0 0.1424434481
C  C33  1  0.58770000  0.65010000  0.32500000  1.0 0.1424434481
C  C34  1  0.43760000  0.26270000  0.58770000  1.0 0.1424434481
C  C35  1  0.43760000  0.67490000  0.84990000  1.0 0.1424434481
C  C36  1  0.84990000  0.43760000  0.67490000  1.0 0.1424434481
C  C37  1  0.26270000  0.17500000  0.82510000  1.0 0.1424434481
C  C38  1  0.06240000  0.91230000  0.23730000  1.0 0.1424434481
C  C39  1  0.23730000  0.06240000  0.91230000  1.0 0.1424434481
C  C40  1  0.32500000  0.58770000  0.65010000  1.0 0.1424434481
C  C41  1  0.17500000  0.82510000  0.26270000  1.0 0.1424434481
C  C42  1  0.65010000  0.32500000  0.58770000  1.0 0.1424434481
C  C43  1  0.26270000  0.58770000  0.43760000  1.0 0.1424434481
C  C44  1  0.65010000  0.82510000  0.06240000  1.0 0.1424434481
C  C45  1  0.67490000  0.32500000  0.23730000  1.0 0.1424434481
C  C46  1  0.82510000  0.06240000  0.65010000  1.0 0.1424434481
C  C47  1  0.17500000  0.84990000  0.91230000  1.0 0.1424434481
C  C48  1  0.06240000  0.65010000  0.82510000  1.0 0.1424434481
C  C49  1  0.55590000  0.20380000  0.59330000  1.0 0.1283713202
C  C50  1  0.20380000  0.11050000  0.64790000  1.0 0.1283713202
C  C51  1  0.11050000  0.96260000  0.90670000  1.0 0.1283713202
C  C52  1  0.96260000  0.55590000  0.85210000  1.0 0.1283713202
C  C53  1  0.38950000  0.59330000  0.53740000  1.0 0.1283713202
C  C54  1  0.94410000  0.53740000  0.64790000  1.0 0.1283713202
C  C55  1  0.11050000  0.64790000  0.20380000  1.0 0.1283713202
C  C56  1  0.85210000  0.96260000  0.55590000  1.0 0.1283713202
C  C57  1  0.38950000  0.29620000  0.85210000  1.0 0.1283713202
C  C58  1  0.59330000  0.53740000  0.38950000  1.0 0.1283713202
C  C59  1  0.59330000  0.55590000  0.20380000  1.0 0.1283713202
C  C60  1  0.20380000  0.59330000  0.55590000  1.0 0.1283713202
C  C61  1  0.53740000  0.64790000  0.94410000  1.0 0.1283713202
C  C62  1  0.90670000  0.11050000  0.96260000  1.0 0.1283713202
C  C63  1  0.96260000  0.90670000  0.11050000  1.0 0.1283713202
C  C64  1  0.85210000  0.38950000  0.29620000  1.0 0.1283713202
C  C65  1  0.64790000  0.94410000  0.53740000  1.0 0.1283713202
C  C66  1  0.29620000  0.85210000  0.38950000  1.0 0.1283713202
C  C67  1  0.53740000  0.38950000  0.59330000  1.0 0.1283713202
C  C68  1  0.29620000  0.94410000  0.90670000  1.0 0.1283713202
C  C69  1  0.55590000  0.85210000  0.96260000  1.0 0.1283713202
C  C70  1  0.94410000  0.90670000  0.29620000  1.0 0.1283713202
C  C71  1  0.64790000  0.20380000  0.11050000  1.0 0.1283713202
C  C72  1  0.90670000  0.29620000  0.94410000  1.0 0.1283713202
C  C73  1  0.44410000  0.79620000  0.40670000  1.0 0.1283713202
C  C74  1  0.79620000  0.88950000  0.35210000  1.0 0.1283713202
C  C75  1  0.88950000  0.03740000  0.09330000  1.0 0.1283713202
C  C76  1  0.03740000  0.44410000  0.14790000  1.0 0.1283713202
C  C77  1  0.61050000  0.40670000  0.46260000  1.0 0.1283713202
C  C78  1  0.05590000  0.46260000  0.35210000  1.0 0.1283713202
C  C79  1  0.88950000  0.35210000  0.79620000  1.0 0.1283713202
C  C80  1  0.14790000  0.03740000  0.44410000  1.0 0.1283713202
C  C81  1  0.61050000  0.70380000  0.14790000  1.0 0.1283713202
C  C82  1  0.40670000  0.46260000  0.61050000  1.0 0.1283713202
C  C83  1  0.40670000  0.44410000  0.79620000  1.0 0.1283713202
C  C84  1  0.79620000  0.40670000  0.44410000  1.0 0.1283713202
C  C85  1  0.46260000  0.35210000  0.05590000  1.0 0.1283713202
C  C86  1  0.09330000  0.88950000  0.03740000  1.0 0.1283713202
C  C87  1  0.03740000  0.09330000  0.88950000  1.0 0.1283713202
C  C88  1  0.14790000  0.61050000  0.70380000  1.0 0.1283713202
C  C89  1  0.35210000  0.05590000  0.46260000  1.0 0.1283713202
C  C90  1  0.70380000  0.14790000  0.61050000  1.0 0.1283713202
C  C91  1  0.46260000  0.61050000  0.40670000  1.0 0.1283713202
C  C92  1  0.70380000  0.05590000  0.09330000  1.0 0.1283713202
C  C93  1  0.44410000  0.14790000  0.03740000  1.0 0.1283713202
C  C94  1  0.05590000  0.09330000  0.70380000  1.0 0.1283713202
C  C95  1  0.35210000  0.79620000  0.88950000  1.0 0.1283713202
C  C96  1  0.09330000  0.70380000  0.05590000  1.0 0.1283713202
C  C97  1  0.34000000  0.08920000  0.58200000  1.0 0.0887822952
C  C98  1  0.08920000  0.00720000  0.74920000  1.0 0.0887822952
C  C99  1  0.00720000  0.75800000  0.91800000  1.0 0.0887822952
C  C100  1  0.75800000  0.34000000  0.75080000  1.0 0.0887822952
C  C101  1  0.49280000  0.58200000  0.74200000  1.0 0.0887822952
C  C102  1  0.16000000  0.74200000  0.74920000  1.0 0.0887822952
C  C103  1  0.00720000  0.74920000  0.08920000  1.0 0.0887822952
C  C104  1  0.75080000  0.75800000  0.34000000  1.0 0.0887822952
C  C105  1  0.49280000  0.41080000  0.75080000  1.0 0.0887822952
C  C106  1  0.58200000  0.74200000  0.49280000  1.0 0.0887822952
C  C107  1  0.58200000  0.34000000  0.08920000  1.0 0.0887822952
C  C108  1  0.08920000  0.58200000  0.34000000  1.0 0.0887822952
C  C109  1  0.74200000  0.74920000  0.16000000  1.0 0.0887822952
C  C110  1  0.91800000  0.00720000  0.75800000  1.0 0.0887822952
C  C111  1  0.75800000  0.91800000  0.00720000  1.0 0.0887822952
C  C112  1  0.75080000  0.49280000  0.41080000  1.0 0.0887822952
C  C113  1  0.74920000  0.16000000  0.74200000  1.0 0.0887822952
C  C114  1  0.41080000  0.75080000  0.49280000  1.0 0.0887822952
C  C115  1  0.74200000  0.49280000  0.58200000  1.0 0.0887822952
C  C116  1  0.41080000  0.16000000  0.91800000  1.0 0.0887822952
C  C117  1  0.34000000  0.75080000  0.75800000  1.0 0.0887822952
C  C118  1  0.16000000  0.91800000  0.41080000  1.0 0.0887822952
C  C119  1  0.74920000  0.08920000  0.00720000  1.0 0.0887822952
C  C120  1  0.91800000  0.41080000  0.16000000  1.0 0.0887822952
C  C121  1  0.66000000  0.91080000  0.41800000  1.0 0.0887822952
C  C122  1  0.91080000  0.99280000  0.25080000  1.0 0.0887822952
C  C123  1  0.99280000  0.24200000  0.08200000  1.0 0.0887822952
C  C124  1  0.24200000  0.66000000  0.24920000  1.0 0.0887822952
C  C125  1  0.50720000  0.41800000  0.25800000  1.0 0.0887822952
C  C126  1  0.84000000  0.25800000  0.25080000  1.0 0.0887822952
C  C127  1  0.99280000  0.25080000  0.91080000  1.0 0.0887822952
C  C128  1  0.24920000  0.24200000  0.66000000  1.0 0.0887822952
C  C129  1  0.50720000  0.58920000  0.24920000  1.0 0.0887822952
C  C130  1  0.41800000  0.25800000  0.50720000  1.0 0.0887822952
C  C131  1  0.41800000  0.66000000  0.91080000  1.0 0.0887822952
C  C132  1  0.91080000  0.41800000  0.66000000  1.0 0.0887822952
C  C133  1  0.25800000  0.25080000  0.84000000  1.0 0.0887822952
C  C134  1  0.08200000  0.99280000  0.24200000  1.0 0.0887822952
C  C135  1  0.24200000  0.08200000  0.99280000  1.0 0.0887822952
C  C136  1  0.24920000  0.50720000  0.58920000  1.0 0.0887822952
C  C137  1  0.25080000  0.84000000  0.25800000  1.0 0.0887822952
C  C138  1  0.58920000  0.24920000  0.50720000  1.0 0.0887822952
C  C139  1  0.25800000  0.50720000  0.41800000  1.0 0.0887822952
C  C140  1  0.58920000  0.84000000  0.08200000  1.0 0.0887822952
C  C141  1  0.66000000  0.24920000  0.24200000  1.0 0.0887822952
C  C142  1  0.84000000  0.08200000  0.58920000  1.0 0.0887822952
C  C143  1  0.25080000  0.91080000  0.99280000  1.0 0.0887822952
C  C144  1  0.08200000  0.58920000  0.84000000  1.0 0.0887822952
C  C145  1  0.58120000  0.14620000  0.60920000  1.0 -0.1904580267
C  C146  1  0.14620000  0.03700000  0.56500000  1.0 -0.1904580267
C  C147  1  0.03700000  0.97200000  0.89080000  1.0 -0.1904580267
C  C148  1  0.97200000  0.58120000  0.93500000  1.0 -0.1904580267
C  C149  1  0.46300000  0.60920000  0.52800000  1.0 -0.1904580267
C  C150  1  0.91880000  0.52800000  0.56500000  1.0 -0.1904580267
C  C151  1  0.03700000  0.56500000  0.14620000  1.0 -0.1904580267
C  C152  1  0.93500000  0.97200000  0.58120000  1.0 -0.1904580267
C  C153  1  0.46300000  0.35380000  0.93500000  1.0 -0.1904580267
C  C154  1  0.60920000  0.52800000  0.46300000  1.0 -0.1904580267
C  C155  1  0.60920000  0.58120000  0.14620000  1.0 -0.1904580267
C  C156  1  0.14620000  0.60920000  0.58120000  1.0 -0.1904580267
C  C157  1  0.52800000  0.56500000  0.91880000  1.0 -0.1904580267
C  C158  1  0.89080000  0.03700000  0.97200000  1.0 -0.1904580267
C  C159  1  0.97200000  0.89080000  0.03700000  1.0 -0.1904580267
C  C160  1  0.93500000  0.46300000  0.35380000  1.0 -0.1904580267
C  C161  1  0.56500000  0.91880000  0.52800000  1.0 -0.1904580267
C  C162  1  0.35380000  0.93500000  0.46300000  1.0 -0.1904580267
C  C163  1  0.52800000  0.46300000  0.60920000  1.0 -0.1904580267
C  C164  1  0.35380000  0.91880000  0.89080000  1.0 -0.1904580267
C  C165  1  0.58120000  0.93500000  0.97200000  1.0 -0.1904580267
C  C166  1  0.91880000  0.89080000  0.35380000  1.0 -0.1904580267
C  C167  1  0.56500000  0.14620000  0.03700000  1.0 -0.1904580267
C  C168  1  0.89080000  0.35380000  0.91880000  1.0 -0.1904580267
C  C169  1  0.41880000  0.85380000  0.39080000  1.0 -0.1904580267
C  C170  1  0.85380000  0.96300000  0.43500000  1.0 -0.1904580267
C  C171  1  0.96300000  0.02800000  0.10920000  1.0 -0.1904580267
C  C172  1  0.02800000  0.41880000  0.06500000  1.0 -0.1904580267
C  C173  1  0.53700000  0.39080000  0.47200000  1.0 -0.1904580267
C  C174  1  0.08120000  0.47200000  0.43500000  1.0 -0.1904580267
C  C175  1  0.96300000  0.43500000  0.85380000  1.0 -0.1904580267
C  C176  1  0.06500000  0.02800000  0.41880000  1.0 -0.1904580267
C  C177  1  0.53700000  0.64620000  0.06500000  1.0 -0.1904580267
C  C178  1  0.39080000  0.47200000  0.53700000  1.0 -0.1904580267
C  C179  1  0.39080000  0.41880000  0.85380000  1.0 -0.1904580267
C  C180  1  0.85380000  0.39080000  0.41880000  1.0 -0.1904580267
C  C181  1  0.47200000  0.43500000  0.08120000  1.0 -0.1904580267
C  C182  1  0.10920000  0.96300000  0.02800000  1.0 -0.1904580267
C  C183  1  0.02800000  0.10920000  0.96300000  1.0 -0.1904580267
C  C184  1  0.06500000  0.53700000  0.64620000  1.0 -0.1904580267
C  C185  1  0.43500000  0.08120000  0.47200000  1.0 -0.1904580267
C  C186  1  0.64620000  0.06500000  0.53700000  1.0 -0.1904580267
C  C187  1  0.47200000  0.53700000  0.39080000  1.0 -0.1904580267
C  C188  1  0.64620000  0.08120000  0.10920000  1.0 -0.1904580267
C  C189  1  0.41880000  0.06500000  0.02800000  1.0 -0.1904580267
C  C190  1  0.08120000  0.10920000  0.64620000  1.0 -0.1904580267
C  C191  1  0.43500000  0.85380000  0.96300000  1.0 -0.1904580267
C  C192  1  0.10920000  0.64620000  0.08120000  1.0 -0.1904580267
C  C193  1  0.28650000  0.08200000  0.57270000  1.0 -0.0771359998
C  C194  1  0.08200000  0.00930000  0.79550000  1.0 -0.0771359998
C  C195  1  0.00930000  0.71380000  0.92730000  1.0 -0.0771359998
C  C196  1  0.71380000  0.28650000  0.70450000  1.0 -0.0771359998
C  C197  1  0.49070000  0.57270000  0.78620000  1.0 -0.0771359998
C  C198  1  0.21350000  0.78620000  0.79550000  1.0 -0.0771359998
C  C199  1  0.00930000  0.79550000  0.08200000  1.0 -0.0771359998
C  C200  1  0.70450000  0.71380000  0.28650000  1.0 -0.0771359998
C  C201  1  0.49070000  0.41800000  0.70450000  1.0 -0.0771359998
C  C202  1  0.57270000  0.78620000  0.49070000  1.0 -0.0771359998
C  C203  1  0.57270000  0.28650000  0.08200000  1.0 -0.0771359998
C  C204  1  0.08200000  0.57270000  0.28650000  1.0 -0.0771359998
C  C205  1  0.78620000  0.79550000  0.21350000  1.0 -0.0771359998
C  C206  1  0.92730000  0.00930000  0.71380000  1.0 -0.0771359998
C  C207  1  0.71380000  0.92730000  0.00930000  1.0 -0.0771359998
C  C208  1  0.70450000  0.49070000  0.41800000  1.0 -0.0771359998
C  C209  1  0.79550000  0.21350000  0.78620000  1.0 -0.0771359998
C  C210  1  0.41800000  0.70450000  0.49070000  1.0 -0.0771359998
C  C211  1  0.78620000  0.49070000  0.57270000  1.0 -0.0771359998
C  C212  1  0.41800000  0.21350000  0.92730000  1.0 -0.0771359998
C  C213  1  0.28650000  0.70450000  0.71380000  1.0 -0.0771359998
C  C214  1  0.21350000  0.92730000  0.41800000  1.0 -0.0771359998
C  C215  1  0.79550000  0.08200000  0.00930000  1.0 -0.0771359998
C  C216  1  0.92730000  0.41800000  0.21350000  1.0 -0.0771359998
C  C217  1  0.71350000  0.91800000  0.42730000  1.0 -0.0771359998
C  C218  1  0.91800000  0.99070000  0.20450000  1.0 -0.0771359998
C  C219  1  0.99070000  0.28620000  0.07270000  1.0 -0.0771359998
C  C220  1  0.28620000  0.71350000  0.29550000  1.0 -0.0771359998
C  C221  1  0.50930000  0.42730000  0.21380000  1.0 -0.0771359998
C  C222  1  0.78650000  0.21380000  0.20450000  1.0 -0.0771359998
C  C223  1  0.99070000  0.20450000  0.91800000  1.0 -0.0771359998
C  C224  1  0.29550000  0.28620000  0.71350000  1.0 -0.0771359998
C  C225  1  0.50930000  0.58200000  0.29550000  1.0 -0.0771359998
C  C226  1  0.42730000  0.21380000  0.50930000  1.0 -0.0771359998
C  C227  1  0.42730000  0.71350000  0.91800000  1.0 -0.0771359998
C  C228  1  0.91800000  0.42730000  0.71350000  1.0 -0.0771359998
C  C229  1  0.21380000  0.20450000  0.78650000  1.0 -0.0771359998
C  C230  1  0.07270000  0.99070000  0.28620000  1.0 -0.0771359998
C  C231  1  0.28620000  0.07270000  0.99070000  1.0 -0.0771359998
C  C232  1  0.29550000  0.50930000  0.58200000  1.0 -0.0771359998
C  C233  1  0.20450000  0.78650000  0.21380000  1.0 -0.0771359998
C  C234  1  0.58200000  0.29550000  0.50930000  1.0 -0.0771359998
C  C235  1  0.21380000  0.50930000  0.42730000  1.0 -0.0771359998
C  C236  1  0.58200000  0.78650000  0.07270000  1.0 -0.0771359998
C  C237  1  0.71350000  0.29550000  0.28620000  1.0 -0.0771359998
C  C238  1  0.78650000  0.07270000  0.58200000  1.0 -0.0771359998
C  C239  1  0.20450000  0.91800000  0.99070000  1.0 -0.0771359998
C  C240  1  0.07270000  0.58200000  0.78650000  1.0 -0.0771359998
C  C241  1  0.53180000  0.13550000  0.61130000  1.0 0.1023635495
C  C242  1  0.13550000  0.02420000  0.60370000  1.0 0.1023635495
C  C243  1  0.02420000  0.92050000  0.88870000  1.0 0.1023635495
C  C244  1  0.92050000  0.53180000  0.89630000  1.0 0.1023635495
C  C245  1  0.47580000  0.61130000  0.57950000  1.0 0.1023635495
C  C246  1  0.96820000  0.57950000  0.60370000  1.0 0.1023635495
C  C247  1  0.02420000  0.60370000  0.13550000  1.0 0.1023635495
C  C248  1  0.89630000  0.92050000  0.53180000  1.0 0.1023635495
C  C249  1  0.47580000  0.36450000  0.89630000  1.0 0.1023635495
C  C250  1  0.61130000  0.57950000  0.47580000  1.0 0.1023635495
C  C251  1  0.61130000  0.53180000  0.13550000  1.0 0.1023635495
C  C252  1  0.13550000  0.61130000  0.53180000  1.0 0.1023635495
C  C253  1  0.57950000  0.60370000  0.96820000  1.0 0.1023635495
C  C254  1  0.88870000  0.02420000  0.92050000  1.0 0.1023635495
C  C255  1  0.92050000  0.88870000  0.02420000  1.0 0.1023635495
C  C256  1  0.89630000  0.47580000  0.36450000  1.0 0.1023635495
C  C257  1  0.60370000  0.96820000  0.57950000  1.0 0.1023635495
C  C258  1  0.36450000  0.89630000  0.47580000  1.0 0.1023635495
C  C259  1  0.57950000  0.47580000  0.61130000  1.0 0.1023635495
C  C260  1  0.36450000  0.96820000  0.88870000  1.0 0.1023635495
C  C261  1  0.53180000  0.89630000  0.92050000  1.0 0.1023635495
C  C262  1  0.96820000  0.88870000  0.36450000  1.0 0.1023635495
C  C263  1  0.60370000  0.13550000  0.02420000  1.0 0.1023635495
C  C264  1  0.88870000  0.36450000  0.96820000  1.0 0.1023635495
C  C265  1  0.46820000  0.86450000  0.38870000  1.0 0.1023635495
C  C266  1  0.86450000  0.97580000  0.39630000  1.0 0.1023635495
C  C267  1  0.97580000  0.07950000  0.11130000  1.0 0.1023635495
C  C268  1  0.07950000  0.46820000  0.10370000  1.0 0.1023635495
C  C269  1  0.52420000  0.38870000  0.42050000  1.0 0.1023635495
C  C270  1  0.03180000  0.42050000  0.39630000  1.0 0.1023635495
C  C271  1  0.97580000  0.39630000  0.86450000  1.0 0.1023635495
C  C272  1  0.10370000  0.07950000  0.46820000  1.0 0.1023635495
C  C273  1  0.52420000  0.63550000  0.10370000  1.0 0.1023635495
C  C274  1  0.38870000  0.42050000  0.52420000  1.0 0.1023635495
C  C275  1  0.38870000  0.46820000  0.86450000  1.0 0.1023635495
C  C276  1  0.86450000  0.38870000  0.46820000  1.0 0.1023635495
C  C277  1  0.42050000  0.39630000  0.03180000  1.0 0.1023635495
C  C278  1  0.11130000  0.97580000  0.07950000  1.0 0.1023635495
C  C279  1  0.07950000  0.11130000  0.97580000  1.0 0.1023635495
C  C280  1  0.10370000  0.52420000  0.63550000  1.0 0.1023635495
C  C281  1  0.39630000  0.03180000  0.42050000  1.0 0.1023635495
C  C282  1  0.63550000  0.10370000  0.52420000  1.0 0.1023635495
C  C283  1  0.42050000  0.52420000  0.38870000  1.0 0.1023635495
C  C284  1  0.63550000  0.03180000  0.11130000  1.0 0.1023635495
C  C285  1  0.46820000  0.10370000  0.07950000  1.0 0.1023635495
C  C286  1  0.03180000  0.11130000  0.63550000  1.0 0.1023635495
C  C287  1  0.39630000  0.86450000  0.97580000  1.0 0.1023635495
C  C288  1  0.11130000  0.63550000  0.03180000  1.0 0.1023635495
C  C289  1  0.50800000  0.09610000  0.62530000  1.0 -0.0520249552
C  C290  1  0.09610000  0.97080000  0.58810000  1.0 -0.0520249552
C  C291  1  0.97080000  0.88270000  0.87470000  1.0 -0.0520249552
C  C292  1  0.88270000  0.50800000  0.91190000  1.0 -0.0520249552
C  C293  1  0.52920000  0.62530000  0.61730000  1.0 -0.0520249552
C  C294  1  0.99200000  0.61730000  0.58810000  1.0 -0.0520249552
C  C295  1  0.97080000  0.58810000  0.09610000  1.0 -0.0520249552
C  C296  1  0.91190000  0.88270000  0.50800000  1.0 -0.0520249552
C  C297  1  0.52920000  0.40390000  0.91190000  1.0 -0.0520249552
C  C298  1  0.62530000  0.61730000  0.52920000  1.0 -0.0520249552
C  C299  1  0.62530000  0.50800000  0.09610000  1.0 -0.0520249552
C  C300  1  0.09610000  0.62530000  0.50800000  1.0 -0.0520249552
C  C301  1  0.61730000  0.58810000  0.99200000  1.0 -0.0520249552
C  C302  1  0.87470000  0.97080000  0.88270000  1.0 -0.0520249552
C  C303  1  0.88270000  0.87470000  0.97080000  1.0 -0.0520249552
C  C304  1  0.91190000  0.52920000  0.40390000  1.0 -0.0520249552
C  C305  1  0.58810000  0.99200000  0.61730000  1.0 -0.0520249552
C  C306  1  0.40390000  0.91190000  0.52920000  1.0 -0.0520249552
C  C307  1  0.61730000  0.52920000  0.62530000  1.0 -0.0520249552
C  C308  1  0.40390000  0.99200000  0.87470000  1.0 -0.0520249552
C  C309  1  0.50800000  0.91190000  0.88270000  1.0 -0.0520249552
C  C310  1  0.99200000  0.87470000  0.40390000  1.0 -0.0520249552
C  C311  1  0.58810000  0.09610000  0.97080000  1.0 -0.0520249552
C  C312  1  0.87470000  0.40390000  0.99200000  1.0 -0.0520249552
C  C313  1  0.49200000  0.90390000  0.37470000  1.0 -0.0520249552
C  C314  1  0.90390000  0.02920000  0.41190000  1.0 -0.0520249552
C  C315  1  0.02920000  0.11730000  0.12530000  1.0 -0.0520249552
C  C316  1  0.11730000  0.49200000  0.08810000  1.0 -0.0520249552
C  C317  1  0.47080000  0.37470000  0.38270000  1.0 -0.0520249552
C  C318  1  0.00800000  0.38270000  0.41190000  1.0 -0.0520249552
C  C319  1  0.02920000  0.41190000  0.90390000  1.0 -0.0520249552
C  C320  1  0.08810000  0.11730000  0.49200000  1.0 -0.0520249552
C  C321  1  0.47080000  0.59610000  0.08810000  1.0 -0.0520249552
C  C322  1  0.37470000  0.38270000  0.47080000  1.0 -0.0520249552
C  C323  1  0.37470000  0.49200000  0.90390000  1.0 -0.0520249552
C  C324  1  0.90390000  0.37470000  0.49200000  1.0 -0.0520249552
C  C325  1  0.38270000  0.41190000  0.00800000  1.0 -0.0520249552
C  C326  1  0.12530000  0.02920000  0.11730000  1.0 -0.0520249552
C  C327  1  0.11730000  0.12530000  0.02920000  1.0 -0.0520249552
C  C328  1  0.08810000  0.47080000  0.59610000  1.0 -0.0520249552
C  C329  1  0.41190000  0.00800000  0.38270000  1.0 -0.0520249552
C  C330  1  0.59610000  0.08810000  0.47080000  1.0 -0.0520249552
C  C331  1  0.38270000  0.47080000  0.37470000  1.0 -0.0520249552
C  C332  1  0.59610000  0.00800000  0.12530000  1.0 -0.0520249552
C  C333  1  0.49200000  0.08810000  0.11730000  1.0 -0.0520249552
C  C334  1  0.00800000  0.12530000  0.59610000  1.0 -0.0520249552
C  C335  1  0.41190000  0.90390000  0.02920000  1.0 -0.0520249552
C  C336  1  0.12530000  0.59610000  0.00800000  1.0 -0.0520249552
C  C337  1  0.37200000  0.06400000  0.59400000  1.0 -0.013700781
C  C338  1  0.06400000  0.97000000  0.69200000  1.0 -0.0173919386
C  C339  1  0.97000000  0.77800000  0.90600000  1.0 -0.013700781
C  C340  1  0.77800000  0.37200000  0.80800000  1.0 -0.013700781
C  C341  1  0.53000000  0.59400000  0.72200000  1.0 -0.013700781
C  C342  1  0.12800000  0.72200000  0.69200000  1.0 -0.0173919386
C  C343  1  0.97000000  0.69200000  0.06400000  1.0 -0.013700781
C  C344  1  0.80800000  0.77800000  0.37200000  1.0 -0.013700781
C  C345  1  0.53000000  0.43600000  0.80800000  1.0 -0.013700781
C  C346  1  0.59400000  0.72200000  0.53000000  1.0 -0.0173919386
C  C347  1  0.59400000  0.37200000  0.06400000  1.0 -0.013700781
C  C348  1  0.06400000  0.59400000  0.37200000  1.0 -0.0173919386
C  C349  1  0.72200000  0.69200000  0.12800000  1.0 -0.0173919386
C  C350  1  0.90600000  0.97000000  0.77800000  1.0 -0.013700781
C  C351  1  0.77800000  0.90600000  0.97000000  1.0 -0.013700781
C  C352  1  0.80800000  0.53000000  0.43600000  1.0 -0.013700781
C  C353  1  0.69200000  0.12800000  0.72200000  1.0 -0.013700781
C  C354  1  0.43600000  0.80800000  0.53000000  1.0 -0.013700781
C  C355  1  0.72200000  0.53000000  0.59400000  1.0 -0.013700781
C  C356  1  0.43600000  0.12800000  0.90600000  1.0 -0.013700781
C  C357  1  0.37200000  0.80800000  0.77800000  1.0 -0.0173919386
C  C358  1  0.12800000  0.90600000  0.43600000  1.0 -0.0173919386
C  C359  1  0.69200000  0.06400000  0.97000000  1.0 -0.0173919386
C  C360  1  0.90600000  0.43600000  0.12800000  1.0 -0.013700781
C  C361  1  0.62800000  0.93600000  0.40600000  1.0 -0.013700781
C  C362  1  0.93600000  0.03000000  0.30800000  1.0 -0.013700781
C  C363  1  0.03000000  0.22200000  0.09400000  1.0 -0.013700781
C  C364  1  0.22200000  0.62800000  0.19200000  1.0 -0.0173919386
C  C365  1  0.47000000  0.40600000  0.27800000  1.0 -0.013700781
C  C366  1  0.87200000  0.27800000  0.30800000  1.0 -0.013700781
C  C367  1  0.03000000  0.30800000  0.93600000  1.0 -0.0173919386
C  C368  1  0.19200000  0.22200000  0.62800000  1.0 -0.0173919386
C  C369  1  0.47000000  0.56400000  0.19200000  1.0 -0.013700781
C  C370  1  0.40600000  0.27800000  0.47000000  1.0 -0.013700781
C  C371  1  0.40600000  0.62800000  0.93600000  1.0 -0.013700781
C  C372  1  0.93600000  0.40600000  0.62800000  1.0 -0.013700781
C  C373  1  0.27800000  0.30800000  0.87200000  1.0 -0.0173919386
C  C374  1  0.09400000  0.03000000  0.22200000  1.0 -0.0173919386
C  C375  1  0.22200000  0.09400000  0.03000000  1.0 -0.0173919386
C  C376  1  0.19200000  0.47000000  0.56400000  1.0 -0.0173919386
C  C377  1  0.30800000  0.87200000  0.27800000  1.0 -0.013700781
C  C378  1  0.56400000  0.19200000  0.47000000  1.0 -0.0173919386
C  C379  1  0.27800000  0.47000000  0.40600000  1.0 -0.0173919386
C  C380  1  0.56400000  0.87200000  0.09400000  1.0 -0.013700781
C  C381  1  0.62800000  0.19200000  0.22200000  1.0 -0.0173919386
C  C382  1  0.87200000  0.09400000  0.56400000  1.0 -0.013700781
C  C383  1  0.30800000  0.93600000  0.03000000  1.0 -0.013700781
C  C384  1  0.09400000  0.56400000  0.87200000  1.0 -0.0173919386
C  C385  1  0.40200000  0.26280000  0.45880000  1.0 -0.0637231746
C  C386  1  0.26280000  0.30400000  0.86080000  1.0 -0.0637231746
C  C387  1  0.30400000  0.94320000  0.04120000  1.0 -0.0637231746
C  C388  1  0.94320000  0.40200000  0.63920000  1.0 -0.0637231746
C  C389  1  0.19600000  0.45880000  0.55680000  1.0 -0.0637231746
C  C390  1  0.09800000  0.55680000  0.86080000  1.0 -0.0637231746
C  C391  1  0.30400000  0.86080000  0.26280000  1.0 -0.0637231746
C  C392  1  0.63920000  0.94320000  0.40200000  1.0 -0.0657228517
C  C393  1  0.19600000  0.23720000  0.63920000  1.0 -0.0637231746
C  C394  1  0.45880000  0.55680000  0.19600000  1.0 -0.0637231746
C  C395  1  0.45880000  0.40200000  0.26280000  1.0 -0.0637231746
C  C396  1  0.26280000  0.45880000  0.40200000  1.0 -0.0637231746
C  C397  1  0.55680000  0.86080000  0.09800000  1.0 -0.0637231746
C  C398  1  0.04120000  0.30400000  0.94320000  1.0 -0.0637231746
C  C399  1  0.94320000  0.04120000  0.30400000  1.0 -0.0637231746
C  C400  1  0.63920000  0.19600000  0.23720000  1.0 -0.0637231746
C  C401  1  0.86080000  0.09800000  0.55680000  1.0 -0.0637231746
C  C402  1  0.23720000  0.63920000  0.19600000  1.0 -0.0637231746
C  C403  1  0.55680000  0.19600000  0.45880000  1.0 -0.0637231746
C  C404  1  0.23720000  0.09800000  0.04120000  1.0 -0.0637231746
C  C405  1  0.40200000  0.63920000  0.94320000  1.0 -0.0637231746
C  C406  1  0.09800000  0.04120000  0.23720000  1.0 -0.0637231746
C  C407  1  0.86080000  0.26280000  0.30400000  1.0 -0.0637231746
C  C408  1  0.04120000  0.23720000  0.09800000  1.0 -0.0637231746
C  C409  1  0.59800000  0.73720000  0.54120000  1.0 -0.0637231746
C  C410  1  0.73720000  0.69600000  0.13920000  1.0 -0.0637231746
C  C411  1  0.69600000  0.05680000  0.95880000  1.0 -0.0637231746
C  C412  1  0.05680000  0.59800000  0.36080000  1.0 -0.0657228517
C  C413  1  0.80400000  0.54120000  0.44320000  1.0 -0.0637231746
C  C414  1  0.90200000  0.44320000  0.13920000  1.0 -0.0637231746
C  C415  1  0.69600000  0.13920000  0.73720000  1.0 -0.0637231746
C  C416  1  0.36080000  0.05680000  0.59800000  1.0 -0.0637231746
C  C417  1  0.80400000  0.76280000  0.36080000  1.0 -0.0637231746
C  C418  1  0.54120000  0.44320000  0.80400000  1.0 -0.0637231746
C  C419  1  0.54120000  0.59800000  0.73720000  1.0 -0.0637231746
C  C420  1  0.73720000  0.54120000  0.59800000  1.0 -0.0637231746
C  C421  1  0.44320000  0.13920000  0.90200000  1.0 -0.0637231746
C  C422  1  0.95880000  0.69600000  0.05680000  1.0 -0.0637231746
C  C423  1  0.05680000  0.95880000  0.69600000  1.0 -0.0637231746
C  C424  1  0.36080000  0.80400000  0.76280000  1.0 -0.0637231746
C  C425  1  0.13920000  0.90200000  0.44320000  1.0 -0.0657228517
C  C426  1  0.76280000  0.36080000  0.80400000  1.0 -0.0637231746
C  C427  1  0.44320000  0.80400000  0.54120000  1.0 -0.0637231746
C  C428  1  0.76280000  0.90200000  0.95880000  1.0 -0.0637231746
C  C429  1  0.59800000  0.36080000  0.05680000  1.0 -0.0637231746
C  C430  1  0.90200000  0.95880000  0.76280000  1.0 -0.0637231746
C  C431  1  0.13920000  0.73720000  0.69600000  1.0 -0.0637231746
C  C432  1  0.95880000  0.76280000  0.90200000  1.0 -0.0637231746
C  C433  1  0.39180000  0.37870000  0.47830000  1.0 0.0691378166
C  C434  1  0.37870000  0.40040000  0.98690000  1.0 0.0691378166
C  C435  1  0.40040000  0.91350000  0.02170000  1.0 0.0691378166
C  C436  1  0.91350000  0.39180000  0.51310000  1.0 0.0691378166
C  C437  1  0.09960000  0.47830000  0.58650000  1.0 0.0691378166
C  C438  1  0.10820000  0.58650000  0.98690000  1.0 0.0691378166
C  C439  1  0.40040000  0.98690000  0.37870000  1.0 0.0691378166
C  C440  1  0.51310000  0.91350000  0.39180000  1.0 0.0691378166
C  C441  1  0.09960000  0.12130000  0.51310000  1.0 0.0691378166
C  C442  1  0.47830000  0.58650000  0.09960000  1.0 0.0691378166
C  C443  1  0.47830000  0.39180000  0.37870000  1.0 0.0691378166
C  C444  1  0.37870000  0.47830000  0.39180000  1.0 0.0691378166
C  C445  1  0.58650000  0.98690000  0.10820000  1.0 0.0691378166
C  C446  1  0.02170000  0.40040000  0.91350000  1.0 0.0691378166
C  C447  1  0.91350000  0.02170000  0.40040000  1.0 0.0691378166
C  C448  1  0.51310000  0.09960000  0.12130000  1.0 0.0691378166
C  C449  1  0.98690000  0.10820000  0.58650000  1.0 0.0691378166
C  C450  1  0.12130000  0.51310000  0.09960000  1.0 0.0691378166
C  C451  1  0.58650000  0.09960000  0.47830000  1.0 0.0691378166
C  C452  1  0.12130000  0.10820000  0.02170000  1.0 0.0691378166
C  C453  1  0.39180000  0.51310000  0.91350000  1.0 0.0691378166
C  C454  1  0.10820000  0.02170000  0.12130000  1.0 0.0691378166
C  C455  1  0.98690000  0.37870000  0.40040000  1.0 0.0691378166
C  C456  1  0.02170000  0.12130000  0.10820000  1.0 0.0691378166
C  C457  1  0.60820000  0.62130000  0.52170000  1.0 0.0691378166
C  C458  1  0.62130000  0.59960000  0.01310000  1.0 0.0691378166
C  C459  1  0.59960000  0.08650000  0.97830000  1.0 0.0691378166
C  C460  1  0.08650000  0.60820000  0.48690000  1.0 0.0691378166
C  C461  1  0.90040000  0.52170000  0.41350000  1.0 0.0691378166
C  C462  1  0.89180000  0.41350000  0.01310000  1.0 0.0691378166
C  C463  1  0.59960000  0.01310000  0.62130000  1.0 0.0691378166
C  C464  1  0.48690000  0.08650000  0.60820000  1.0 0.0691378166
C  C465  1  0.90040000  0.87870000  0.48690000  1.0 0.0691378166
C  C466  1  0.52170000  0.41350000  0.90040000  1.0 0.0691378166
C  C467  1  0.52170000  0.60820000  0.62130000  1.0 0.0691378166
C  C468  1  0.62130000  0.52170000  0.60820000  1.0 0.0691378166
C  C469  1  0.41350000  0.01310000  0.89180000  1.0 0.0691378166
C  C470  1  0.97830000  0.59960000  0.08650000  1.0 0.0691378166
C  C471  1  0.08650000  0.97830000  0.59960000  1.0 0.0691378166
C  C472  1  0.48690000  0.90040000  0.87870000  1.0 0.0691378166
C  C473  1  0.01310000  0.89180000  0.41350000  1.0 0.0691378166
C  C474  1  0.87870000  0.48690000  0.90040000  1.0 0.0691378166
C  C475  1  0.41350000  0.90040000  0.52170000  1.0 0.0691378166
C  C476  1  0.87870000  0.89180000  0.97830000  1.0 0.0691378166
C  C477  1  0.60820000  0.48690000  0.08650000  1.0 0.0691378166
C  C478  1  0.89180000  0.97830000  0.87870000  1.0 0.0691378166
C  C479  1  0.01310000  0.62130000  0.59960000  1.0 0.0691378166
C  C480  1  0.97830000  0.87870000  0.89180000  1.0 0.0691378166
N  N1  1  0.36390000  0.13500000  0.57470000  1.0 -0.3667162612
N  N2  1  0.13500000  0.06030000  0.77110000  1.0 -0.3667162612
N  N3  1  0.06030000  0.78920000  0.92530000  1.0 -0.3667162612
N  N4  1  0.78920000  0.36390000  0.72890000  1.0 -0.3667162612
N  N5  1  0.43970000  0.57470000  0.71080000  1.0 -0.3667162612
N  N6  1  0.13610000  0.71080000  0.77110000  1.0 -0.3667162612
N  N7  1  0.06030000  0.77110000  0.13500000  1.0 -0.3667162612
N  N8  1  0.72890000  0.78920000  0.36390000  1.0 -0.3667162612
N  N9  1  0.43970000  0.36500000  0.72890000  1.0 -0.3667162612
N  N10  1  0.57470000  0.71080000  0.43970000  1.0 -0.3645602635
N  N11  1  0.57470000  0.36390000  0.13500000  1.0 -0.3667162612
N  N12  1  0.13500000  0.57470000  0.36390000  1.0 -0.3667162612
N  N13  1  0.71080000  0.77110000  0.13610000  1.0 -0.3645602635
N  N14  1  0.92530000  0.06030000  0.78920000  1.0 -0.3667162612
N  N15  1  0.78920000  0.92530000  0.06030000  1.0 -0.3667162612
N  N16  1  0.72890000  0.43970000  0.36500000  1.0 -0.3667162612
N  N17  1  0.77110000  0.13610000  0.71080000  1.0 -0.3667162612
N  N18  1  0.36500000  0.72890000  0.43970000  1.0 -0.3667162612
N  N19  1  0.71080000  0.43970000  0.57470000  1.0 -0.3645602635
N  N20  1  0.36500000  0.13610000  0.92530000  1.0 -0.3667162612
N  N21  1  0.36390000  0.72890000  0.78920000  1.0 -0.3667162612
N  N22  1  0.13610000  0.92530000  0.36500000  1.0 -0.3667162612
N  N23  1  0.77110000  0.13500000  0.06030000  1.0 -0.3667162612
N  N24  1  0.92530000  0.36500000  0.13610000  1.0 -0.3667162612
N  N25  1  0.63610000  0.86500000  0.42530000  1.0 -0.3667162612
N  N26  1  0.86500000  0.93970000  0.22890000  1.0 -0.3667162612
N  N27  1  0.93970000  0.21080000  0.07470000  1.0 -0.3667162612
N  N28  1  0.21080000  0.63610000  0.27110000  1.0 -0.3667162612
N  N29  1  0.56030000  0.42530000  0.28920000  1.0 -0.3667162612
N  N30  1  0.86390000  0.28920000  0.22890000  1.0 -0.3667162612
N  N31  1  0.93970000  0.22890000  0.86500000  1.0 -0.3667162612
N  N32  1  0.27110000  0.21080000  0.63610000  1.0 -0.3667162612
N  N33  1  0.56030000  0.63500000  0.27110000  1.0 -0.3645602635
N  N34  1  0.42530000  0.28920000  0.56030000  1.0 -0.3667162612
N  N35  1  0.42530000  0.63610000  0.86500000  1.0 -0.3667162612
N  N36  1  0.86500000  0.42530000  0.63610000  1.0 -0.3667162612
N  N37  1  0.28920000  0.22890000  0.86390000  1.0 -0.3667162612
N  N38  1  0.07470000  0.93970000  0.21080000  1.0 -0.3667162612
N  N39  1  0.21080000  0.07470000  0.93970000  1.0 -0.3667162612
N  N40  1  0.27110000  0.56030000  0.63500000  1.0 -0.3667162612
N  N41  1  0.22890000  0.86390000  0.28920000  1.0 -0.3667162612
N  N42  1  0.63500000  0.27110000  0.56030000  1.0 -0.3667162612
N  N43  1  0.28920000  0.56030000  0.42530000  1.0 -0.3667162612
N  N44  1  0.63500000  0.86390000  0.07470000  1.0 -0.3645602635
N  N45  1  0.63610000  0.27110000  0.21080000  1.0 -0.3667162612
N  N46  1  0.86390000  0.07470000  0.63500000  1.0 -0.3667162612
N  N47  1  0.22890000  0.86500000  0.93970000  1.0 -0.3667162612
N  N48  1  0.07470000  0.63500000  0.86390000  1.0 -0.3667162612
N  N49  1  0.27660000  0.11970000  0.55990000  1.0 -0.2770962481
N  N50  1  0.11970000  0.05980000  0.84310000  1.0 -0.2770962481
N  N51  1  0.05980000  0.71670000  0.94010000  1.0 -0.2770962481
N  N52  1  0.71670000  0.27660000  0.65690000  1.0 -0.2770962481
N  N53  1  0.44020000  0.55990000  0.78330000  1.0 -0.2770962481
N  N54  1  0.22340000  0.78330000  0.84310000  1.0 -0.2770962481
N  N55  1  0.05980000  0.84310000  0.11970000  1.0 -0.2770962481
N  N56  1  0.65690000  0.71670000  0.27660000  1.0 -0.2770962481
N  N57  1  0.44020000  0.38030000  0.65690000  1.0 -0.2770962481
N  N58  1  0.55990000  0.78330000  0.44020000  1.0 -0.2770962481
N  N59  1  0.55990000  0.27660000  0.11970000  1.0 -0.2770962481
N  N60  1  0.11970000  0.55990000  0.27660000  1.0 -0.2770962481
N  N61  1  0.78330000  0.84310000  0.22340000  1.0 -0.2770962481
N  N62  1  0.94010000  0.05980000  0.71670000  1.0 -0.2770962481
N  N63  1  0.71670000  0.94010000  0.05980000  1.0 -0.2770962481
N  N64  1  0.65690000  0.44020000  0.38030000  1.0 -0.2770962481
N  N65  1  0.84310000  0.22340000  0.78330000  1.0 -0.2770962481
N  N66  1  0.38030000  0.65690000  0.44020000  1.0 -0.2770962481
N  N67  1  0.78330000  0.44020000  0.55990000  1.0 -0.2770962481
N  N68  1  0.38030000  0.22340000  0.94010000  1.0 -0.2770962481
N  N69  1  0.27660000  0.65690000  0.71670000  1.0 -0.2770962481
N  N70  1  0.22340000  0.94010000  0.38030000  1.0 -0.2770962481
N  N71  1  0.84310000  0.11970000  0.05980000  1.0 -0.2770962481
N  N72  1  0.94010000  0.38030000  0.22340000  1.0 -0.2770962481
N  N73  1  0.72340000  0.88030000  0.44010000  1.0 -0.2770962481
N  N74  1  0.88030000  0.94020000  0.15690000  1.0 -0.2770962481
N  N75  1  0.94020000  0.28330000  0.05990000  1.0 -0.2770962481
N  N76  1  0.28330000  0.72340000  0.34310000  1.0 -0.2770962481
N  N77  1  0.55980000  0.44010000  0.21670000  1.0 -0.2770962481
N  N78  1  0.77660000  0.21670000  0.15690000  1.0 -0.2770962481
N  N79  1  0.94020000  0.15690000  0.88030000  1.0 -0.2770962481
N  N80  1  0.34310000  0.28330000  0.72340000  1.0 -0.2770962481
N  N81  1  0.55980000  0.61970000  0.34310000  1.0 -0.2770962481
N  N82  1  0.44010000  0.21670000  0.55980000  1.0 -0.2770962481
N  N83  1  0.44010000  0.72340000  0.88030000  1.0 -0.2770962481
N  N84  1  0.88030000  0.44010000  0.72340000  1.0 -0.2770962481
N  N85  1  0.21670000  0.15690000  0.77660000  1.0 -0.2770962481
N  N86  1  0.05990000  0.94020000  0.28330000  1.0 -0.2770962481
N  N87  1  0.28330000  0.05990000  0.94020000  1.0 -0.2770962481
N  N88  1  0.34310000  0.55980000  0.61970000  1.0 -0.2770962481
N  N89  1  0.15690000  0.77660000  0.21670000  1.0 -0.2770962481
N  N90  1  0.61970000  0.34310000  0.55980000  1.0 -0.2770962481
N  N91  1  0.21670000  0.55980000  0.44010000  1.0 -0.2770962481
N  N92  1  0.61970000  0.77660000  0.05990000  1.0 -0.2770962481
N  N93  1  0.72340000  0.34310000  0.28330000  1.0 -0.2770962481
N  N94  1  0.77660000  0.05990000  0.61970000  1.0 -0.2770962481
N  N95  1  0.15690000  0.88030000  0.94020000  1.0 -0.2770962481
N  N96  1  0.05990000  0.61970000  0.77660000  1.0 -0.2770962481
N  N97  1  0.59812000  0.18990000  0.59842000  1.0 -0.2985457749
N  N98  1  0.18990000  0.09148000  0.59178000  1.0 -0.2985457749
N  N99  1  0.09148000  0.99970000  0.90158000  1.0 -0.2985457749
N  N100  1  0.99970000  0.59812000  0.90822000  1.0 -0.2985457749
N  N101  1  0.40852000  0.59842000  0.50030000  1.0 -0.2985457749
N  N102  1  0.90188000  0.50030000  0.59178000  1.0 -0.2985457749
N  N103  1  0.09148000  0.59178000  0.18990000  1.0 -0.2985457749
N  N104  1  0.90822000  0.99970000  0.59812000  1.0 -0.2985457749
N  N105  1  0.40852000  0.31010000  0.90822000  1.0 -0.2985457749
N  N106  1  0.59842000  0.50030000  0.40852000  1.0 -0.2985457749
N  N107  1  0.59842000  0.59812000  0.18990000  1.0 -0.2985457749
N  N108  1  0.18990000  0.59842000  0.59812000  1.0 -0.2985457749
N  N109  1  0.50030000  0.59178000  0.90188000  1.0 -0.2985457749
N  N110  1  0.90158000  0.09148000  0.99970000  1.0 -0.2985457749
N  N111  1  0.99970000  0.90158000  0.09148000  1.0 -0.2985457749
N  N112  1  0.90822000  0.40852000  0.31010000  1.0 -0.2985457749
N  N113  1  0.59178000  0.90188000  0.50030000  1.0 -0.2985457749
N  N114  1  0.31010000  0.90822000  0.40852000  1.0 -0.2985457749
N  N115  1  0.50030000  0.40852000  0.59842000  1.0 -0.2985457749
N  N116  1  0.31010000  0.90188000  0.90158000  1.0 -0.2985457749
N  N117  1  0.59812000  0.90822000  0.99970000  1.0 -0.2985457749
N  N118  1  0.90188000  0.90158000  0.31010000  1.0 -0.2985457749
N  N119  1  0.59178000  0.18990000  0.09148000  1.0 -0.2985457749
N  N120  1  0.90158000  0.31010000  0.90188000  1.0 -0.2985457749
N  N121  1  0.40188000  0.81010000  0.40158000  1.0 -0.2985457749
N  N122  1  0.81010000  0.90852000  0.40822000  1.0 -0.2985457749
N  N123  1  0.90852000  0.00030000  0.09842000  1.0 -0.2985457749
N  N124  1  0.00030000  0.40188000  0.09178000  1.0 -0.2985457749
N  N125  1  0.59148000  0.40158000  0.49970000  1.0 -0.2985457749
N  N126  1  0.09812000  0.49970000  0.40822000  1.0 -0.2985457749
N  N127  1  0.90852000  0.40822000  0.81010000  1.0 -0.2985457749
N  N128  1  0.09178000  0.00030000  0.40188000  1.0 -0.2985457749
N  N129  1  0.59148000  0.68990000  0.09178000  1.0 -0.2985457749
N  N130  1  0.40158000  0.49970000  0.59148000  1.0 -0.2985457749
N  N131  1  0.40158000  0.40188000  0.81010000  1.0 -0.2985457749
N  N132  1  0.81010000  0.40158000  0.40188000  1.0 -0.2985457749
N  N133  1  0.49970000  0.40822000  0.09812000  1.0 -0.2985457749
N  N134  1  0.09842000  0.90852000  0.00030000  1.0 -0.2985457749
N  N135  1  0.00030000  0.09842000  0.90852000  1.0 -0.2985457749
N  N136  1  0.09178000  0.59148000  0.68990000  1.0 -0.2985457749
N  N137  1  0.40822000  0.09812000  0.49970000  1.0 -0.2985457749
N  N138  1  0.68990000  0.09178000  0.59148000  1.0 -0.2985457749
N  N139  1  0.49970000  0.59148000  0.40158000  1.0 -0.2985457749
N  N140  1  0.68990000  0.09812000  0.09842000  1.0 -0.2985457749
N  N141  1  0.40188000  0.09178000  0.00030000  1.0 -0.2985457749
N  N142  1  0.09812000  0.09842000  0.68990000  1.0 -0.2985457749
N  N143  1  0.40822000  0.81010000  0.90852000  1.0 -0.2985457749
N  N144  1  0.09842000  0.68990000  0.09812000  1.0 -0.2985457749
N  N145  1  0.51630000  0.17250000  0.59920000  1.0 -0.2985457749
N  N146  1  0.17250000  0.07330000  0.65620000  1.0 -0.2985457749
N  N147  1  0.07330000  0.91710000  0.90080000  1.0 -0.2985457749
N  N148  1  0.91710000  0.51630000  0.84380000  1.0 -0.2985457749
N  N149  1  0.42670000  0.59920000  0.58290000  1.0 -0.2985457749
N  N150  1  0.98370000  0.58290000  0.65620000  1.0 -0.2985457749
N  N151  1  0.07330000  0.65620000  0.17250000  1.0 -0.2985457749
N  N152  1  0.84380000  0.91710000  0.51630000  1.0 -0.2985457749
N  N153  1  0.42670000  0.32750000  0.84380000  1.0 -0.2985457749
N  N154  1  0.59920000  0.58290000  0.42670000  1.0 -0.2985457749
N  N155  1  0.59920000  0.51630000  0.17250000  1.0 -0.2985457749
N  N156  1  0.17250000  0.59920000  0.51630000  1.0 -0.2985457749
N  N157  1  0.58290000  0.65620000  0.98370000  1.0 -0.2985457749
N  N158  1  0.90080000  0.07330000  0.91710000  1.0 -0.2985457749
N  N159  1  0.91710000  0.90080000  0.07330000  1.0 -0.2985457749
N  N160  1  0.84380000  0.42670000  0.32750000  1.0 -0.2985457749
N  N161  1  0.65620000  0.98370000  0.58290000  1.0 -0.2985457749
N  N162  1  0.32750000  0.84380000  0.42670000  1.0 -0.2985457749
N  N163  1  0.58290000  0.42670000  0.59920000  1.0 -0.2985457749
N  N164  1  0.32750000  0.98370000  0.90080000  1.0 -0.2985457749
N  N165  1  0.51630000  0.84380000  0.91710000  1.0 -0.2985457749
N  N166  1  0.98370000  0.90080000  0.32750000  1.0 -0.2985457749
N  N167  1  0.65620000  0.17250000  0.07330000  1.0 -0.2985457749
N  N168  1  0.90080000  0.32750000  0.98370000  1.0 -0.2985457749
N  N169  1  0.48370000  0.82750000  0.40080000  1.0 -0.2985457749
N  N170  1  0.82750000  0.92670000  0.34380000  1.0 -0.2985457749
N  N171  1  0.92670000  0.08290000  0.09920000  1.0 -0.2985457749
N  N172  1  0.08290000  0.48370000  0.15620000  1.0 -0.2985457749
N  N173  1  0.57330000  0.40080000  0.41710000  1.0 -0.2985457749
N  N174  1  0.01630000  0.41710000  0.34380000  1.0 -0.2985457749
N  N175  1  0.92670000  0.34380000  0.82750000  1.0 -0.2985457749
N  N176  1  0.15620000  0.08290000  0.48370000  1.0 -0.2985457749
N  N177  1  0.57330000  0.67250000  0.15620000  1.0 -0.2985457749
N  N178  1  0.40080000  0.41710000  0.57330000  1.0 -0.2985457749
N  N179  1  0.40080000  0.48370000  0.82750000  1.0 -0.2985457749
N  N180  1  0.82750000  0.40080000  0.48370000  1.0 -0.2985457749
N  N181  1  0.41710000  0.34380000  0.01630000  1.0 -0.2985457749
N  N182  1  0.09920000  0.92670000  0.08290000  1.0 -0.2985457749
N  N183  1  0.08290000  0.09920000  0.92670000  1.0 -0.2985457749
N  N184  1  0.15620000  0.57330000  0.67250000  1.0 -0.2985457749
N  N185  1  0.34380000  0.01630000  0.41710000  1.0 -0.2985457749
N  N186  1  0.67250000  0.15620000  0.57330000  1.0 -0.2985457749
N  N187  1  0.41710000  0.57330000  0.40080000  1.0 -0.2985457749
N  N188  1  0.67250000  0.01630000  0.09920000  1.0 -0.2985457749
N  N189  1  0.48370000  0.15620000  0.08290000  1.0 -0.2985457749
N  N190  1  0.01630000  0.09920000  0.67250000  1.0 -0.2985457749
N  N191  1  0.34380000  0.82750000  0.92670000  1.0 -0.2985457749
N  N192  1  0.09920000  0.67250000  0.01630000  1.0 -0.2985457749
N  N193  1  0.42500000  0.09850000  0.60570000  1.0 -0.0173919386
N  N194  1  0.09850000  0.99280000  0.67350000  1.0 -0.0173919386
N  N195  1  0.99280000  0.81930000  0.89430000  1.0 -0.0173919386
N  N196  1  0.81930000  0.42500000  0.82650000  1.0 -0.0173919386
N  N197  1  0.50720000  0.60570000  0.68070000  1.0 -0.0173919386
N  N198  1  0.07500000  0.68070000  0.67350000  1.0 -0.0173919386
N  N199  1  0.99280000  0.67350000  0.09850000  1.0 -0.0173919386
N  N200  1  0.82650000  0.81930000  0.42500000  1.0 -0.0173919386
N  N201  1  0.50720000  0.40150000  0.82650000  1.0 -0.0173919386
N  N202  1  0.60570000  0.68070000  0.50720000  1.0 -0.0173919386
N  N203  1  0.60570000  0.42500000  0.09850000  1.0 -0.0173919386
N  N204  1  0.09850000  0.60570000  0.42500000  1.0 -0.0173919386
N  N205  1  0.68070000  0.67350000  0.07500000  1.0 -0.0173919386
N  N206  1  0.89430000  0.99280000  0.81930000  1.0 -0.0173919386
N  N207  1  0.81930000  0.89430000  0.99280000  1.0 -0.0173919386
N  N208  1  0.82650000  0.50720000  0.40150000  1.0 -0.0173919386
N  N209  1  0.67350000  0.07500000  0.68070000  1.0 -0.0173919386
N  N210  1  0.40150000  0.82650000  0.50720000  1.0 -0.0173919386
N  N211  1  0.68070000  0.50720000  0.60570000  1.0 -0.0173919386
N  N212  1  0.40150000  0.07500000  0.89430000  1.0 -0.0173919386
N  N213  1  0.42500000  0.82650000  0.81930000  1.0 -0.0173919386
N  N214  1  0.07500000  0.89430000  0.40150000  1.0 -0.0173919386
N  N215  1  0.67350000  0.09850000  0.99280000  1.0 -0.0173919386
N  N216  1  0.89430000  0.40150000  0.07500000  1.0 -0.0173919386
N  N217  1  0.57500000  0.90150000  0.39430000  1.0 -0.0173919386
N  N218  1  0.90150000  0.00720000  0.32650000  1.0 -0.0173919386
N  N219  1  0.00720000  0.18070000  0.10570000  1.0 -0.0173919386
N  N220  1  0.18070000  0.57500000  0.17350000  1.0 -0.0173919386
N  N221  1  0.49280000  0.39430000  0.31930000  1.0 -0.0173919386
N  N222  1  0.92500000  0.31930000  0.32650000  1.0 -0.0173919386
N  N223  1  0.00720000  0.32650000  0.90150000  1.0 -0.0173919386
N  N224  1  0.17350000  0.18070000  0.57500000  1.0 -0.0173919386
N  N225  1  0.49280000  0.59850000  0.17350000  1.0 -0.0173919386
N  N226  1  0.39430000  0.31930000  0.49280000  1.0 -0.0173919386
N  N227  1  0.39430000  0.57500000  0.90150000  1.0 -0.0173919386
N  N228  1  0.90150000  0.39430000  0.57500000  1.0 -0.0173919386
N  N229  1  0.31930000  0.32650000  0.92500000  1.0 -0.0173919386
N  N230  1  0.10570000  0.00720000  0.18070000  1.0 -0.0173919386
N  N231  1  0.18070000  0.10570000  0.00720000  1.0 -0.0173919386
N  N232  1  0.17350000  0.49280000  0.59850000  1.0 -0.0173919386
N  N233  1  0.32650000  0.92500000  0.31930000  1.0 -0.0173919386
N  N234  1  0.59850000  0.17350000  0.49280000  1.0 -0.0173919386
N  N235  1  0.31930000  0.49280000  0.39430000  1.0 -0.0173919386
N  N236  1  0.59850000  0.92500000  0.10570000  1.0 -0.0173919386
N  N237  1  0.57500000  0.17350000  0.18070000  1.0 -0.0173919386
N  N238  1  0.92500000  0.10570000  0.59850000  1.0 -0.0173919386
N  N239  1  0.32650000  0.90150000  0.00720000  1.0 -0.0173919386
N  N240  1  0.10570000  0.59850000  0.92500000  1.0 -0.0173919386
N  N241  1  0.45490000  0.07040000  0.61650000  1.0 -0.0657228517
N  N242  1  0.07040000  0.95390000  0.61550000  1.0 -0.0657228517
N  N243  1  0.95390000  0.83840000  0.88350000  1.0 -0.0637231746
N  N244  1  0.83840000  0.45490000  0.88450000  1.0 -0.0637231746
N  N245  1  0.54610000  0.61650000  0.66160000  1.0 -0.0637231746
N  N246  1  0.04510000  0.66160000  0.61550000  1.0 -0.0637231746
N  N247  1  0.95390000  0.61550000  0.07040000  1.0 -0.0657228517
N  N248  1  0.88450000  0.83840000  0.45490000  1.0 -0.0657228517
N  N249  1  0.54610000  0.42960000  0.88450000  1.0 -0.0637231746
N  N250  1  0.61650000  0.66160000  0.54610000  1.0 -0.0637231746
N  N251  1  0.61650000  0.45490000  0.07040000  1.0 -0.0657228517
N  N252  1  0.07040000  0.61650000  0.45490000  1.0 -0.0657228517
N  N253  1  0.66160000  0.61550000  0.04510000  1.0 -0.0657228517
N  N254  1  0.88350000  0.95390000  0.83840000  1.0 -0.0637231746
N  N255  1  0.83840000  0.88350000  0.95390000  1.0 -0.0637231746
N  N256  1  0.88450000  0.54610000  0.42960000  1.0 -0.0637231746
N  N257  1  0.61550000  0.04510000  0.66160000  1.0 -0.0637231746
N  N258  1  0.42960000  0.88450000  0.54610000  1.0 -0.0637231746
N  N259  1  0.66160000  0.54610000  0.61650000  1.0 -0.0637231746
N  N260  1  0.42960000  0.04510000  0.88350000  1.0 -0.0657228517
N  N261  1  0.45490000  0.88450000  0.83840000  1.0 -0.0637231746
N  N262  1  0.04510000  0.88350000  0.42960000  1.0 -0.0657228517
N  N263  1  0.61550000  0.07040000  0.95390000  1.0 -0.0637231746
N  N264  1  0.88350000  0.42960000  0.04510000  1.0 -0.0657228517
N  N265  1  0.54510000  0.92960000  0.38350000  1.0 -0.0637231746
N  N266  1  0.92960000  0.04610000  0.38450000  1.0 -0.0657228517
N  N267  1  0.04610000  0.16160000  0.11650000  1.0 -0.0637231746
N  N268  1  0.16160000  0.54510000  0.11550000  1.0 -0.0657228517
N  N269  1  0.45390000  0.38350000  0.33840000  1.0 -0.0637231746
N  N270  1  0.95490000  0.33840000  0.38450000  1.0 -0.0637231746
N  N271  1  0.04610000  0.38450000  0.92960000  1.0 -0.0657228517
N  N272  1  0.11550000  0.16160000  0.54510000  1.0 -0.0657228517
N  N273  1  0.45390000  0.57040000  0.11550000  1.0 -0.0657228517
N  N274  1  0.38350000  0.33840000  0.45390000  1.0 -0.0657228517
N  N275  1  0.38350000  0.54510000  0.92960000  1.0 -0.0657228517
N  N276  1  0.92960000  0.38350000  0.54510000  1.0 -0.0637231746
N  N277  1  0.33840000  0.38450000  0.95490000  1.0 -0.0657228517
N  N278  1  0.11650000  0.04610000  0.16160000  1.0 -0.0657228517
N  N279  1  0.16160000  0.11650000  0.04610000  1.0 -0.0637231746
N  N280  1  0.11550000  0.45390000  0.57040000  1.0 -0.0657228517
N  N281  1  0.38450000  0.95490000  0.33840000  1.0 -0.0637231746
N  N282  1  0.57040000  0.11550000  0.45390000  1.0 -0.0657228517
N  N283  1  0.33840000  0.45390000  0.38350000  1.0 -0.0637231746
N  N284  1  0.57040000  0.95490000  0.11650000  1.0 -0.0637231746
N  N285  1  0.54510000  0.11550000  0.16160000  1.0 -0.0657228517
N  N286  1  0.95490000  0.11650000  0.57040000  1.0 -0.0637231746
N  N287  1  0.38450000  0.92960000  0.04610000  1.0 -0.0637231746
N  N288  1  0.11650000  0.57040000  0.95490000  1.0 -0.0657228517
N  N289  1  0.39180000  0.30060000  0.44560000  1.0 -0.1156598947
N  N290  1  0.30060000  0.35500000  0.90880000  1.0 -0.1156598947
N  N291  1  0.35500000  0.94620000  0.05440000  1.0 -0.1130601481
N  N292  1  0.94620000  0.39180000  0.59120000  1.0 -0.1156598947
N  N293  1  0.14500000  0.44560000  0.55380000  1.0 -0.1156598947
N  N294  1  0.10820000  0.55380000  0.90880000  1.0 -0.1156598947
N  N295  1  0.35500000  0.90880000  0.30060000  1.0 -0.1130601481
N  N296  1  0.59120000  0.94620000  0.39180000  1.0 -0.1156598947
N  N297  1  0.14500000  0.19940000  0.59120000  1.0 -0.1156598947
N  N298  1  0.44560000  0.55380000  0.14500000  1.0 -0.1156598947
N  N299  1  0.44560000  0.39180000  0.30060000  1.0 -0.1156598947
N  N300  1  0.30060000  0.44560000  0.39180000  1.0 -0.1156598947
N  N301  1  0.55380000  0.90880000  0.10820000  1.0 -0.1156598947
N  N302  1  0.05440000  0.35500000  0.94620000  1.0 -0.1156598947
N  N303  1  0.94620000  0.05440000  0.35500000  1.0 -0.1156598947
N  N304  1  0.59120000  0.14500000  0.19940000  1.0 -0.1130601481
N  N305  1  0.90880000  0.10820000  0.55380000  1.0 -0.1156598947
N  N306  1  0.19940000  0.59120000  0.14500000  1.0 -0.1156598947
N  N307  1  0.55380000  0.14500000  0.44560000  1.0 -0.1130601481
N  N308  1  0.19940000  0.10820000  0.05440000  1.0 -0.1130601481
N  N309  1  0.39180000  0.59120000  0.94620000  1.0 -0.1130601481
N  N310  1  0.10820000  0.05440000  0.19940000  1.0 -0.1156598947
N  N311  1  0.90880000  0.30060000  0.35500000  1.0 -0.1156598947
N  N312  1  0.05440000  0.19940000  0.10820000  1.0 -0.1156598947
N  N313  1  0.60820000  0.69940000  0.55440000  1.0 -0.1156598947
N  N314  1  0.69940000  0.64500000  0.09120000  1.0 -0.1130601481
N  N315  1  0.64500000  0.05380000  0.94560000  1.0 -0.1156598947
N  N316  1  0.05380000  0.60820000  0.40880000  1.0 -0.1130601481
N  N317  1  0.85500000  0.55440000  0.44620000  1.0 -0.1156598947
N  N318  1  0.89180000  0.44620000  0.09120000  1.0 -0.1130601481
N  N319  1  0.64500000  0.09120000  0.69940000  1.0 -0.1156598947
N  N320  1  0.40880000  0.05380000  0.60820000  1.0 -0.1156598947
N  N321  1  0.85500000  0.80060000  0.40880000  1.0 -0.1156598947
N  N322  1  0.55440000  0.44620000  0.85500000  1.0 -0.1156598947
N  N323  1  0.55440000  0.60820000  0.69940000  1.0 -0.1156598947
N  N324  1  0.69940000  0.55440000  0.60820000  1.0 -0.1156598947
N  N325  1  0.44620000  0.09120000  0.89180000  1.0 -0.1156598947
N  N326  1  0.94560000  0.64500000  0.05380000  1.0 -0.1156598947
N  N327  1  0.05380000  0.94560000  0.64500000  1.0 -0.1130601481
N  N328  1  0.40880000  0.85500000  0.80060000  1.0 -0.1156598947
N  N329  1  0.09120000  0.89180000  0.44620000  1.0 -0.1130601481
N  N330  1  0.80060000  0.40880000  0.85500000  1.0 -0.1156598947
N  N331  1  0.44620000  0.85500000  0.55440000  1.0 -0.1130601481
N  N332  1  0.80060000  0.89180000  0.94560000  1.0 -0.1156598947
N  N333  1  0.60820000  0.40880000  0.05380000  1.0 -0.1156598947
N  N334  1  0.89180000  0.94560000  0.80060000  1.0 -0.1156598947
N  N335  1  0.09120000  0.69940000  0.64500000  1.0 -0.1156598947
N  N336  1  0.94560000  0.80060000  0.89180000  1.0 -0.1156598947
N  N337  1  0.39900000  0.34150000  0.49530000  1.0 0.0139501762
N  N338  1  0.34150000  0.34620000  0.94250000  1.0 0.0139501762
N  N339  1  0.34620000  0.90370000  0.00470000  1.0 0.0139501762
N  N340  1  0.90370000  0.39900000  0.55750000  1.0 0.0139501762
N  N341  1  0.15380000  0.49530000  0.59630000  1.0 0.0139501762
N  N342  1  0.10100000  0.59630000  0.94250000  1.0 0.0139501762
N  N343  1  0.34620000  0.94250000  0.34150000  1.0 0.0139501762
N  N344  1  0.55750000  0.90370000  0.39900000  1.0 0.0164458217
N  N345  1  0.15380000  0.15850000  0.55750000  1.0 0.0139501762
N  N346  1  0.49530000  0.59630000  0.15380000  1.0 0.0139501762
N  N347  1  0.49530000  0.39900000  0.34150000  1.0 0.0139501762
N  N348  1  0.34150000  0.49530000  0.39900000  1.0 0.0139501762
N  N349  1  0.59630000  0.94250000  0.10100000  1.0 0.0139501762
N  N350  1  0.00470000  0.34620000  0.90370000  1.0 0.0139501762
N  N351  1  0.90370000  0.00470000  0.34620000  1.0 0.0139501762
N  N352  1  0.55750000  0.15380000  0.15850000  1.0 0.0164458217
N  N353  1  0.94250000  0.10100000  0.59630000  1.0 0.0139501762
N  N354  1  0.15850000  0.55750000  0.15380000  1.0 0.0164458217
N  N355  1  0.59630000  0.15380000  0.49530000  1.0 0.0139501762
N  N356  1  0.15850000  0.10100000  0.00470000  1.0 0.0139501762
N  N357  1  0.39900000  0.55750000  0.90370000  1.0 0.0139501762
N  N358  1  0.10100000  0.00470000  0.15850000  1.0 0.0164458217
N  N359  1  0.94250000  0.34150000  0.34620000  1.0 0.0164458217
N  N360  1  0.00470000  0.15850000  0.10100000  1.0 0.0139501762
N  N361  1  0.60100000  0.65850000  0.50470000  1.0 0.0164458217
N  N362  1  0.65850000  0.65380000  0.05750000  1.0 0.0139501762
N  N363  1  0.65380000  0.09630000  0.99530000  1.0 0.0139501762
N  N364  1  0.09630000  0.60100000  0.44250000  1.0 0.0164458217
N  N365  1  0.84620000  0.50470000  0.40370000  1.0 0.0139501762
N  N366  1  0.89900000  0.40370000  0.05750000  1.0 0.0139501762
N  N367  1  0.65380000  0.05750000  0.65850000  1.0 0.0139501762
N  N368  1  0.44250000  0.09630000  0.60100000  1.0 0.0164458217
N  N369  1  0.84620000  0.84150000  0.44250000  1.0 0.0139501762
N  N370  1  0.50470000  0.40370000  0.84620000  1.0 0.0139501762
N  N371  1  0.50470000  0.60100000  0.65850000  1.0 0.0139501762
N  N372  1  0.65850000  0.50470000  0.60100000  1.0 0.0139501762
N  N373  1  0.40370000  0.05750000  0.89900000  1.0 0.0139501762
N  N374  1  0.99530000  0.65380000  0.09630000  1.0 0.0164458217
N  N375  1  0.09630000  0.99530000  0.65380000  1.0 0.0164458217
N  N376  1  0.44250000  0.84620000  0.84150000  1.0 0.0139501762
N  N377  1  0.05750000  0.89900000  0.40370000  1.0 0.0164458217
N  N378  1  0.84150000  0.44250000  0.84620000  1.0 0.0139501762
N  N379  1  0.40370000  0.84620000  0.50470000  1.0 0.0139501762
N  N380  1  0.84150000  0.89900000  0.99530000  1.0 0.0139501762
N  N381  1  0.60100000  0.44250000  0.09630000  1.0 0.0164458217
N  N382  1  0.89900000  0.99530000  0.84150000  1.0 0.0139501762
N  N383  1  0.05750000  0.65850000  0.65380000  1.0 0.0164458217
N  N384  1  0.99530000  0.84150000  0.89900000  1.0 0.0139501762
