# DDEC6 charges by PACMAN v1.1 (https://github.com/mtap-research/PACMAN-charge/)
data_YAPSAL_ion_pacman
_symmetry_space_group_name_H-M   'P 1'
_cell_length_a   17.48430000
_cell_length_b   17.48430000
_cell_length_c   22.58560000
_cell_angle_alpha   90.00000000
_cell_angle_beta   90.00000000
_cell_angle_gamma   120.00000000
_symmetry_Int_Tables_number   1
_chemical_formula_structural   SrH75C48BrO43
_chemical_formula_sum   'Sr3 H225 C144 Br3 O129'
_cell_volume   5979.41591819
_cell_formula_units_Z   3
loop_
 _symmetry_equiv_pos_site_id
 _symmetry_equiv_pos_as_xyz
  1  'x, y, z'
loop_
 _atom_site_type_symbol
 _atom_site_label
 _atom_site_symmetry_multiplicity
 _atom_site_fract_x
 _atom_site_fract_y
 _atom_site_fract_z
 _atom_site_occupancy
 _atom_site_charge
Sr  Sr1  1  0.41921000  0.67413000  0.28771000  1.0 1.3283733995
Sr  Sr2  1  0.32587000  0.74508000  0.95438000  1.0 1.3283733995
Sr  Sr3  1  0.25492000  0.58079000  0.62104000  1.0 1.3283733995
H  H1  1  0.56290000  0.74560000  0.00740000  1.0 0.3398041369
H  H2  1  0.25440000  0.81730000  0.67407000  1.0 0.3398041369
H  H3  1  0.18270000  0.43710000  0.34073000  1.0 0.3398041369
H  H4  1  0.99600000  0.76390000  0.05830000  1.0 0.108293149
H  H5  1  0.23610000  0.23210000  0.72497000  1.0 0.108293149
H  H6  1  0.76790000  0.00400000  0.39163000  1.0 0.108293149
H  H7  1  0.87170000  0.04660000  0.06340000  1.0 0.0918821572
H  H8  1  0.95340000  0.82510000  0.73007000  1.0 0.0918821572
H  H9  1  0.17490000  0.12830000  0.39673000  1.0 0.0918821572
H  H10  1  0.04650000  0.24530000  0.02520000  1.0 0.3398041369
H  H11  1  0.75470000  0.80120000  0.69187000  1.0 0.3398041369
H  H12  1  0.19880000  0.95350000  0.35853000  1.0 0.3398041369
H  H13  1  0.34020000  0.92840000  0.05940000  1.0 0.108293149
H  H14  1  0.07160000  0.41180000  0.72607000  1.0 0.108293149
H  H15  1  0.58820000  0.65980000  0.39273000  1.0 0.108293149
H  H16  1  0.05390000  0.11510000  0.17480000  1.0 0.0918821572
H  H17  1  0.88490000  0.93880000  0.84147000  1.0 0.0918821572
H  H18  1  0.06120000  0.94610000  0.50813000  1.0 0.0918821572
H  H19  1  0.95080000  0.18550000  0.12490000  1.0 0.0809147582
H  H20  1  0.81450000  0.76530000  0.79157000  1.0 0.0809147582
H  H21  1  0.23470000  0.04920000  0.45823000  1.0 0.0809147582
H  H22  1  0.94450000  0.85770000  0.11470000  1.0 0.0918821572
H  H23  1  0.14230000  0.08680000  0.78137000  1.0 0.0918821572
H  H24  1  0.91320000  0.05550000  0.44803000  1.0 0.0918821572
H  H25  1  0.58800000  0.11830000  0.26550000  1.0 0.108293149
H  H26  1  0.88170000  0.46970000  0.93217000  1.0 0.108293149
H  H27  1  0.53030000  0.41200000  0.59883000  1.0 0.108293149
H  H28  1  0.49930000  0.04500000  0.23360000  1.0 0.108293149
H  H29  1  0.95500000  0.45430000  0.90027000  1.0 0.108293149
H  H30  1  0.54570000  0.50070000  0.56693000  1.0 0.108293149
H  H31  1  0.78970000  0.38740000  0.05570000  1.0 0.1018759939
H  H32  1  0.61260000  0.40230000  0.72237000  1.0 0.1018759939
H  H33  1  0.59770000  0.21030000  0.38903000  1.0 0.1018759939
H  H34  1  0.06150000  0.13260000  0.06340000  1.0 0.1018759939
H  H35  1  0.86740000  0.92890000  0.73007000  1.0 0.1018759939
H  H36  1  0.07110000  0.93850000  0.39673000  1.0 0.1018759939
H  H37  1  0.22940000  0.52540000  0.14490000  1.0 0.108293149
H  H38  1  0.47460000  0.70400000  0.81157000  1.0 0.108293149
H  H39  1  0.29600000  0.77060000  0.47823000  1.0 0.108293149
H  H40  1  0.96520000  0.48640000  0.10170000  1.0 0.108293149
H  H41  1  0.51360000  0.47880000  0.76837000  1.0 0.108293149
H  H42  1  0.52120000  0.03480000  0.43503000  1.0 0.108293149
H  H43  1  0.93020000  0.21700000  0.24380000  1.0 0.3216447306
H  H44  1  0.78300000  0.71320000  0.91047000  1.0 0.3216447306
H  H45  1  0.28680000  0.06980000  0.57713000  1.0 0.3216447306
H  H46  1  0.70430000  0.55110000  0.04580000  1.0 0.1018759939
H  H47  1  0.44890000  0.15320000  0.71247000  1.0 0.1018759939
H  H48  1  0.84680000  0.29570000  0.37913000  1.0 0.1018759939
H  H49  1  0.10250000  0.75690000  0.11660000  1.0 0.108293149
H  H50  1  0.24310000  0.34560000  0.78327000  1.0 0.108293149
H  H51  1  0.65440000  0.89750000  0.44993000  1.0 0.108293149
H  H52  1  0.70040000  0.57370000  0.16200000  1.0 0.1018759939
H  H53  1  0.42630000  0.12670000  0.82867000  1.0 0.1018759939
H  H54  1  0.87330000  0.29960000  0.49533000  1.0 0.1018759939
H  H55  1  0.34500000  0.77840000  0.10680000  1.0 0.108293149
H  H56  1  0.22160000  0.56660000  0.77347000  1.0 0.108293149
H  H57  1  0.43340000  0.65500000  0.44013000  1.0 0.108293149
H  H58  1  0.11080000  0.95020000  0.05310000  1.0 0.1018759939
H  H59  1  0.04980000  0.16060000  0.71977000  1.0 0.1018759939
H  H60  1  0.83940000  0.88920000  0.38643000  1.0 0.1018759939
H  H61  1  0.19530000  0.38210000  0.06510000  1.0 0.1018759939
H  H62  1  0.61790000  0.81320000  0.73177000  1.0 0.1018759939
H  H63  1  0.18680000  0.80470000  0.39843000  1.0 0.1018759939
H  H64  1  0.71840000  0.75900000  0.08900000  1.0 0.0918821572
H  H65  1  0.24100000  0.95940000  0.75567000  1.0 0.0918821572
H  H66  1  0.04060000  0.28160000  0.42233000  1.0 0.0918821572
H  H67  1  0.89140000  0.00290000  0.98320000  1.0 0.3453865272
H  H68  1  0.99710000  0.88850000  0.64987000  1.0 0.3453865272
H  H69  1  0.11150000  0.10860000  0.31653000  1.0 0.3453865272
H  H70  1  0.47470000  0.87510000  0.15570000  1.0 0.1018759939
H  H71  1  0.12490000  0.59960000  0.82237000  1.0 0.1018759939
H  H72  1  0.40040000  0.52530000  0.48903000  1.0 0.1018759939
H  H73  1  0.59380000  0.72530000  0.11400000  1.0 0.1018759939
H  H74  1  0.27470000  0.86850000  0.78067000  1.0 0.1018759939
H  H75  1  0.13150000  0.40620000  0.44733000  1.0 0.1018759939
H  H76  1  0.35050000  0.98480000  0.16080000  1.0 0.1018759939
H  H77  1  0.01520000  0.36570000  0.82747000  1.0 0.1018759939
H  H78  1  0.63430000  0.64950000  0.49413000  1.0 0.1018759939
H  H79  1  0.47420000  0.57760000  0.04240000  1.0 0.108293149
H  H80  1  0.42240000  0.89660000  0.70907000  1.0 0.108293149
H  H81  1  0.10340000  0.52580000  0.37573000  1.0 0.108293149
H  H82  1  0.22600000  0.79880000  0.14450000  1.0 0.1018759939
H  H83  1  0.20120000  0.42720000  0.81117000  1.0 0.1018759939
H  H84  1  0.57280000  0.77400000  0.47783000  1.0 0.1018759939
H  H85  1  0.08370000  0.44430000  0.11060000  1.0 0.1018759939
H  H86  1  0.55570000  0.63940000  0.77727000  1.0 0.1018759939
H  H87  1  0.36060000  0.91630000  0.44393000  1.0 0.1018759939
H  H88  1  0.82150000  0.73850000  0.03780000  1.0 0.0918821572
H  H89  1  0.26150000  0.08300000  0.70447000  1.0 0.0918821572
H  H90  1  0.91700000  0.17850000  0.37113000  1.0 0.0918821572
H  H91  1  0.31790000  0.96650000  0.26060000  1.0 0.1176366495
H  H92  1  0.03350000  0.35140000  0.92727000  1.0 0.1176366495
H  H93  1  0.64860000  0.68210000  0.59393000  1.0 0.1176366495
H  H94  1  0.22790000  0.93670000  0.22540000  1.0 0.1018759939
H  H95  1  0.06330000  0.29120000  0.89207000  1.0 0.1018759939
H  H96  1  0.70880000  0.77210000  0.55873000  1.0 0.1018759939
H  H97  1  0.01400000  0.31010000  0.16490000  1.0 0.0711854755
H  H98  1  0.68990000  0.70390000  0.83157000  1.0 0.0711854755
H  H99  1  0.29610000  0.98600000  0.49823000  1.0 0.0711854755
H  H100  1  0.34280000  0.63870000  0.13640000  1.0 0.108293149
H  H101  1  0.36130000  0.70410000  0.80307000  1.0 0.108293149
H  H102  1  0.29590000  0.65720000  0.46973000  1.0 0.108293149
H  H103  1  0.46370000  0.73100000  0.07670000  1.0 0.1018759939
H  H104  1  0.26900000  0.73270000  0.74337000  1.0 0.1018759939
H  H105  1  0.26730000  0.53630000  0.41003000  1.0 0.1018759939
H  H106  1  0.74030000  0.06240000  0.10470000  1.0 0.108293149
H  H107  1  0.93760000  0.67790000  0.77137000  1.0 0.108293149
H  H108  1  0.32210000  0.25970000  0.43803000  1.0 0.108293149
H  H109  1  0.59630000  0.14500000  0.16090000  1.0 0.0918821572
H  H110  1  0.85500000  0.45130000  0.82757000  1.0 0.0918821572
H  H111  1  0.54870000  0.40370000  0.49423000  1.0 0.0918821572
H  H112  1  0.92430000  0.58060000  0.14720000  1.0 0.1018759939
H  H113  1  0.41940000  0.34370000  0.81387000  1.0 0.1018759939
H  H114  1  0.65630000  0.07570000  0.48053000  1.0 0.1018759939
H  H115  1  0.87180000  0.65260000  0.10680000  1.0 0.0918821572
H  H116  1  0.34740000  0.21920000  0.77347000  1.0 0.0918821572
H  H117  1  0.78080000  0.12820000  0.44013000  1.0 0.0918821572
H  H118  1  0.59430000  0.98110000  0.14680000  1.0 0.1018759939
H  H119  1  0.01890000  0.61320000  0.81347000  1.0 0.1018759939
H  H120  1  0.38680000  0.40570000  0.48013000  1.0 0.1018759939
H  H121  1  0.97550000  0.10580000  0.26420000  1.0 0.1018759939
H  H122  1  0.89420000  0.86970000  0.93087000  1.0 0.1018759939
H  H123  1  0.13030000  0.02450000  0.59753000  1.0 0.1018759939
H  H124  1  0.04010000  0.20570000  0.24390000  1.0 0.0918821572
H  H125  1  0.79430000  0.83440000  0.91057000  1.0 0.0918821572
H  H126  1  0.16560000  0.95990000  0.57723000  1.0 0.0918821572
H  H127  1  0.88030000  0.93060000  0.11080000  1.0 0.0918821572
H  H128  1  0.06940000  0.94970000  0.77747000  1.0 0.0918821572
H  H129  1  0.05030000  0.11970000  0.44413000  1.0 0.0918821572
H  H130  1  0.02670000  0.96180000  0.23180000  1.0 0.1176366495
H  H131  1  0.03820000  0.06490000  0.89847000  1.0 0.1176366495
H  H132  1  0.93510000  0.97330000  0.56513000  1.0 0.1176366495
H  H133  1  0.95420000  0.86030000  0.22220000  1.0 0.108293149
H  H134  1  0.13970000  0.09390000  0.88887000  1.0 0.108293149
H  H135  1  0.90610000  0.04580000  0.55553000  1.0 0.108293149
H  H136  1  0.61750000  0.11040000  0.05930000  1.0 0.0918821572
H  H137  1  0.88960000  0.50710000  0.72597000  1.0 0.0918821572
H  H138  1  0.49290000  0.38250000  0.39263000  1.0 0.0918821572
H  H139  1  0.11970000  0.95440000  0.16490000  1.0 0.0918821572
H  H140  1  0.04560000  0.16530000  0.83157000  1.0 0.0918821572
H  H141  1  0.83470000  0.88030000  0.49823000  1.0 0.0918821572
H  H142  1  0.81930000  0.19980000  0.14900000  1.0 0.0809147582
H  H143  1  0.80020000  0.61950000  0.81567000  1.0 0.0809147582
H  H144  1  0.38050000  0.18070000  0.48233000  1.0 0.0809147582
H  H145  1  0.81270000  0.58560000  0.22760000  1.0 0.108293149
H  H146  1  0.41440000  0.22710000  0.89427000  1.0 0.108293149
H  H147  1  0.77290000  0.18730000  0.56093000  1.0 0.108293149
H  H148  1  0.87370000  0.68800000  0.21110000  1.0 0.108293149
H  H149  1  0.31200000  0.18570000  0.87777000  1.0 0.108293149
H  H150  1  0.81430000  0.12630000  0.54443000  1.0 0.108293149
H  H151  1  0.60800000  0.61210000  0.21170000  1.0 0.108293149
H  H152  1  0.38790000  0.99590000  0.87837000  1.0 0.108293149
H  H153  1  0.00410000  0.39200000  0.54503000  1.0 0.108293149
H  H154  1  0.59970000  0.69870000  0.21980000  1.0 0.1176366495
H  H155  1  0.30130000  0.90100000  0.88647000  1.0 0.1176366495
H  H156  1  0.09900000  0.40030000  0.55313000  1.0 0.1176366495
H  H157  1  0.73140000  0.38090000  0.16270000  1.0 0.1018759939
H  H158  1  0.61910000  0.35050000  0.82937000  1.0 0.1018759939
H  H159  1  0.64950000  0.26860000  0.49603000  1.0 0.1018759939
H  H160  1  0.26060000  0.40290000  0.26310000  1.0 0.108293149
H  H161  1  0.59710000  0.85770000  0.92977000  1.0 0.108293149
H  H162  1  0.14230000  0.73940000  0.59643000  1.0 0.108293149
H  H163  1  0.34320000  0.46390000  0.22180000  1.0 0.1176366495
H  H164  1  0.53610000  0.87930000  0.88847000  1.0 0.1176366495
H  H165  1  0.12070000  0.65680000  0.55513000  1.0 0.1176366495
H  H166  1  0.86620000  0.33140000  0.14690000  1.0 0.0809147582
H  H167  1  0.66860000  0.53480000  0.81357000  1.0 0.0809147582
H  H168  1  0.46520000  0.13380000  0.48023000  1.0 0.0809147582
H  H169  1  0.75610000  0.36930000  0.26550000  1.0 0.1176366495
H  H170  1  0.63070000  0.38680000  0.93217000  1.0 0.1176366495
H  H171  1  0.61320000  0.24390000  0.59883000  1.0 0.1176366495
H  H172  1  0.70730000  0.27650000  0.23180000  1.0 0.108293149
H  H173  1  0.72350000  0.43080000  0.89847000  1.0 0.108293149
H  H174  1  0.56920000  0.29270000  0.56513000  1.0 0.108293149
H  H175  1  0.23490000  0.36500000  0.16240000  1.0 0.0809147582
H  H176  1  0.63500000  0.86990000  0.82907000  1.0 0.0809147582
H  H177  1  0.13010000  0.76510000  0.49573000  1.0 0.0809147582
H  H178  1  0.15620000  0.84230000  0.01440000  1.0 0.3398041369
H  H179  1  0.15770000  0.31390000  0.68107000  1.0 0.3398041369
H  H180  1  0.68610000  0.84380000  0.34773000  1.0 0.3398041369
H  H181  1  0.23650000  0.80070000  0.23880000  1.0 0.3398041369
H  H182  1  0.19930000  0.43580000  0.90547000  1.0 0.3398041369
H  H183  1  0.56420000  0.76350000  0.57213000  1.0 0.3398041369
H  H184  1  0.78170000  0.55260000  0.98000000  1.0 0.3398041369
H  H185  1  0.44740000  0.22910000  0.64667000  1.0 0.3398041369
H  H186  1  0.77090000  0.21830000  0.31333000  1.0 0.3398041369
H  H187  1  0.99250000  0.29910000  0.06360000  1.0 0.3216447306
H  H188  1  0.70090000  0.69340000  0.73027000  1.0 0.3216447306
H  H189  1  0.30660000  0.00750000  0.39693000  1.0 0.3216447306
H  H190  1  0.16750000  0.50560000  0.02530000  1.0 0.3298885124
H  H191  1  0.49440000  0.66190000  0.69197000  1.0 0.3298885124
H  H192  1  0.33810000  0.83250000  0.35863000  1.0 0.3298885124
H  H193  1  0.87350000  0.33520000  0.23140000  1.0 0.3398041369
H  H194  1  0.66480000  0.53830000  0.89807000  1.0 0.3398041369
H  H195  1  0.46170000  0.12650000  0.56473000  1.0 0.3398041369
H  H196  1  0.88960000  0.54560000  0.02770000  1.0 0.3298885124
H  H197  1  0.45440000  0.34400000  0.69437000  1.0 0.3298885124
H  H198  1  0.65600000  0.11040000  0.36103000  1.0 0.3298885124
H  H199  1  0.53090000  0.95300000  0.26530000  1.0 0.3298885124
H  H200  1  0.04700000  0.57790000  0.93197000  1.0 0.3298885124
H  H201  1  0.42210000  0.46910000  0.59863000  1.0 0.3298885124
H  H202  1  0.92200000  0.35830000  0.04230000  1.0 0.3398041369
H  H203  1  0.64170000  0.56370000  0.70897000  1.0 0.3398041369
H  H204  1  0.43630000  0.07800000  0.37563000  1.0 0.3398041369
H  H205  1  0.73740000  0.73720000  0.97470000  1.0 0.3298885124
H  H206  1  0.26280000  0.00020000  0.64137000  1.0 0.3298885124
H  H207  1  0.99980000  0.26260000  0.30803000  1.0 0.3298885124
H  H208  1  0.97290000  0.92000000  0.01200000  1.0 0.3216447306
H  H209  1  0.08000000  0.05290000  0.67867000  1.0 0.3216447306
H  H210  1  0.94710000  0.02710000  0.34533000  1.0 0.3216447306
H  H211  1  0.64330000  0.01610000  0.00410000  1.0 0.3453865272
H  H212  1  0.98390000  0.62720000  0.67077000  1.0 0.3453865272
H  H213  1  0.37280000  0.35670000  0.33743000  1.0 0.3453865272
H  H214  1  0.07190000  0.84500000  0.26000000  1.0 0.3398041369
H  H215  1  0.15500000  0.22690000  0.92667000  1.0 0.3398041369
H  H216  1  0.77310000  0.92810000  0.59333000  1.0 0.3398041369
H  H217  1  0.78150000  0.19220000  0.02840000  1.0 0.3398041369
H  H218  1  0.80780000  0.58930000  0.69507000  1.0 0.3398041369
H  H219  1  0.41070000  0.21850000  0.36173000  1.0 0.3398041369
H  H220  1  0.48120000  0.54540000  0.15280000  1.0 0.1018759939
H  H221  1  0.45460000  0.93580000  0.81947000  1.0 0.1018759939
H  H222  1  0.06420000  0.51880000  0.48613000  1.0 0.1018759939
H  H223  1  0.80180000  0.67780000  0.29260000  1.0 0.3398041369
H  H224  1  0.32220000  0.12400000  0.95927000  1.0 0.3398041369
H  H225  1  0.87600000  0.19820000  0.62593000  1.0 0.3398041369
C  C1  1  0.05710000  0.81610000  0.05800000  1.0 0.0485240342
C  C2  1  0.18390000  0.24100000  0.72467000  1.0 0.0485240342
C  C3  1  0.75900000  0.94290000  0.39133000  1.0 0.0485240342
C  C4  1  0.92730000  0.04360000  0.06130000  1.0 0.0417617494
C  C5  1  0.95640000  0.88370000  0.72797000  1.0 0.0417617494
C  C6  1  0.11630000  0.07270000  0.39463000  1.0 0.0417617494
C  C7  1  0.30950000  0.86650000  0.07480000  1.0 0.0809147582
C  C8  1  0.13350000  0.44300000  0.74147000  1.0 0.0809147582
C  C9  1  0.55700000  0.69050000  0.40813000  1.0 0.0809147582
C  C10  1  0.99810000  0.11780000  0.17390000  1.0 0.0918821572
C  C11  1  0.88220000  0.88030000  0.84057000  1.0 0.0918821572
C  C12  1  0.11970000  0.00190000  0.50723000  1.0 0.0918821572
C  C13  1  0.00310000  0.17680000  0.12380000  1.0 0.028606502
C  C14  1  0.82320000  0.82630000  0.79047000  1.0 0.028606502
C  C15  1  0.17370000  0.99690000  0.45713000  1.0 0.028606502
C  C16  1  0.00730000  0.90680000  0.11250000  1.0 0.0127633934
C  C17  1  0.09320000  0.10050000  0.77917000  1.0 0.0127633934
C  C18  1  0.89950000  0.99270000  0.44583000  1.0 0.0127633934
C  C19  1  0.56360000  0.06810000  0.23740000  1.0 -0.0614126089
C  C20  1  0.93190000  0.49550000  0.90407000  1.0 -0.0614126089
C  C21  1  0.50450000  0.43640000  0.57073000  1.0 -0.0614126089
C  C22  1  0.84300000  0.38850000  0.07270000  1.0 0.0918821572
C  C23  1  0.61150000  0.45450000  0.73937000  1.0 0.0918821572
C  C24  1  0.54550000  0.15700000  0.40603000  1.0 0.0918821572
C  C25  1  0.00640000  0.13660000  0.06470000  1.0 0.0918821572
C  C26  1  0.86340000  0.86980000  0.73137000  1.0 0.0918821572
C  C27  1  0.13020000  0.99360000  0.39803000  1.0 0.0918821572
C  C28  1  0.24550000  0.48140000  0.13010000  1.0 0.0485240342
C  C29  1  0.51860000  0.76410000  0.79677000  1.0 0.0485240342
C  C30  1  0.23590000  0.75450000  0.46343000  1.0 0.0485240342
C  C31  1  0.91030000  0.48460000  0.08730000  1.0 0.028606502
C  C32  1  0.51540000  0.42570000  0.75397000  1.0 0.028606502
C  C33  1  0.57430000  0.08970000  0.42063000  1.0 0.028606502
C  C34  1  0.76540000  0.60330000  0.04680000  1.0 0.1018759939
C  C35  1  0.39670000  0.16210000  0.71347000  1.0 0.1018759939
C  C36  1  0.83790000  0.23460000  0.38013000  1.0 0.1018759939
C  C37  1  0.10330000  0.81450000  0.11460000  1.0 0.2116840686
C  C38  1  0.18550000  0.28880000  0.78127000  1.0 0.2116840686
C  C39  1  0.71120000  0.89670000  0.44793000  1.0 0.2116840686
C  C40  1  0.76190000  0.62420000  0.15760000  1.0 0.0809147582
C  C41  1  0.37580000  0.13770000  0.82427000  1.0 0.0809147582
C  C42  1  0.86230000  0.23810000  0.49093000  1.0 0.0809147582
C  C43  1  0.37760000  0.84060000  0.09190000  1.0 0.028606502
C  C44  1  0.15940000  0.53700000  0.75857000  1.0 0.028606502
C  C45  1  0.46300000  0.62240000  0.42523000  1.0 0.028606502
C  C46  1  0.05010000  0.89790000  0.05640000  1.0 0.0809147582
C  C47  1  0.10210000  0.15220000  0.72307000  1.0 0.0809147582
C  C48  1  0.84780000  0.94990000  0.38973000  1.0 0.0809147582
C  C49  1  0.18520000  0.43140000  0.07700000  1.0 0.0809147582
C  C50  1  0.56860000  0.75380000  0.74367000  1.0 0.0809147582
C  C51  1  0.24620000  0.81480000  0.41033000  1.0 0.0809147582
C  C52  1  0.71530000  0.70050000  0.09340000  1.0 0.2116840686
C  C53  1  0.29950000  0.01480000  0.76007000  1.0 0.2116840686
C  C54  1  0.98520000  0.28470000  0.42673000  1.0 0.2116840686
C  C55  1  0.43590000  0.89850000  0.14190000  1.0 0.2332029513
C  C56  1  0.10150000  0.53740000  0.80857000  1.0 0.2332029513
C  C57  1  0.46260000  0.56410000  0.47523000  1.0 0.2332029513
C  C58  1  0.56290000  0.66050000  0.10550000  1.0 0.0185586829
C  C59  1  0.33950000  0.90240000  0.77217000  1.0 0.0185586829
C  C60  1  0.09760000  0.43710000  0.43883000  1.0 0.0185586829
C  C61  1  0.31900000  0.92300000  0.17660000  1.0 0.0558519944
C  C62  1  0.07700000  0.39600000  0.84327000  1.0 0.0558519944
C  C63  1  0.60400000  0.68100000  0.50993000  1.0 0.0558519944
C  C64  1  0.50340000  0.64180000  0.05250000  1.0 0.0809147582
C  C65  1  0.35820000  0.86160000  0.71917000  1.0 0.0809147582
C  C66  1  0.13840000  0.49660000  0.38583000  1.0 0.0809147582
C  C67  1  0.25620000  0.86070000  0.12910000  1.0 0.0417617494
C  C68  1  0.13930000  0.39550000  0.79577000  1.0 0.0417617494
C  C69  1  0.60450000  0.74380000  0.46243000  1.0 0.0417617494
C  C70  1  0.09120000  0.39420000  0.09670000  1.0 0.028606502
C  C71  1  0.60580000  0.69700000  0.76337000  1.0 0.028606502
C  C72  1  0.30300000  0.90880000  0.43003000  1.0 0.028606502
C  C73  1  0.75990000  0.68730000  0.04000000  1.0 0.0417617494
C  C74  1  0.31270000  0.07260000  0.70667000  1.0 0.0417617494
C  C75  1  0.92740000  0.24010000  0.37333000  1.0 0.0417617494
C  C76  1  0.27420000  0.92120000  0.23350000  1.0 -0.0614126089
C  C77  1  0.07880000  0.35300000  0.90017000  1.0 -0.0614126089
C  C78  1  0.64700000  0.72580000  0.56683000  1.0 -0.0614126089
C  C79  1  0.07540000  0.33270000  0.14990000  1.0 0.1890039168
C  C80  1  0.66730000  0.74270000  0.81657000  1.0 0.1890039168
C  C81  1  0.25730000  0.92460000  0.48323000  1.0 0.1890039168
C  C82  1  0.38450000  0.61780000  0.12490000  1.0 0.2476484053
C  C83  1  0.38220000  0.76670000  0.79157000  1.0 0.2476484053
C  C84  1  0.23330000  0.61550000  0.45823000  1.0 0.2476484053
C  C85  1  0.43310000  0.66600000  0.06870000  1.0 0.0185586829
C  C86  1  0.33400000  0.76710000  0.73537000  1.0 0.0185586829
C  C87  1  0.23290000  0.56690000  0.40203000  1.0 0.0185586829
C  C88  1  0.72900000  0.10970000  0.08960000  1.0 0.028606502
C  C89  1  0.89030000  0.61930000  0.75627000  1.0 0.028606502
C  C90  1  0.38070000  0.27100000  0.42293000  1.0 0.028606502
C  C91  1  0.60860000  0.09880000  0.17680000  1.0 0.0809147582
C  C92  1  0.90120000  0.50980000  0.84347000  1.0 0.0809147582
C  C93  1  0.49020000  0.39140000  0.51013000  1.0 0.0809147582
C  C94  1  0.87680000  0.51950000  0.13660000  1.0 0.2116840686
C  C95  1  0.48050000  0.35730000  0.80327000  1.0 0.2116840686
C  C96  1  0.64270000  0.12320000  0.46993000  1.0 0.2116840686
C  C97  1  0.80830000  0.60520000  0.10760000  1.0 0.0185586829
C  C98  1  0.39480000  0.20310000  0.77427000  1.0 0.0185586829
C  C99  1  0.79690000  0.19170000  0.44093000  1.0 0.0185586829
C  C100  1  0.57990000  0.02610000  0.13150000  1.0 0.0485240342
C  C101  1  0.97390000  0.55380000  0.79817000  1.0 0.0485240342
C  C102  1  0.44620000  0.42010000  0.46483000  1.0 0.0485240342
C  C103  1  0.98560000  0.15020000  0.23340000  1.0 -0.0614126089
C  C104  1  0.84980000  0.83540000  0.90007000  1.0 -0.0614126089
C  C105  1  0.16460000  0.01440000  0.56673000  1.0 -0.0614126089
C  C106  1  0.93110000  0.99220000  0.11330000  1.0 0.1995314009
C  C107  1  0.00780000  0.93890000  0.77997000  1.0 0.1995314009
C  C108  1  0.06110000  0.06890000  0.44663000  1.0 0.1995314009
C  C109  1  0.01850000  0.90240000  0.22420000  1.0 -0.0533242614
C  C110  1  0.09760000  0.11610000  0.89087000  1.0 -0.0533242614
C  C111  1  0.88390000  0.98150000  0.55753000  1.0 -0.0533242614
C  C112  1  0.63160000  0.06540000  0.07510000  1.0 0.0809147582
C  C113  1  0.93460000  0.56620000  0.74177000  1.0 0.0809147582
C  C114  1  0.43380000  0.36840000  0.40843000  1.0 0.0809147582
C  C115  1  0.05800000  0.90340000  0.16630000  1.0 0.0485240342
C  C116  1  0.09660000  0.15460000  0.83297000  1.0 0.0485240342
C  C117  1  0.84540000  0.94200000  0.49963000  1.0 0.0485240342
C  C118  1  0.75620000  0.17760000  0.13810000  1.0 0.1995314009
C  C119  1  0.82240000  0.57860000  0.80477000  1.0 0.1995314009
C  C120  1  0.42140000  0.24380000  0.47143000  1.0 0.1995314009
C  C121  1  0.81180000  0.63980000  0.21610000  1.0 -0.0614126089
C  C122  1  0.36020000  0.17200000  0.88277000  1.0 -0.0614126089
C  C123  1  0.82800000  0.18820000  0.54943000  1.0 -0.0614126089
C  C124  1  0.56560000  0.63370000  0.21530000  1.0 -0.0807201766
C  C125  1  0.36630000  0.93190000  0.88197000  1.0 -0.0807201766
C  C126  1  0.06810000  0.43440000  0.54863000  1.0 -0.0807201766
C  C127  1  0.78460000  0.37960000  0.17760000  1.0 0.0711854755
C  C128  1  0.62040000  0.40500000  0.84427000  1.0 0.0711854755
C  C129  1  0.59500000  0.21540000  0.51093000  1.0 0.0711854755
C  C130  1  0.28230000  0.44920000  0.23220000  1.0 -0.0696645357
C  C131  1  0.55080000  0.83310000  0.89887000  1.0 -0.0696645357
C  C132  1  0.16690000  0.71770000  0.56553000  1.0 -0.0696645357
C  C133  1  0.81470000  0.33470000  0.13070000  1.0 0.028606502
C  C134  1  0.66530000  0.48000000  0.79737000  1.0 0.028606502
C  C135  1  0.52000000  0.18530000  0.46403000  1.0 0.028606502
C  C136  1  0.76400000  0.33280000  0.23530000  1.0 -0.0614126089
C  C137  1  0.66720000  0.43120000  0.90197000  1.0 -0.0614126089
C  C138  1  0.56880000  0.23600000  0.56863000  1.0 -0.0614126089
C  C139  1  0.22580000  0.41290000  0.17910000  1.0 0.0918821572
C  C140  1  0.58710000  0.81290000  0.84577000  1.0 0.0918821572
C  C141  1  0.18710000  0.77420000  0.51243000  1.0 0.0918821572
C  C142  1  0.51020000  0.61040000  0.16010000  1.0 0.0809147582
C  C143  1  0.38960000  0.89980000  0.82677000  1.0 0.0809147582
C  C144  1  0.10020000  0.48980000  0.49343000  1.0 0.0809147582
Br  Br1  1  0.48994000  0.87787000  0.50336000  1.0 -0.5358068474
Br  Br2  1  0.38793000  0.51006000  0.83670000  1.0 -0.5358068474
Br  Br3  1  0.12213000  0.61207000  0.17003000  1.0 -0.5349183806
O  O1  1  0.44340000  0.63470000  0.17170000  1.0 -0.3205407687
O  O2  1  0.36530000  0.80870000  0.83837000  1.0 -0.3205407687
O  O3  1  0.19130000  0.55660000  0.50503000  1.0 -0.3205407687
O  O4  1  0.13570000  0.37450000  0.19700000  1.0 -0.2584859657
O  O5  1  0.62550000  0.76120000  0.86367000  1.0 -0.2584859657
O  O6  1  0.23880000  0.86430000  0.53033000  1.0 -0.2584859657
O  O7  1  0.08300000  0.26050000  0.12890000  1.0 -0.2882199241
O  O8  1  0.73950000  0.82250000  0.79557000  1.0 -0.2882199241
O  O9  1  0.17750000  0.91700000  0.46223000  1.0 -0.2882199241
O  O10  1  0.92510000  0.03050000  0.16700000  1.0 -0.2405026011
O  O11  1  0.96950000  0.89460000  0.83367000  1.0 -0.2500001196
O  O12  1  0.10540000  0.07490000  0.50033000  1.0 -0.2500001196
O  O13  1  0.44900000  0.82120000  0.34160000  1.0 -0.2882199241
O  O14  1  0.17880000  0.62780000  0.00827000  1.0 -0.2882199241
O  O15  1  0.37220000  0.55100000  0.67493000  1.0 -0.2882199241
O  O16  1  0.55120000  0.69310000  0.00270000  1.0 -0.4424808331
O  O17  1  0.30690000  0.85810000  0.66937000  1.0 -0.4424808331
O  O18  1  0.14190000  0.44880000  0.33603000  1.0 -0.4424808331
O  O19  1  0.33540000  0.52730000  0.11220000  1.0 -0.2405026011
O  O20  1  0.47270000  0.80810000  0.77887000  1.0 -0.2405026011
O  O21  1  0.19190000  0.66460000  0.44553000  1.0 -0.2405026011
O  O22  1  0.00940000  0.19250000  0.01730000  1.0 -0.4671853125
O  O23  1  0.80750000  0.81690000  0.68397000  1.0 -0.4625192233
O  O24  1  0.18310000  0.99060000  0.35063000  1.0 -0.4671853125
O  O25  1  0.32190000  0.71910000  0.23200000  1.0 -0.3529075412
O  O26  1  0.28090000  0.60280000  0.89867000  1.0 -0.3529075412
O  O27  1  0.39720000  0.67810000  0.56533000  1.0 -0.3529075412
O  O28  1  0.53690000  0.81750000  0.23600000  1.0 -0.4021625547
O  O29  1  0.18250000  0.71940000  0.90267000  1.0 -0.4021625547
O  O30  1  0.28060000  0.46310000  0.56933000  1.0 -0.4021625547
O  O31  1  0.91340000  0.16530000  0.23230000  1.0 -0.41004511
O  O32  1  0.83470000  0.74810000  0.89897000  1.0 -0.41004511
O  O33  1  0.25190000  0.08660000  0.56563000  1.0 -0.41004511
O  O34  1  0.92930000  0.00350000  0.00640000  1.0 -0.4671853125
O  O35  1  0.99650000  0.92580000  0.67307000  1.0 -0.4671853125
O  O36  1  0.07420000  0.07070000  0.33973000  1.0 -0.4671853125
O  O37  1  0.28470000  0.52590000  0.25600000  1.0 -0.4468363651
O  O38  1  0.47410000  0.75880000  0.92267000  1.0 -0.4468363651
O  O39  1  0.24120000  0.71530000  0.58933000  1.0 -0.4468363651
O  O40  1  0.10170000  0.80810000  0.01010000  1.0 -0.3829410203
O  O41  1  0.19190000  0.29360000  0.67677000  1.0 -0.3829410203
O  O42  1  0.70640000  0.89830000  0.34343000  1.0 -0.3829410203
O  O43  1  0.23530000  0.83790000  0.26180000  1.0 -0.41004511
O  O44  1  0.16210000  0.39740000  0.92847000  1.0 -0.41004511
O  O45  1  0.60260000  0.76470000  0.59513000  1.0 -0.41004511
O  O46  1  0.38210000  0.89690000  0.19060000  1.0 -0.2678733496
O  O47  1  0.10310000  0.48520000  0.85727000  1.0 -0.2678733496
O  O48  1  0.51480000  0.61790000  0.52393000  1.0 -0.2678733496
O  O49  1  0.19150000  0.88310000  0.11260000  1.0 -0.2882199241
O  O50  1  0.11690000  0.30840000  0.77927000  1.0 -0.2882199241
O  O51  1  0.69160000  0.80850000  0.44593000  1.0 -0.2882199241
O  O52  1  0.25710000  0.80810000  0.02960000  1.0 -0.5019911655
O  O53  1  0.19190000  0.44900000  0.69627000  1.0 -0.5019911655
O  O54  1  0.55100000  0.74290000  0.36293000  1.0 -0.5019911655
O  O55  1  0.06040000  0.82200000  0.16480000  1.0 -0.2882199241
O  O56  1  0.17800000  0.23840000  0.83147000  1.0 -0.2882199241
O  O57  1  0.76160000  0.93960000  0.49813000  1.0 -0.2882199241
O  O58  1  0.75970000  0.70290000  0.14620000  1.0 -0.2678733496
O  O59  1  0.29710000  0.05680000  0.81287000  1.0 -0.2678733496
O  O60  1  0.94320000  0.24030000  0.47953000  1.0 -0.2678733496
O  O61  1  0.81500000  0.59450000  0.00240000  1.0 -0.4424808331
O  O62  1  0.40550000  0.22050000  0.66907000  1.0 -0.4424808331
O  O63  1  0.77950000  0.18500000  0.33573000  1.0 -0.4424808331
O  O64  1  0.02950000  0.35010000  0.05200000  1.0 -0.4424808331
O  O65  1  0.64990000  0.67940000  0.71867000  1.0 -0.4424808331
O  O66  1  0.32060000  0.97050000  0.38533000  1.0 -0.4424808331
O  O67  1  0.37120000  0.64710000  0.02140000  1.0 -0.4173547554
O  O68  1  0.35290000  0.72410000  0.68807000  1.0 -0.4173547554
O  O69  1  0.27590000  0.62880000  0.35473000  1.0 -0.4173547554
O  O70  1  0.20670000  0.49150000  0.02870000  1.0 -0.392526242
O  O71  1  0.50850000  0.71520000  0.69537000  1.0 -0.392526242
O  O72  1  0.28480000  0.79330000  0.36203000  1.0 -0.392526242
O  O73  1  0.01010000  0.98980000  0.11020000  1.0 -0.2789942799
O  O74  1  0.01020000  0.02030000  0.77687000  1.0 -0.2789942799
O  O75  1  0.97970000  0.98990000  0.44353000  1.0 -0.2789942799
O  O76  1  0.62730000  0.63560000  0.09270000  1.0 -0.2500001196
O  O77  1  0.36440000  0.99170000  0.75937000  1.0 -0.2500001196
O  O78  1  0.00830000  0.37270000  0.42603000  1.0 -0.2500001196
O  O79  1  0.83120000  0.31390000  0.25540000  1.0 -0.4302163549
O  O80  1  0.68610000  0.51730000  0.92207000  1.0 -0.4302163549
O  O81  1  0.48270000  0.16880000  0.58873000  1.0 -0.4302163549
O  O82  1  0.85410000  0.46650000  0.18680000  1.0 -0.2500001196
O  O83  1  0.53350000  0.38760000  0.85347000  1.0 -0.2500001196
O  O84  1  0.61240000  0.14590000  0.52013000  1.0 -0.2500001196
O  O85  1  0.80340000  0.52310000  0.11500000  1.0 -0.2789942799
O  O86  1  0.47690000  0.28030000  0.78167000  1.0 -0.2789942799
O  O87  1  0.71970000  0.19660000  0.44833000  1.0 -0.2789942799
O  O88  1  0.43070000  0.84340000  0.04270000  1.0 -0.4625192233
O  O89  1  0.15660000  0.58730000  0.70937000  1.0 -0.4625192233
O  O90  1  0.41270000  0.56930000  0.37603000  1.0 -0.4625192233
O  O91  1  0.74620000  0.24810000  0.11740000  1.0 -0.2500001196
O  O92  1  0.75190000  0.49810000  0.78407000  1.0 -0.2500001196
O  O93  1  0.50190000  0.25380000  0.45073000  1.0 -0.2500001196
O  O94  1  0.93300000  0.54040000  0.03780000  1.0 -0.4424808331
O  O95  1  0.45960000  0.39260000  0.70447000  1.0 -0.4424808331
O  O96  1  0.60740000  0.06700000  0.37113000  1.0 -0.4424808331
O  O97  1  0.48930000  0.98440000  0.11960000  1.0 -0.2500001196
O  O98  1  0.01560000  0.50490000  0.78627000  1.0 -0.2500001196
O  O99  1  0.49510000  0.51070000  0.45293000  1.0 -0.2500001196
O  O100  1  0.70090000  0.13880000  0.18940000  1.0 -0.2500001196
O  O101  1  0.86120000  0.56210000  0.85607000  1.0 -0.2500001196
O  O102  1  0.43790000  0.29910000  0.52273000  1.0 -0.2500001196
O  O103  1  0.57940000  0.99920000  0.25930000  1.0 -0.3829410203
O  O104  1  0.00080000  0.58020000  0.92597000  1.0 -0.3829410203
O  O105  1  0.41980000  0.42060000  0.59263000  1.0 -0.3829410203
O  O106  1  0.87260000  0.35060000  0.03170000  1.0 -0.4625192233
O  O107  1  0.64940000  0.52200000  0.69837000  1.0 -0.4625192233
O  O108  1  0.47800000  0.12740000  0.36503000  1.0 -0.4625192233
O  O109  1  0.71640000  0.68560000  0.98780000  1.0 -0.4302163549
O  O110  1  0.31440000  0.03080000  0.65447000  1.0 -0.4302163549
O  O111  1  0.96920000  0.28360000  0.32113000  1.0 -0.4302163549
O  O112  1  0.00160000  0.89420000  0.00530000  1.0 -0.4671853125
O  O113  1  0.10580000  0.10740000  0.67197000  1.0 -0.4671853125
O  O114  1  0.89260000  0.99840000  0.33863000  1.0 -0.4671853125
O  O115  1  0.51190000  0.59560000  0.26640000  1.0 -0.4625192233
O  O116  1  0.40440000  0.91630000  0.93307000  1.0 -0.4625192233
O  O117  1  0.08370000  0.48810000  0.59973000  1.0 -0.4625192233
O  O118  1  0.60740000  0.99710000  0.03240000  1.0 -0.4424808331
O  O119  1  0.00290000  0.61030000  0.69907000  1.0 -0.4424808331
O  O120  1  0.38970000  0.39260000  0.36573000  1.0 -0.4424808331
O  O121  1  0.05410000  0.87890000  0.27200000  1.0 -0.4173547554
O  O122  1  0.12110000  0.17520000  0.93867000  1.0 -0.4173547554
O  O123  1  0.82480000  0.94590000  0.60533000  1.0 -0.4173547554
O  O124  1  0.78500000  0.14840000  0.03990000  1.0 -0.4805415003
O  O125  1  0.85160000  0.63660000  0.70657000  1.0 -0.4805415003
O  O126  1  0.36340000  0.21500000  0.37323000  1.0 -0.4805415003
O  O127  1  0.77020000  0.66290000  0.26200000  1.0 -0.41004511
O  O128  1  0.33710000  0.10730000  0.92867000  1.0 -0.41004511
O  O129  1  0.89270000  0.22980000  0.59533000  1.0 -0.41004511
