# DDEC6 charges by PACMAN v1.1 (https://github.com/mtap-research/PACMAN-charge/)
data_YAQBEB_FSR_pacman
_symmetry_space_group_name_H-M   'P 1'
_cell_length_a   16.90160000
_cell_length_b   16.90160000
_cell_length_c   16.90160000
_cell_angle_alpha   103.20300000
_cell_angle_beta   103.20300000
_cell_angle_gamma   122.90100000
_symmetry_Int_Tables_number   1
_chemical_formula_structural   Y2H14C17NO13
_chemical_formula_sum   'Y8 H56 C68 N4 O52'
_cell_volume   3560.88429863
_cell_formula_units_Z   4
loop_
 _symmetry_equiv_pos_site_id
 _symmetry_equiv_pos_as_xyz
  1  'x, y, z'
loop_
 _atom_site_type_symbol
 _atom_site_label
 _atom_site_symmetry_multiplicity
 _atom_site_fract_x
 _atom_site_fract_y
 _atom_site_fract_z
 _atom_site_occupancy
 _atom_site_charge
Y  Y1  1  0.16373000  0.16373000  0.00000000  1.0 1.8629688032
Y  Y2  1  0.83627000  0.83627000  0.00000000  1.0 1.8629688032
Y  Y3  1  0.13020000  0.02599000  0.15619000  1.0 1.7909051486
Y  Y4  1  0.86980000  0.97401000  0.84381000  1.0 1.7909051486
Y  Y5  1  0.02599000  0.86980000  0.89579000  1.0 1.7909051486
Y  Y6  1  0.97401000  0.13020000  0.10421000  1.0 1.7909051486
Y  Y7  1  0.75000000  0.25000000  0.50000000  1.0 1.6362814911
Y  Y8  1  0.25000000  0.75000000  0.50000000  1.0 1.6349825867
H  H1  1  0.27611000  0.98376000  0.18285000  1.0 0.255371277
H  H2  1  0.20397000  0.03496000  0.02889000  1.0 0.3720703356
H  H3  1  0.50735000  0.39592000  0.16401000  1.0 0.1282874949
H  H4  1  0.75997000  0.45365000  0.34270000  1.0 0.1420069456
H  H5  1  0.47587000  0.22467000  0.30400000  1.0 0.1420069456
H  H6  1  0.20441000  0.92098000  0.08469000  1.0 0.2335658379
H  H7  1  0.80091000  0.09326000  0.81715000  1.0 0.255371277
H  H8  1  0.00607000  0.17508000  0.97111000  1.0 0.3720703356
H  H9  1  0.23191000  0.34334000  0.83599000  1.0 0.1282874949
H  H10  1  0.11095000  0.41727000  0.65730000  1.0 0.1420069456
H  H11  1  0.92067000  0.17187000  0.69600000  1.0 0.1420069456
H  H12  1  0.83629000  0.11972000  0.91531000  1.0 0.2335658379
H  H13  1  0.98376000  0.80091000  0.70765000  1.0 0.255371277
H  H14  1  0.03496000  0.00607000  0.83099000  1.0 0.3720703356
H  H15  1  0.39592000  0.23191000  0.88857000  1.0 0.1282874949
H  H16  1  0.45365000  0.11095000  0.69368000  1.0 0.1420069456
H  H17  1  0.22467000  0.92067000  0.74880000  1.0 0.1420069456
H  H18  1  0.92098000  0.83629000  0.71657000  1.0 0.2335658379
H  H19  1  0.09326000  0.27611000  0.29235000  1.0 0.255371277
H  H20  1  0.17508000  0.20397000  0.16901000  1.0 0.3720703356
H  H21  1  0.34334000  0.50735000  0.11143000  1.0 0.1282874949
H  H22  1  0.41727000  0.75997000  0.30632000  1.0 0.1420069456
H  H23  1  0.17187000  0.47587000  0.25120000  1.0 0.1420069456
H  H24  1  0.11972000  0.20441000  0.28343000  1.0 0.2335658379
H  H25  1  0.72389000  0.01624000  0.81715000  1.0 0.255371277
H  H26  1  0.79603000  0.96504000  0.97111000  1.0 0.3720703356
H  H27  1  0.49265000  0.60408000  0.83599000  1.0 0.1282874949
H  H28  1  0.24003000  0.54635000  0.65730000  1.0 0.1420069456
H  H29  1  0.52413000  0.77533000  0.69600000  1.0 0.1420069456
H  H30  1  0.79559000  0.07902000  0.91531000  1.0 0.2335658379
H  H31  1  0.19909000  0.90674000  0.18285000  1.0 0.255371277
H  H32  1  0.99393000  0.82492000  0.02889000  1.0 0.3720703356
H  H33  1  0.76809000  0.65666000  0.16401000  1.0 0.1282874949
H  H34  1  0.88905000  0.58273000  0.34270000  1.0 0.1420069456
H  H35  1  0.07933000  0.82813000  0.30400000  1.0 0.1420069456
H  H36  1  0.16371000  0.88028000  0.08469000  1.0 0.2335658379
H  H37  1  0.01624000  0.19909000  0.29235000  1.0 0.255371277
H  H38  1  0.96504000  0.99393000  0.16901000  1.0 0.3720703356
H  H39  1  0.60408000  0.76809000  0.11143000  1.0 0.1282874949
H  H40  1  0.54635000  0.88905000  0.30632000  1.0 0.1420069456
H  H41  1  0.77533000  0.07933000  0.25120000  1.0 0.1420069456
H  H42  1  0.07902000  0.16371000  0.28343000  1.0 0.2335658379
H  H43  1  0.90674000  0.72389000  0.70765000  1.0 0.255371277
H  H44  1  0.82492000  0.79603000  0.83099000  1.0 0.3720703356
H  H45  1  0.65666000  0.49265000  0.88857000  1.0 0.1282874949
H  H46  1  0.58273000  0.24003000  0.69368000  1.0 0.1420069456
H  H47  1  0.82813000  0.52413000  0.74880000  1.0 0.1420069456
H  H48  1  0.88028000  0.79559000  0.71657000  1.0 0.2335658379
H  H49  1  0.65894000  0.51941000  0.17835000  1.0 0.2766366907
H  H50  1  0.34106000  0.48059000  0.82165000  1.0 0.2766366907
H  H51  1  0.51941000  0.34106000  0.86047000  1.0 0.2766366907
H  H52  1  0.48059000  0.65894000  0.13953000  1.0 0.2766366907
H  H53  1  0.24720000  0.16550000  0.41270000  1.0 0.0703037333
H  H54  1  0.75280000  0.83450000  0.58730000  1.0 0.0703037333
H  H55  1  0.16550000  0.75280000  0.91830000  1.0 0.0703037333
H  H56  1  0.83450000  0.24720000  0.08170000  1.0 0.0703037333
C  C1  1  0.35770000  0.23460000  0.17830000  1.0 0.6082666226
C  C2  1  0.47430000  0.30320000  0.22870000  1.0 -0.0080779672
C  C3  1  0.53820000  0.38340000  0.20880000  1.0 -0.2209172539
C  C4  1  0.64550000  0.44590000  0.25180000  1.0 0.2102158375
C  C5  1  0.68890000  0.42430000  0.31320000  1.0 -0.1801889718
C  C6  1  0.62650000  0.34310000  0.33300000  1.0 0.0188432194
C  C7  1  0.51850000  0.28100000  0.29070000  1.0 -0.1139264323
C  C8  1  0.67530000  0.31770000  0.39820000  1.0 0.5531575464
C  C9  1  0.05630000  0.17940000  0.82170000  1.0 0.6082666226
C  C10  1  0.07450000  0.24560000  0.77130000  1.0 -0.0080779672
C  C11  1  0.17460000  0.32940000  0.79120000  1.0 -0.2209172539
C  C12  1  0.19410000  0.39370000  0.74820000  1.0 0.2102158375
C  C13  1  0.11110000  0.37570000  0.68680000  1.0 -0.1801889718
C  C14  1  0.01010000  0.29350000  0.66700000  1.0 0.0188432194
C  C15  1  0.99030000  0.22780000  0.70930000  1.0 -0.1139264323
C  C16  1  0.91950000  0.27710000  0.60180000  1.0 0.5531575464
C  C17  1  0.23460000  0.05630000  0.87690000  1.0 0.6082666226
C  C18  1  0.30320000  0.07450000  0.82890000  1.0 -0.0080779672
C  C19  1  0.38340000  0.17460000  0.84520000  1.0 -0.2209172539
C  C20  1  0.44590000  0.19410000  0.80040000  1.0 0.2102158375
C  C21  1  0.42430000  0.11110000  0.73540000  1.0 -0.1801889718
C  C22  1  0.34310000  0.01010000  0.71660000  1.0 0.0188432194
C  C23  1  0.28100000  0.99030000  0.76250000  1.0 -0.1139264323
C  C24  1  0.31770000  0.91950000  0.64240000  1.0 0.5531575464
C  C25  1  0.17940000  0.35770000  0.12310000  1.0 0.6082666226
C  C26  1  0.24560000  0.47430000  0.17110000  1.0 -0.0080779672
C  C27  1  0.32940000  0.53820000  0.15480000  1.0 -0.2209172539
C  C28  1  0.39370000  0.64550000  0.19960000  1.0 0.2102158375
C  C29  1  0.37570000  0.68890000  0.26460000  1.0 -0.1801889718
C  C30  1  0.29350000  0.62650000  0.28340000  1.0 0.0188432194
C  C31  1  0.22780000  0.51850000  0.23750000  1.0 -0.1139264323
C  C32  1  0.27710000  0.67530000  0.35760000  1.0 0.5531575464
C  C33  1  0.64230000  0.76540000  0.82170000  1.0 0.6082666226
C  C34  1  0.52570000  0.69680000  0.77130000  1.0 -0.0080779672
C  C35  1  0.46180000  0.61660000  0.79120000  1.0 -0.2209172539
C  C36  1  0.35450000  0.55410000  0.74820000  1.0 0.2102158375
C  C37  1  0.31110000  0.57570000  0.68680000  1.0 -0.1801889718
C  C38  1  0.37350000  0.65690000  0.66700000  1.0 0.0188432194
C  C39  1  0.48150000  0.71900000  0.70930000  1.0 -0.1139264323
C  C40  1  0.32470000  0.68230000  0.60180000  1.0 0.5531575464
C  C41  1  0.94370000  0.82060000  0.17830000  1.0 0.6082666226
C  C42  1  0.92550000  0.75440000  0.22870000  1.0 -0.0080779672
C  C43  1  0.82540000  0.67060000  0.20880000  1.0 -0.2209172539
C  C44  1  0.80590000  0.60630000  0.25180000  1.0 0.2102158375
C  C45  1  0.88890000  0.62430000  0.31320000  1.0 -0.1801889718
C  C46  1  0.98990000  0.70650000  0.33300000  1.0 0.0188432194
C  C47  1  0.00970000  0.77220000  0.29070000  1.0 -0.1139264323
C  C48  1  0.08050000  0.72290000  0.39820000  1.0 0.5531575464
C  C49  1  0.76540000  0.94370000  0.12310000  1.0 0.6082666226
C  C50  1  0.69680000  0.92550000  0.17110000  1.0 -0.0080779672
C  C51  1  0.61660000  0.82540000  0.15480000  1.0 -0.2209172539
C  C52  1  0.55410000  0.80590000  0.19960000  1.0 0.2102158375
C  C53  1  0.57570000  0.88890000  0.26460000  1.0 -0.1801889718
C  C54  1  0.65690000  0.98990000  0.28340000  1.0 0.0188432194
C  C55  1  0.71900000  0.00970000  0.23750000  1.0 -0.1139264323
C  C56  1  0.68230000  0.08050000  0.35760000  1.0 0.5531575464
C  C57  1  0.82060000  0.64230000  0.87690000  1.0 0.6082666226
C  C58  1  0.75440000  0.52570000  0.82890000  1.0 -0.0080779672
C  C59  1  0.67060000  0.46180000  0.84520000  1.0 -0.2209172539
C  C60  1  0.60630000  0.35450000  0.80040000  1.0 0.2102158375
C  C61  1  0.62430000  0.31110000  0.73540000  1.0 -0.1801889718
C  C62  1  0.70650000  0.37350000  0.71660000  1.0 0.0188432194
C  C63  1  0.77220000  0.48150000  0.76250000  1.0 -0.1139264323
C  C64  1  0.72290000  0.32470000  0.64240000  1.0 0.5531575464
C  C65  1  0.22170000  0.12810000  0.34980000  1.0 0.4449560054
C  C66  1  0.77830000  0.87190000  0.65020000  1.0 0.4467692979
C  C67  1  0.12810000  0.77830000  0.90640000  1.0 0.4467692979
C  C68  1  0.87190000  0.22170000  0.09360000  1.0 0.4449560054
N  N1  1  0.70060000  0.52360000  0.22420000  1.0 -0.3157956965
N  N2  1  0.29940000  0.47640000  0.77580000  1.0 -0.3157956965
N  N3  1  0.52360000  0.29940000  0.82300000  1.0 -0.3157956965
N  N4  1  0.47640000  0.70060000  0.17700000  1.0 -0.3157956965
O  O1  1  0.30400000  0.16470000  0.20190000  1.0 -0.6117458634
O  O2  1  0.32360000  0.25220000  0.11560000  1.0 -0.6117458634
O  O3  1  0.61390000  0.24030000  0.41360000  1.0 -0.5951990701
O  O4  1  0.77230000  0.36680000  0.43390000  1.0 -0.5619402454
O  O5  1  0.14780000  0.02770000  0.02410000  1.0 -0.9348024644
O  O6  1  0.96280000  0.10210000  0.79810000  1.0 -0.6117458634
O  O7  1  0.13660000  0.20800000  0.88440000  1.0 -0.6117458634
O  O8  1  0.82670000  0.20030000  0.58640000  1.0 -0.5951990701
O  O9  1  0.93290000  0.33840000  0.56610000  1.0 -0.5619402454
O  O10  1  0.00360000  0.12370000  0.97590000  1.0 -0.9348024644
O  O11  1  0.16470000  0.96280000  0.86070000  1.0 -0.6117458634
O  O12  1  0.25220000  0.13660000  0.92860000  1.0 -0.6117458634
O  O13  1  0.24030000  0.82670000  0.62640000  1.0 -0.5951990701
O  O14  1  0.36680000  0.93290000  0.59450000  1.0 -0.5619402454
O  O15  1  0.02770000  0.00360000  0.87990000  1.0 -0.9348024644
O  O16  1  0.10210000  0.30400000  0.13930000  1.0 -0.6117458634
O  O17  1  0.20800000  0.32360000  0.07140000  1.0 -0.6117458634
O  O18  1  0.20030000  0.61390000  0.37360000  1.0 -0.5951990701
O  O19  1  0.33840000  0.77230000  0.40550000  1.0 -0.5619402454
O  O20  1  0.12370000  0.14780000  0.12010000  1.0 -0.9348024644
O  O21  1  0.69600000  0.83530000  0.79810000  1.0 -0.6117458634
O  O22  1  0.67640000  0.74780000  0.88440000  1.0 -0.6117458634
O  O23  1  0.38610000  0.75970000  0.58640000  1.0 -0.5951990701
O  O24  1  0.22770000  0.63320000  0.56610000  1.0 -0.5619402454
O  O25  1  0.85220000  0.97230000  0.97590000  1.0 -0.9348024644
O  O26  1  0.03720000  0.89790000  0.20190000  1.0 -0.6117458634
O  O27  1  0.86340000  0.79200000  0.11560000  1.0 -0.6117458634
O  O28  1  0.17330000  0.79970000  0.41360000  1.0 -0.5951990701
O  O29  1  0.06710000  0.66160000  0.43390000  1.0 -0.5619402454
O  O30  1  0.99640000  0.87630000  0.02410000  1.0 -0.9348024644
O  O31  1  0.83530000  0.03720000  0.13930000  1.0 -0.6117458634
O  O32  1  0.74780000  0.86340000  0.07140000  1.0 -0.6117458634
O  O33  1  0.75970000  0.17330000  0.37360000  1.0 -0.5951990701
O  O34  1  0.63320000  0.06710000  0.40550000  1.0 -0.5619402454
O  O35  1  0.97230000  0.99640000  0.12010000  1.0 -0.9348024644
O  O36  1  0.89790000  0.69600000  0.86070000  1.0 -0.6117458634
O  O37  1  0.79200000  0.67640000  0.92860000  1.0 -0.6117458634
O  O38  1  0.79970000  0.38610000  0.62640000  1.0 -0.5951990701
O  O39  1  0.66160000  0.22770000  0.59450000  1.0 -0.5619402454
O  O40  1  0.87630000  0.85220000  0.87990000  1.0 -0.9348024644
O  O41  1  0.16200000  0.13220000  0.29420000  1.0 -0.5547165068
O  O42  1  0.24860000  0.07360000  0.32220000  1.0 -0.5175313942
O  O43  1  0.20170000  0.94090000  0.14260000  1.0 -0.5936549746
O  O44  1  0.83800000  0.86780000  0.70580000  1.0 -0.5547165068
O  O45  1  0.75140000  0.92640000  0.67780000  1.0 -0.5175313942
O  O46  1  0.79830000  0.05910000  0.85740000  1.0 -0.5936549746
O  O47  1  0.13220000  0.83800000  0.97020000  1.0 -0.5619402454
O  O48  1  0.07360000  0.75140000  0.82500000  1.0 -0.5175313942
O  O49  1  0.94090000  0.79830000  0.73920000  1.0 -0.5936549746
O  O50  1  0.86780000  0.16200000  0.02980000  1.0 -0.5547165068
O  O51  1  0.92640000  0.24860000  0.17500000  1.0 -0.5175313942
O  O52  1  0.05910000  0.20170000  0.26080000  1.0 -0.5936549746
