# DDEC6 charges by PACMAN v1.1 (https://github.com/mtap-research/PACMAN-charge/)
data_YAQCEY_ion_pacman
_symmetry_space_group_name_H-M   'P 1'
_cell_length_a   18.78920000
_cell_length_b   23.23070000
_cell_length_c   27.00640000
_cell_angle_alpha   90.00000000
_cell_angle_beta   128.78200000
_cell_angle_gamma   90.00000000
_symmetry_Int_Tables_number   1
_chemical_formula_structural   Mn6C60N10ClO26
_chemical_formula_sum   'Mn24 C240 N40 Cl4 O104'
_cell_volume   9189.09577375
_cell_formula_units_Z   4
loop_
 _symmetry_equiv_pos_site_id
 _symmetry_equiv_pos_as_xyz
  1  'x, y, z'
loop_
 _atom_site_type_symbol
 _atom_site_label
 _atom_site_symmetry_multiplicity
 _atom_site_fract_x
 _atom_site_fract_y
 _atom_site_fract_z
 _atom_site_occupancy
 _atom_site_charge
Mn  Mn1  1  0.81881000  0.88138000  0.65684000  1.0 0.9603274069
Mn  Mn2  1  0.18119000  0.38138000  0.84316000  1.0 0.9603274069
Mn  Mn3  1  0.18119000  0.11862000  0.34316000  1.0 0.9603274069
Mn  Mn4  1  0.81881000  0.61862000  0.15684000  1.0 0.9666687989
Mn  Mn5  1  0.09983000  0.87838000  0.83098000  1.0 0.9666687989
Mn  Mn6  1  0.90017000  0.37838000  0.66902000  1.0 0.9666687989
Mn  Mn7  1  0.90017000  0.12162000  0.16902000  1.0 0.9666687989
Mn  Mn8  1  0.09983000  0.62162000  0.33098000  1.0 0.9666687989
Mn  Mn9  1  0.95992000  0.00620000  0.75307000  1.0 1.0003269557
Mn  Mn10  1  0.04008000  0.50620000  0.74693000  1.0 1.0003269557
Mn  Mn11  1  0.04008000  0.99380000  0.24693000  1.0 1.0003269557
Mn  Mn12  1  0.95992000  0.49380000  0.25307000  1.0 1.0003269557
Mn  Mn13  1  0.44830000  0.74936000  0.74105000  1.0 0.9828952495
Mn  Mn14  1  0.55170000  0.24936000  0.75895000  1.0 0.9828952495
Mn  Mn15  1  0.55170000  0.25064000  0.25895000  1.0 0.9828952495
Mn  Mn16  1  0.44830000  0.75064000  0.24105000  1.0 0.9828952495
Mn  Mn17  1  0.32120000  0.88231000  0.65863000  1.0 0.9666687989
Mn  Mn18  1  0.67880000  0.38231000  0.84137000  1.0 0.9666687989
Mn  Mn19  1  0.67880000  0.11769000  0.34137000  1.0 0.9666687989
Mn  Mn20  1  0.32120000  0.61769000  0.15863000  1.0 0.9666687989
Mn  Mn21  1  0.60168000  0.86790000  0.83266000  1.0 0.9603274069
Mn  Mn22  1  0.39832000  0.36790000  0.66734000  1.0 0.9603274069
Mn  Mn23  1  0.39832000  0.13210000  0.16734000  1.0 0.9603274069
Mn  Mn24  1  0.60168000  0.63210000  0.33266000  1.0 0.9603274069
C  C1  1  0.20740000  0.94560000  0.69300000  1.0 0.2292633504
C  C2  1  0.79260000  0.44560000  0.80700000  1.0 0.2292633504
C  C3  1  0.79260000  0.05440000  0.30700000  1.0 0.2193809267
C  C4  1  0.20740000  0.55440000  0.19300000  1.0 0.2292633504
C  C5  1  0.14610000  0.95210000  0.70490000  1.0 -0.1199421244
C  C6  1  0.85390000  0.45210000  0.79510000  1.0 -0.1199421244
C  C7  1  0.85390000  0.04790000  0.29510000  1.0 -0.1199421244
C  C8  1  0.14610000  0.54790000  0.20490000  1.0 -0.1199421244
C  C9  1  0.12880000  0.86670000  0.62900000  1.0 0.2418872994
C  C10  1  0.87120000  0.36670000  0.87100000  1.0 0.2418872994
C  C11  1  0.87120000  0.13330000  0.37100000  1.0 0.2418872994
C  C12  1  0.12880000  0.63330000  0.12900000  1.0 0.2418872994
C  C13  1  0.06440000  0.87170000  0.63810000  1.0 -0.1119334704
C  C14  1  0.93560000  0.37170000  0.86190000  1.0 -0.1199421244
C  C15  1  0.93560000  0.12830000  0.36190000  1.0 -0.1119334704
C  C16  1  0.06440000  0.62830000  0.13810000  1.0 -0.1199421244
C  C17  1  0.07380000  0.91390000  0.67800000  1.0 0.0213630991
C  C18  1  0.92620000  0.41390000  0.82200000  1.0 0.0213630991
C  C19  1  0.92620000  0.08610000  0.32200000  1.0 0.0213630991
C  C20  1  0.07380000  0.58610000  0.17800000  1.0 0.0213630991
C  C21  1  0.00930000  0.91690000  0.69310000  1.0 0.6082904879
C  C22  1  0.99070000  0.41690000  0.80690000  1.0 0.6082904879
C  C23  1  0.99070000  0.08310000  0.30690000  1.0 0.6082904879
C  C24  1  0.00930000  0.58310000  0.19310000  1.0 0.6082904879
C  C25  1  0.91080000  0.62160000  0.70210000  1.0 0.2094618871
C  C26  1  0.08920000  0.12160000  0.79790000  1.0 0.2094618871
C  C27  1  0.08920000  0.37840000  0.29790000  1.0 0.2094618871
C  C28  1  0.91080000  0.87840000  0.20210000  1.0 0.2094618871
C  C29  1  0.89530000  0.67970000  0.69820000  1.0 -0.1499514114
C  C30  1  0.10470000  0.17970000  0.80180000  1.0 -0.1499514114
C  C31  1  0.10470000  0.32030000  0.30180000  1.0 -0.1499514114
C  C32  1  0.89530000  0.82030000  0.19820000  1.0 -0.1499514114
C  C33  1  0.05910000  0.63280000  0.79100000  1.0 0.2193809267
C  C34  1  0.94090000  0.13280000  0.70900000  1.0 0.2193809267
C  C35  1  0.94090000  0.36720000  0.20900000  1.0 0.2094618871
C  C36  1  0.05910000  0.86720000  0.29100000  1.0 0.2193809267
C  C37  1  0.05030000  0.69150000  0.78890000  1.0 -0.1417086254
C  C38  1  0.94970000  0.19150000  0.71110000  1.0 -0.1417086254
C  C39  1  0.94970000  0.30850000  0.21110000  1.0 -0.1417086254
C  C40  1  0.05030000  0.80850000  0.28890000  1.0 -0.1417086254
C  C41  1  0.96720000  0.71620000  0.74130000  1.0 0.0368926395
C  C42  1  0.03280000  0.21620000  0.75870000  1.0 0.0368926395
C  C43  1  0.03280000  0.28380000  0.25870000  1.0 0.0368926395
C  C44  1  0.96720000  0.78380000  0.24130000  1.0 0.0368926395
C  C45  1  0.95660000  0.78070000  0.73760000  1.0 0.6209006366
C  C46  1  0.04340000  0.28070000  0.76240000  1.0 0.6209006366
C  C47  1  0.04340000  0.21930000  0.26240000  1.0 0.6209006366
C  C48  1  0.95660000  0.71930000  0.23760000  1.0 0.6209006366
C  C49  1  0.21230000  0.82060000  0.79330000  1.0 0.2193809267
C  C50  1  0.78770000  0.32060000  0.70670000  1.0 0.2193809267
C  C51  1  0.78770000  0.17940000  0.20670000  1.0 0.2193809267
C  C52  1  0.21230000  0.67940000  0.29330000  1.0 0.2193809267
C  C53  1  0.27400000  0.81490000  0.78200000  1.0 -0.1199421244
C  C54  1  0.72600000  0.31490000  0.71800000  1.0 -0.1199421244
C  C55  1  0.72600000  0.18510000  0.21800000  1.0 -0.1199421244
C  C56  1  0.27400000  0.68510000  0.28200000  1.0 -0.1199421244
C  C57  1  0.29250000  0.89620000  0.86150000  1.0 0.2010705415
C  C58  1  0.70750000  0.39620000  0.63850000  1.0 0.2010705415
C  C59  1  0.70750000  0.10380000  0.13850000  1.0 0.2010705415
C  C60  1  0.29250000  0.60380000  0.36150000  1.0 0.2010705415
C  C61  1  0.35760000  0.89210000  0.85460000  1.0 -0.1199421244
C  C62  1  0.64240000  0.39210000  0.64540000  1.0 -0.1199421244
C  C63  1  0.64240000  0.10790000  0.14540000  1.0 -0.1199421244
C  C64  1  0.35760000  0.60790000  0.35460000  1.0 -0.1199421244
C  C65  1  0.34870000  0.85190000  0.81300000  1.0 0.0213630991
C  C66  1  0.65130000  0.35190000  0.68700000  1.0 0.0213630991
C  C67  1  0.65130000  0.14810000  0.18700000  1.0 0.0213630991
C  C68  1  0.34870000  0.64810000  0.31300000  1.0 0.0213630991
C  C69  1  0.41530000  0.84820000  0.79980000  1.0 0.6082904879
C  C70  1  0.58470000  0.34820000  0.70020000  1.0 0.6082904879
C  C71  1  0.58470000  0.15180000  0.20020000  1.0 0.6082904879
C  C72  1  0.41530000  0.65180000  0.29980000  1.0 0.6082904879
C  C73  1  0.57650000  0.63550000  0.78120000  1.0 0.2193809267
C  C74  1  0.42350000  0.13550000  0.71880000  1.0 0.2193809267
C  C75  1  0.42350000  0.36450000  0.21880000  1.0 0.2193809267
C  C76  1  0.57650000  0.86450000  0.28120000  1.0 0.2193809267
C  C77  1  0.59100000  0.57660000  0.78530000  1.0 -0.1199421244
C  C78  1  0.40900000  0.07660000  0.71470000  1.0 -0.1199421244
C  C79  1  0.40900000  0.42340000  0.21470000  1.0 -0.1199421244
C  C80  1  0.59100000  0.92340000  0.28530000  1.0 -0.1199421244
C  C81  1  0.42800000  0.62390000  0.69190000  1.0 0.2193809267
C  C82  1  0.57200000  0.12390000  0.80810000  1.0 0.2193809267
C  C83  1  0.57200000  0.37610000  0.30810000  1.0 0.2292633504
C  C84  1  0.42800000  0.87610000  0.19190000  1.0 0.2193809267
C  C85  1  0.43690000  0.56570000  0.69380000  1.0 -0.1199421244
C  C86  1  0.56310000  0.06570000  0.80620000  1.0 -0.1199421244
C  C87  1  0.56310000  0.43430000  0.30620000  1.0 -0.1199421244
C  C88  1  0.43690000  0.93430000  0.19380000  1.0 -0.1199421244
C  C89  1  0.52000000  0.54060000  0.74200000  1.0 0.0300107984
C  C90  1  0.48000000  0.04060000  0.75800000  1.0 0.0300107984
C  C91  1  0.48000000  0.45940000  0.25800000  1.0 0.0300107984
C  C92  1  0.52000000  0.95940000  0.24200000  1.0 0.0300107984
C  C93  1  0.53160000  0.47570000  0.74770000  1.0 0.6209006366
C  C94  1  0.46840000  0.97570000  0.75230000  1.0 0.6209006366
C  C95  1  0.46840000  0.52430000  0.25230000  1.0 0.6209006366
C  C96  1  0.53160000  0.02430000  0.24770000  1.0 0.6209006366
C  C97  1  0.11860000  0.78200000  0.92430000  1.0 0.2193809267
C  C98  1  0.88140000  0.28200000  0.57570000  1.0 0.2193809267
C  C99  1  0.88140000  0.21800000  0.07570000  1.0 0.2193809267
C  C100  1  0.11860000  0.71800000  0.42430000  1.0 0.2193809267
C  C101  1  0.15420000  0.75230000  0.97960000  1.0 -0.1199421244
C  C102  1  0.84580000  0.25230000  0.52040000  1.0 -0.1199421244
C  C103  1  0.84580000  0.24770000  0.02040000  1.0 -0.1199421244
C  C104  1  0.15420000  0.74770000  0.47960000  1.0 -0.1199421244
C  C105  1  0.25250000  0.83010000  0.96940000  1.0 0.2010705415
C  C106  1  0.74750000  0.33010000  0.53060000  1.0 0.2010705415
C  C107  1  0.74750000  0.16990000  0.03060000  1.0 0.2010705415
C  C108  1  0.25250000  0.66990000  0.46940000  1.0 0.2010705415
C  C109  1  0.29420000  0.80250000  0.02650000  1.0 -0.1274658907
C  C110  1  0.70580000  0.30250000  0.47350000  1.0 -0.1199421244
C  C111  1  0.70580000  0.19750000  0.97350000  1.0 -0.1199421244
C  C112  1  0.29420000  0.69750000  0.52650000  1.0 -0.1199421244
C  C113  1  0.24390000  0.76290000  0.03220000  1.0 0.0474317232
C  C114  1  0.75610000  0.26290000  0.46780000  1.0 0.0474317232
C  C115  1  0.75610000  0.23710000  0.96780000  1.0 0.0474317232
C  C116  1  0.24390000  0.73710000  0.53220000  1.0 0.0474317232
C  C117  1  0.28830000  0.73220000  0.09480000  1.0 0.6209006366
C  C118  1  0.71170000  0.23220000  0.40520000  1.0 0.6209006366
C  C119  1  0.71170000  0.26780000  0.90520000  1.0 0.6209006366
C  C120  1  0.28830000  0.76780000  0.59480000  1.0 0.6209006366
C  C121  1  0.22340000  0.10350000  0.02490000  1.0 0.1841576108
C  C122  1  0.77660000  0.60350000  0.47510000  1.0 0.1841576108
C  C123  1  0.77660000  0.89650000  0.97510000  1.0 0.1841576108
C  C124  1  0.22340000  0.39650000  0.52490000  1.0 0.1841576108
C  C125  1  0.16690000  0.07480000  0.96820000  1.0 -0.1199421244
C  C126  1  0.83310000  0.57480000  0.53180000  1.0 -0.1199421244
C  C127  1  0.83310000  0.92520000  0.03180000  1.0 -0.1199421244
C  C128  1  0.16690000  0.42520000  0.46820000  1.0 -0.1199421244
C  C129  1  0.34380000  0.04160000  0.05880000  1.0 0.2292633504
C  C130  1  0.65620000  0.54160000  0.44120000  1.0 0.2292633504
C  C131  1  0.65620000  0.95840000  0.94120000  1.0 0.2292633504
C  C132  1  0.34380000  0.45840000  0.55880000  1.0 0.2292633504
C  C133  1  0.29010000  0.01100000  0.00330000  1.0 -0.1199421244
C  C134  1  0.70990000  0.51100000  0.49670000  1.0 -0.1199421244
C  C135  1  0.70990000  0.98900000  0.99670000  1.0 -0.1199421244
C  C136  1  0.29010000  0.48900000  0.50330000  1.0 -0.1199421244
C  C137  1  0.19920000  0.02700000  0.95660000  1.0 0.0213630991
C  C138  1  0.80080000  0.52700000  0.54340000  1.0 0.0300107984
C  C139  1  0.80080000  0.97300000  0.04340000  1.0 0.0213630991
C  C140  1  0.19920000  0.47300000  0.45660000  1.0 0.0213630991
C  C141  1  0.13920000  0.99350000  0.89610000  1.0 0.6209006366
C  C142  1  0.86080000  0.49350000  0.60390000  1.0 0.6209006366
C  C143  1  0.86080000  0.00650000  0.10390000  1.0 0.6209006366
C  C144  1  0.13920000  0.50650000  0.39610000  1.0 0.6209006366
C  C145  1  0.63000000  0.90010000  0.63230000  1.0 0.2562092636
C  C146  1  0.37000000  0.40010000  0.86770000  1.0 0.2562092636
C  C147  1  0.37000000  0.09990000  0.36770000  1.0 0.2547467072
C  C148  1  0.63000000  0.59990000  0.13230000  1.0 0.2547467072
C  C149  1  0.56560000  0.89400000  0.64080000  1.0 -0.0811932003
C  C150  1  0.43440000  0.39400000  0.85920000  1.0 -0.0811932003
C  C151  1  0.43440000  0.10600000  0.35920000  1.0 -0.0811932003
C  C152  1  0.56560000  0.60600000  0.14080000  1.0 -0.0811932003
C  C153  1  0.69910000  0.81430000  0.68370000  1.0 0.2193809267
C  C154  1  0.30090000  0.31430000  0.81630000  1.0 0.2193809267
C  C155  1  0.30090000  0.18570000  0.31630000  1.0 0.2193809267
C  C156  1  0.69910000  0.68570000  0.18370000  1.0 0.2193809267
C  C157  1  0.63880000  0.80660000  0.69610000  1.0 -0.1199421244
C  C158  1  0.36120000  0.30660000  0.80390000  1.0 -0.1199421244
C  C159  1  0.36120000  0.19340000  0.30390000  1.0 -0.1199421244
C  C160  1  0.63880000  0.69340000  0.19610000  1.0 -0.1199421244
C  C161  1  0.57040000  0.84730000  0.67480000  1.0 0.009945294
C  C162  1  0.42960000  0.34730000  0.82520000  1.0 0.009945294
C  C163  1  0.42960000  0.15270000  0.32520000  1.0 0.009945294
C  C164  1  0.57040000  0.65270000  0.17480000  1.0 0.009945294
C  C165  1  0.50740000  0.84210000  0.69080000  1.0 0.6082904879
C  C166  1  0.49260000  0.34210000  0.80920000  1.0 0.6082904879
C  C167  1  0.49260000  0.15790000  0.30920000  1.0 0.6082904879
C  C168  1  0.50740000  0.65790000  0.19080000  1.0 0.6082904879
C  C169  1  0.78700000  0.84650000  0.85590000  1.0 0.2094618871
C  C170  1  0.21300000  0.34650000  0.64410000  1.0 0.2094618871
C  C171  1  0.21300000  0.15350000  0.14410000  1.0 0.2094618871
C  C172  1  0.78700000  0.65350000  0.35590000  1.0 0.2094618871
C  C173  1  0.85460000  0.85240000  0.84960000  1.0 -0.0896730367
C  C174  1  0.14540000  0.35240000  0.65040000  1.0 -0.0896730367
C  C175  1  0.14540000  0.14760000  0.15040000  1.0 -0.0896730367
C  C176  1  0.85460000  0.64760000  0.34960000  1.0 -0.0896730367
C  C177  1  0.71480000  0.92840000  0.79790000  1.0 0.1901578877
C  C178  1  0.28520000  0.42840000  0.70210000  1.0 0.1901578877
C  C179  1  0.28520000  0.07160000  0.20210000  1.0 0.1901578877
C  C180  1  0.71480000  0.57160000  0.29790000  1.0 0.1901578877
C  C181  1  0.77650000  0.93670000  0.78690000  1.0 -0.0509868971
C  C182  1  0.22350000  0.43670000  0.71310000  1.0 -0.0509868971
C  C183  1  0.22350000  0.06330000  0.21310000  1.0 -0.0509868971
C  C184  1  0.77650000  0.56330000  0.28690000  1.0 -0.0509868971
C  C185  1  0.84760000  0.89780000  0.81280000  1.0 -0.0811932003
C  C186  1  0.15240000  0.39780000  0.68720000  1.0 -0.0811932003
C  C187  1  0.15240000  0.10220000  0.18720000  1.0 -0.0744426008
C  C188  1  0.84760000  0.60220000  0.31280000  1.0 -0.0744426008
C  C189  1  0.66350000  0.85000000  0.51260000  1.0 0.2418872994
C  C190  1  0.33650000  0.35000000  0.98740000  1.0 0.2418872994
C  C191  1  0.33650000  0.15000000  0.48740000  1.0 0.2418872994
C  C192  1  0.66350000  0.65000000  0.01260000  1.0 0.2418872994
C  C193  1  0.61820000  0.82340000  0.45380000  1.0 -0.0623291386
C  C194  1  0.38180000  0.32340000  0.04620000  1.0 -0.0623291386
C  C195  1  0.38180000  0.17660000  0.54620000  1.0 -0.0623291386
C  C196  1  0.61820000  0.67660000  0.95380000  1.0 -0.0623291386
C  C197  1  0.79240000  0.79490000  0.55530000  1.0 0.2193809267
C  C198  1  0.20760000  0.29490000  0.94470000  1.0 0.2193809267
C  C199  1  0.20760000  0.20510000  0.44470000  1.0 0.2193809267
C  C200  1  0.79240000  0.70510000  0.05530000  1.0 0.2193809267
C  C201  1  0.75290000  0.76700000  0.49910000  1.0 -0.1274658907
C  C202  1  0.24710000  0.26700000  0.00090000  1.0 -0.1274658907
C  C203  1  0.24710000  0.23300000  0.50090000  1.0 -0.1274658907
C  C204  1  0.75290000  0.73300000  0.99910000  1.0 -0.1199421244
C  C205  1  0.66300000  0.78050000  0.44710000  1.0 0.0300107984
C  C206  1  0.33700000  0.28050000  0.05290000  1.0 0.0300107984
C  C207  1  0.33700000  0.21950000  0.55290000  1.0 0.0300107984
C  C208  1  0.66300000  0.71950000  0.94710000  1.0 0.0300107984
C  C209  1  0.61640000  0.74900000  0.38510000  1.0 0.6042277502
C  C210  1  0.38360000  0.24900000  0.11490000  1.0 0.6082904879
C  C211  1  0.38360000  0.25100000  0.61490000  1.0 0.6042277502
C  C212  1  0.61640000  0.75100000  0.88510000  1.0 0.6042277502
C  C213  1  0.81200000  0.07740000  0.48590000  1.0 0.1841576108
C  C214  1  0.18800000  0.57740000  0.01410000  1.0 0.1841576108
C  C215  1  0.18800000  0.92260000  0.51410000  1.0 0.1901578877
C  C216  1  0.81200000  0.42260000  0.98590000  1.0 0.1841576108
C  C217  1  0.83680000  0.05680000  0.54220000  1.0 -0.1199421244
C  C218  1  0.16320000  0.55680000  0.95780000  1.0 -0.1199421244
C  C219  1  0.16320000  0.94320000  0.45780000  1.0 -0.1199421244
C  C220  1  0.83680000  0.44320000  0.04220000  1.0 -0.1199421244
C  C221  1  0.67540000  0.02770000  0.42880000  1.0 0.2547467072
C  C222  1  0.32460000  0.52770000  0.07120000  1.0 0.2547467072
C  C223  1  0.32460000  0.97230000  0.57120000  1.0 0.2562092636
C  C224  1  0.67540000  0.47230000  0.92880000  1.0 0.2562092636
C  C225  1  0.69570000  0.00550000  0.48390000  1.0 -0.0811932003
C  C226  1  0.30430000  0.50550000  0.01610000  1.0 -0.0811932003
C  C227  1  0.30430000  0.99450000  0.51610000  1.0 -0.0896730367
C  C228  1  0.69570000  0.49450000  0.98390000  1.0 -0.0896730367
C  C229  1  0.77910000  0.01950000  0.54260000  1.0 0.0300107984
C  C230  1  0.22090000  0.51950000  0.95740000  1.0 0.0300107984
C  C231  1  0.22090000  0.98050000  0.45740000  1.0 0.0300107984
C  C232  1  0.77910000  0.48050000  0.04260000  1.0 0.0300107984
C  C233  1  0.80490000  0.99520000  0.60370000  1.0 0.6042277502
C  C234  1  0.19510000  0.49520000  0.89630000  1.0 0.6042277502
C  C235  1  0.19510000  0.00480000  0.39630000  1.0 0.6042277502
C  C236  1  0.80490000  0.50480000  0.10370000  1.0 0.6042277502
C  C237  1  0.91130000  0.90390000  0.80230000  1.0 0.5586476867
C  C238  1  0.08870000  0.40390000  0.69770000  1.0 0.5586476867
C  C239  1  0.08870000  0.09610000  0.19770000  1.0 0.5586476867
C  C240  1  0.91130000  0.59610000  0.30230000  1.0 0.5586476867
N  N1  1  0.20050000  0.90275000  0.65570000  1.0 -0.2592696901
N  N2  1  0.79950000  0.40275000  0.84430000  1.0 -0.2592696901
N  N3  1  0.79950000  0.09725000  0.34430000  1.0 -0.2592696901
N  N4  1  0.20050000  0.59725000  0.15570000  1.0 -0.2592696901
N  N5  1  0.99080000  0.59700000  0.74760000  1.0 -0.1995578426
N  N6  1  0.00920000  0.09700000  0.75240000  1.0 -0.1995578426
N  N7  1  0.00920000  0.40300000  0.25240000  1.0 -0.1995578426
N  N8  1  0.99080000  0.90300000  0.24760000  1.0 -0.1995578426
N  N9  1  0.21860000  0.86128000  0.83120000  1.0 -0.2463881801
N  N10  1  0.78140000  0.36128000  0.66880000  1.0 -0.2463881801
N  N11  1  0.78140000  0.13872000  0.16880000  1.0 -0.2463881801
N  N12  1  0.21860000  0.63872000  0.33120000  1.0 -0.2463881801
N  N13  1  0.49510000  0.65956000  0.73500000  1.0 -0.2110320422
N  N14  1  0.50490000  0.15956000  0.76500000  1.0 -0.2110320422
N  N15  1  0.50490000  0.34044000  0.26500000  1.0 -0.2110320422
N  N16  1  0.49510000  0.84044000  0.23500000  1.0 -0.2110320422
N  N17  1  0.16570000  0.82090000  0.91850000  1.0 -0.2333818636
N  N18  1  0.83430000  0.32090000  0.58150000  1.0 -0.2333818636
N  N19  1  0.83430000  0.17910000  0.08150000  1.0 -0.2333818636
N  N20  1  0.16570000  0.67910000  0.41850000  1.0 -0.2333818636
N  N21  1  0.31200000  0.08780000  0.07100000  1.0 -0.2206146158
N  N22  1  0.68800000  0.58780000  0.42900000  1.0 -0.2206146158
N  N23  1  0.68800000  0.91220000  0.92900000  1.0 -0.2206146158
N  N24  1  0.31200000  0.41220000  0.57100000  1.0 -0.2206146158
N  N25  1  0.69800000  0.86176000  0.65370000  1.0 -0.2206146158
N  N26  1  0.30200000  0.36176000  0.84630000  1.0 -0.2206146158
N  N27  1  0.30200000  0.13824000  0.34630000  1.0 -0.2206146158
N  N28  1  0.69800000  0.63824000  0.15370000  1.0 -0.2206146158
N  N29  1  0.71780000  0.88330000  0.83060000  1.0 -0.2333818636
N  N30  1  0.28220000  0.38330000  0.66940000  1.0 -0.2333818636
N  N31  1  0.28220000  0.11670000  0.16940000  1.0 -0.2333818636
N  N32  1  0.71780000  0.61670000  0.33060000  1.0 -0.2333818636
N  N33  1  0.74920000  0.83607000  0.56360000  1.0 -0.2110320422
N  N34  1  0.25080000  0.33607000  0.93640000  1.0 -0.2110320422
N  N35  1  0.25080000  0.16393000  0.43640000  1.0 -0.2110320422
N  N36  1  0.74920000  0.66393000  0.06360000  1.0 -0.2110320422
N  N37  1  0.73040000  0.06410000  0.42850000  1.0 -0.1995578426
N  N38  1  0.26960000  0.56410000  0.07150000  1.0 -0.1995578426
N  N39  1  0.26960000  0.93590000  0.57150000  1.0 -0.1995578426
N  N40  1  0.73040000  0.43590000  0.92850000  1.0 -0.1995578426
Cl  Cl1  1  0.39457000  0.93245000  0.33895000  1.0 1.2304547572
Cl  Cl2  1  0.60543000  0.43245000  0.16105000  1.0 1.2222537939
Cl  Cl3  1  0.60543000  0.06755000  0.66105000  1.0 1.2304547572
Cl  Cl4  1  0.39457000  0.56755000  0.83895000  1.0 1.2304547572
O  O1  1  0.93256000  0.89541000  0.65515000  1.0 -0.5113989601
O  O2  1  0.06744000  0.39541000  0.84485000  1.0 -0.5113989601
O  O3  1  0.06744000  0.10459000  0.34485000  1.0 -0.5113989601
O  O4  1  0.93256000  0.60459000  0.15515000  1.0 -0.5113989601
O  O5  1  0.04087000  0.94114000  0.74627000  1.0 -0.6043532546
O  O6  1  0.95913000  0.44114000  0.75373000  1.0 -0.6043532546
O  O7  1  0.95913000  0.05886000  0.25373000  1.0 -0.6066109395
O  O8  1  0.04087000  0.55886000  0.24627000  1.0 -0.6043532546
O  O9  1  0.02916000  0.80927000  0.76806000  1.0 -0.5699208136
O  O10  1  0.97084000  0.30927000  0.73194000  1.0 -0.5699208136
O  O11  1  0.97084000  0.19073000  0.23194000  1.0 -0.5699208136
O  O12  1  0.02916000  0.69073000  0.26806000  1.0 -0.5699208136
O  O13  1  0.87653000  0.80061000  0.70403000  1.0 -0.5699208136
O  O14  1  0.12347000  0.30061000  0.79597000  1.0 -0.5699208136
O  O15  1  0.12347000  0.19939000  0.29597000  1.0 -0.5699208136
O  O16  1  0.87653000  0.69939000  0.20403000  1.0 -0.5699208136
O  O17  1  0.49591000  0.86443000  0.84254000  1.0 -0.5113989601
O  O18  1  0.50409000  0.36443000  0.65746000  1.0 -0.5113989601
O  O19  1  0.50409000  0.13557000  0.15746000  1.0 -0.5113989601
O  O20  1  0.49591000  0.63557000  0.34254000  1.0 -0.5113989601
O  O21  1  0.38520000  0.82804000  0.74585000  1.0 -0.5699208136
O  O22  1  0.61480000  0.32804000  0.75415000  1.0 -0.5699208136
O  O23  1  0.61480000  0.17196000  0.25415000  1.0 -0.5699208136
O  O24  1  0.38520000  0.67196000  0.24585000  1.0 -0.5699208136
O  O25  1  0.45881000  0.44635000  0.71656000  1.0 -0.5699208136
O  O26  1  0.54119000  0.94635000  0.78344000  1.0 -0.5699208136
O  O27  1  0.54119000  0.55365000  0.28344000  1.0 -0.5699208136
O  O28  1  0.45881000  0.05365000  0.21656000  1.0 -0.5699208136
O  O29  1  0.61199000  0.45691000  0.78424000  1.0 -0.5795637126
O  O30  1  0.38801000  0.95691000  0.71576000  1.0 -0.5795637126
O  O31  1  0.38801000  0.54309000  0.21576000  1.0 -0.5795637126
O  O32  1  0.61199000  0.04309000  0.28424000  1.0 -0.5795637126
O  O33  1  0.24830000  0.68865000  0.09481000  1.0 -0.5699208136
O  O34  1  0.75170000  0.18865000  0.40519000  1.0 -0.5699208136
O  O35  1  0.75170000  0.31135000  0.90519000  1.0 -0.5699208136
O  O36  1  0.24830000  0.81135000  0.59481000  1.0 -0.5699208136
O  O37  1  0.36299000  0.75256000  0.14189000  1.0 -0.5534199333
O  O38  1  0.63701000  0.25256000  0.35811000  1.0 -0.5534199333
O  O39  1  0.63701000  0.24744000  0.85811000  1.0 -0.5534199333
O  O40  1  0.36299000  0.74744000  0.64189000  1.0 -0.5534199333
O  O41  1  0.05992000  0.01283000  0.85352000  1.0 -0.5534199333
O  O42  1  0.94008000  0.51283000  0.64648000  1.0 -0.5534199333
O  O43  1  0.94008000  0.98717000  0.14648000  1.0 -0.5534199333
O  O44  1  0.05992000  0.48717000  0.35352000  1.0 -0.5534199333
O  O45  1  0.17253000  0.94839000  0.89183000  1.0 -0.5634455439
O  O46  1  0.82747000  0.44839000  0.60817000  1.0 -0.5634455439
O  O47  1  0.82747000  0.05161000  0.10817000  1.0 -0.5634455439
O  O48  1  0.17253000  0.55161000  0.39183000  1.0 -0.5634455439
O  O49  1  0.43273000  0.86723000  0.65571000  1.0 -0.5191613908
O  O50  1  0.56727000  0.36723000  0.84429000  1.0 -0.5191613908
O  O51  1  0.56727000  0.13277000  0.34429000  1.0 -0.5191613908
O  O52  1  0.43273000  0.63277000  0.15571000  1.0 -0.5191613908
O  O53  1  0.53643000  0.81291000  0.74086000  1.0 -0.6066109395
O  O54  1  0.46357000  0.31291000  0.75914000  1.0 -0.6066109395
O  O55  1  0.46357000  0.18709000  0.25914000  1.0 -0.6066109395
O  O56  1  0.53643000  0.68709000  0.24086000  1.0 -0.6066109395
O  O57  1  0.88570000  0.92896000  0.74847000  1.0 -0.6066109395
O  O58  1  0.11430000  0.42896000  0.75153000  1.0 -0.6066109395
O  O59  1  0.11430000  0.07104000  0.25153000  1.0 -0.6066109395
O  O60  1  0.88570000  0.57104000  0.24847000  1.0 -0.6066109395
O  O61  1  0.99308000  0.88377000  0.84028000  1.0 -0.5302591975
O  O62  1  0.00692000  0.38377000  0.65972000  1.0 -0.5191613908
O  O63  1  0.00692000  0.11623000  0.15972000  1.0 -0.5302591975
O  O64  1  0.99308000  0.61623000  0.34028000  1.0 -0.5191613908
O  O65  1  0.53506000  0.76386000  0.33996000  1.0 -0.5443692859
O  O66  1  0.46494000  0.26386000  0.16004000  1.0 -0.5443692859
O  O67  1  0.46494000  0.23614000  0.66004000  1.0 -0.5443692859
O  O68  1  0.53506000  0.73614000  0.83996000  1.0 -0.5443692859
O  O69  1  0.66059000  0.71058000  0.38279000  1.0 -0.5534199333
O  O70  1  0.33941000  0.21058000  0.11721000  1.0 -0.5534199333
O  O71  1  0.33941000  0.28942000  0.61721000  1.0 -0.5534199333
O  O72  1  0.66059000  0.78942000  0.88279000  1.0 -0.5534199333
O  O73  1  0.87789000  0.01584000  0.65369000  1.0 -0.5634455439
O  O74  1  0.12211000  0.51584000  0.84631000  1.0 -0.5634455439
O  O75  1  0.12211000  0.98416000  0.34631000  1.0 -0.5634455439
O  O76  1  0.87789000  0.48416000  0.15369000  1.0 -0.5634455439
O  O77  1  0.75572000  0.95755000  0.60082000  1.0 -0.5302591975
O  O78  1  0.24428000  0.45755000  0.89918000  1.0 -0.5302591975
O  O79  1  0.24428000  0.04245000  0.39918000  1.0 -0.5302591975
O  O80  1  0.75572000  0.54245000  0.10082000  1.0 -0.5302591975
O  O81  1  0.34530000  0.70213000  0.74000000  1.0 -0.0979082466
O  O82  1  0.65470000  0.20213000  0.76000000  1.0 -0.0979082466
O  O83  1  0.65470000  0.29787000  0.26000000  1.0 -0.0979082466
O  O84  1  0.34530000  0.79787000  0.24000000  1.0 -0.1119334704
O  O85  1  0.86360000  0.05328000  0.75880000  1.0 -0.1199421244
O  O86  1  0.13640000  0.55328000  0.74120000  1.0 -0.1274658907
O  O87  1  0.13640000  0.94672000  0.24120000  1.0 -0.1274658907
O  O88  1  0.86360000  0.44672000  0.25880000  1.0 -0.1199421244
O  O89  1  0.32700000  0.95420000  0.34230000  1.0 -0.3857342656
O  O90  1  0.48200000  0.95510000  0.39500000  1.0 -0.5191613908
O  O91  1  0.40000000  0.86930000  0.34390000  1.0 -0.4159419741
O  O92  1  0.36020000  0.94680000  0.27510000  1.0 -0.5021875159
O  O93  1  0.67300000  0.45420000  0.15770000  1.0 -0.3843193408
O  O94  1  0.51800000  0.45510000  0.10500000  1.0 -0.5191613908
O  O95  1  0.60000000  0.36930000  0.15610000  1.0 -0.4159419741
O  O96  1  0.63980000  0.44680000  0.22490000  1.0 -0.5113989601
O  O97  1  0.67300000  0.04580000  0.65770000  1.0 -0.3843193408
O  O98  1  0.51800000  0.04490000  0.60500000  1.0 -0.5191613908
O  O99  1  0.60000000  0.13070000  0.65610000  1.0 -0.4159419741
O  O100  1  0.63980000  0.05320000  0.72490000  1.0 -0.5021875159
O  O101  1  0.32700000  0.54580000  0.84230000  1.0 -0.3843193408
O  O102  1  0.48200000  0.54490000  0.89500000  1.0 -0.5191613908
O  O103  1  0.40000000  0.63070000  0.84390000  1.0 -0.4159419741
O  O104  1  0.36020000  0.55320000  0.77510000  1.0 -0.5021875159
