# DDEC6 charges by PACMAN v1.1 (https://github.com/mtap-research/PACMAN-charge/)
data_YARGOP_FSR_pacman
_symmetry_space_group_name_H-M   'P 1'
_cell_length_a   17.76680000
_cell_length_b   17.76680000
_cell_length_c   17.76680000
_cell_angle_alpha   128.49400000
_cell_angle_beta   128.49400000
_cell_angle_gamma   75.82590000
_symmetry_Int_Tables_number   1
_chemical_formula_structural   ZnH16C25NO4
_chemical_formula_sum   'Zn4 H64 C100 N4 O16'
_cell_volume   3341.17240929
_cell_formula_units_Z   4
loop_
 _symmetry_equiv_pos_site_id
 _symmetry_equiv_pos_as_xyz
  1  'x, y, z'
loop_
 _atom_site_type_symbol
 _atom_site_label
 _atom_site_symmetry_multiplicity
 _atom_site_fract_x
 _atom_site_fract_y
 _atom_site_fract_z
 _atom_site_occupancy
 _atom_site_charge
Zn  Zn1  1  0.80217000  0.80217000  0.00000000  1.0 0.7874900819
Zn  Zn2  1  0.69783000  0.69783000  0.00000000  1.0 0.7874900819
Zn  Zn3  1  0.19783000  0.19783000  0.00000000  1.0 0.7874900819
Zn  Zn4  1  0.30217000  0.30217000  0.00000000  1.0 0.7874900819
H  H1  1  0.03550000  0.83610000  0.28420000  1.0 0.11619204
H  H2  1  0.83610000  0.55190000  0.80060000  1.0 0.11619204
H  H3  1  0.55190000  0.75130000  0.71580000  1.0 0.11619204
H  H4  1  0.75130000  0.03550000  0.19940000  1.0 0.11619204
H  H5  1  0.46450000  0.74870000  0.80060000  1.0 0.11619204
H  H6  1  0.94810000  0.66390000  0.19940000  1.0 0.11619204
H  H7  1  0.74870000  0.94810000  0.28420000  1.0 0.11619204
H  H8  1  0.66390000  0.46450000  0.71580000  1.0 0.11619204
H  H9  1  0.96450000  0.16390000  0.71580000  1.0 0.11619204
H  H10  1  0.16390000  0.44810000  0.19940000  1.0 0.11619204
H  H11  1  0.44810000  0.24870000  0.28420000  1.0 0.11619204
H  H12  1  0.24870000  0.96450000  0.80060000  1.0 0.11619204
H  H13  1  0.53550000  0.25130000  0.19940000  1.0 0.11619204
H  H14  1  0.05190000  0.33610000  0.80060000  1.0 0.11619204
H  H15  1  0.25130000  0.05190000  0.71580000  1.0 0.11619204
H  H16  1  0.33610000  0.53550000  0.28420000  1.0 0.11619204
H  H17  1  0.20200000  0.84650000  0.39190000  1.0 0.1091773816
H  H18  1  0.84650000  0.45460000  0.64450000  1.0 0.1091773816
H  H19  1  0.45460000  0.81010000  0.60810000  1.0 0.1091773816
H  H20  1  0.81010000  0.20200000  0.35550000  1.0 0.1091773816
H  H21  1  0.29800000  0.68990000  0.64450000  1.0 0.1091773816
H  H22  1  0.04540000  0.65350000  0.35550000  1.0 0.1091773816
H  H23  1  0.68990000  0.04540000  0.39190000  1.0 0.1091773816
H  H24  1  0.65350000  0.29800000  0.60810000  1.0 0.1091773816
H  H25  1  0.79800000  0.15350000  0.60810000  1.0 0.1091773816
H  H26  1  0.15350000  0.54540000  0.35550000  1.0 0.1091773816
H  H27  1  0.54540000  0.18990000  0.39190000  1.0 0.1091773816
H  H28  1  0.18990000  0.79800000  0.64450000  1.0 0.1091773816
H  H29  1  0.70200000  0.31010000  0.35550000  1.0 0.1091773816
H  H30  1  0.95460000  0.34650000  0.64450000  1.0 0.1091773816
H  H31  1  0.31010000  0.95460000  0.60810000  1.0 0.1091773816
H  H32  1  0.34650000  0.70200000  0.39190000  1.0 0.1091773816
H  H33  1  0.86780000  0.04780000  0.98640000  1.0 0.0975203634
H  H34  1  0.04780000  0.06140000  0.18000000  1.0 0.0975203634
H  H35  1  0.06140000  0.88140000  0.01360000  1.0 0.0975203634
H  H36  1  0.88140000  0.86780000  0.82000000  1.0 0.0975203634
H  H37  1  0.63220000  0.61860000  0.18000000  1.0 0.0975203634
H  H38  1  0.43860000  0.45220000  0.82000000  1.0 0.0975203634
H  H39  1  0.61860000  0.43860000  0.98640000  1.0 0.0975203634
H  H40  1  0.45220000  0.63220000  0.01360000  1.0 0.0975203634
H  H41  1  0.13220000  0.95220000  0.01360000  1.0 0.0975203634
H  H42  1  0.95220000  0.93860000  0.82000000  1.0 0.0975203634
H  H43  1  0.93860000  0.11860000  0.98640000  1.0 0.0975203634
H  H44  1  0.11860000  0.13220000  0.18000000  1.0 0.0975203634
H  H45  1  0.36780000  0.38140000  0.82000000  1.0 0.0975203634
H  H46  1  0.56140000  0.54780000  0.18000000  1.0 0.0975203634
H  H47  1  0.38140000  0.56140000  0.01360000  1.0 0.0975203634
H  H48  1  0.54780000  0.36780000  0.98640000  1.0 0.0975203634
H  H49  1  0.78620000  0.95620000  0.97880000  1.0 0.1091773816
H  H50  1  0.95620000  0.97740000  0.17000000  1.0 0.1091773816
H  H51  1  0.97740000  0.80740000  0.02120000  1.0 0.1091773816
H  H52  1  0.80740000  0.78620000  0.83000000  1.0 0.1091773816
H  H53  1  0.71380000  0.69260000  0.17000000  1.0 0.1091773816
H  H54  1  0.52260000  0.54380000  0.83000000  1.0 0.1091773816
H  H55  1  0.69260000  0.52260000  0.97880000  1.0 0.1091773816
H  H56  1  0.54380000  0.71380000  0.02120000  1.0 0.1091773816
H  H57  1  0.21380000  0.04380000  0.02120000  1.0 0.1091773816
H  H58  1  0.04380000  0.02260000  0.83000000  1.0 0.1091773816
H  H59  1  0.02260000  0.19260000  0.97880000  1.0 0.1091773816
H  H60  1  0.19260000  0.21380000  0.17000000  1.0 0.1091773816
H  H61  1  0.28620000  0.30740000  0.83000000  1.0 0.1091773816
H  H62  1  0.47740000  0.45620000  0.17000000  1.0 0.1091773816
H  H63  1  0.30740000  0.47740000  0.02120000  1.0 0.1091773816
H  H64  1  0.45620000  0.28620000  0.97880000  1.0 0.1091773816
C  C1  1  0.03693000  0.94051000  0.43436000  1.0 0.0552781978
C  C2  1  0.94051000  0.50615000  0.90358000  1.0 0.0552781978
C  C3  1  0.50615000  0.60257000  0.56564000  1.0 0.0552781978
C  C4  1  0.60257000  0.03693000  0.09642000  1.0 0.0552781978
C  C5  1  0.46307000  0.89743000  0.90358000  1.0 0.0552781978
C  C6  1  0.99385000  0.55949000  0.09642000  1.0 0.0552781978
C  C7  1  0.89743000  0.99385000  0.43436000  1.0 0.0552781978
C  C8  1  0.55949000  0.46307000  0.56564000  1.0 0.0552781978
C  C9  1  0.96307000  0.05949000  0.56564000  1.0 0.0552781978
C  C10  1  0.05949000  0.49385000  0.09642000  1.0 0.0552781978
C  C11  1  0.49385000  0.39743000  0.43436000  1.0 0.0552781978
C  C12  1  0.39743000  0.96307000  0.90358000  1.0 0.0552781978
C  C13  1  0.53693000  0.10257000  0.09642000  1.0 0.0552781978
C  C14  1  0.00615000  0.44051000  0.90358000  1.0 0.0552781978
C  C15  1  0.10257000  0.00615000  0.56564000  1.0 0.0552781978
C  C16  1  0.44051000  0.53693000  0.43436000  1.0 0.0552781978
C  C17  1  0.07791000  0.88031000  0.37120000  1.0 -0.1537120399
C  C18  1  0.88031000  0.50911000  0.80240000  1.0 -0.1537120399
C  C19  1  0.50911000  0.70671000  0.62880000  1.0 -0.1537120399
C  C20  1  0.70671000  0.07791000  0.19760000  1.0 -0.1537120399
C  C21  1  0.42209000  0.79329000  0.80240000  1.0 -0.1537120399
C  C22  1  0.99089000  0.61969000  0.19760000  1.0 -0.1537120399
C  C23  1  0.79329000  0.99089000  0.37120000  1.0 -0.1537120399
C  C24  1  0.61969000  0.42209000  0.62880000  1.0 -0.1537120399
C  C25  1  0.92209000  0.11969000  0.62880000  1.0 -0.1537120399
C  C26  1  0.11969000  0.49089000  0.19760000  1.0 -0.1537120399
C  C27  1  0.49089000  0.29329000  0.37120000  1.0 -0.1537120399
C  C28  1  0.29329000  0.92209000  0.80240000  1.0 -0.1537120399
C  C29  1  0.57791000  0.20671000  0.19760000  1.0 -0.1537120399
C  C30  1  0.00911000  0.38031000  0.80240000  1.0 -0.1537120399
C  C31  1  0.20671000  0.00911000  0.62880000  1.0 -0.1537120399
C  C32  1  0.38031000  0.57791000  0.37120000  1.0 -0.1537120399
C  C33  1  0.93601000  0.93601000  0.37202000  1.0 -0.1057060483
C  C34  1  0.93601000  0.56399000  0.00000000  1.0 -0.1057060483
C  C35  1  0.56399000  0.56399000  0.62798000  1.0 -0.1057060483
C  C36  1  0.56399000  0.93601000  0.00000000  1.0 -0.1057060483
C  C37  1  0.06399000  0.06399000  0.62798000  1.0 -0.1057060483
C  C38  1  0.06399000  0.43601000  0.00000000  1.0 -0.1057060483
C  C39  1  0.43601000  0.43601000  0.37202000  1.0 -0.1057060483
C  C40  1  0.43601000  0.06399000  0.00000000  1.0 -0.1057060483
C  C41  1  0.86674000  0.86674000  0.23348000  1.0 0.5756523729
C  C42  1  0.86674000  0.63326000  0.00000000  1.0 0.5756523729
C  C43  1  0.63326000  0.63326000  0.76652000  1.0 0.5756523729
C  C44  1  0.63326000  0.86674000  0.00000000  1.0 0.5756523729
C  C45  1  0.13326000  0.13326000  0.76652000  1.0 0.5756523729
C  C46  1  0.13326000  0.36674000  0.00000000  1.0 0.5756523729
C  C47  1  0.36674000  0.36674000  0.23348000  1.0 0.5756523729
C  C48  1  0.36674000  0.13326000  0.00000000  1.0 0.5756523729
C  C49  1  0.17600000  0.88630000  0.43470000  1.0 -0.0995005943
C  C50  1  0.88630000  0.45160000  0.71030000  1.0 -0.0995005943
C  C51  1  0.45160000  0.74130000  0.56530000  1.0 -0.0995005943
C  C52  1  0.74130000  0.17600000  0.28970000  1.0 -0.0995005943
C  C53  1  0.32400000  0.75870000  0.71030000  1.0 -0.0995005943
C  C54  1  0.04840000  0.61370000  0.28970000  1.0 -0.0995005943
C  C55  1  0.75870000  0.04840000  0.43470000  1.0 -0.0995005943
C  C56  1  0.61370000  0.32400000  0.56530000  1.0 -0.0995005943
C  C57  1  0.82400000  0.11370000  0.56530000  1.0 -0.0995005943
C  C58  1  0.11370000  0.54840000  0.28970000  1.0 -0.0995005943
C  C59  1  0.54840000  0.25870000  0.43470000  1.0 -0.0995005943
C  C60  1  0.25870000  0.82400000  0.71030000  1.0 -0.0995005943
C  C61  1  0.67600000  0.24130000  0.28970000  1.0 -0.0995005943
C  C62  1  0.95160000  0.38630000  0.71030000  1.0 -0.0995005943
C  C63  1  0.24130000  0.95160000  0.56530000  1.0 -0.0995005943
C  C64  1  0.38630000  0.67600000  0.43470000  1.0 -0.0995005943
C  C65  1  0.97310000  0.97310000  0.00000000  1.0 -0.0088606906
C  C66  1  0.52690000  0.52690000  0.00000000  1.0 -0.0088606906
C  C67  1  0.02690000  0.02690000  0.00000000  1.0 -0.0088606906
C  C68  1  0.47310000  0.47310000  0.00000000  1.0 -0.0088606906
C  C69  1  0.89280000  0.99500000  0.99040000  1.0 -0.0928947246
C  C70  1  0.99500000  0.00460000  0.10220000  1.0 -0.0928947246
C  C71  1  0.00460000  0.90240000  0.00960000  1.0 -0.0995005943
C  C72  1  0.90240000  0.89280000  0.89780000  1.0 -0.0995005943
C  C73  1  0.60720000  0.59760000  0.10220000  1.0 -0.0928947246
C  C74  1  0.49540000  0.50500000  0.89780000  1.0 -0.0995005943
C  C75  1  0.59760000  0.49540000  0.99040000  1.0 -0.0995005943
C  C76  1  0.50500000  0.60720000  0.00960000  1.0 -0.0928947246
C  C77  1  0.10720000  0.00500000  0.00960000  1.0 -0.0995005943
C  C78  1  0.00500000  0.99540000  0.89780000  1.0 -0.0928947246
C  C79  1  0.99540000  0.09760000  0.99040000  1.0 -0.0995005943
C  C80  1  0.09760000  0.10720000  0.10220000  1.0 -0.0928947246
C  C81  1  0.39280000  0.40240000  0.89780000  1.0 -0.0995005943
C  C82  1  0.50460000  0.49500000  0.10220000  1.0 -0.0928947246
C  C83  1  0.40240000  0.50460000  0.00960000  1.0 -0.0995005943
C  C84  1  0.49500000  0.39280000  0.99040000  1.0 -0.0995005943
C  C85  1  0.84680000  0.94170000  0.99030000  1.0 -0.0088606906
C  C86  1  0.94170000  0.95140000  0.09490000  1.0 -0.0088606906
C  C87  1  0.95140000  0.85650000  0.00970000  1.0 -0.0088606906
C  C88  1  0.85650000  0.84680000  0.90510000  1.0 -0.0088606906
C  C89  1  0.65320000  0.64350000  0.09490000  1.0 -0.0088606906
C  C90  1  0.54860000  0.55830000  0.90510000  1.0 -0.0088606906
C  C91  1  0.64350000  0.54860000  0.99030000  1.0 -0.0088606906
C  C92  1  0.55830000  0.65320000  0.00970000  1.0 -0.0088606906
C  C93  1  0.15320000  0.05830000  0.00970000  1.0 -0.0088606906
C  C94  1  0.05830000  0.04860000  0.90510000  1.0 -0.0088606906
C  C95  1  0.04860000  0.14350000  0.99030000  1.0 -0.0088606906
C  C96  1  0.14350000  0.15320000  0.09490000  1.0 -0.0088606906
C  C97  1  0.34680000  0.35650000  0.90510000  1.0 -0.0088606906
C  C98  1  0.45140000  0.44170000  0.09490000  1.0 -0.0088606906
C  C99  1  0.35650000  0.45140000  0.00970000  1.0 -0.0088606906
C  C100  1  0.44170000  0.34680000  0.99030000  1.0 -0.0088606906
N  N1  1  0.87430000  0.87430000  0.00000000  1.0 -0.0928947246
N  N2  1  0.62570000  0.62570000  0.00000000  1.0 -0.0836870922
N  N3  1  0.12570000  0.12570000  0.00000000  1.0 -0.0836870922
N  N4  1  0.37430000  0.37430000  0.00000000  1.0 -0.0836870922
O  O1  1  0.86494000  0.89331000  0.18179000  1.0 -0.5367947734
O  O2  1  0.89331000  0.71152000  0.02837000  1.0 -0.5367947734
O  O3  1  0.71152000  0.68315000  0.81821000  1.0 -0.5367947734
O  O4  1  0.68315000  0.86494000  0.97163000  1.0 -0.5367947734
O  O5  1  0.63506000  0.81685000  0.02837000  1.0 -0.5367947734
O  O6  1  0.78848000  0.60669000  0.97163000  1.0 -0.5367947734
O  O7  1  0.81685000  0.78848000  0.18179000  1.0 -0.5367947734
O  O8  1  0.60669000  0.63506000  0.81821000  1.0 -0.5367947734
O  O9  1  0.13506000  0.10669000  0.81821000  1.0 -0.5367947734
O  O10  1  0.10669000  0.28848000  0.97163000  1.0 -0.5367947734
O  O11  1  0.28848000  0.31685000  0.18179000  1.0 -0.5367947734
O  O12  1  0.31685000  0.13506000  0.02837000  1.0 -0.5367947734
O  O13  1  0.36494000  0.18315000  0.97163000  1.0 -0.5367947734
O  O14  1  0.21152000  0.39331000  0.02837000  1.0 -0.5367947734
O  O15  1  0.18315000  0.21152000  0.81821000  1.0 -0.5367947734
O  O16  1  0.39331000  0.36494000  0.18179000  1.0 -0.5367947734
