# DDEC6 charges by PACMAN v1.1 (https://github.com/mtap-research/PACMAN-charge/)
data_YAVWAW_ASR_pacman
_symmetry_space_group_name_H-M   'P 1'
_cell_length_a   8.83040000
_cell_length_b   8.82570000
_cell_length_c   27.64400000
_cell_angle_alpha   90.00000000
_cell_angle_beta   102.14200000
_cell_angle_gamma   90.00000000
_symmetry_Int_Tables_number   1
_chemical_formula_structural   HoH7C14(NO3)2
_chemical_formula_sum   'Ho4 H28 C56 N8 O24'
_cell_volume   2106.22439228
_cell_formula_units_Z   4
loop_
 _symmetry_equiv_pos_site_id
 _symmetry_equiv_pos_as_xyz
  1  'x, y, z'
loop_
 _atom_site_type_symbol
 _atom_site_label
 _atom_site_symmetry_multiplicity
 _atom_site_fract_x
 _atom_site_fract_y
 _atom_site_fract_z
 _atom_site_occupancy
 _atom_site_charge
Ho  Ho1  1  0.49621000  0.06093000  0.73294000  1.0 2.0625420278
Ho  Ho2  1  0.50379000  0.56093000  0.76706000  1.0 2.0625420278
Ho  Ho3  1  0.50379000  0.93907000  0.26706000  1.0 2.0625420278
Ho  Ho4  1  0.49621000  0.43907000  0.23294000  1.0 2.0625420278
H  H1  1  0.27630000  0.99820000  0.95840000  1.0 0.1238210018
H  H2  1  0.72370000  0.49820000  0.54160000  1.0 0.1238210018
H  H3  1  0.72370000  0.00180000  0.04160000  1.0 0.1238210018
H  H4  1  0.27630000  0.50180000  0.45840000  1.0 0.1238210018
H  H5  1  0.35470000  0.18500000  0.01480000  1.0 0.1112419172
H  H6  1  0.64530000  0.68500000  0.48520000  1.0 0.1112419172
H  H7  1  0.64530000  0.81500000  0.98520000  1.0 0.1112419172
H  H8  1  0.35470000  0.31500000  0.51480000  1.0 0.1112419172
H  H9  1  0.51130000  0.42640000  0.91250000  1.0 0.1238210018
H  H10  1  0.48870000  0.92640000  0.58750000  1.0 0.1238210018
H  H11  1  0.48870000  0.57360000  0.08750000  1.0 0.1238210018
H  H12  1  0.51130000  0.07360000  0.41250000  1.0 0.1238210018
H  H13  1  0.85600000  0.28650000  0.86200000  1.0 0.1405519908
H  H14  1  0.14400000  0.78650000  0.63800000  1.0 0.1405519908
H  H15  1  0.14400000  0.71350000  0.13800000  1.0 0.1405519908
H  H16  1  0.85600000  0.21350000  0.36200000  1.0 0.1405519908
H  H17  1  0.96250000  0.22350000  0.94150000  1.0 0.1112419172
H  H18  1  0.03750000  0.72350000  0.55850000  1.0 0.1112419172
H  H19  1  0.03750000  0.77650000  0.05850000  1.0 0.1112419172
H  H20  1  0.96250000  0.27650000  0.44150000  1.0 0.1112419172
H  H21  1  0.80090000  0.80220000  0.91720000  1.0 0.1238210018
H  H22  1  0.19910000  0.30220000  0.58280000  1.0 0.1238210018
H  H23  1  0.19910000  0.19780000  0.08280000  1.0 0.1238210018
H  H24  1  0.80090000  0.69780000  0.41720000  1.0 0.1238210018
H  H25  1  0.32700000  0.00900000  0.84310000  1.0 0.3391439384
H  H26  1  0.67300000  0.50900000  0.65690000  1.0 0.3391439384
H  H27  1  0.67300000  0.99100000  0.15690000  1.0 0.3391439384
H  H28  1  0.32700000  0.49100000  0.34310000  1.0 0.3391439384
C  C1  1  0.44070000  0.24690000  0.83560000  1.0 0.6535483068
C  C2  1  0.55930000  0.74690000  0.66440000  1.0 0.6535483068
C  C3  1  0.55930000  0.75310000  0.16440000  1.0 0.6535483068
C  C4  1  0.44070000  0.25310000  0.33560000  1.0 0.6535483068
C  C5  1  0.41590000  0.22640000  0.88700000  1.0 -0.1696103988
C  C6  1  0.58410000  0.72640000  0.61300000  1.0 -0.1696103988
C  C7  1  0.58410000  0.77360000  0.11300000  1.0 -0.1696103988
C  C8  1  0.41590000  0.27360000  0.38700000  1.0 -0.1696103988
C  C9  1  0.34530000  0.09670000  0.90100000  1.0 0.2794497972
C  C10  1  0.65470000  0.59670000  0.59900000  1.0 0.2794497972
C  C11  1  0.65470000  0.90330000  0.09900000  1.0 0.2794497972
C  C12  1  0.34530000  0.40330000  0.40100000  1.0 0.2794497972
C  C13  1  0.32330000  0.08450000  0.94900000  1.0 -0.20856483
C  C14  1  0.67670000  0.58450000  0.55100000  1.0 -0.20856483
C  C15  1  0.67670000  0.91550000  0.05100000  1.0 -0.20856483
C  C16  1  0.32330000  0.41550000  0.44900000  1.0 -0.20856483
C  C17  1  0.36920000  0.19640000  0.98260000  1.0 -0.1304146545
C  C18  1  0.63080000  0.69640000  0.51740000  1.0 -0.1304146545
C  C19  1  0.63080000  0.80360000  0.01740000  1.0 -0.1304146545
C  C20  1  0.36920000  0.30360000  0.48260000  1.0 -0.1304146545
C  C21  1  0.43760000  0.32780000  0.96940000  1.0 0.1321073314
C  C22  1  0.56240000  0.82780000  0.53060000  1.0 0.1321073314
C  C23  1  0.56240000  0.67220000  0.03060000  1.0 0.1321073314
C  C24  1  0.43760000  0.17220000  0.46940000  1.0 0.1321073314
C  C25  1  0.46270000  0.34050000  0.92140000  1.0 -0.1304146545
C  C26  1  0.53730000  0.84050000  0.57860000  1.0 -0.1304146545
C  C27  1  0.53730000  0.65950000  0.07860000  1.0 -0.1304146545
C  C28  1  0.46270000  0.15950000  0.42140000  1.0 -0.1304146545
C  C29  1  0.65900000  0.81210000  0.82570000  1.0 0.6202012962
C  C30  1  0.34100000  0.31210000  0.67430000  1.0 0.6202012962
C  C31  1  0.34100000  0.18790000  0.17430000  1.0 0.6202012962
C  C32  1  0.65900000  0.68790000  0.32570000  1.0 0.6202012962
C  C33  1  0.74500000  0.93350000  0.85640000  1.0 -0.1696103988
C  C34  1  0.25500000  0.43350000  0.64360000  1.0 -0.1696103988
C  C35  1  0.25500000  0.06650000  0.14360000  1.0 -0.1696103988
C  C36  1  0.74500000  0.56650000  0.35640000  1.0 -0.1696103988
C  C37  1  0.76460000  0.08170000  0.83790000  1.0 0.3570264345
C  C38  1  0.23540000  0.58170000  0.66210000  1.0 0.3570264345
C  C39  1  0.23540000  0.91830000  0.16210000  1.0 0.3570264345
C  C40  1  0.76460000  0.41830000  0.33790000  1.0 0.3570264345
C  C41  1  0.84570000  0.18750000  0.87250000  1.0 -0.1936739991
C  C42  1  0.15430000  0.68750000  0.62750000  1.0 -0.1936739991
C  C43  1  0.15430000  0.81250000  0.12750000  1.0 -0.1936739991
C  C44  1  0.84570000  0.31250000  0.37250000  1.0 -0.1936739991
C  C45  1  0.90910000  0.15050000  0.92020000  1.0 -0.1244398439
C  C46  1  0.09090000  0.65050000  0.57980000  1.0 -0.1244398439
C  C47  1  0.09090000  0.84950000  0.07980000  1.0 -0.1244398439
C  C48  1  0.90910000  0.34950000  0.42020000  1.0 -0.1244398439
C  C49  1  0.89450000  0.00360000  0.93750000  1.0 0.1321073314
C  C50  1  0.10550000  0.50360000  0.56250000  1.0 0.1321073314
C  C51  1  0.10550000  0.99640000  0.06250000  1.0 0.1321073314
C  C52  1  0.89450000  0.49640000  0.43750000  1.0 0.1321073314
C  C53  1  0.81240000  0.89950000  0.90560000  1.0 -0.1418973589
C  C54  1  0.18760000  0.39950000  0.59440000  1.0 -0.1418973589
C  C55  1  0.18760000  0.10050000  0.09440000  1.0 -0.1418973589
C  C56  1  0.81240000  0.60050000  0.40560000  1.0 -0.1418973589
N  N1  1  0.47580000  0.44010000  0.00680000  1.0 -0.1075059343
N  N2  1  0.52420000  0.94010000  0.49320000  1.0 -0.1075059343
N  N3  1  0.52420000  0.55990000  0.99320000  1.0 -0.1075059343
N  N4  1  0.47580000  0.05990000  0.50680000  1.0 -0.1075059343
N  N5  1  0.96260000  0.95200000  0.98590000  1.0 -0.1075059343
N  N6  1  0.03740000  0.45200000  0.51410000  1.0 -0.1075059343
N  N7  1  0.03740000  0.04800000  0.01410000  1.0 -0.1075059343
N  N8  1  0.96260000  0.54800000  0.48590000  1.0 -0.1075059343
O  O1  1  0.50170000  0.36550000  0.82486000  1.0 -0.6561951647
O  O2  1  0.49830000  0.86550000  0.67514000  1.0 -0.6561951647
O  O3  1  0.49830000  0.63450000  0.17514000  1.0 -0.6561951647
O  O4  1  0.50170000  0.13450000  0.32486000  1.0 -0.6561951647
O  O5  1  0.66620000  0.67950000  0.84124000  1.0 -0.6291345144
O  O6  1  0.33380000  0.17950000  0.65876000  1.0 -0.6291345144
O  O7  1  0.33380000  0.32050000  0.15876000  1.0 -0.6291345144
O  O8  1  0.66620000  0.82050000  0.34124000  1.0 -0.6291345144
O  O9  1  0.39990000  0.13670000  0.80519000  1.0 -0.6823443705
O  O10  1  0.60010000  0.63670000  0.69481000  1.0 -0.6823443705
O  O11  1  0.60010000  0.86330000  0.19481000  1.0 -0.6823443705
O  O12  1  0.39990000  0.36330000  0.30519000  1.0 -0.6823443705
O  O13  1  0.29670000  0.98310000  0.86900000  1.0 -0.4172195727
O  O14  1  0.70330000  0.48310000  0.63100000  1.0 -0.4172195727
O  O15  1  0.70330000  0.01690000  0.13100000  1.0 -0.4172195727
O  O16  1  0.29670000  0.51690000  0.36900000  1.0 -0.4172195727
O  O17  1  0.71790000  0.12130000  0.79128000  1.0 -0.6561951647
O  O18  1  0.28210000  0.62130000  0.70872000  1.0 -0.6561951647
O  O19  1  0.28210000  0.87870000  0.20872000  1.0 -0.6561951647
O  O20  1  0.71790000  0.37870000  0.29128000  1.0 -0.6561951647
O  O21  1  0.57520000  0.84050000  0.78262000  1.0 -0.7858985001
O  O22  1  0.42480000  0.34050000  0.71738000  1.0 -0.7858985001
O  O23  1  0.42480000  0.15950000  0.21738000  1.0 -0.7858985001
O  O24  1  0.57520000  0.65950000  0.28262000  1.0 -0.7858985001
