# DDEC6 charges by PACMAN v1.1 (https://github.com/mtap-research/PACMAN-charge/)
data_YAWDEJ_ASR_pacman
_chemical_formula_sum              "Hf12 O44 C36 N12"
_cell_length_a       21.271
_cell_length_b       14.5326
_cell_length_c       8.0868
_cell_angle_alpha    90
_cell_angle_beta     84.193
_cell_angle_gamma    90

_symmetry_space_group_name_H-M    "P 1"
_symmetry_Int_Tables_number       1

loop_
  _symmetry_equiv_pos_as_xyz
  'x, y, z'

loop_
  _atom_site_type_symbol
  _atom_site_label
  _atom_site_symmetry_multiplicity
  _atom_site_fract_x
  _atom_site_fract_y
  _atom_site_fract_z
  _atom_site_occupancy
 _atom_site_charge
Hf  Hf1       1.0  0.57893  0.61340  0.04410  1.0000 1.6478678811
O   O1        1.0  0.51830  0.62900  0.83800  1.0000 -0.8080075529
O   O2        1.0  0.55100  0.75500  0.99900  1.0000 -0.489206804
C   C1        1.0  0.55500  0.95200  0.03300  1.0000 -0.1859862528
O   O3        1.0  0.61010  0.59100  0.60900  1.0000 -0.4571592912
O   O4        1.0  0.65200  0.64000  0.82900  1.0000 -0.4677019105
C   C2        1.0  0.65200  0.64100  0.67100  1.0000 0.6185482148
C   C3        1.0  0.70300  0.69700  0.58200  1.0000 -0.0127908868
C   C4        1.0  0.74600  0.73800  0.66900  1.0000 0.0334700431
N   N1        1.0  0.79300  0.79400  0.59000  1.0000 -0.1194239747
N   N2        1.0  0.44500  0.95200  0.96700  1.0000 0.0484026376
Hf  Hf2       1.0  0.07893  0.11340  0.04410  1.0000 1.6285445918
O   O5        1.0  0.01830  0.12900  0.83800  1.0000 -0.8080075529
O   O6        1.0  0.05100  0.25500  0.99900  1.0000 -0.489206804
C   C5        1.0  0.05500  0.45200  0.03300  1.0000 -0.1848477196
O   O7        1.0  0.11010  0.09100  0.60900  1.0000 -0.4571592912
O   O8        1.0  0.15200  0.14000  0.82900  1.0000 -0.4677019105
C   C6        1.0  0.15200  0.14100  0.67100  1.0000 0.6185482148
C   C7        1.0  0.20300  0.19700  0.58200  1.0000 -0.0127908868
C   C8        1.0  0.24600  0.23800  0.66900  1.0000 0.0391602783
N   N3        1.0  0.29300  0.29400  0.59000  1.0000 -0.1136467826
N   N4        1.0  0.94500  0.45200  0.96700  1.0000 0.0391602783
Hf  Hf3       1.0  0.42107  0.61340  0.95590  1.0000 1.6226705421
O   O9        1.0  0.48170  0.62900  0.16200  1.0000 -0.8080075529
O   O10       1.0  0.44900  0.75500  0.00100  1.0000 -0.4962114862
O   O11       1.0  0.38990  0.59100  0.39100  1.0000 -0.4571592912
O   O12       1.0  0.34800  0.64000  0.17100  1.0000 -0.4677019105
C   C9        1.0  0.34800  0.64100  0.32900  1.0000 0.6185482148
C   C10       1.0  0.29700  0.69700  0.41800  1.0000 -0.0127908868
C   C11       1.0  0.25400  0.73800  0.33100  1.0000 0.0391602783
N   N5        1.0  0.20700  0.79400  0.41000  1.0000 -0.1194239747
Hf  Hf4       1.0  0.92107  0.11340  0.95590  1.0000 1.6226705421
O   O13       1.0  0.98170  0.12900  0.16200  1.0000 -0.8080075529
O   O14       1.0  0.94900  0.25500  0.00100  1.0000 -0.489206804
O   O15       1.0  0.88990  0.09100  0.39100  1.0000 -0.4571592912
O   O16       1.0  0.84800  0.14000  0.17100  1.0000 -0.4677019105
C   C12       1.0  0.84800  0.14100  0.32900  1.0000 0.6185482148
C   C13       1.0  0.79700  0.19700  0.41800  1.0000 -0.0127908868
C   C14       1.0  0.75400  0.23800  0.33100  1.0000 0.0391602783
N   N6        1.0  0.70700  0.29400  0.41000  1.0000 -0.1136467826
Hf  Hf5       1.0  0.42107  0.38660  0.95590  1.0000 1.6285445918
O   O17       1.0  0.48170  0.37100  0.16200  1.0000 -0.8080075529
O   O18       1.0  0.44900  0.24500  0.00100  1.0000 -0.489206804
C   C15       1.0  0.44500  0.04800  0.96700  1.0000 -0.1859862528
O   O19       1.0  0.38990  0.40900  0.39100  1.0000 -0.4571592912
O   O20       1.0  0.34800  0.36000  0.17100  1.0000 -0.4677019105
C   C16       1.0  0.34800  0.35900  0.32900  1.0000 0.6185482148
C   C17       1.0  0.29700  0.30300  0.41800  1.0000 -0.0127908868
C   C18       1.0  0.25400  0.26200  0.33100  1.0000 0.0391602783
N   N7        1.0  0.20700  0.20600  0.41000  1.0000 -0.1194239747
N   N8        1.0  0.55500  0.04800  0.03300  1.0000 0.0484026376
Hf  Hf6       1.0  0.92107  0.88660  0.95590  1.0000 1.6226705421
O   O21       1.0  0.98170  0.87100  0.16200  1.0000 -0.8080075529
O   O22       1.0  0.94900  0.74500  0.00100  1.0000 -0.489206804
C   C19       1.0  0.94500  0.54800  0.96700  1.0000 -0.1859862528
O   O23       1.0  0.88990  0.90900  0.39100  1.0000 -0.4571592912
O   O24       1.0  0.84800  0.86000  0.17100  1.0000 -0.4571592912
C   C20       1.0  0.84800  0.85900  0.32900  1.0000 0.6185482148
C   C21       1.0  0.79700  0.80300  0.41800  1.0000 -0.0127908868
C   C22       1.0  0.75400  0.76200  0.33100  1.0000 0.0391602783
N   N9        1.0  0.70700  0.70600  0.41000  1.0000 -0.1194239747
N   N10       1.0  0.05500  0.54800  0.03300  1.0000 0.0484026376
Hf  Hf7       1.0  0.57893  0.38660  0.04410  1.0000 1.6226705421
O   O25       1.0  0.51830  0.37100  0.83800  1.0000 -0.8080075529
O   O26       1.0  0.55100  0.24500  0.99900  1.0000 -0.4962114862
O   O27       1.0  0.61010  0.40900  0.60900  1.0000 -0.4571592912
O   O28       1.0  0.65200  0.36000  0.82900  1.0000 -0.4677019105
C   C23       1.0  0.65200  0.35900  0.67100  1.0000 0.6185482148
C   C24       1.0  0.70300  0.30300  0.58200  1.0000 -0.0127908868
C   C25       1.0  0.74600  0.26200  0.66900  1.0000 0.0334700431
N   N11       1.0  0.79300  0.20600  0.59000  1.0000 -0.1194239747
Hf  Hf8       1.0  0.07893  0.88660  0.04410  1.0000 1.6226705421
O   O29       1.0  0.01830  0.87100  0.83800  1.0000 -0.8080075529
O   O30       1.0  0.05100  0.74500  0.99900  1.0000 -0.4962114862
O   O31       1.0  0.11010  0.90900  0.60900  1.0000 -0.4571592912
O   O32       1.0  0.15200  0.86000  0.82900  1.0000 -0.4677019105
C   C26       1.0  0.15200  0.85900  0.67100  1.0000 0.6185482148
C   C27       1.0  0.20300  0.80300  0.58200  1.0000 -0.0127908868
C   C28       1.0  0.24600  0.76200  0.66900  1.0000 0.0334700431
N   N12       1.0  0.29300  0.70600  0.59000  1.0000 -0.1136467826
Hf  Hf9       1.0  0.46340  0.50000  0.31290  1.0000 1.7290592421
O   O33       1.0  0.56400  0.50000  0.22200  1.0000 -0.8603129458
O   O34       1.0  0.60300  0.50000  0.87200  1.0000 -0.7097366821
Hf  Hf10      1.0  0.96340  0.00000  0.31290  1.0000 1.7290592421
O   O35       1.0  0.06400  0.00000  0.22200  1.0000 -0.8603129458
O   O36       1.0  0.10300  0.00000  0.87200  1.0000 -0.7097366821
Hf  Hf11      1.0  0.53660  0.50000  0.68710  1.0000 1.7290592421
O   O37       1.0  0.43600  0.50000  0.77800  1.0000 -0.8603129458
O   O38       1.0  0.39700  0.50000  0.12800  1.0000 -0.7097366821
Hf  Hf12      1.0  0.03660  0.00000  0.68710  1.0000 1.7290592421
O   O39       1.0  0.93600  0.00000  0.77800  1.0000 -0.8603129458
O   O40       1.0  0.89700  0.00000  0.12800  1.0000 -0.7045694363
O   O41       1.0  0.50000  0.59400  0.50000  1.0000 -0.5524689527
O   O42       1.0  0.00000  0.09400  0.50000  1.0000 -0.5567857396
O   O43       1.0  0.50000  0.40600  0.50000  1.0000 -0.5524689527
O   O44       1.0  0.00000  0.90600  0.50000  1.0000 -0.5524689527
C   C29       1.0  0.50000  0.80174  0.00000  1.0000 0.6531546343
C   C30       1.0  0.50000  0.90546  0.00000  1.0000 0.0208407104
C   C31       1.0  0.00000  0.30174  0.00000  1.0000 0.6531546343
C   C32       1.0  0.00000  0.40546  0.00000  1.0000 0.0208407104
C   C33       1.0  0.50000  0.19826  0.00000  1.0000 0.6531546343
C   C34       1.0  0.50000  0.09454  0.00000  1.0000 0.0208407104
C   C35       1.0  0.00000  0.69826  0.00000  1.0000 0.6531546343
C   C36       1.0  0.00000  0.59454  0.00000  1.0000 0.0208407104
  N   N13       1.0  0.55500  0.95200  0.03300  1.0000
  C   C37       1.0  0.44500  0.95200  0.96700  1.0000
  N   N14       1.0  0.05500  0.45200  0.03300  1.0000
  C   C38       1.0  0.94500  0.45200  0.96700  1.0000
  N   N15       1.0  0.44500  0.04800  0.96700  1.0000
  C   C39       1.0  0.55500  0.04800  0.03300  1.0000
  N   N16       1.0  0.94500  0.54800  0.96700  1.0000
  C   C40       1.0  0.05500  0.54800  0.03300  1.0000
