# DDEC6 charges by PACMAN v1.1 (https://github.com/mtap-research/PACMAN-charge/)
data_YAWYII_ion_pacman
_symmetry_space_group_name_H-M   'P 1'
_cell_length_a   39.60200000
_cell_length_b   39.60200000
_cell_length_c   16.44000000
_cell_angle_alpha   90.00000000
_cell_angle_beta   90.00000000
_cell_angle_gamma   120.00000000
_symmetry_Int_Tables_number   1
_chemical_formula_structural   Zr3H54C92S4Br4(NO9)4
_chemical_formula_sum   'Zr18 H324 C552 S24 Br24 N24 O216'
_cell_volume   22328.86684018
_cell_formula_units_Z   6
loop_
 _symmetry_equiv_pos_site_id
 _symmetry_equiv_pos_as_xyz
  1  'x, y, z'
loop_
 _atom_site_type_symbol
 _atom_site_label
 _atom_site_symmetry_multiplicity
 _atom_site_fract_x
 _atom_site_fract_y
 _atom_site_fract_z
 _atom_site_occupancy
 _atom_site_charge
Zr  Zr1  1  0.54847000  0.00000000  0.10497000  1.0 1.3160776707
Zr  Zr2  1  0.45153000  0.45153000  0.10497000  1.0 1.3109099331
Zr  Zr3  1  0.00000000  0.54847000  0.10497000  1.0 1.3109099331
Zr  Zr4  1  0.45153000  0.00000000  0.10497000  1.0 1.3160776707
Zr  Zr5  1  0.54847000  0.54847000  0.10497000  1.0 1.3109099331
Zr  Zr6  1  0.00000000  0.45153000  0.10497000  1.0 1.3109099331
Zr  Zr7  1  0.54847000  0.00000000  0.89503000  1.0 1.3160776707
Zr  Zr8  1  0.00000000  0.54847000  0.89503000  1.0 1.3109099331
Zr  Zr9  1  0.45153000  0.45153000  0.89503000  1.0 1.3109099331
Zr  Zr10  1  0.45153000  0.00000000  0.89503000  1.0 1.3160776707
Zr  Zr11  1  0.00000000  0.45153000  0.89503000  1.0 1.3109099331
Zr  Zr12  1  0.54847000  0.54847000  0.89503000  1.0 1.3109099331
Zr  Zr13  1  0.53600000  0.07200000  0.00000000  1.0 1.7000833861
Zr  Zr14  1  0.53600000  0.46400000  0.00000000  1.0 1.7000833861
Zr  Zr15  1  0.92800000  0.46400000  0.00000000  1.0 1.7000833861
Zr  Zr16  1  0.46400000  0.92800000  0.00000000  1.0 1.7000833861
Zr  Zr17  1  0.46400000  0.53600000  0.00000000  1.0 1.7000833861
Zr  Zr18  1  0.07200000  0.53600000  0.00000000  1.0 1.7000833861
H  H1  1  0.83157000  0.33157000  0.42883000  1.0 0.1031175652
H  H2  1  0.85700000  0.30975000  0.34270000  1.0 0.1086530279
H  H3  1  0.90817000  0.36092000  0.27153000  1.0 0.1204844279
H  H4  1  0.83019000  0.37743000  0.14331000  1.0 0.1204844279
H  H5  1  0.77902000  0.32626000  0.21448000  1.0 0.1031175652
H  H6  1  0.46664000  0.01287000  0.39175000  1.0 0.132195084
H  H7  1  0.42972000  0.97694000  0.50381000  1.0 0.1443379732
H  H8  1  0.41114000  0.94295000  0.68418000  1.0 0.0697657157
H  H9  1  0.42246000  0.87918000  0.40823000  1.0 0.0859628058
H  H10  1  0.45938000  0.91512000  0.29617000  1.0 0.0697657157
H  H11  1  0.37963000  0.90847000  0.55010000  1.0 0.1086530279
H  H12  1  0.38670000  0.87460000  0.52638000  1.0 0.0697657157
H  H13  1  0.45659000  0.88765000  0.56295000  1.0 0.0859628058
H  H14  1  0.50000000  0.16843000  0.42883000  1.0 0.1031175652
H  H15  1  0.45275000  0.14300000  0.34270000  1.0 0.1086530279
H  H16  1  0.45275000  0.09183000  0.27153000  1.0 0.1204844279
H  H17  1  0.54724000  0.16981000  0.14331000  1.0 0.1204844279
H  H18  1  0.54724000  0.22098000  0.21448000  1.0 0.1031175652
H  H19  1  0.54623000  0.53336000  0.39175000  1.0 0.132195084
H  H20  1  0.54722000  0.57028000  0.50381000  1.0 0.1443379732
H  H21  1  0.53181000  0.58886000  0.68418000  1.0 0.0697657157
H  H22  1  0.45672000  0.57754000  0.40823000  1.0 0.0859628058
H  H23  1  0.45574000  0.54062000  0.29617000  1.0 0.0697657157
H  H24  1  0.52884000  0.62037000  0.55010000  1.0 0.1086530279
H  H25  1  0.48790000  0.61330000  0.52638000  1.0 0.0697657157
H  H26  1  0.43106000  0.54341000  0.56295000  1.0 0.0859628058
H  H27  1  0.66843000  0.50000000  0.42883000  1.0 0.1031175652
H  H28  1  0.69025000  0.54725000  0.34270000  1.0 0.1086530279
H  H29  1  0.63908000  0.54725000  0.27153000  1.0 0.1204844279
H  H30  1  0.62257000  0.45276000  0.14331000  1.0 0.1204844279
H  H31  1  0.67374000  0.45276000  0.21448000  1.0 0.1031175652
H  H32  1  0.98713000  0.45377000  0.39175000  1.0 0.132195084
H  H33  1  0.02306000  0.45278000  0.50381000  1.0 0.1443379732
H  H34  1  0.05705000  0.46819000  0.68418000  1.0 0.0697657157
H  H35  1  0.12082000  0.54328000  0.40823000  1.0 0.0859628058
H  H36  1  0.08488000  0.54426000  0.29617000  1.0 0.0697657157
H  H37  1  0.09153000  0.47116000  0.55010000  1.0 0.1086530279
H  H38  1  0.12540000  0.51210000  0.52638000  1.0 0.0697657157
H  H39  1  0.11235000  0.56894000  0.56295000  1.0 0.0859628058
H  H40  1  0.16843000  0.66843000  0.42883000  1.0 0.1031175652
H  H41  1  0.14300000  0.69025000  0.34270000  1.0 0.1086530279
H  H42  1  0.09183000  0.63908000  0.27153000  1.0 0.1204844279
H  H43  1  0.16981000  0.62257000  0.14331000  1.0 0.1204844279
H  H44  1  0.22098000  0.67374000  0.21448000  1.0 0.1031175652
H  H45  1  0.53336000  0.98713000  0.39175000  1.0 0.132195084
H  H46  1  0.57028000  0.02306000  0.50381000  1.0 0.1443379732
H  H47  1  0.58886000  0.05705000  0.68418000  1.0 0.0697657157
H  H48  1  0.57754000  0.12082000  0.40823000  1.0 0.0859628058
H  H49  1  0.54062000  0.08488000  0.29617000  1.0 0.0697657157
H  H50  1  0.62037000  0.09153000  0.55010000  1.0 0.1086530279
H  H51  1  0.61330000  0.12540000  0.52638000  1.0 0.0697657157
H  H52  1  0.54341000  0.11235000  0.56295000  1.0 0.0859628058
H  H53  1  0.50000000  0.83157000  0.42883000  1.0 0.1031175652
H  H54  1  0.54725000  0.85700000  0.34270000  1.0 0.1086530279
H  H55  1  0.54725000  0.90817000  0.27153000  1.0 0.1204844279
H  H56  1  0.45276000  0.83019000  0.14331000  1.0 0.1204844279
H  H57  1  0.45276000  0.77902000  0.21448000  1.0 0.1031175652
H  H58  1  0.45377000  0.46664000  0.39175000  1.0 0.132195084
H  H59  1  0.45278000  0.42972000  0.50381000  1.0 0.1443379732
H  H60  1  0.46819000  0.41114000  0.68418000  1.0 0.0697657157
H  H61  1  0.54328000  0.42246000  0.40823000  1.0 0.0859628058
H  H62  1  0.54426000  0.45938000  0.29617000  1.0 0.0697657157
H  H63  1  0.47116000  0.37963000  0.55010000  1.0 0.1086530279
H  H64  1  0.51210000  0.38670000  0.52638000  1.0 0.0697657157
H  H65  1  0.56894000  0.45659000  0.56295000  1.0 0.0859628058
H  H66  1  0.33157000  0.50000000  0.42883000  1.0 0.1031175652
H  H67  1  0.30975000  0.45275000  0.34270000  1.0 0.1086530279
H  H68  1  0.36092000  0.45275000  0.27153000  1.0 0.1204844279
H  H69  1  0.37743000  0.54724000  0.14331000  1.0 0.1204844279
H  H70  1  0.32626000  0.54724000  0.21448000  1.0 0.1031175652
H  H71  1  0.01287000  0.54623000  0.39175000  1.0 0.132195084
H  H72  1  0.97694000  0.54722000  0.50381000  1.0 0.1443379732
H  H73  1  0.94295000  0.53181000  0.68418000  1.0 0.0697657157
H  H74  1  0.87918000  0.45672000  0.40823000  1.0 0.0859628058
H  H75  1  0.91512000  0.45574000  0.29617000  1.0 0.0697657157
H  H76  1  0.90847000  0.52884000  0.55010000  1.0 0.1086530279
H  H77  1  0.87460000  0.48790000  0.52638000  1.0 0.0697657157
H  H78  1  0.88765000  0.43106000  0.56295000  1.0 0.0859628058
H  H79  1  0.50000000  0.66843000  0.57117000  1.0 0.1031175652
H  H80  1  0.54725000  0.69025000  0.65730000  1.0 0.1086530279
H  H81  1  0.54725000  0.63908000  0.72847000  1.0 0.1204844279
H  H82  1  0.45276000  0.62257000  0.85669000  1.0 0.1204844279
H  H83  1  0.45276000  0.67374000  0.78552000  1.0 0.1031175652
H  H84  1  0.45377000  0.98713000  0.60825000  1.0 0.132195084
H  H85  1  0.45278000  0.02306000  0.49619000  1.0 0.1443379732
H  H86  1  0.46819000  0.05705000  0.31582000  1.0 0.0697657157
H  H87  1  0.54328000  0.12082000  0.59177000  1.0 0.0859628058
H  H88  1  0.54426000  0.08488000  0.70383000  1.0 0.0697657157
H  H89  1  0.47116000  0.09153000  0.44990000  1.0 0.1086530279
H  H90  1  0.51210000  0.12540000  0.47362000  1.0 0.0697657157
H  H91  1  0.56894000  0.11235000  0.43705000  1.0 0.0859628058
H  H92  1  0.33157000  0.83157000  0.57117000  1.0 0.1031175652
H  H93  1  0.30975000  0.85700000  0.65730000  1.0 0.1086530279
H  H94  1  0.36092000  0.90817000  0.72847000  1.0 0.1204844279
H  H95  1  0.37743000  0.83019000  0.85669000  1.0 0.1204844279
H  H96  1  0.32626000  0.77902000  0.78552000  1.0 0.1031175652
H  H97  1  0.01287000  0.46664000  0.60825000  1.0 0.132195084
H  H98  1  0.97694000  0.42972000  0.49619000  1.0 0.1443379732
H  H99  1  0.94295000  0.41114000  0.31582000  1.0 0.0697657157
H  H100  1  0.87918000  0.42246000  0.59177000  1.0 0.0859628058
H  H101  1  0.91512000  0.45938000  0.70383000  1.0 0.0697657157
H  H102  1  0.90847000  0.37963000  0.44990000  1.0 0.1086530279
H  H103  1  0.87460000  0.38670000  0.47362000  1.0 0.0697657157
H  H104  1  0.88765000  0.45659000  0.43705000  1.0 0.0859628058
H  H105  1  0.16843000  0.50000000  0.57117000  1.0 0.1031175652
H  H106  1  0.14300000  0.45275000  0.65730000  1.0 0.1086530279
H  H107  1  0.09183000  0.45275000  0.72847000  1.0 0.1204844279
H  H108  1  0.16981000  0.54724000  0.85669000  1.0 0.1204844279
H  H109  1  0.22098000  0.54724000  0.78552000  1.0 0.1031175652
H  H110  1  0.53336000  0.54623000  0.60825000  1.0 0.132195084
H  H111  1  0.57028000  0.54722000  0.49619000  1.0 0.1443379732
H  H112  1  0.58886000  0.53181000  0.31582000  1.0 0.0697657157
H  H113  1  0.57754000  0.45672000  0.59177000  1.0 0.0859628058
H  H114  1  0.54062000  0.45574000  0.70383000  1.0 0.0697657157
H  H115  1  0.62037000  0.52884000  0.44990000  1.0 0.1086530279
H  H116  1  0.61330000  0.48790000  0.47362000  1.0 0.0697657157
H  H117  1  0.54341000  0.43106000  0.43705000  1.0 0.0859628058
H  H118  1  0.50000000  0.33157000  0.57117000  1.0 0.1031175652
H  H119  1  0.45275000  0.30975000  0.65730000  1.0 0.1086530279
H  H120  1  0.45275000  0.36092000  0.72847000  1.0 0.1204844279
H  H121  1  0.54724000  0.37743000  0.85669000  1.0 0.1204844279
H  H122  1  0.54724000  0.32626000  0.78552000  1.0 0.1031175652
H  H123  1  0.54623000  0.01287000  0.60825000  1.0 0.132195084
H  H124  1  0.54722000  0.97694000  0.49619000  1.0 0.1443379732
H  H125  1  0.53181000  0.94295000  0.31582000  1.0 0.0697657157
H  H126  1  0.45672000  0.87918000  0.59177000  1.0 0.0859628058
H  H127  1  0.45574000  0.91512000  0.70383000  1.0 0.0697657157
H  H128  1  0.52884000  0.90847000  0.44990000  1.0 0.1086530279
H  H129  1  0.48790000  0.87460000  0.47362000  1.0 0.0697657157
H  H130  1  0.43106000  0.88765000  0.43705000  1.0 0.0859628058
H  H131  1  0.66843000  0.16843000  0.57117000  1.0 0.1031175652
H  H132  1  0.69025000  0.14300000  0.65730000  1.0 0.1086530279
H  H133  1  0.63908000  0.09183000  0.72847000  1.0 0.1204844279
H  H134  1  0.62257000  0.16981000  0.85669000  1.0 0.1204844279
H  H135  1  0.67374000  0.22098000  0.78552000  1.0 0.1031175652
H  H136  1  0.98713000  0.53336000  0.60825000  1.0 0.132195084
H  H137  1  0.02306000  0.57028000  0.49619000  1.0 0.1443379732
H  H138  1  0.05705000  0.58886000  0.31582000  1.0 0.0697657157
H  H139  1  0.12082000  0.57754000  0.59177000  1.0 0.0859628058
H  H140  1  0.08488000  0.54062000  0.70383000  1.0 0.0697657157
H  H141  1  0.09153000  0.62037000  0.44990000  1.0 0.1086530279
H  H142  1  0.12540000  0.61330000  0.47362000  1.0 0.0697657157
H  H143  1  0.11235000  0.54341000  0.43705000  1.0 0.0859628058
H  H144  1  0.83157000  0.50000000  0.57117000  1.0 0.1031175652
H  H145  1  0.85700000  0.54725000  0.65730000  1.0 0.1086530279
H  H146  1  0.90817000  0.54725000  0.72847000  1.0 0.1204844279
H  H147  1  0.83019000  0.45276000  0.85669000  1.0 0.1204844279
H  H148  1  0.77902000  0.45276000  0.78552000  1.0 0.1031175652
H  H149  1  0.46664000  0.45377000  0.60825000  1.0 0.132195084
H  H150  1  0.42972000  0.45278000  0.49619000  1.0 0.1443379732
H  H151  1  0.41114000  0.46819000  0.31582000  1.0 0.0697657157
H  H152  1  0.42246000  0.54328000  0.59177000  1.0 0.0859628058
H  H153  1  0.45938000  0.54426000  0.70383000  1.0 0.0697657157
H  H154  1  0.37963000  0.47116000  0.44990000  1.0 0.1086530279
H  H155  1  0.38670000  0.51210000  0.47362000  1.0 0.0697657157
H  H156  1  0.45659000  0.56894000  0.43705000  1.0 0.0859628058
H  H157  1  0.16843000  0.66843000  0.57117000  1.0 0.1031175652
H  H158  1  0.14300000  0.69025000  0.65730000  1.0 0.1086530279
H  H159  1  0.09183000  0.63908000  0.72847000  1.0 0.1204844279
H  H160  1  0.16981000  0.62257000  0.85669000  1.0 0.1204844279
H  H161  1  0.22098000  0.67374000  0.78552000  1.0 0.1031175652
H  H162  1  0.53336000  0.98713000  0.60825000  1.0 0.132195084
H  H163  1  0.57028000  0.02306000  0.49619000  1.0 0.1443379732
H  H164  1  0.58886000  0.05705000  0.31582000  1.0 0.0697657157
H  H165  1  0.57754000  0.12082000  0.59177000  1.0 0.0859628058
H  H166  1  0.54062000  0.08488000  0.70383000  1.0 0.0697657157
H  H167  1  0.62037000  0.09153000  0.44990000  1.0 0.1086530279
H  H168  1  0.61330000  0.12540000  0.47362000  1.0 0.0697657157
H  H169  1  0.54341000  0.11235000  0.43705000  1.0 0.0859628058
H  H170  1  0.50000000  0.83157000  0.57117000  1.0 0.1031175652
H  H171  1  0.54725000  0.85700000  0.65730000  1.0 0.1086530279
H  H172  1  0.54725000  0.90817000  0.72847000  1.0 0.1204844279
H  H173  1  0.45276000  0.83019000  0.85669000  1.0 0.1204844279
H  H174  1  0.45276000  0.77902000  0.78552000  1.0 0.1031175652
H  H175  1  0.45377000  0.46664000  0.60825000  1.0 0.132195084
H  H176  1  0.45278000  0.42972000  0.49619000  1.0 0.1443379732
H  H177  1  0.46819000  0.41114000  0.31582000  1.0 0.0697657157
H  H178  1  0.54328000  0.42246000  0.59177000  1.0 0.0859628058
H  H179  1  0.54426000  0.45938000  0.70383000  1.0 0.0697657157
H  H180  1  0.47116000  0.37963000  0.44990000  1.0 0.1086530279
H  H181  1  0.51210000  0.38670000  0.47362000  1.0 0.0697657157
H  H182  1  0.56894000  0.45659000  0.43705000  1.0 0.0859628058
H  H183  1  0.33157000  0.50000000  0.57117000  1.0 0.1031175652
H  H184  1  0.30975000  0.45275000  0.65730000  1.0 0.1086530279
H  H185  1  0.36092000  0.45275000  0.72847000  1.0 0.1204844279
H  H186  1  0.37743000  0.54724000  0.85669000  1.0 0.1204844279
H  H187  1  0.32626000  0.54724000  0.78552000  1.0 0.1031175652
H  H188  1  0.01287000  0.54623000  0.60825000  1.0 0.132195084
H  H189  1  0.97694000  0.54722000  0.49619000  1.0 0.1443379732
H  H190  1  0.94295000  0.53181000  0.31582000  1.0 0.0697657157
H  H191  1  0.87918000  0.45672000  0.59177000  1.0 0.0859628058
H  H192  1  0.91512000  0.45574000  0.70383000  1.0 0.0697657157
H  H193  1  0.90847000  0.52884000  0.44990000  1.0 0.1086530279
H  H194  1  0.87460000  0.48790000  0.47362000  1.0 0.0697657157
H  H195  1  0.88765000  0.43106000  0.43705000  1.0 0.0859628058
H  H196  1  0.83157000  0.33157000  0.57117000  1.0 0.1031175652
H  H197  1  0.85700000  0.30975000  0.65730000  1.0 0.1086530279
H  H198  1  0.90817000  0.36092000  0.72847000  1.0 0.1204844279
H  H199  1  0.83019000  0.37743000  0.85669000  1.0 0.1204844279
H  H200  1  0.77902000  0.32626000  0.78552000  1.0 0.1031175652
H  H201  1  0.46664000  0.01287000  0.60825000  1.0 0.132195084
H  H202  1  0.42972000  0.97694000  0.49619000  1.0 0.1443379732
H  H203  1  0.41114000  0.94295000  0.31582000  1.0 0.0697657157
H  H204  1  0.42246000  0.87918000  0.59177000  1.0 0.0859628058
H  H205  1  0.45938000  0.91512000  0.70383000  1.0 0.0697657157
H  H206  1  0.37963000  0.90847000  0.44990000  1.0 0.1086530279
H  H207  1  0.38670000  0.87460000  0.47362000  1.0 0.0697657157
H  H208  1  0.45659000  0.88765000  0.43705000  1.0 0.0859628058
H  H209  1  0.50000000  0.16843000  0.57117000  1.0 0.1031175652
H  H210  1  0.45275000  0.14300000  0.65730000  1.0 0.1086530279
H  H211  1  0.45275000  0.09183000  0.72847000  1.0 0.1204844279
H  H212  1  0.54724000  0.16981000  0.85669000  1.0 0.1204844279
H  H213  1  0.54724000  0.22098000  0.78552000  1.0 0.1031175652
H  H214  1  0.54623000  0.53336000  0.60825000  1.0 0.132195084
H  H215  1  0.54722000  0.57028000  0.49619000  1.0 0.1443379732
H  H216  1  0.53181000  0.58886000  0.31582000  1.0 0.0697657157
H  H217  1  0.45672000  0.57754000  0.59177000  1.0 0.0859628058
H  H218  1  0.45574000  0.54062000  0.70383000  1.0 0.0697657157
H  H219  1  0.52884000  0.62037000  0.44990000  1.0 0.1086530279
H  H220  1  0.48790000  0.61330000  0.47362000  1.0 0.0697657157
H  H221  1  0.43106000  0.54341000  0.43705000  1.0 0.0859628058
H  H222  1  0.66843000  0.50000000  0.57117000  1.0 0.1031175652
H  H223  1  0.69025000  0.54725000  0.65730000  1.0 0.1086530279
H  H224  1  0.63908000  0.54725000  0.72847000  1.0 0.1204844279
H  H225  1  0.62257000  0.45276000  0.85669000  1.0 0.1204844279
H  H226  1  0.67374000  0.45276000  0.78552000  1.0 0.1031175652
H  H227  1  0.98713000  0.45377000  0.60825000  1.0 0.132195084
H  H228  1  0.02306000  0.45278000  0.49619000  1.0 0.1443379732
H  H229  1  0.05705000  0.46819000  0.31582000  1.0 0.0697657157
H  H230  1  0.12082000  0.54328000  0.59177000  1.0 0.0859628058
H  H231  1  0.08488000  0.54426000  0.70383000  1.0 0.0697657157
H  H232  1  0.09153000  0.47116000  0.44990000  1.0 0.1086530279
H  H233  1  0.12540000  0.51210000  0.47362000  1.0 0.0697657157
H  H234  1  0.11235000  0.56894000  0.43705000  1.0 0.0859628058
H  H235  1  0.50000000  0.33157000  0.42883000  1.0 0.1031175652
H  H236  1  0.45275000  0.30975000  0.34270000  1.0 0.1086530279
H  H237  1  0.45275000  0.36092000  0.27153000  1.0 0.1204844279
H  H238  1  0.54724000  0.37743000  0.14331000  1.0 0.1204844279
H  H239  1  0.54724000  0.32626000  0.21448000  1.0 0.1031175652
H  H240  1  0.54623000  0.01287000  0.39175000  1.0 0.132195084
H  H241  1  0.54722000  0.97694000  0.50381000  1.0 0.1443379732
H  H242  1  0.53181000  0.94295000  0.68418000  1.0 0.0697657157
H  H243  1  0.45672000  0.87918000  0.40823000  1.0 0.0859628058
H  H244  1  0.45574000  0.91512000  0.29617000  1.0 0.0697657157
H  H245  1  0.52884000  0.90847000  0.55010000  1.0 0.1086530279
H  H246  1  0.48790000  0.87460000  0.52638000  1.0 0.0697657157
H  H247  1  0.43106000  0.88765000  0.56295000  1.0 0.0859628058
H  H248  1  0.66843000  0.16843000  0.42883000  1.0 0.1031175652
H  H249  1  0.69025000  0.14300000  0.34270000  1.0 0.1086530279
H  H250  1  0.63908000  0.09183000  0.27153000  1.0 0.1204844279
H  H251  1  0.62257000  0.16981000  0.14331000  1.0 0.1204844279
H  H252  1  0.67374000  0.22098000  0.21448000  1.0 0.1031175652
H  H253  1  0.98713000  0.53336000  0.39175000  1.0 0.132195084
H  H254  1  0.02306000  0.57028000  0.50381000  1.0 0.1443379732
H  H255  1  0.05705000  0.58886000  0.68418000  1.0 0.0697657157
H  H256  1  0.12082000  0.57754000  0.40823000  1.0 0.0859628058
H  H257  1  0.08488000  0.54062000  0.29617000  1.0 0.0697657157
H  H258  1  0.09153000  0.62037000  0.55010000  1.0 0.1086530279
H  H259  1  0.12540000  0.61330000  0.52638000  1.0 0.0697657157
H  H260  1  0.11235000  0.54341000  0.56295000  1.0 0.0859628058
H  H261  1  0.83157000  0.50000000  0.42883000  1.0 0.1031175652
H  H262  1  0.85700000  0.54725000  0.34270000  1.0 0.1086530279
H  H263  1  0.90817000  0.54725000  0.27153000  1.0 0.1204844279
H  H264  1  0.83019000  0.45276000  0.14331000  1.0 0.1204844279
H  H265  1  0.77902000  0.45276000  0.21448000  1.0 0.1031175652
H  H266  1  0.46664000  0.45377000  0.39175000  1.0 0.132195084
H  H267  1  0.42972000  0.45278000  0.50381000  1.0 0.1443379732
H  H268  1  0.41114000  0.46819000  0.68418000  1.0 0.0697657157
H  H269  1  0.42246000  0.54328000  0.40823000  1.0 0.0859628058
H  H270  1  0.45938000  0.54426000  0.29617000  1.0 0.0697657157
H  H271  1  0.37963000  0.47116000  0.55010000  1.0 0.1086530279
H  H272  1  0.38670000  0.51210000  0.52638000  1.0 0.0697657157
H  H273  1  0.45659000  0.56894000  0.56295000  1.0 0.0859628058
H  H274  1  0.50000000  0.66843000  0.42883000  1.0 0.1031175652
H  H275  1  0.54725000  0.69025000  0.34270000  1.0 0.1086530279
H  H276  1  0.54725000  0.63908000  0.27153000  1.0 0.1204844279
H  H277  1  0.45276000  0.62257000  0.14331000  1.0 0.1204844279
H  H278  1  0.45276000  0.67374000  0.21448000  1.0 0.1031175652
H  H279  1  0.45377000  0.98713000  0.39175000  1.0 0.132195084
H  H280  1  0.45278000  0.02306000  0.50381000  1.0 0.1443379732
H  H281  1  0.46819000  0.05705000  0.68418000  1.0 0.0697657157
H  H282  1  0.54328000  0.12082000  0.40823000  1.0 0.0859628058
H  H283  1  0.54426000  0.08488000  0.29617000  1.0 0.0697657157
H  H284  1  0.47116000  0.09153000  0.55010000  1.0 0.1086530279
H  H285  1  0.51210000  0.12540000  0.52638000  1.0 0.0697657157
H  H286  1  0.56894000  0.11235000  0.56295000  1.0 0.0859628058
H  H287  1  0.33157000  0.83157000  0.42883000  1.0 0.1031175652
H  H288  1  0.30975000  0.85700000  0.34270000  1.0 0.1086530279
H  H289  1  0.36092000  0.90817000  0.27153000  1.0 0.1204844279
H  H290  1  0.37743000  0.83019000  0.14331000  1.0 0.1204844279
H  H291  1  0.32626000  0.77902000  0.21448000  1.0 0.1031175652
H  H292  1  0.01287000  0.46664000  0.39175000  1.0 0.132195084
H  H293  1  0.97694000  0.42972000  0.50381000  1.0 0.1443379732
H  H294  1  0.94295000  0.41114000  0.68418000  1.0 0.0697657157
H  H295  1  0.87918000  0.42246000  0.40823000  1.0 0.0859628058
H  H296  1  0.91512000  0.45938000  0.29617000  1.0 0.0697657157
H  H297  1  0.90847000  0.37963000  0.55010000  1.0 0.1086530279
H  H298  1  0.87460000  0.38670000  0.52638000  1.0 0.0697657157
H  H299  1  0.88765000  0.45659000  0.56295000  1.0 0.0859628058
H  H300  1  0.16843000  0.50000000  0.42883000  1.0 0.1031175652
H  H301  1  0.14300000  0.45275000  0.34270000  1.0 0.1086530279
H  H302  1  0.09183000  0.45275000  0.27153000  1.0 0.1204844279
H  H303  1  0.16981000  0.54724000  0.14331000  1.0 0.1204844279
H  H304  1  0.22098000  0.54724000  0.21448000  1.0 0.1031175652
H  H305  1  0.53336000  0.54623000  0.39175000  1.0 0.132195084
H  H306  1  0.57028000  0.54722000  0.50381000  1.0 0.1443379732
H  H307  1  0.58886000  0.53181000  0.68418000  1.0 0.0697657157
H  H308  1  0.57754000  0.45672000  0.40823000  1.0 0.0859628058
H  H309  1  0.54062000  0.45574000  0.29617000  1.0 0.0697657157
H  H310  1  0.62037000  0.52884000  0.55010000  1.0 0.1086530279
H  H311  1  0.61330000  0.48790000  0.52638000  1.0 0.0697657157
H  H312  1  0.54341000  0.43106000  0.56295000  1.0 0.0859628058
H  H313  1  0.75000000  0.25000000  0.23084000  1.0 0.1204844279
H  H314  1  0.50000000  0.25000000  0.23084000  1.0 0.1204844279
H  H315  1  0.75000000  0.50000000  0.23084000  1.0 0.1204844279
H  H316  1  0.25000000  0.75000000  0.23084000  1.0 0.1204844279
H  H317  1  0.50000000  0.75000000  0.23084000  1.0 0.1204844279
H  H318  1  0.25000000  0.50000000  0.23084000  1.0 0.1204844279
H  H319  1  0.50000000  0.75000000  0.76916000  1.0 0.1204844279
H  H320  1  0.25000000  0.75000000  0.76916000  1.0 0.1204844279
H  H321  1  0.25000000  0.50000000  0.76916000  1.0 0.1204844279
H  H322  1  0.50000000  0.25000000  0.76916000  1.0 0.1204844279
H  H323  1  0.75000000  0.25000000  0.76916000  1.0 0.1204844279
H  H324  1  0.75000000  0.50000000  0.76916000  1.0 0.1204844279
C  C1  1  0.78040000  0.28040000  0.41545000  1.0 0.0309496368
C  C2  1  0.78040000  0.28040000  0.33090000  1.0 0.0222811725
C  C3  1  0.81320000  0.31320000  0.28528000  1.0 0.0783437821
C  C4  1  0.80524000  0.33333333  0.22606000  1.0 -0.1185300506
C  C5  1  0.85156000  0.32350000  0.30222000  1.0 -0.1185300506
C  C6  1  0.88195000  0.35389000  0.25995000  1.0 -0.1897839537
C  C7  1  0.87399000  0.37399000  0.20073000  1.0 -0.1723600223
C  C8  1  0.83563000  0.36369000  0.18378000  1.0 -0.0788982135
C  C9  1  0.81079000  0.31079000  0.45772000  1.0 -0.1897839537
C  C10  1  0.90679000  0.40679000  0.15511000  1.0 0.4096239718
C  C11  1  0.49014000  0.99040000  0.26159000  1.0 0.1586112535
C  C12  1  0.46648000  0.96737000  0.33342000  1.0 -0.0379634344
C  C13  1  0.45767000  0.98573000  0.39509000  1.0 0.0309496368
C  C14  1  0.43574000  0.96439000  0.46166000  1.0 -0.1370866833
C  C15  1  0.42262000  0.92468000  0.46655000  1.0 -0.0788982135
C  C16  1  0.43143000  0.90632000  0.40488000  1.0 0.010294561
C  C17  1  0.45336000  0.92767000  0.33832000  1.0 -0.0170760154
C  C18  1  0.39896000  0.90165000  0.53839000  1.0 -0.1185300506
C  C19  1  0.43009000  0.93582000  0.67094000  1.0 -0.1270615316
C  C20  1  0.46456000  0.94969000  0.70976000  1.0 -0.0099554069
C  C21  1  0.45571000  0.90464000  0.60260000  1.0 -0.0788982135
C  C22  1  0.48683000  0.98583000  0.76012000  1.0 0.1086530279
C  C23  1  0.50000000  0.21960000  0.41545000  1.0 0.0309496368
C  C24  1  0.50000000  0.21960000  0.33090000  1.0 0.0222811725
C  C25  1  0.50000000  0.18680000  0.28528000  1.0 0.0783437821
C  C26  1  0.52809000  0.19476000  0.22606000  1.0 -0.1185300506
C  C27  1  0.47194000  0.14844000  0.30222000  1.0 -0.1185300506
C  C28  1  0.47194000  0.11805000  0.25995000  1.0 -0.1897839537
C  C29  1  0.50000000  0.12601000  0.20073000  1.0 -0.1723600223
C  C30  1  0.52806000  0.16437000  0.18378000  1.0 -0.0788982135
C  C31  1  0.50000000  0.18921000  0.45772000  1.0 -0.1897839537
C  C32  1  0.50000000  0.09321000  0.15511000  1.0 0.4096239718
C  C33  1  0.50026000  0.50986000  0.26159000  1.0 0.1586112535
C  C34  1  0.50089000  0.53352000  0.33342000  1.0 -0.0379634344
C  C35  1  0.52806000  0.54233000  0.39509000  1.0 0.0309496368
C  C36  1  0.52865000  0.56426000  0.46166000  1.0 -0.1370866833
C  C37  1  0.50206000  0.57738000  0.46655000  1.0 -0.0788982135
C  C38  1  0.47489000  0.56857000  0.40488000  1.0 0.010294561
C  C39  1  0.47431000  0.54664000  0.33832000  1.0 -0.0170760154
C  C40  1  0.50269000  0.60104000  0.53839000  1.0 -0.1185300506
C  C41  1  0.50573000  0.56991000  0.67094000  1.0 -0.1270615316
C  C42  1  0.48513000  0.53544000  0.70976000  1.0 -0.0099554069
C  C43  1  0.44893000  0.54429000  0.60260000  1.0 -0.0788982135
C  C44  1  0.49900000  0.51317000  0.76012000  1.0 0.1086530279
C  C45  1  0.71960000  0.50000000  0.41545000  1.0 0.0309496368
C  C46  1  0.71960000  0.50000000  0.33090000  1.0 0.0222811725
C  C47  1  0.68680000  0.50000000  0.28528000  1.0 0.0783437821
C  C48  1  0.66666667  0.47191000  0.22606000  1.0 -0.1185300506
C  C49  1  0.67650000  0.52806000  0.30222000  1.0 -0.1185300506
C  C50  1  0.64611000  0.52806000  0.25995000  1.0 -0.1897839537
C  C51  1  0.62601000  0.50000000  0.20073000  1.0 -0.1723600223
C  C52  1  0.63631000  0.47194000  0.18378000  1.0 -0.0788982135
C  C53  1  0.68921000  0.50000000  0.45772000  1.0 -0.1897839537
C  C54  1  0.59321000  0.50000000  0.15511000  1.0 0.4096239718
C  C55  1  0.00960000  0.49974000  0.26159000  1.0 0.1586112535
C  C56  1  0.03263000  0.49911000  0.33342000  1.0 -0.0379634344
C  C57  1  0.01427000  0.47194000  0.39509000  1.0 0.0309496368
C  C58  1  0.03561000  0.47135000  0.46166000  1.0 -0.1370866833
C  C59  1  0.07532000  0.49794000  0.46655000  1.0 -0.0788982135
C  C60  1  0.09368000  0.52511000  0.40488000  1.0 0.010294561
C  C61  1  0.07233000  0.52569000  0.33832000  1.0 -0.0170760154
C  C62  1  0.09835000  0.49731000  0.53839000  1.0 -0.1185300506
C  C63  1  0.06418000  0.49427000  0.67094000  1.0 -0.1270615316
C  C64  1  0.05031000  0.51487000  0.70976000  1.0 -0.0099554069
C  C65  1  0.09536000  0.55107000  0.60260000  1.0 -0.0788982135
C  C66  1  0.01417000  0.50100000  0.76012000  1.0 0.1031175652
C  C67  1  0.21960000  0.71960000  0.41545000  1.0 0.0309496368
C  C68  1  0.21960000  0.71960000  0.33090000  1.0 0.0222811725
C  C69  1  0.18680000  0.68680000  0.28528000  1.0 0.0783437821
C  C70  1  0.19476000  0.66666667  0.22606000  1.0 -0.1185300506
C  C71  1  0.14844000  0.67650000  0.30222000  1.0 -0.1185300506
C  C72  1  0.11805000  0.64611000  0.25995000  1.0 -0.1897839537
C  C73  1  0.12601000  0.62601000  0.20073000  1.0 -0.1723600223
C  C74  1  0.16437000  0.63631000  0.18378000  1.0 -0.0788982135
C  C75  1  0.18921000  0.68921000  0.45772000  1.0 -0.1897839537
C  C76  1  0.09321000  0.59321000  0.15511000  1.0 0.4096239718
C  C77  1  0.50986000  0.00960000  0.26159000  1.0 0.1586112535
C  C78  1  0.53352000  0.03263000  0.33342000  1.0 -0.0379634344
C  C79  1  0.54233000  0.01427000  0.39509000  1.0 0.0309496368
C  C80  1  0.56426000  0.03561000  0.46166000  1.0 -0.1370866833
C  C81  1  0.57738000  0.07532000  0.46655000  1.0 -0.0788982135
C  C82  1  0.56857000  0.09368000  0.40488000  1.0 0.010294561
C  C83  1  0.54664000  0.07233000  0.33832000  1.0 -0.0170760154
C  C84  1  0.60104000  0.09835000  0.53839000  1.0 -0.1185300506
C  C85  1  0.56991000  0.06418000  0.67094000  1.0 -0.1270615316
C  C86  1  0.53544000  0.05031000  0.70976000  1.0 -0.0099554069
C  C87  1  0.54429000  0.09536000  0.60260000  1.0 -0.0788982135
C  C88  1  0.51317000  0.01417000  0.76012000  1.0 0.1086530279
C  C89  1  0.50000000  0.78040000  0.41545000  1.0 0.0309496368
C  C90  1  0.50000000  0.78040000  0.33090000  1.0 0.0222811725
C  C91  1  0.50000000  0.81320000  0.28528000  1.0 0.0783437821
C  C92  1  0.47191000  0.80524000  0.22606000  1.0 -0.1185300506
C  C93  1  0.52806000  0.85156000  0.30222000  1.0 -0.1185300506
C  C94  1  0.52806000  0.88195000  0.25995000  1.0 -0.1897839537
C  C95  1  0.50000000  0.87399000  0.20073000  1.0 -0.1723600223
C  C96  1  0.47194000  0.83563000  0.18378000  1.0 -0.0788982135
C  C97  1  0.50000000  0.81079000  0.45772000  1.0 -0.1897839537
C  C98  1  0.50000000  0.90679000  0.15511000  1.0 0.4096239718
C  C99  1  0.49974000  0.49014000  0.26159000  1.0 0.1586112535
C  C100  1  0.49911000  0.46648000  0.33342000  1.0 -0.0379634344
C  C101  1  0.47194000  0.45767000  0.39509000  1.0 0.0309496368
C  C102  1  0.47135000  0.43574000  0.46166000  1.0 -0.1370866833
C  C103  1  0.49794000  0.42262000  0.46655000  1.0 -0.0788982135
C  C104  1  0.52511000  0.43143000  0.40488000  1.0 0.010294561
C  C105  1  0.52569000  0.45336000  0.33832000  1.0 -0.0170760154
C  C106  1  0.49731000  0.39896000  0.53839000  1.0 -0.1185300506
C  C107  1  0.49427000  0.43009000  0.67094000  1.0 -0.1270615316
C  C108  1  0.51487000  0.46456000  0.70976000  1.0 -0.0099554069
C  C109  1  0.55107000  0.45571000  0.60260000  1.0 -0.0788982135
C  C110  1  0.50100000  0.48683000  0.76012000  1.0 0.1086530279
C  C111  1  0.28040000  0.50000000  0.41545000  1.0 0.0309496368
C  C112  1  0.28040000  0.50000000  0.33090000  1.0 0.0222811725
C  C113  1  0.31320000  0.50000000  0.28528000  1.0 0.0783437821
C  C114  1  0.33333333  0.52809000  0.22606000  1.0 -0.1185300506
C  C115  1  0.32350000  0.47194000  0.30222000  1.0 -0.1185300506
C  C116  1  0.35389000  0.47194000  0.25995000  1.0 -0.1897839537
C  C117  1  0.37399000  0.50000000  0.20073000  1.0 -0.1723600223
C  C118  1  0.36369000  0.52806000  0.18378000  1.0 -0.0788982135
C  C119  1  0.31079000  0.50000000  0.45772000  1.0 -0.1897839537
C  C120  1  0.40679000  0.50000000  0.15511000  1.0 0.4096239718
C  C121  1  0.99040000  0.50026000  0.26159000  1.0 0.1586112535
C  C122  1  0.96737000  0.50089000  0.33342000  1.0 -0.0379634344
C  C123  1  0.98573000  0.52806000  0.39509000  1.0 0.0309496368
C  C124  1  0.96439000  0.52865000  0.46166000  1.0 -0.1370866833
C  C125  1  0.92468000  0.50206000  0.46655000  1.0 -0.0788982135
C  C126  1  0.90632000  0.47489000  0.40488000  1.0 0.010294561
C  C127  1  0.92767000  0.47431000  0.33832000  1.0 -0.0170760154
C  C128  1  0.90165000  0.50269000  0.53839000  1.0 -0.1185300506
C  C129  1  0.93582000  0.50573000  0.67094000  1.0 -0.1270615316
C  C130  1  0.94969000  0.48513000  0.70976000  1.0 -0.0099554069
C  C131  1  0.90464000  0.44893000  0.60260000  1.0 -0.0788982135
C  C132  1  0.98583000  0.49900000  0.76012000  1.0 0.1086530279
C  C133  1  0.50000000  0.71960000  0.58455000  1.0 0.0309496368
C  C134  1  0.50000000  0.71960000  0.66910000  1.0 0.0222811725
C  C135  1  0.50000000  0.68680000  0.71472000  1.0 0.0783437821
C  C136  1  0.47191000  0.66666667  0.77394000  1.0 -0.1185300506
C  C137  1  0.52806000  0.67650000  0.69778000  1.0 -0.1185300506
C  C138  1  0.52806000  0.64611000  0.74005000  1.0 -0.1897839537
C  C139  1  0.50000000  0.62601000  0.79927000  1.0 -0.1723600223
C  C140  1  0.47194000  0.63631000  0.81622000  1.0 -0.0788982135
C  C141  1  0.50000000  0.68921000  0.54228000  1.0 -0.1897839537
C  C142  1  0.50000000  0.59321000  0.84489000  1.0 0.4096239718
C  C143  1  0.49974000  0.00960000  0.73841000  1.0 0.1586112535
C  C144  1  0.49911000  0.03263000  0.66658000  1.0 -0.0379634344
C  C145  1  0.47194000  0.01427000  0.60491000  1.0 0.0309496368
C  C146  1  0.47135000  0.03561000  0.53834000  1.0 -0.1370866833
C  C147  1  0.49794000  0.07532000  0.53345000  1.0 -0.0788982135
C  C148  1  0.52511000  0.09368000  0.59512000  1.0 0.010294561
C  C149  1  0.52569000  0.07233000  0.66168000  1.0 -0.0170760154
C  C150  1  0.49731000  0.09835000  0.46161000  1.0 -0.1185300506
C  C151  1  0.49427000  0.06418000  0.32906000  1.0 -0.1270615316
C  C152  1  0.51487000  0.05031000  0.29024000  1.0 -0.0099554069
C  C153  1  0.55107000  0.09536000  0.39740000  1.0 -0.0788982135
C  C154  1  0.50100000  0.01417000  0.23988000  1.0 0.1086530279
C  C155  1  0.28040000  0.78040000  0.58455000  1.0 0.0309496368
C  C156  1  0.28040000  0.78040000  0.66910000  1.0 0.0222811725
C  C157  1  0.31320000  0.81320000  0.71472000  1.0 0.0783437821
C  C158  1  0.33333333  0.80524000  0.77394000  1.0 -0.1185300506
C  C159  1  0.32350000  0.85156000  0.69778000  1.0 -0.1185300506
C  C160  1  0.35389000  0.88195000  0.74005000  1.0 -0.1897839537
C  C161  1  0.37399000  0.87399000  0.79927000  1.0 -0.1723600223
C  C162  1  0.36369000  0.83563000  0.81622000  1.0 -0.0788982135
C  C163  1  0.31079000  0.81079000  0.54228000  1.0 -0.1897839537
C  C164  1  0.40679000  0.90679000  0.84489000  1.0 0.4096239718
C  C165  1  0.99040000  0.49014000  0.73841000  1.0 0.1586112535
C  C166  1  0.96737000  0.46648000  0.66658000  1.0 -0.0379634344
C  C167  1  0.98573000  0.45767000  0.60491000  1.0 0.0309496368
C  C168  1  0.96439000  0.43574000  0.53834000  1.0 -0.1370866833
C  C169  1  0.92468000  0.42262000  0.53345000  1.0 -0.0788982135
C  C170  1  0.90632000  0.43143000  0.59512000  1.0 0.010294561
C  C171  1  0.92767000  0.45336000  0.66168000  1.0 -0.0170760154
C  C172  1  0.90165000  0.39896000  0.46161000  1.0 -0.1185300506
C  C173  1  0.93582000  0.43009000  0.32906000  1.0 -0.1270615316
C  C174  1  0.94969000  0.46456000  0.29024000  1.0 -0.0099554069
C  C175  1  0.90464000  0.45571000  0.39740000  1.0 -0.0788982135
C  C176  1  0.98583000  0.48683000  0.23988000  1.0 0.1086530279
C  C177  1  0.21960000  0.50000000  0.58455000  1.0 0.0309496368
C  C178  1  0.21960000  0.50000000  0.66910000  1.0 0.0222811725
C  C179  1  0.18680000  0.50000000  0.71472000  1.0 0.0783437821
C  C180  1  0.19476000  0.52809000  0.77394000  1.0 -0.1185300506
C  C181  1  0.14844000  0.47194000  0.69778000  1.0 -0.1185300506
C  C182  1  0.11805000  0.47194000  0.74005000  1.0 -0.1897839537
C  C183  1  0.12601000  0.50000000  0.79927000  1.0 -0.1723600223
C  C184  1  0.16437000  0.52806000  0.81622000  1.0 -0.0788982135
C  C185  1  0.18921000  0.50000000  0.54228000  1.0 -0.1897839537
C  C186  1  0.09321000  0.50000000  0.84489000  1.0 0.4096239718
C  C187  1  0.50986000  0.50026000  0.73841000  1.0 0.1586112535
C  C188  1  0.53352000  0.50089000  0.66658000  1.0 -0.0379634344
C  C189  1  0.54233000  0.52806000  0.60491000  1.0 0.0309496368
C  C190  1  0.56426000  0.52865000  0.53834000  1.0 -0.1370866833
C  C191  1  0.57738000  0.50206000  0.53345000  1.0 -0.0788982135
C  C192  1  0.56857000  0.47489000  0.59512000  1.0 0.010294561
C  C193  1  0.54664000  0.47431000  0.66168000  1.0 -0.0170760154
C  C194  1  0.60104000  0.50269000  0.46161000  1.0 -0.1185300506
C  C195  1  0.56991000  0.50573000  0.32906000  1.0 -0.1270615316
C  C196  1  0.53544000  0.48513000  0.29024000  1.0 -0.0099554069
C  C197  1  0.54429000  0.44893000  0.39740000  1.0 -0.0788982135
C  C198  1  0.51317000  0.49900000  0.23988000  1.0 0.1086530279
C  C199  1  0.50000000  0.28040000  0.58455000  1.0 0.0309496368
C  C200  1  0.50000000  0.28040000  0.66910000  1.0 0.0222811725
C  C201  1  0.50000000  0.31320000  0.71472000  1.0 0.0783437821
C  C202  1  0.52809000  0.33333333  0.77394000  1.0 -0.1185300506
C  C203  1  0.47194000  0.32350000  0.69778000  1.0 -0.1185300506
C  C204  1  0.47194000  0.35389000  0.74005000  1.0 -0.1897839537
C  C205  1  0.50000000  0.37399000  0.79927000  1.0 -0.1723600223
C  C206  1  0.52806000  0.36369000  0.81622000  1.0 -0.0788982135
C  C207  1  0.50000000  0.31079000  0.54228000  1.0 -0.1897839537
C  C208  1  0.50000000  0.40679000  0.84489000  1.0 0.4096239718
C  C209  1  0.50026000  0.99040000  0.73841000  1.0 0.1586112535
C  C210  1  0.50089000  0.96737000  0.66658000  1.0 -0.0379634344
C  C211  1  0.52806000  0.98573000  0.60491000  1.0 0.0309496368
C  C212  1  0.52865000  0.96439000  0.53834000  1.0 -0.1370866833
C  C213  1  0.50206000  0.92468000  0.53345000  1.0 -0.0788982135
C  C214  1  0.47489000  0.90632000  0.59512000  1.0 0.010294561
C  C215  1  0.47431000  0.92767000  0.66168000  1.0 -0.0170760154
C  C216  1  0.50269000  0.90165000  0.46161000  1.0 -0.1185300506
C  C217  1  0.50573000  0.93582000  0.32906000  1.0 -0.1270615316
C  C218  1  0.48513000  0.94969000  0.29024000  1.0 -0.0099554069
C  C219  1  0.44893000  0.90464000  0.39740000  1.0 -0.0788982135
C  C220  1  0.49900000  0.98583000  0.23988000  1.0 0.1086530279
C  C221  1  0.71960000  0.21960000  0.58455000  1.0 0.0309496368
C  C222  1  0.71960000  0.21960000  0.66910000  1.0 0.0222811725
C  C223  1  0.68680000  0.18680000  0.71472000  1.0 0.0783437821
C  C224  1  0.66666667  0.19476000  0.77394000  1.0 -0.1185300506
C  C225  1  0.67650000  0.14844000  0.69778000  1.0 -0.1185300506
C  C226  1  0.64611000  0.11805000  0.74005000  1.0 -0.1897839537
C  C227  1  0.62601000  0.12601000  0.79927000  1.0 -0.1723600223
C  C228  1  0.63631000  0.16437000  0.81622000  1.0 -0.0788982135
C  C229  1  0.68921000  0.18921000  0.54228000  1.0 -0.1897839537
C  C230  1  0.59321000  0.09321000  0.84489000  1.0 0.4096239718
C  C231  1  0.00960000  0.50986000  0.73841000  1.0 0.1586112535
C  C232  1  0.03263000  0.53352000  0.66658000  1.0 -0.0379634344
C  C233  1  0.01427000  0.54233000  0.60491000  1.0 0.0309496368
C  C234  1  0.03561000  0.56426000  0.53834000  1.0 -0.1370866833
C  C235  1  0.07532000  0.57738000  0.53345000  1.0 -0.0788982135
C  C236  1  0.09368000  0.56857000  0.59512000  1.0 0.010294561
C  C237  1  0.07233000  0.54664000  0.66168000  1.0 -0.0170760154
C  C238  1  0.09835000  0.60104000  0.46161000  1.0 -0.1185300506
C  C239  1  0.06418000  0.56991000  0.32906000  1.0 -0.1270615316
C  C240  1  0.05031000  0.53544000  0.29024000  1.0 -0.0099554069
C  C241  1  0.09536000  0.54429000  0.39740000  1.0 -0.0788982135
C  C242  1  0.01417000  0.51317000  0.23988000  1.0 0.1086530279
C  C243  1  0.78040000  0.50000000  0.58455000  1.0 0.0309496368
C  C244  1  0.78040000  0.50000000  0.66910000  1.0 0.0222811725
C  C245  1  0.81320000  0.50000000  0.71472000  1.0 0.0783437821
C  C246  1  0.80524000  0.47191000  0.77394000  1.0 -0.1185300506
C  C247  1  0.85156000  0.52806000  0.69778000  1.0 -0.1185300506
C  C248  1  0.88195000  0.52806000  0.74005000  1.0 -0.1897839537
C  C249  1  0.87399000  0.50000000  0.79927000  1.0 -0.1723600223
C  C250  1  0.83563000  0.47194000  0.81622000  1.0 -0.0788982135
C  C251  1  0.81079000  0.50000000  0.54228000  1.0 -0.1897839537
C  C252  1  0.90679000  0.50000000  0.84489000  1.0 0.4096239718
C  C253  1  0.49014000  0.49974000  0.73841000  1.0 0.1586112535
C  C254  1  0.46648000  0.49911000  0.66658000  1.0 -0.0379634344
C  C255  1  0.45767000  0.47194000  0.60491000  1.0 0.0309496368
C  C256  1  0.43574000  0.47135000  0.53834000  1.0 -0.1370866833
C  C257  1  0.42262000  0.49794000  0.53345000  1.0 -0.0788982135
C  C258  1  0.43143000  0.52511000  0.59512000  1.0 0.010294561
C  C259  1  0.45336000  0.52569000  0.66168000  1.0 -0.0170760154
C  C260  1  0.39896000  0.49731000  0.46161000  1.0 -0.1185300506
C  C261  1  0.43009000  0.49427000  0.32906000  1.0 -0.1270615316
C  C262  1  0.46456000  0.51487000  0.29024000  1.0 -0.0099554069
C  C263  1  0.45571000  0.55107000  0.39740000  1.0 -0.0788982135
C  C264  1  0.48683000  0.50100000  0.23988000  1.0 0.1086530279
C  C265  1  0.21960000  0.71960000  0.58455000  1.0 0.0309496368
C  C266  1  0.21960000  0.71960000  0.66910000  1.0 0.0222811725
C  C267  1  0.18680000  0.68680000  0.71472000  1.0 0.0783437821
C  C268  1  0.19476000  0.66666667  0.77394000  1.0 -0.1185300506
C  C269  1  0.14844000  0.67650000  0.69778000  1.0 -0.1185300506
C  C270  1  0.11805000  0.64611000  0.74005000  1.0 -0.1897839537
C  C271  1  0.12601000  0.62601000  0.79927000  1.0 -0.1723600223
C  C272  1  0.16437000  0.63631000  0.81622000  1.0 -0.0788982135
C  C273  1  0.18921000  0.68921000  0.54228000  1.0 -0.1897839537
C  C274  1  0.09321000  0.59321000  0.84489000  1.0 0.4096239718
C  C275  1  0.50986000  0.00960000  0.73841000  1.0 0.1586112535
C  C276  1  0.53352000  0.03263000  0.66658000  1.0 -0.0379634344
C  C277  1  0.54233000  0.01427000  0.60491000  1.0 0.0309496368
C  C278  1  0.56426000  0.03561000  0.53834000  1.0 -0.1370866833
C  C279  1  0.57738000  0.07532000  0.53345000  1.0 -0.0788982135
C  C280  1  0.56857000  0.09368000  0.59512000  1.0 0.010294561
C  C281  1  0.54664000  0.07233000  0.66168000  1.0 -0.0170760154
C  C282  1  0.60104000  0.09835000  0.46161000  1.0 -0.1185300506
C  C283  1  0.56991000  0.06418000  0.32906000  1.0 -0.1270615316
C  C284  1  0.53544000  0.05031000  0.29024000  1.0 -0.0099554069
C  C285  1  0.54429000  0.09536000  0.39740000  1.0 -0.0788982135
C  C286  1  0.51317000  0.01417000  0.23988000  1.0 0.1086530279
C  C287  1  0.50000000  0.78040000  0.58455000  1.0 0.0309496368
C  C288  1  0.50000000  0.78040000  0.66910000  1.0 0.0222811725
C  C289  1  0.50000000  0.81320000  0.71472000  1.0 0.0783437821
C  C290  1  0.47191000  0.80524000  0.77394000  1.0 -0.1185300506
C  C291  1  0.52806000  0.85156000  0.69778000  1.0 -0.1185300506
C  C292  1  0.52806000  0.88195000  0.74005000  1.0 -0.1897839537
C  C293  1  0.50000000  0.87399000  0.79927000  1.0 -0.1723600223
C  C294  1  0.47194000  0.83563000  0.81622000  1.0 -0.0788982135
C  C295  1  0.50000000  0.81079000  0.54228000  1.0 -0.1897839537
C  C296  1  0.50000000  0.90679000  0.84489000  1.0 0.4096239718
C  C297  1  0.49974000  0.49014000  0.73841000  1.0 0.1586112535
C  C298  1  0.49911000  0.46648000  0.66658000  1.0 -0.0379634344
C  C299  1  0.47194000  0.45767000  0.60491000  1.0 0.0309496368
C  C300  1  0.47135000  0.43574000  0.53834000  1.0 -0.1370866833
C  C301  1  0.49794000  0.42262000  0.53345000  1.0 -0.0788982135
C  C302  1  0.52511000  0.43143000  0.59512000  1.0 0.010294561
C  C303  1  0.52569000  0.45336000  0.66168000  1.0 -0.0170760154
C  C304  1  0.49731000  0.39896000  0.46161000  1.0 -0.1185300506
C  C305  1  0.49427000  0.43009000  0.32906000  1.0 -0.1270615316
C  C306  1  0.51487000  0.46456000  0.29024000  1.0 -0.0099554069
C  C307  1  0.55107000  0.45571000  0.39740000  1.0 -0.0788982135
C  C308  1  0.50100000  0.48683000  0.23988000  1.0 0.1086530279
C  C309  1  0.28040000  0.50000000  0.58455000  1.0 0.0309496368
C  C310  1  0.28040000  0.50000000  0.66910000  1.0 0.0222811725
C  C311  1  0.31320000  0.50000000  0.71472000  1.0 0.0783437821
C  C312  1  0.33333333  0.52809000  0.77394000  1.0 -0.1185300506
C  C313  1  0.32350000  0.47194000  0.69778000  1.0 -0.1185300506
C  C314  1  0.35389000  0.47194000  0.74005000  1.0 -0.1897839537
C  C315  1  0.37399000  0.50000000  0.79927000  1.0 -0.1723600223
C  C316  1  0.36369000  0.52806000  0.81622000  1.0 -0.0788982135
C  C317  1  0.31079000  0.50000000  0.54228000  1.0 -0.1897839537
C  C318  1  0.40679000  0.50000000  0.84489000  1.0 0.4096239718
C  C319  1  0.99040000  0.50026000  0.73841000  1.0 0.1586112535
C  C320  1  0.96737000  0.50089000  0.66658000  1.0 -0.0379634344
C  C321  1  0.98573000  0.52806000  0.60491000  1.0 0.0309496368
C  C322  1  0.96439000  0.52865000  0.53834000  1.0 -0.1370866833
C  C323  1  0.92468000  0.50206000  0.53345000  1.0 -0.0788982135
C  C324  1  0.90632000  0.47489000  0.59512000  1.0 0.010294561
C  C325  1  0.92767000  0.47431000  0.66168000  1.0 -0.0170760154
C  C326  1  0.90165000  0.50269000  0.46161000  1.0 -0.1185300506
C  C327  1  0.93582000  0.50573000  0.32906000  1.0 -0.1270615316
C  C328  1  0.94969000  0.48513000  0.29024000  1.0 -0.0099554069
C  C329  1  0.90464000  0.44893000  0.39740000  1.0 -0.0788982135
C  C330  1  0.98583000  0.49900000  0.23988000  1.0 0.1086530279
C  C331  1  0.78040000  0.28040000  0.58455000  1.0 0.0309496368
C  C332  1  0.78040000  0.28040000  0.66910000  1.0 0.0222811725
C  C333  1  0.81320000  0.31320000  0.71472000  1.0 0.0783437821
C  C334  1  0.80524000  0.33333333  0.77394000  1.0 -0.1185300506
C  C335  1  0.85156000  0.32350000  0.69778000  1.0 -0.1185300506
C  C336  1  0.88195000  0.35389000  0.74005000  1.0 -0.1897839537
C  C337  1  0.87399000  0.37399000  0.79927000  1.0 -0.1723600223
C  C338  1  0.83563000  0.36369000  0.81622000  1.0 -0.0788982135
C  C339  1  0.81079000  0.31079000  0.54228000  1.0 -0.1897839537
C  C340  1  0.90679000  0.40679000  0.84489000  1.0 0.4096239718
C  C341  1  0.49014000  0.99040000  0.73841000  1.0 0.1586112535
C  C342  1  0.46648000  0.96737000  0.66658000  1.0 -0.0379634344
C  C343  1  0.45767000  0.98573000  0.60491000  1.0 0.0309496368
C  C344  1  0.43574000  0.96439000  0.53834000  1.0 -0.1370866833
C  C345  1  0.42262000  0.92468000  0.53345000  1.0 -0.0788982135
C  C346  1  0.43143000  0.90632000  0.59512000  1.0 0.010294561
C  C347  1  0.45336000  0.92767000  0.66168000  1.0 -0.0170760154
C  C348  1  0.39896000  0.90165000  0.46161000  1.0 -0.1185300506
C  C349  1  0.43009000  0.93582000  0.32906000  1.0 -0.1270615316
C  C350  1  0.46456000  0.94969000  0.29024000  1.0 -0.0099554069
C  C351  1  0.45571000  0.90464000  0.39740000  1.0 -0.0788982135
C  C352  1  0.48683000  0.98583000  0.23988000  1.0 0.1086530279
C  C353  1  0.50000000  0.21960000  0.58455000  1.0 0.0309496368
C  C354  1  0.50000000  0.21960000  0.66910000  1.0 0.0222811725
C  C355  1  0.50000000  0.18680000  0.71472000  1.0 0.0783437821
C  C356  1  0.52809000  0.19476000  0.77394000  1.0 -0.1185300506
C  C357  1  0.47194000  0.14844000  0.69778000  1.0 -0.1185300506
C  C358  1  0.47194000  0.11805000  0.74005000  1.0 -0.1897839537
C  C359  1  0.50000000  0.12601000  0.79927000  1.0 -0.1723600223
C  C360  1  0.52806000  0.16437000  0.81622000  1.0 -0.0788982135
C  C361  1  0.50000000  0.18921000  0.54228000  1.0 -0.1897839537
C  C362  1  0.50000000  0.09321000  0.84489000  1.0 0.4096239718
C  C363  1  0.50026000  0.50986000  0.73841000  1.0 0.1586112535
C  C364  1  0.50089000  0.53352000  0.66658000  1.0 -0.0379634344
C  C365  1  0.52806000  0.54233000  0.60491000  1.0 0.0309496368
C  C366  1  0.52865000  0.56426000  0.53834000  1.0 -0.1370866833
C  C367  1  0.50206000  0.57738000  0.53345000  1.0 -0.0788982135
C  C368  1  0.47489000  0.56857000  0.59512000  1.0 0.010294561
C  C369  1  0.47431000  0.54664000  0.66168000  1.0 -0.0170760154
C  C370  1  0.50269000  0.60104000  0.46161000  1.0 -0.1185300506
C  C371  1  0.50573000  0.56991000  0.32906000  1.0 -0.1270615316
C  C372  1  0.48513000  0.53544000  0.29024000  1.0 -0.0099554069
C  C373  1  0.44893000  0.54429000  0.39740000  1.0 -0.0788982135
C  C374  1  0.49900000  0.51317000  0.23988000  1.0 0.1086530279
C  C375  1  0.71960000  0.50000000  0.58455000  1.0 0.0309496368
C  C376  1  0.71960000  0.50000000  0.66910000  1.0 0.0222811725
C  C377  1  0.68680000  0.50000000  0.71472000  1.0 0.0783437821
C  C378  1  0.66666667  0.47191000  0.77394000  1.0 -0.1185300506
C  C379  1  0.67650000  0.52806000  0.69778000  1.0 -0.1185300506
C  C380  1  0.64611000  0.52806000  0.74005000  1.0 -0.1897839537
C  C381  1  0.62601000  0.50000000  0.79927000  1.0 -0.1723600223
C  C382  1  0.63631000  0.47194000  0.81622000  1.0 -0.0788982135
C  C383  1  0.68921000  0.50000000  0.54228000  1.0 -0.1897839537
C  C384  1  0.59321000  0.50000000  0.84489000  1.0 0.4096239718
C  C385  1  0.00960000  0.49974000  0.73841000  1.0 0.1586112535
C  C386  1  0.03263000  0.49911000  0.66658000  1.0 -0.0379634344
C  C387  1  0.01427000  0.47194000  0.60491000  1.0 0.0309496368
C  C388  1  0.03561000  0.47135000  0.53834000  1.0 -0.1370866833
C  C389  1  0.07532000  0.49794000  0.53345000  1.0 -0.0788982135
C  C390  1  0.09368000  0.52511000  0.59512000  1.0 0.010294561
C  C391  1  0.07233000  0.52569000  0.66168000  1.0 -0.0170760154
C  C392  1  0.09835000  0.49731000  0.46161000  1.0 -0.1185300506
C  C393  1  0.06418000  0.49427000  0.32906000  1.0 -0.1270615316
C  C394  1  0.05031000  0.51487000  0.29024000  1.0 -0.0099554069
C  C395  1  0.09536000  0.55107000  0.39740000  1.0 -0.0788982135
C  C396  1  0.01417000  0.50100000  0.23988000  1.0 0.1086530279
C  C397  1  0.50000000  0.28040000  0.41545000  1.0 0.0309496368
C  C398  1  0.50000000  0.28040000  0.33090000  1.0 0.0222811725
C  C399  1  0.50000000  0.31320000  0.28528000  1.0 0.0783437821
C  C400  1  0.52809000  0.33333333  0.22606000  1.0 -0.1185300506
C  C401  1  0.47194000  0.32350000  0.30222000  1.0 -0.1185300506
C  C402  1  0.47194000  0.35389000  0.25995000  1.0 -0.1897839537
C  C403  1  0.50000000  0.37399000  0.20073000  1.0 -0.1723600223
C  C404  1  0.52806000  0.36369000  0.18378000  1.0 -0.0788982135
C  C405  1  0.50000000  0.31079000  0.45772000  1.0 -0.1897839537
C  C406  1  0.50000000  0.40679000  0.15511000  1.0 0.4096239718
C  C407  1  0.50026000  0.99040000  0.26159000  1.0 0.1586112535
C  C408  1  0.50089000  0.96737000  0.33342000  1.0 -0.0379634344
C  C409  1  0.52806000  0.98573000  0.39509000  1.0 0.0309496368
C  C410  1  0.52865000  0.96439000  0.46166000  1.0 -0.1370866833
C  C411  1  0.50206000  0.92468000  0.46655000  1.0 -0.0788982135
C  C412  1  0.47489000  0.90632000  0.40488000  1.0 0.010294561
C  C413  1  0.47431000  0.92767000  0.33832000  1.0 -0.0170760154
C  C414  1  0.50269000  0.90165000  0.53839000  1.0 -0.1185300506
C  C415  1  0.50573000  0.93582000  0.67094000  1.0 -0.1270615316
C  C416  1  0.48513000  0.94969000  0.70976000  1.0 -0.0099554069
C  C417  1  0.44893000  0.90464000  0.60260000  1.0 -0.0788982135
C  C418  1  0.49900000  0.98583000  0.76012000  1.0 0.1086530279
C  C419  1  0.71960000  0.21960000  0.41545000  1.0 0.0309496368
C  C420  1  0.71960000  0.21960000  0.33090000  1.0 0.0222811725
C  C421  1  0.68680000  0.18680000  0.28528000  1.0 0.0783437821
C  C422  1  0.66666667  0.19476000  0.22606000  1.0 -0.1185300506
C  C423  1  0.67650000  0.14844000  0.30222000  1.0 -0.1185300506
C  C424  1  0.64611000  0.11805000  0.25995000  1.0 -0.1897839537
C  C425  1  0.62601000  0.12601000  0.20073000  1.0 -0.1723600223
C  C426  1  0.63631000  0.16437000  0.18378000  1.0 -0.0788982135
C  C427  1  0.68921000  0.18921000  0.45772000  1.0 -0.1897839537
C  C428  1  0.59321000  0.09321000  0.15511000  1.0 0.4096239718
C  C429  1  0.00960000  0.50986000  0.26159000  1.0 0.1586112535
C  C430  1  0.03263000  0.53352000  0.33342000  1.0 -0.0379634344
C  C431  1  0.01427000  0.54233000  0.39509000  1.0 0.0309496368
C  C432  1  0.03561000  0.56426000  0.46166000  1.0 -0.1370866833
C  C433  1  0.07532000  0.57738000  0.46655000  1.0 -0.0788982135
C  C434  1  0.09368000  0.56857000  0.40488000  1.0 0.010294561
C  C435  1  0.07233000  0.54664000  0.33832000  1.0 -0.0170760154
C  C436  1  0.09835000  0.60104000  0.53839000  1.0 -0.1185300506
C  C437  1  0.06418000  0.56991000  0.67094000  1.0 -0.1270615316
C  C438  1  0.05031000  0.53544000  0.70976000  1.0 -0.0099554069
C  C439  1  0.09536000  0.54429000  0.60260000  1.0 -0.0788982135
C  C440  1  0.01417000  0.51317000  0.76012000  1.0 0.1031175652
C  C441  1  0.78040000  0.50000000  0.41545000  1.0 0.0309496368
C  C442  1  0.78040000  0.50000000  0.33090000  1.0 0.0222811725
C  C443  1  0.81320000  0.50000000  0.28528000  1.0 0.0783437821
C  C444  1  0.80524000  0.47191000  0.22606000  1.0 -0.1185300506
C  C445  1  0.85156000  0.52806000  0.30222000  1.0 -0.1185300506
C  C446  1  0.88195000  0.52806000  0.25995000  1.0 -0.1897839537
C  C447  1  0.87399000  0.50000000  0.20073000  1.0 -0.1723600223
C  C448  1  0.83563000  0.47194000  0.18378000  1.0 -0.0788982135
C  C449  1  0.81079000  0.50000000  0.45772000  1.0 -0.1897839537
C  C450  1  0.90679000  0.50000000  0.15511000  1.0 0.4096239718
C  C451  1  0.49014000  0.49974000  0.26159000  1.0 0.1586112535
C  C452  1  0.46648000  0.49911000  0.33342000  1.0 -0.0379634344
C  C453  1  0.45767000  0.47194000  0.39509000  1.0 0.0309496368
C  C454  1  0.43574000  0.47135000  0.46166000  1.0 -0.1370866833
C  C455  1  0.42262000  0.49794000  0.46655000  1.0 -0.0788982135
C  C456  1  0.43143000  0.52511000  0.40488000  1.0 0.010294561
C  C457  1  0.45336000  0.52569000  0.33832000  1.0 -0.0170760154
C  C458  1  0.39896000  0.49731000  0.53839000  1.0 -0.1185300506
C  C459  1  0.43009000  0.49427000  0.67094000  1.0 -0.1270615316
C  C460  1  0.46456000  0.51487000  0.70976000  1.0 -0.0099554069
C  C461  1  0.45571000  0.55107000  0.60260000  1.0 -0.0788982135
C  C462  1  0.48683000  0.50100000  0.76012000  1.0 0.1086530279
C  C463  1  0.50000000  0.71960000  0.41545000  1.0 0.0309496368
C  C464  1  0.50000000  0.71960000  0.33090000  1.0 0.0222811725
C  C465  1  0.50000000  0.68680000  0.28528000  1.0 0.0783437821
C  C466  1  0.47191000  0.66666667  0.22606000  1.0 -0.1185300506
C  C467  1  0.52806000  0.67650000  0.30222000  1.0 -0.1185300506
C  C468  1  0.52806000  0.64611000  0.25995000  1.0 -0.1897839537
C  C469  1  0.50000000  0.62601000  0.20073000  1.0 -0.1723600223
C  C470  1  0.47194000  0.63631000  0.18378000  1.0 -0.0788982135
C  C471  1  0.50000000  0.68921000  0.45772000  1.0 -0.1897839537
C  C472  1  0.50000000  0.59321000  0.15511000  1.0 0.4096239718
C  C473  1  0.49974000  0.00960000  0.26159000  1.0 0.1586112535
C  C474  1  0.49911000  0.03263000  0.33342000  1.0 -0.0379634344
C  C475  1  0.47194000  0.01427000  0.39509000  1.0 0.0309496368
C  C476  1  0.47135000  0.03561000  0.46166000  1.0 -0.1370866833
C  C477  1  0.49794000  0.07532000  0.46655000  1.0 -0.0788982135
C  C478  1  0.52511000  0.09368000  0.40488000  1.0 0.010294561
C  C479  1  0.52569000  0.07233000  0.33832000  1.0 -0.0170760154
C  C480  1  0.49731000  0.09835000  0.53839000  1.0 -0.1185300506
C  C481  1  0.49427000  0.06418000  0.67094000  1.0 -0.1270615316
C  C482  1  0.51487000  0.05031000  0.70976000  1.0 -0.0099554069
C  C483  1  0.55107000  0.09536000  0.60260000  1.0 -0.0788982135
C  C484  1  0.50100000  0.01417000  0.76012000  1.0 0.1086530279
C  C485  1  0.28040000  0.78040000  0.41545000  1.0 0.0309496368
C  C486  1  0.28040000  0.78040000  0.33090000  1.0 0.0222811725
C  C487  1  0.31320000  0.81320000  0.28528000  1.0 0.0783437821
C  C488  1  0.33333333  0.80524000  0.22606000  1.0 -0.1185300506
C  C489  1  0.32350000  0.85156000  0.30222000  1.0 -0.1185300506
C  C490  1  0.35389000  0.88195000  0.25995000  1.0 -0.1897839537
C  C491  1  0.37399000  0.87399000  0.20073000  1.0 -0.1723600223
C  C492  1  0.36369000  0.83563000  0.18378000  1.0 -0.0788982135
C  C493  1  0.31079000  0.81079000  0.45772000  1.0 -0.1897839537
C  C494  1  0.40679000  0.90679000  0.15511000  1.0 0.4096239718
C  C495  1  0.99040000  0.49014000  0.26159000  1.0 0.1586112535
C  C496  1  0.96737000  0.46648000  0.33342000  1.0 -0.0379634344
C  C497  1  0.98573000  0.45767000  0.39509000  1.0 0.0309496368
C  C498  1  0.96439000  0.43574000  0.46166000  1.0 -0.1370866833
C  C499  1  0.92468000  0.42262000  0.46655000  1.0 -0.0788982135
C  C500  1  0.90632000  0.43143000  0.40488000  1.0 0.010294561
C  C501  1  0.92767000  0.45336000  0.33832000  1.0 -0.0170760154
C  C502  1  0.90165000  0.39896000  0.53839000  1.0 -0.1185300506
C  C503  1  0.93582000  0.43009000  0.67094000  1.0 -0.1270615316
C  C504  1  0.94969000  0.46456000  0.70976000  1.0 -0.0099554069
C  C505  1  0.90464000  0.45571000  0.60260000  1.0 -0.0788982135
C  C506  1  0.98583000  0.48683000  0.76012000  1.0 0.1086530279
C  C507  1  0.21960000  0.50000000  0.41545000  1.0 0.0309496368
C  C508  1  0.21960000  0.50000000  0.33090000  1.0 0.0222811725
C  C509  1  0.18680000  0.50000000  0.28528000  1.0 0.0783437821
C  C510  1  0.19476000  0.52809000  0.22606000  1.0 -0.1185300506
C  C511  1  0.14844000  0.47194000  0.30222000  1.0 -0.1185300506
C  C512  1  0.11805000  0.47194000  0.25995000  1.0 -0.1897839537
C  C513  1  0.12601000  0.50000000  0.20073000  1.0 -0.1723600223
C  C514  1  0.16437000  0.52806000  0.18378000  1.0 -0.0788982135
C  C515  1  0.18921000  0.50000000  0.45772000  1.0 -0.1897839537
C  C516  1  0.09321000  0.50000000  0.15511000  1.0 0.4096239718
C  C517  1  0.50986000  0.50026000  0.26159000  1.0 0.1586112535
C  C518  1  0.53352000  0.50089000  0.33342000  1.0 -0.0379634344
C  C519  1  0.54233000  0.52806000  0.39509000  1.0 0.0309496368
C  C520  1  0.56426000  0.52865000  0.46166000  1.0 -0.1370866833
C  C521  1  0.57738000  0.50206000  0.46655000  1.0 -0.0788982135
C  C522  1  0.56857000  0.47489000  0.40488000  1.0 0.010294561
C  C523  1  0.54664000  0.47431000  0.33832000  1.0 -0.0170760154
C  C524  1  0.60104000  0.50269000  0.53839000  1.0 -0.1185300506
C  C525  1  0.56991000  0.50573000  0.67094000  1.0 -0.1270615316
C  C526  1  0.53544000  0.48513000  0.70976000  1.0 -0.0099554069
C  C527  1  0.54429000  0.44893000  0.60260000  1.0 -0.0788982135
C  C528  1  0.51317000  0.49900000  0.76012000  1.0 0.1086530279
C  C529  1  0.75000000  0.25000000  0.45772000  1.0 -0.0007995845
C  C530  1  0.75000000  0.25000000  0.28862000  1.0 -0.2256986288
C  C531  1  0.50000000  0.25000000  0.45772000  1.0 -0.0007995845
C  C532  1  0.50000000  0.25000000  0.28862000  1.0 -0.2256986288
C  C533  1  0.75000000  0.50000000  0.45772000  1.0 -0.0007995845
C  C534  1  0.75000000  0.50000000  0.28862000  1.0 -0.2256986288
C  C535  1  0.25000000  0.75000000  0.45772000  1.0 -0.0007995845
C  C536  1  0.25000000  0.75000000  0.28862000  1.0 -0.2256986288
C  C537  1  0.50000000  0.75000000  0.45772000  1.0 -0.0007995845
C  C538  1  0.50000000  0.75000000  0.28862000  1.0 -0.2256986288
C  C539  1  0.25000000  0.50000000  0.45772000  1.0 -0.0007995845
C  C540  1  0.25000000  0.50000000  0.28862000  1.0 -0.2256986288
C  C541  1  0.50000000  0.75000000  0.54228000  1.0 -0.0007995845
C  C542  1  0.50000000  0.75000000  0.71138000  1.0 -0.2256986288
C  C543  1  0.25000000  0.75000000  0.54228000  1.0 -0.0007995845
C  C544  1  0.25000000  0.75000000  0.71138000  1.0 -0.2256986288
C  C545  1  0.25000000  0.50000000  0.54228000  1.0 -0.0007995845
C  C546  1  0.25000000  0.50000000  0.71138000  1.0 -0.2256986288
C  C547  1  0.50000000  0.25000000  0.54228000  1.0 -0.0007995845
C  C548  1  0.50000000  0.25000000  0.71138000  1.0 -0.2256986288
C  C549  1  0.75000000  0.25000000  0.54228000  1.0 -0.0007995845
C  C550  1  0.75000000  0.25000000  0.71138000  1.0 -0.2256986288
C  C551  1  0.75000000  0.50000000  0.54228000  1.0 -0.0007995845
C  C552  1  0.75000000  0.50000000  0.71138000  1.0 -0.2256986288
S  S1  1  0.49160000  0.93101000  0.67098000  1.0 0.0373483393
S  S2  1  0.43941000  0.50840000  0.67098000  1.0 0.0373483393
S  S3  1  0.06899000  0.56059000  0.67098000  1.0 0.0373483393
S  S4  1  0.50840000  0.06899000  0.67098000  1.0 0.0373483393
S  S5  1  0.56059000  0.49160000  0.67098000  1.0 0.0373483393
S  S6  1  0.93101000  0.43941000  0.67098000  1.0 0.0373483393
S  S7  1  0.56059000  0.06899000  0.32902000  1.0 0.0373483393
S  S8  1  0.93101000  0.49160000  0.32902000  1.0 0.0373483393
S  S9  1  0.50840000  0.43941000  0.32902000  1.0 0.0373483393
S  S10  1  0.43941000  0.93101000  0.32902000  1.0 0.0373483393
S  S11  1  0.06899000  0.50840000  0.32902000  1.0 0.0373483393
S  S12  1  0.49160000  0.56059000  0.32902000  1.0 0.0373483393
S  S13  1  0.50840000  0.06899000  0.32902000  1.0 0.0373483393
S  S14  1  0.56059000  0.49160000  0.32902000  1.0 0.0373483393
S  S15  1  0.93101000  0.43941000  0.32902000  1.0 0.0373483393
S  S16  1  0.49160000  0.93101000  0.32902000  1.0 0.0373483393
S  S17  1  0.43941000  0.50840000  0.32902000  1.0 0.0373483393
S  S18  1  0.06899000  0.56059000  0.32902000  1.0 0.0373483393
S  S19  1  0.43941000  0.93101000  0.67098000  1.0 0.0373483393
S  S20  1  0.06899000  0.50840000  0.67098000  1.0 0.0373483393
S  S21  1  0.49160000  0.56059000  0.67098000  1.0 0.0373483393
S  S22  1  0.56059000  0.06899000  0.67098000  1.0 0.0373483393
S  S23  1  0.93101000  0.49160000  0.67098000  1.0 0.0373483393
S  S24  1  0.50840000  0.43941000  0.67098000  1.0 0.0373483393
Br  Br1  1  0.38173000  0.06560000  0.10769000  1.0 0.3000362287
Br  Br2  1  0.68387000  0.61827000  0.10769000  1.0 0.3000362287
Br  Br3  1  0.93440000  0.31613000  0.10769000  1.0 0.3000362287
Br  Br4  1  0.61827000  0.93440000  0.10769000  1.0 0.3000362287
Br  Br5  1  0.31613000  0.38173000  0.10769000  1.0 0.3000362287
Br  Br6  1  0.06560000  0.68387000  0.10769000  1.0 0.2936938914
Br  Br7  1  0.31613000  0.93440000  0.89231000  1.0 0.3000362287
Br  Br8  1  0.06560000  0.38173000  0.89231000  1.0 0.3000362287
Br  Br9  1  0.61827000  0.68387000  0.89231000  1.0 0.3000362287
Br  Br10  1  0.68387000  0.06560000  0.89231000  1.0 0.3000362287
Br  Br11  1  0.93440000  0.61827000  0.89231000  1.0 0.3000362287
Br  Br12  1  0.38173000  0.31613000  0.89231000  1.0 0.3000362287
Br  Br13  1  0.61827000  0.93440000  0.89231000  1.0 0.3050159725
Br  Br14  1  0.31613000  0.38173000  0.89231000  1.0 0.3000362287
Br  Br15  1  0.06560000  0.68387000  0.89231000  1.0 0.2936938914
Br  Br16  1  0.38173000  0.06560000  0.89231000  1.0 0.3000362287
Br  Br17  1  0.68387000  0.61827000  0.89231000  1.0 0.3050159725
Br  Br18  1  0.93440000  0.31613000  0.89231000  1.0 0.3000362287
Br  Br19  1  0.68387000  0.06560000  0.10769000  1.0 0.3000362287
Br  Br20  1  0.93440000  0.61827000  0.10769000  1.0 0.3000362287
Br  Br21  1  0.38173000  0.31613000  0.10769000  1.0 0.2936938914
Br  Br22  1  0.31613000  0.93440000  0.10769000  1.0 0.3000362287
Br  Br23  1  0.06560000  0.38173000  0.10769000  1.0 0.3000362287
Br  Br24  1  0.61827000  0.68387000  0.10769000  1.0 0.3000362287
N  N1  1  0.42513000  0.91054000  0.61079000  1.0 -0.1100497035
N  N2  1  0.48541000  0.57487000  0.61079000  1.0 -0.1100497035
N  N3  1  0.08946000  0.51459000  0.61079000  1.0 -0.1100497035
N  N4  1  0.57487000  0.08946000  0.61079000  1.0 -0.1100497035
N  N5  1  0.51459000  0.42513000  0.61079000  1.0 -0.1100497035
N  N6  1  0.91054000  0.48541000  0.61079000  1.0 -0.1100497035
N  N7  1  0.51459000  0.08946000  0.38921000  1.0 -0.1100497035
N  N8  1  0.91054000  0.42513000  0.38921000  1.0 -0.1100497035
N  N9  1  0.57487000  0.48541000  0.38921000  1.0 -0.1100497035
N  N10  1  0.48541000  0.91054000  0.38921000  1.0 -0.1100497035
N  N11  1  0.08946000  0.57487000  0.38921000  1.0 -0.1100497035
N  N12  1  0.42513000  0.51459000  0.38921000  1.0 -0.1100497035
N  N13  1  0.57487000  0.08946000  0.38921000  1.0 -0.1100497035
N  N14  1  0.51459000  0.42513000  0.38921000  1.0 -0.1100497035
N  N15  1  0.91054000  0.48541000  0.38921000  1.0 -0.1100497035
N  N16  1  0.42513000  0.91054000  0.38921000  1.0 -0.1100497035
N  N17  1  0.48541000  0.57487000  0.38921000  1.0 -0.1100497035
N  N18  1  0.08946000  0.51459000  0.38921000  1.0 -0.1100497035
N  N19  1  0.48541000  0.91054000  0.61079000  1.0 -0.1100497035
N  N20  1  0.08946000  0.57487000  0.61079000  1.0 -0.1100497035
N  N21  1  0.42513000  0.51459000  0.61079000  1.0 -0.1100497035
N  N22  1  0.51459000  0.08946000  0.61079000  1.0 -0.1100497035
N  N23  1  0.91054000  0.42513000  0.61079000  1.0 -0.1100497035
N  N24  1  0.57487000  0.48541000  0.61079000  1.0 -0.1100497035
O  O1  1  0.94129000  0.41605000  0.17035000  1.0 -0.5464979572
O  O2  1  0.89963000  0.42487000  0.10185000  1.0 -0.3962381788
O  O3  1  0.51908000  0.98801000  0.23952000  1.0 0.010294561
O  O4  1  0.53107000  0.01199000  0.22379000  1.0 -0.0261220844
O  O5  1  0.52510000  0.00611000  0.20978000  1.0 0.0783437821
O  O6  1  0.53467000  0.00789000  0.22800000  1.0 -0.0099554069
O  O7  1  0.52230000  0.04320000  0.10840000  1.0 -0.5198661747
O  O8  1  0.44850000  0.97980000  0.42960000  1.0 -0.1370866833
O  O9  1  0.47476000  0.05871000  0.17035000  1.0 -0.5464979572
O  O10  1  0.52524000  0.10037000  0.10185000  1.0 -0.3962381788
O  O11  1  0.46893000  0.48092000  0.23952000  1.0 0.0222811725
O  O12  1  0.48092000  0.46893000  0.22379000  1.0 -0.0261220844
O  O13  1  0.48101000  0.47490000  0.20978000  1.0 0.0783437821
O  O14  1  0.47322000  0.46533000  0.22800000  1.0 -0.0099554069
O  O15  1  0.52090000  0.47770000  0.10840000  1.0 -0.5198661747
O  O16  1  0.53130000  0.55150000  0.42960000  1.0 -0.1370866833
O  O17  1  0.58395000  0.52524000  0.17035000  1.0 -0.5464979572
O  O18  1  0.57513000  0.47476000  0.10185000  1.0 -0.3962381788
O  O19  1  0.01199000  0.53107000  0.23952000  1.0 0.010294561
O  O20  1  0.98801000  0.51908000  0.22379000  1.0 -0.0261220844
O  O21  1  0.99389000  0.51899000  0.20978000  1.0 0.0697657157
O  O22  1  0.99211000  0.52678000  0.22800000  1.0 -0.0099554069
O  O23  1  0.95680000  0.47910000  0.10840000  1.0 -0.5198661747
O  O24  1  0.02020000  0.46870000  0.42960000  1.0 -0.1370866833
O  O25  1  0.05871000  0.58395000  0.17035000  1.0 -0.5464979572
O  O26  1  0.10037000  0.57513000  0.10185000  1.0 -0.3962381788
O  O27  1  0.48092000  0.01199000  0.23952000  1.0 0.0222811725
O  O28  1  0.46893000  0.98801000  0.22379000  1.0 -0.0261220844
O  O29  1  0.47490000  0.99389000  0.20978000  1.0 0.0697657157
O  O30  1  0.46533000  0.99211000  0.22800000  1.0 -0.0099554069
O  O31  1  0.47770000  0.95680000  0.10840000  1.0 -0.5198661747
O  O32  1  0.55150000  0.02020000  0.42960000  1.0 -0.1370866833
O  O33  1  0.52524000  0.94129000  0.17035000  1.0 -0.5464979572
O  O34  1  0.47476000  0.89963000  0.10185000  1.0 -0.3962381788
O  O35  1  0.53107000  0.51908000  0.23952000  1.0 0.010294561
O  O36  1  0.51908000  0.53107000  0.22379000  1.0 -0.0261220844
O  O37  1  0.51899000  0.52510000  0.20978000  1.0 0.0697657157
O  O38  1  0.52678000  0.53467000  0.22800000  1.0 -0.0099554069
O  O39  1  0.47910000  0.52230000  0.10840000  1.0 -0.5198661747
O  O40  1  0.46870000  0.44850000  0.42960000  1.0 -0.1370866833
O  O41  1  0.41605000  0.47476000  0.17035000  1.0 -0.5464979572
O  O42  1  0.42487000  0.52524000  0.10185000  1.0 -0.3962381788
O  O43  1  0.98801000  0.46893000  0.23952000  1.0 0.0222811725
O  O44  1  0.01199000  0.48092000  0.22379000  1.0 -0.0261220844
O  O45  1  0.00611000  0.48101000  0.20978000  1.0 0.0697657157
O  O46  1  0.00789000  0.47322000  0.22800000  1.0 -0.0099554069
O  O47  1  0.04320000  0.52090000  0.10840000  1.0 -0.5198661747
O  O48  1  0.97980000  0.53130000  0.42960000  1.0 -0.1370866833
O  O49  1  0.52524000  0.58395000  0.82965000  1.0 -0.5464979572
O  O50  1  0.47476000  0.57513000  0.89815000  1.0 -0.3949779061
O  O51  1  0.53107000  0.01199000  0.76048000  1.0 0.010294561
O  O52  1  0.51908000  0.98801000  0.77621000  1.0 -0.0261220844
O  O53  1  0.51899000  0.99389000  0.79022000  1.0 0.0697657157
O  O54  1  0.52678000  0.99211000  0.77200000  1.0 -0.0099554069
O  O55  1  0.47910000  0.95680000  0.89160000  1.0 -0.5198661747
O  O56  1  0.46870000  0.02020000  0.57040000  1.0 -0.1370866833
O  O57  1  0.41605000  0.94129000  0.82965000  1.0 -0.5464979572
O  O58  1  0.42487000  0.89963000  0.89815000  1.0 -0.3962381788
O  O59  1  0.98801000  0.51908000  0.76048000  1.0 0.0222811725
O  O60  1  0.01199000  0.53107000  0.77621000  1.0 -0.0261220844
O  O61  1  0.00611000  0.52510000  0.79022000  1.0 0.0697657157
O  O62  1  0.00789000  0.53467000  0.77200000  1.0 -0.0099554069
O  O63  1  0.04320000  0.52230000  0.89160000  1.0 -0.5198661747
O  O64  1  0.97980000  0.44850000  0.57040000  1.0 -0.1370866833
O  O65  1  0.05871000  0.47476000  0.82965000  1.0 -0.5464979572
O  O66  1  0.10037000  0.52524000  0.89815000  1.0 -0.3962381788
O  O67  1  0.48092000  0.46893000  0.76048000  1.0 0.010294561
O  O68  1  0.46893000  0.48092000  0.77621000  1.0 -0.0261220844
O  O69  1  0.47490000  0.48101000  0.79022000  1.0 0.0697657157
O  O70  1  0.46533000  0.47322000  0.77200000  1.0 -0.0099554069
O  O71  1  0.47770000  0.52090000  0.89160000  1.0 -0.5198661747
O  O72  1  0.55150000  0.53130000  0.57040000  1.0 -0.1370866833
O  O73  1  0.47476000  0.41605000  0.82965000  1.0 -0.5464979572
O  O74  1  0.52524000  0.42487000  0.89815000  1.0 -0.3949779061
O  O75  1  0.46893000  0.98801000  0.76048000  1.0 0.010294561
O  O76  1  0.48092000  0.01199000  0.77621000  1.0 -0.0261220844
O  O77  1  0.48101000  0.00611000  0.79022000  1.0 0.0697657157
O  O78  1  0.47322000  0.00789000  0.77200000  1.0 -0.0099554069
O  O79  1  0.52090000  0.04320000  0.89160000  1.0 -0.5198661747
O  O80  1  0.53130000  0.97980000  0.57040000  1.0 -0.1370866833
O  O81  1  0.58395000  0.05871000  0.82965000  1.0 -0.5464979572
O  O82  1  0.57513000  0.10037000  0.89815000  1.0 -0.3949779061
O  O83  1  0.01199000  0.48092000  0.76048000  1.0 0.010294561
O  O84  1  0.98801000  0.46893000  0.77621000  1.0 -0.0261220844
O  O85  1  0.99389000  0.47490000  0.79022000  1.0 0.0697657157
O  O86  1  0.99211000  0.46533000  0.77200000  1.0 -0.0099554069
O  O87  1  0.95680000  0.47770000  0.89160000  1.0 -0.5198661747
O  O88  1  0.02020000  0.55150000  0.57040000  1.0 -0.1370866833
O  O89  1  0.94129000  0.52524000  0.82965000  1.0 -0.5464979572
O  O90  1  0.89963000  0.47476000  0.89815000  1.0 -0.3949779061
O  O91  1  0.51908000  0.53107000  0.76048000  1.0 0.0222811725
O  O92  1  0.53107000  0.51908000  0.77621000  1.0 -0.0261220844
O  O93  1  0.52510000  0.51899000  0.79022000  1.0 0.0697657157
O  O94  1  0.53467000  0.52678000  0.77200000  1.0 -0.0099554069
O  O95  1  0.52230000  0.47910000  0.89160000  1.0 -0.5198661747
O  O96  1  0.44850000  0.46870000  0.57040000  1.0 -0.1370866833
O  O97  1  0.05871000  0.58395000  0.82965000  1.0 -0.5464979572
O  O98  1  0.10037000  0.57513000  0.89815000  1.0 -0.3949779061
O  O99  1  0.48092000  0.01199000  0.76048000  1.0 0.010294561
O  O100  1  0.46893000  0.98801000  0.77621000  1.0 -0.0261220844
O  O101  1  0.47490000  0.99389000  0.79022000  1.0 0.0697657157
O  O102  1  0.46533000  0.99211000  0.77200000  1.0 -0.0099554069
O  O103  1  0.47770000  0.95680000  0.89160000  1.0 -0.5198661747
O  O104  1  0.55150000  0.02020000  0.57040000  1.0 -0.1370866833
O  O105  1  0.52524000  0.94129000  0.82965000  1.0 -0.5464979572
O  O106  1  0.47476000  0.89963000  0.89815000  1.0 -0.3962381788
O  O107  1  0.53107000  0.51908000  0.76048000  1.0 0.010294561
O  O108  1  0.51908000  0.53107000  0.77621000  1.0 -0.0261220844
O  O109  1  0.51899000  0.52510000  0.79022000  1.0 0.0697657157
O  O110  1  0.52678000  0.53467000  0.77200000  1.0 -0.0099554069
O  O111  1  0.47910000  0.52230000  0.89160000  1.0 -0.5198661747
O  O112  1  0.46870000  0.44850000  0.57040000  1.0 -0.1370866833
O  O113  1  0.41605000  0.47476000  0.82965000  1.0 -0.5464979572
O  O114  1  0.42487000  0.52524000  0.89815000  1.0 -0.3949779061
O  O115  1  0.98801000  0.46893000  0.76048000  1.0 0.010294561
O  O116  1  0.01199000  0.48092000  0.77621000  1.0 -0.0261220844
O  O117  1  0.00611000  0.48101000  0.79022000  1.0 0.0697657157
O  O118  1  0.00789000  0.47322000  0.77200000  1.0 -0.0099554069
O  O119  1  0.04320000  0.52090000  0.89160000  1.0 -0.5198661747
O  O120  1  0.97980000  0.53130000  0.57040000  1.0 -0.1370866833
O  O121  1  0.94129000  0.41605000  0.82965000  1.0 -0.5464979572
O  O122  1  0.89963000  0.42487000  0.89815000  1.0 -0.3949779061
O  O123  1  0.51908000  0.98801000  0.76048000  1.0 0.010294561
O  O124  1  0.53107000  0.01199000  0.77621000  1.0 -0.0261220844
O  O125  1  0.52510000  0.00611000  0.79022000  1.0 0.0783437821
O  O126  1  0.53467000  0.00789000  0.77200000  1.0 -0.0099554069
O  O127  1  0.52230000  0.04320000  0.89160000  1.0 -0.5198661747
O  O128  1  0.44850000  0.97980000  0.57040000  1.0 -0.1370866833
O  O129  1  0.47476000  0.05871000  0.82965000  1.0 -0.5464979572
O  O130  1  0.52524000  0.10037000  0.89815000  1.0 -0.3949779061
O  O131  1  0.46893000  0.48092000  0.76048000  1.0 0.010294561
O  O132  1  0.48092000  0.46893000  0.77621000  1.0 -0.0261220844
O  O133  1  0.48101000  0.47490000  0.79022000  1.0 0.0697657157
O  O134  1  0.47322000  0.46533000  0.77200000  1.0 -0.0099554069
O  O135  1  0.52090000  0.47770000  0.89160000  1.0 -0.5198661747
O  O136  1  0.53130000  0.55150000  0.57040000  1.0 -0.1370866833
O  O137  1  0.58395000  0.52524000  0.82965000  1.0 -0.5464979572
O  O138  1  0.57513000  0.47476000  0.89815000  1.0 -0.3949779061
O  O139  1  0.01199000  0.53107000  0.76048000  1.0 0.010294561
O  O140  1  0.98801000  0.51908000  0.77621000  1.0 -0.0261220844
O  O141  1  0.99389000  0.51899000  0.79022000  1.0 0.0697657157
O  O142  1  0.99211000  0.52678000  0.77200000  1.0 -0.0099554069
O  O143  1  0.95680000  0.47910000  0.89160000  1.0 -0.5198661747
O  O144  1  0.02020000  0.46870000  0.57040000  1.0 -0.1370866833
O  O145  1  0.47476000  0.41605000  0.17035000  1.0 -0.5464979572
O  O146  1  0.52524000  0.42487000  0.10185000  1.0 -0.3962381788
O  O147  1  0.46893000  0.98801000  0.23952000  1.0 0.010294561
O  O148  1  0.48092000  0.01199000  0.22379000  1.0 -0.0261220844
O  O149  1  0.48101000  0.00611000  0.20978000  1.0 0.0783437821
O  O150  1  0.47322000  0.00789000  0.22800000  1.0 -0.0099554069
O  O151  1  0.52090000  0.04320000  0.10840000  1.0 -0.5198661747
O  O152  1  0.53130000  0.97980000  0.42960000  1.0 -0.1370866833
O  O153  1  0.58395000  0.05871000  0.17035000  1.0 -0.5464979572
O  O154  1  0.57513000  0.10037000  0.10185000  1.0 -0.3962381788
O  O155  1  0.01199000  0.48092000  0.23952000  1.0 0.010294561
O  O156  1  0.98801000  0.46893000  0.22379000  1.0 -0.0261220844
O  O157  1  0.99389000  0.47490000  0.20978000  1.0 0.0697657157
O  O158  1  0.99211000  0.46533000  0.22800000  1.0 -0.0099554069
O  O159  1  0.95680000  0.47770000  0.10840000  1.0 -0.5198661747
O  O160  1  0.02020000  0.55150000  0.42960000  1.0 -0.1370866833
O  O161  1  0.94129000  0.52524000  0.17035000  1.0 -0.5464979572
O  O162  1  0.89963000  0.47476000  0.10185000  1.0 -0.3962381788
O  O163  1  0.51908000  0.53107000  0.23952000  1.0 0.0222811725
O  O164  1  0.53107000  0.51908000  0.22379000  1.0 -0.0261220844
O  O165  1  0.52510000  0.51899000  0.20978000  1.0 0.0783437821
O  O166  1  0.53467000  0.52678000  0.22800000  1.0 -0.0099554069
O  O167  1  0.52230000  0.47910000  0.10840000  1.0 -0.5198661747
O  O168  1  0.44850000  0.46870000  0.42960000  1.0 -0.1370866833
O  O169  1  0.52524000  0.58395000  0.17035000  1.0 -0.5464979572
O  O170  1  0.47476000  0.57513000  0.10185000  1.0 -0.3962381788
O  O171  1  0.53107000  0.01199000  0.23952000  1.0 0.0222811725
O  O172  1  0.51908000  0.98801000  0.22379000  1.0 -0.0261220844
O  O173  1  0.51899000  0.99389000  0.20978000  1.0 0.0697657157
O  O174  1  0.52678000  0.99211000  0.22800000  1.0 -0.0099554069
O  O175  1  0.47910000  0.95680000  0.10840000  1.0 -0.5198661747
O  O176  1  0.46870000  0.02020000  0.42960000  1.0 -0.1370866833
O  O177  1  0.41605000  0.94129000  0.17035000  1.0 -0.5464979572
O  O178  1  0.42487000  0.89963000  0.10185000  1.0 -0.3962381788
O  O179  1  0.98801000  0.51908000  0.23952000  1.0 0.0222811725
O  O180  1  0.01199000  0.53107000  0.22379000  1.0 -0.0261220844
O  O181  1  0.00611000  0.52510000  0.20978000  1.0 0.0697657157
O  O182  1  0.00789000  0.53467000  0.22800000  1.0 -0.0099554069
O  O183  1  0.04320000  0.52230000  0.10840000  1.0 -0.5198661747
O  O184  1  0.97980000  0.44850000  0.42960000  1.0 -0.1370866833
O  O185  1  0.05871000  0.47476000  0.17035000  1.0 -0.5464979572
O  O186  1  0.10037000  0.52524000  0.10185000  1.0 -0.3962381788
O  O187  1  0.48092000  0.46893000  0.23952000  1.0 0.0222811725
O  O188  1  0.46893000  0.48092000  0.22379000  1.0 -0.0261220844
O  O189  1  0.47490000  0.48101000  0.20978000  1.0 0.0783437821
O  O190  1  0.46533000  0.47322000  0.22800000  1.0 -0.0099554069
O  O191  1  0.47770000  0.52090000  0.10840000  1.0 -0.5198661747
O  O192  1  0.55150000  0.53130000  0.42960000  1.0 -0.1370866833
O  O193  1  0.61150000  0.00000000  0.07720000  1.0 -0.1511951203
O  O194  1  0.38850000  0.38850000  0.07720000  1.0 -0.1511951203
O  O195  1  0.00000000  0.61150000  0.07720000  1.0 -0.1511951203
O  O196  1  0.38850000  0.00000000  0.07720000  1.0 -0.1550628183
O  O197  1  0.61150000  0.61150000  0.07720000  1.0 -0.1511951203
O  O198  1  0.00000000  0.38850000  0.07720000  1.0 -0.1511951203
O  O199  1  0.61150000  0.00000000  0.92280000  1.0 -0.1511951203
O  O200  1  0.00000000  0.61150000  0.92280000  1.0 -0.1511951203
O  O201  1  0.38850000  0.38850000  0.92280000  1.0 -0.1511951203
O  O202  1  0.38850000  0.00000000  0.92280000  1.0 -0.1511951203
O  O203  1  0.00000000  0.38850000  0.92280000  1.0 -0.1511951203
O  O204  1  0.61150000  0.61150000  0.92280000  1.0 -0.1511951203
O  O205  1  0.53210000  0.96350000  0.00000000  1.0 -0.6581805088
O  O206  1  0.43140000  0.46790000  0.00000000  1.0 -0.6581805088
O  O207  1  0.03650000  0.56860000  0.00000000  1.0 -0.6581805088
O  O208  1  0.46790000  0.03650000  0.00000000  1.0 -0.6581805088
O  O209  1  0.56860000  0.53210000  0.00000000  1.0 -0.6581805088
O  O210  1  0.96350000  0.43140000  0.00000000  1.0 -0.6581805088
O  O211  1  0.56860000  0.03650000  0.00000000  1.0 -0.6581805088
O  O212  1  0.96350000  0.53210000  0.00000000  1.0 -0.6581805088
O  O213  1  0.46790000  0.43140000  0.00000000  1.0 -0.6581805088
O  O214  1  0.43140000  0.96350000  0.00000000  1.0 -0.6581805088
O  O215  1  0.03650000  0.46790000  0.00000000  1.0 -0.6581805088
O  O216  1  0.53210000  0.56860000  0.00000000  1.0 -0.6581805088
