# DDEC6 charges by PACMAN v1.1 (https://github.com/mtap-research/PACMAN-charge/)
data_YAXBEF_ASR_pacman
_symmetry_space_group_name_H-M   'P 1'
_cell_length_a   7.49700000
_cell_length_b   13.15400000
_cell_length_c   18.20600000
_cell_angle_alpha   90.00000000
_cell_angle_beta   90.00000000
_cell_angle_gamma   90.00000000
_symmetry_Int_Tables_number   1
_chemical_formula_structural   Zn5(PO4)4
_chemical_formula_sum   'Zn20 P16 O64'
_cell_volume   1795.39448483
_cell_formula_units_Z   4
loop_
 _symmetry_equiv_pos_site_id
 _symmetry_equiv_pos_as_xyz
  1  'x, y, z'
loop_
 _atom_site_type_symbol
 _atom_site_label
 _atom_site_symmetry_multiplicity
 _atom_site_fract_x
 _atom_site_fract_y
 _atom_site_fract_z
 _atom_site_occupancy
 _atom_site_charge
Zn  Zn1  1  0.04302000  0.62424000  0.03604000  1.0 1.0611473257
Zn  Zn2  1  0.45698000  0.37576000  0.53604000  1.0 1.0611473257
Zn  Zn3  1  0.95698000  0.12424000  0.46396000  1.0 1.0611473257
Zn  Zn4  1  0.54302000  0.87576000  0.96396000  1.0 1.0611473257
Zn  Zn5  1  0.04317000  0.37161000  0.03836000  1.0 1.0512929494
Zn  Zn6  1  0.45683000  0.62839000  0.53836000  1.0 1.0512929494
Zn  Zn7  1  0.95683000  0.87161000  0.46164000  1.0 1.0512929494
Zn  Zn8  1  0.54317000  0.12839000  0.96164000  1.0 1.0512929494
Zn  Zn9  1  0.60023000  0.37188000  0.05862000  1.0 1.0934456223
Zn  Zn10  1  0.89977000  0.62812000  0.55862000  1.0 1.0934456223
Zn  Zn11  1  0.39977000  0.87188000  0.44138000  1.0 1.0934456223
Zn  Zn12  1  0.10023000  0.12812000  0.94138000  1.0 1.0934456223
Zn  Zn13  1  0.59798000  0.62520000  0.05609000  1.0 1.0934456223
Zn  Zn14  1  0.90202000  0.37480000  0.55609000  1.0 1.0934456223
Zn  Zn15  1  0.40202000  0.12520000  0.44391000  1.0 1.0934456223
Zn  Zn16  1  0.09798000  0.87480000  0.94391000  1.0 1.0934456223
Zn  Zn17  1  0.65867000  0.50330000  0.83275000  1.0 1.2220840985
Zn  Zn18  1  0.84133000  0.49670000  0.33275000  1.0 1.2220840985
Zn  Zn19  1  0.34133000  0.00330000  0.66725000  1.0 1.2278202707
Zn  Zn20  1  0.15867000  0.99670000  0.16725000  1.0 1.2278202707
P  P1  1  0.79170000  0.30430000  0.91424000  1.0 1.5508943135
P  P2  1  0.70830000  0.69570000  0.41424000  1.0 1.5508943135
P  P3  1  0.20830000  0.80430000  0.58576000  1.0 1.5605292732
P  P4  1  0.29170000  0.19570000  0.08576000  1.0 1.5605292732
P  P5  1  0.33814000  0.49560000  0.95996000  1.0 1.5605292732
P  P6  1  0.16186000  0.50440000  0.45996000  1.0 1.5605292732
P  P7  1  0.66186000  0.99560000  0.54004000  1.0 1.5605292732
P  P8  1  0.83814000  0.00440000  0.04004000  1.0 1.5605292732
P  P9  1  0.79000000  0.69980000  0.91434000  1.0 1.5605292732
P  P10  1  0.71000000  0.30020000  0.41434000  1.0 1.5605292732
P  P11  1  0.21000000  0.19980000  0.58566000  1.0 1.5605292732
P  P12  1  0.29000000  0.80020000  0.08566000  1.0 1.5605292732
P  P13  1  0.85512000  0.49960000  0.15719000  1.0 1.5231001312
P  P14  1  0.64488000  0.50040000  0.65719000  1.0 1.5231001312
P  P15  1  0.14488000  0.99960000  0.34281000  1.0 1.5274758273
P  P16  1  0.35512000  0.00040000  0.84281000  1.0 1.5274758273
O  O1  1  0.80740000  0.38670000  0.85610000  1.0 -0.7037827081
O  O2  1  0.69260000  0.61330000  0.35610000  1.0 -0.7059478229
O  O3  1  0.19260000  0.88670000  0.64390000  1.0 -0.7059478229
O  O4  1  0.30740000  0.11330000  0.14390000  1.0 -0.7059478229
O  O5  1  0.80460000  0.35160000  0.99150000  1.0 -0.759369432
O  O6  1  0.69540000  0.64840000  0.49150000  1.0 -0.759369432
O  O7  1  0.19540000  0.85160000  0.50850000  1.0 -0.759369432
O  O8  1  0.30460000  0.14840000  0.00850000  1.0 -0.759369432
O  O9  1  0.94730000  0.23200000  0.90540000  1.0 -0.7198056287
O  O10  1  0.55270000  0.76800000  0.40540000  1.0 -0.7303890432
O  O11  1  0.05270000  0.73200000  0.59460000  1.0 -0.7303890432
O  O12  1  0.44730000  0.26800000  0.09460000  1.0 -0.7303890432
O  O13  1  0.60750000  0.25030000  0.90910000  1.0 -0.7303890432
O  O14  1  0.89250000  0.74970000  0.40910000  1.0 -0.7303890432
O  O15  1  0.39250000  0.75030000  0.59090000  1.0 -0.7303890432
O  O16  1  0.10750000  0.24970000  0.09090000  1.0 -0.7303890432
O  O17  1  0.48100000  0.49650000  0.02280000  1.0 -0.7764107502
O  O18  1  0.01900000  0.50350000  0.52280000  1.0 -0.7764107502
O  O19  1  0.51900000  0.99650000  0.47720000  1.0 -0.7764107502
O  O20  1  0.98100000  0.00350000  0.97720000  1.0 -0.7764107502
O  O21  1  0.22650000  0.39880000  0.96830000  1.0 -0.7396337564
O  O22  1  0.27350000  0.60120000  0.46830000  1.0 -0.7491187638
O  O23  1  0.77350000  0.89880000  0.53170000  1.0 -0.7396337564
O  O24  1  0.72650000  0.10120000  0.03170000  1.0 -0.7396337564
O  O25  1  0.22680000  0.59130000  0.96460000  1.0 -0.7396337564
O  O26  1  0.27320000  0.40870000  0.46460000  1.0 -0.7396337564
O  O27  1  0.77320000  0.09130000  0.53540000  1.0 -0.7396337564
O  O28  1  0.72680000  0.90870000  0.03540000  1.0 -0.7396337564
O  O29  1  0.43410000  0.49420000  0.88582000  1.0 -0.7198056287
O  O30  1  0.06590000  0.50580000  0.38582000  1.0 -0.7198056287
O  O31  1  0.56590000  0.99420000  0.61418000  1.0 -0.7198056287
O  O32  1  0.93410000  0.00580000  0.11418000  1.0 -0.7198056287
O  O33  1  0.80550000  0.64360000  0.99110000  1.0 -0.759369432
O  O34  1  0.69450000  0.35640000  0.49110000  1.0 -0.759369432
O  O35  1  0.19450000  0.14360000  0.50890000  1.0 -0.759369432
O  O36  1  0.30550000  0.85640000  0.00890000  1.0 -0.759369432
O  O37  1  0.80120000  0.62330000  0.85210000  1.0 -0.7037827081
O  O38  1  0.69880000  0.37670000  0.35210000  1.0 -0.7037827081
O  O39  1  0.19880000  0.12330000  0.64790000  1.0 -0.7037827081
O  O40  1  0.30120000  0.87670000  0.14790000  1.0 -0.7037827081
O  O41  1  0.60910000  0.75280000  0.91310000  1.0 -0.7303890432
O  O42  1  0.89090000  0.24720000  0.41310000  1.0 -0.7396337564
O  O43  1  0.39090000  0.25280000  0.58690000  1.0 -0.7303890432
O  O44  1  0.10910000  0.74720000  0.08690000  1.0 -0.7396337564
O  O45  1  0.94170000  0.77560000  0.90830000  1.0 -0.7303890432
O  O46  1  0.55830000  0.22440000  0.40830000  1.0 -0.7303890432
O  O47  1  0.05830000  0.27560000  0.59170000  1.0 -0.7303890432
O  O48  1  0.44170000  0.72440000  0.09170000  1.0 -0.7303890432
O  O49  1  0.01090000  0.49740000  0.09859000  1.0 -0.7491187638
O  O50  1  0.48910000  0.50260000  0.59859000  1.0 -0.7491187638
O  O51  1  0.98910000  0.99740000  0.40141000  1.0 -0.7491187638
O  O52  1  0.51090000  0.00260000  0.90141000  1.0 -0.7491187638
O  O53  1  0.93610000  0.50310000  0.23328000  1.0 -0.6825068807
O  O54  1  0.56390000  0.49690000  0.73328000  1.0 -0.6825068807
O  O55  1  0.06390000  0.00310000  0.26672000  1.0 -0.6825068807
O  O56  1  0.43610000  0.99690000  0.76672000  1.0 -0.6825068807
O  O57  1  0.74150000  0.59320000  0.14280000  1.0 -0.7396337564
O  O58  1  0.75850000  0.40680000  0.64280000  1.0 -0.7303890432
O  O59  1  0.25850000  0.09320000  0.35720000  1.0 -0.7303890432
O  O60  1  0.24150000  0.90680000  0.85720000  1.0 -0.7396337564
O  O61  1  0.74770000  0.40160000  0.14490000  1.0 -0.7303890432
O  O62  1  0.75230000  0.59840000  0.64490000  1.0 -0.7303890432
O  O63  1  0.25230000  0.90160000  0.35510000  1.0 -0.7303890432
O  O64  1  0.24770000  0.09840000  0.85510000  1.0 -0.7303890432
