# DDEC6 charges by PACMAN v1.1 (https://github.com/mtap-research/PACMAN-charge/)
data_YAXCOT_ASR_pacman
_symmetry_space_group_name_H-M   'P 1'
_cell_length_a   16.22950000
_cell_length_b   16.22950000
_cell_length_c   31.87350000
_cell_angle_alpha   81.75180000
_cell_angle_beta   98.24820000
_cell_angle_gamma   83.31950000
_symmetry_Int_Tables_number   1
_chemical_formula_structural   La2H50C80N7O16
_chemical_formula_sum   'La8 H200 C320 N28 O64'
_cell_volume   8141.84950166
_cell_formula_units_Z   4
loop_
 _symmetry_equiv_pos_site_id
 _symmetry_equiv_pos_as_xyz
  1  'x, y, z'
loop_
 _atom_site_type_symbol
 _atom_site_label
 _atom_site_symmetry_multiplicity
 _atom_site_fract_x
 _atom_site_fract_y
 _atom_site_fract_z
 _atom_site_occupancy
 _atom_site_charge
La  La1  1  0.85459000  0.68467000  0.79794000  1.0 1.8797443619
La  La2  1  0.47779000  0.14445000  0.41317000  1.0 1.5189852229
La  La3  1  0.68467000  0.85459000  0.70206000  1.0 1.8797443619
La  La4  1  0.14445000  0.47779000  0.08683000  1.0 1.5189852229
La  La5  1  0.14541000  0.31533000  0.20206000  1.0 1.8797443619
La  La6  1  0.52221000  0.85555000  0.58683000  1.0 1.5189852229
La  La7  1  0.31533000  0.14541000  0.29794000  1.0 1.8797443619
La  La8  1  0.85555000  0.52221000  0.91317000  1.0 1.5189852229
H  H1  1  0.00769000  0.67995000  0.40156000  1.0 0.2719509078
H  H2  1  0.93331000  0.61567000  0.45232000  1.0 0.2719509078
H  H3  1  0.97867000  0.59403000  0.67585000  1.0 0.1200405467
H  H4  1  0.14373000  0.70357000  0.30718000  1.0 0.1283944846
H  H5  1  0.19104000  0.79220000  0.35783000  1.0 0.1283944846
H  H6  1  0.16461000  0.49567000  0.24414000  1.0 0.1200405467
H  H7  1  0.80629000  0.79187000  0.62327000  1.0 0.1283944846
H  H8  1  0.35492000  0.88898000  0.45790000  1.0 0.1283944846
H  H9  1  0.26156000  0.79394000  0.46902000  1.0 0.1200405467
H  H10  1  0.09869000  0.86983000  0.50331000  1.0 0.1283944846
H  H11  1  0.95589000  0.64335000  0.17939000  1.0 0.1123476234
H  H12  1  0.13161000  0.53367000  0.30682000  1.0 0.1200405467
H  H13  1  0.17959000  0.03969000  0.37151000  1.0 0.1200405467
H  H14  1  0.00934000  0.57888000  0.60788000  1.0 0.1200405467
H  H15  1  0.01811000  0.80641000  0.55458000  1.0 0.1200405467
H  H16  1  0.87164000  0.54166000  0.28830000  1.0 0.1200405467
H  H17  1  0.83764000  0.77754000  0.55602000  1.0 0.1200405467
H  H18  1  0.80690000  0.44906000  0.50939000  1.0 0.1200405467
H  H19  1  0.92339000  0.67755000  0.24402000  1.0 0.1123476234
H  H20  1  0.08356000  0.94800000  0.38286000  1.0 0.1200405467
H  H21  1  0.86095000  0.53145000  0.56296000  1.0 0.1283944846
H  H22  1  0.78627000  0.48349000  0.33799000  1.0 0.1123476234
H  H23  1  0.68260000  0.50712000  0.44756000  1.0 0.1200405467
H  H24  1  0.58798000  0.41352000  0.44568000  1.0 0.1200405467
H  H25  1  0.74528000  0.26966000  0.38983000  1.0 0.1200405467
H  H26  1  0.83970000  0.36138000  0.39519000  1.0 0.1200405467
H  H27  1  0.08361000  0.09709000  0.83343000  1.0 0.1283944846
H  H28  1  0.04044000  0.87932000  0.79388000  1.0 0.1200405467
H  H29  1  0.67245000  0.49039000  0.78237000  1.0 0.1283944846
H  H30  1  0.13965000  0.18547000  0.88335000  1.0 0.1402410143
H  H31  1  0.13629000  0.97221000  0.79396000  1.0 0.1200405467
H  H32  1  0.34528000  0.41348000  0.88028000  1.0 0.1283944846
H  H33  1  0.42748000  0.47742000  0.82777000  1.0 0.1283944846
H  H34  1  0.27575000  0.26169000  0.99748000  1.0 0.1123476234
H  H35  1  0.30288000  0.22052000  0.93441000  1.0 0.1200405467
H  H36  1  0.12241000  0.46609000  0.93092000  1.0 0.1283944846
H  H37  1  0.14937000  0.42063000  0.86798000  1.0 0.1200405467
H  H38  1  0.35253000  0.35033000  0.32063000  1.0 0.0972325986
H  H39  1  0.33887000  0.49411000  0.31783000  1.0 0.1283944846
H  H40  1  0.31371000  0.52859000  0.35839000  1.0 0.1402410143
H  H41  1  0.40846000  0.49946000  0.35651000  1.0 0.1283944846
H  H42  1  0.23704000  0.38352000  0.39346000  1.0 0.1283944846
H  H43  1  0.31379000  0.38707000  0.42883000  1.0 0.1402410143
H  H44  1  0.26668000  0.47012000  0.39977000  1.0 0.1283944846
H  H45  1  0.85399000  0.33698000  0.45580000  1.0 0.1200405467
H  H46  1  0.67743000  0.51865000  0.38633000  1.0 0.1123476234
H  H47  1  0.58221000  0.42279000  0.38255000  1.0 0.1123476234
H  H48  1  0.75877000  0.24113000  0.45202000  1.0 0.1123476234
H  H49  1  0.23572000  0.23338000  0.77584000  1.0 0.2222819419
H  H50  1  0.30383000  0.31189000  0.77442000  1.0 0.2222819419
H  H51  1  0.67995000  0.00769000  0.09844000  1.0 0.2719509078
H  H52  1  0.61567000  0.93331000  0.04768000  1.0 0.2719509078
H  H53  1  0.59403000  0.97867000  0.82415000  1.0 0.1200405467
H  H54  1  0.70357000  0.14373000  0.19282000  1.0 0.1283944846
H  H55  1  0.79220000  0.19104000  0.14217000  1.0 0.1283944846
H  H56  1  0.49567000  0.16461000  0.25586000  1.0 0.1200405467
H  H57  1  0.79187000  0.80629000  0.87673000  1.0 0.1283944846
H  H58  1  0.88898000  0.35492000  0.04210000  1.0 0.1283944846
H  H59  1  0.79394000  0.26156000  0.03098000  1.0 0.1200405467
H  H60  1  0.86983000  0.09869000  0.99669000  1.0 0.1283944846
H  H61  1  0.64335000  0.95589000  0.32061000  1.0 0.1123476234
H  H62  1  0.53367000  0.13161000  0.19318000  1.0 0.1200405467
H  H63  1  0.03969000  0.17959000  0.12849000  1.0 0.1200405467
H  H64  1  0.57888000  0.00934000  0.89212000  1.0 0.1200405467
H  H65  1  0.80641000  0.01811000  0.94542000  1.0 0.1200405467
H  H66  1  0.54166000  0.87164000  0.21170000  1.0 0.1200405467
H  H67  1  0.77754000  0.83764000  0.94398000  1.0 0.1200405467
H  H68  1  0.44906000  0.80690000  0.99061000  1.0 0.1200405467
H  H69  1  0.67755000  0.92339000  0.25598000  1.0 0.1123476234
H  H70  1  0.94800000  0.08356000  0.11714000  1.0 0.1200405467
H  H71  1  0.53145000  0.86095000  0.93704000  1.0 0.1283944846
H  H72  1  0.48349000  0.78627000  0.16201000  1.0 0.1123476234
H  H73  1  0.50712000  0.68260000  0.05244000  1.0 0.1200405467
H  H74  1  0.41352000  0.58798000  0.05432000  1.0 0.1200405467
H  H75  1  0.26966000  0.74528000  0.11017000  1.0 0.1200405467
H  H76  1  0.36138000  0.83970000  0.10481000  1.0 0.1200405467
H  H77  1  0.09709000  0.08361000  0.66657000  1.0 0.1283944846
H  H78  1  0.87932000  0.04044000  0.70612000  1.0 0.1200405467
H  H79  1  0.49039000  0.67245000  0.71763000  1.0 0.1283944846
H  H80  1  0.18547000  0.13965000  0.61665000  1.0 0.1402410143
H  H81  1  0.97221000  0.13629000  0.70604000  1.0 0.1200405467
H  H82  1  0.41348000  0.34528000  0.61972000  1.0 0.1283944846
H  H83  1  0.47742000  0.42748000  0.67223000  1.0 0.1283944846
H  H84  1  0.26169000  0.27575000  0.50252000  1.0 0.1123476234
H  H85  1  0.22052000  0.30288000  0.56559000  1.0 0.1200405467
H  H86  1  0.46609000  0.12241000  0.56908000  1.0 0.1283944846
H  H87  1  0.42063000  0.14937000  0.63202000  1.0 0.1200405467
H  H88  1  0.35033000  0.35253000  0.17937000  1.0 0.0972325986
H  H89  1  0.49411000  0.33887000  0.18217000  1.0 0.1283944846
H  H90  1  0.52859000  0.31371000  0.14161000  1.0 0.1402410143
H  H91  1  0.49946000  0.40846000  0.14349000  1.0 0.1283944846
H  H92  1  0.38352000  0.23704000  0.10654000  1.0 0.1283944846
H  H93  1  0.38707000  0.31379000  0.07117000  1.0 0.1402410143
H  H94  1  0.47012000  0.26668000  0.10023000  1.0 0.1283944846
H  H95  1  0.33698000  0.85399000  0.04420000  1.0 0.1200405467
H  H96  1  0.51865000  0.67743000  0.11367000  1.0 0.1123476234
H  H97  1  0.42279000  0.58221000  0.11745000  1.0 0.1123476234
H  H98  1  0.24113000  0.75877000  0.04798000  1.0 0.1123476234
H  H99  1  0.23338000  0.23572000  0.72416000  1.0 0.2222819419
H  H100  1  0.31189000  0.30383000  0.72558000  1.0 0.2222819419
H  H101  1  0.99231000  0.32005000  0.59844000  1.0 0.2719509078
H  H102  1  0.06669000  0.38433000  0.54768000  1.0 0.2719509078
H  H103  1  0.02133000  0.40597000  0.32415000  1.0 0.1200405467
H  H104  1  0.85627000  0.29643000  0.69282000  1.0 0.1283944846
H  H105  1  0.80896000  0.20780000  0.64217000  1.0 0.1283944846
H  H106  1  0.83539000  0.50433000  0.75586000  1.0 0.1200405467
H  H107  1  0.19371000  0.20813000  0.37673000  1.0 0.1283944846
H  H108  1  0.64508000  0.11102000  0.54210000  1.0 0.1283944846
H  H109  1  0.73844000  0.20606000  0.53098000  1.0 0.1200405467
H  H110  1  0.90131000  0.13017000  0.49669000  1.0 0.1283944846
H  H111  1  0.04411000  0.35665000  0.82061000  1.0 0.1123476234
H  H112  1  0.86839000  0.46633000  0.69318000  1.0 0.1200405467
H  H113  1  0.82041000  0.96031000  0.62849000  1.0 0.1200405467
H  H114  1  0.99066000  0.42112000  0.39212000  1.0 0.1200405467
H  H115  1  0.98189000  0.19359000  0.44542000  1.0 0.1200405467
H  H116  1  0.12836000  0.45834000  0.71170000  1.0 0.1200405467
H  H117  1  0.16236000  0.22246000  0.44398000  1.0 0.1200405467
H  H118  1  0.19310000  0.55094000  0.49061000  1.0 0.1200405467
H  H119  1  0.07661000  0.32245000  0.75598000  1.0 0.1123476234
H  H120  1  0.91644000  0.05200000  0.61714000  1.0 0.1200405467
H  H121  1  0.13905000  0.46855000  0.43704000  1.0 0.1283944846
H  H122  1  0.21373000  0.51651000  0.66201000  1.0 0.1123476234
H  H123  1  0.31740000  0.49288000  0.55244000  1.0 0.1200405467
H  H124  1  0.41202000  0.58648000  0.55432000  1.0 0.1200405467
H  H125  1  0.25472000  0.73034000  0.61017000  1.0 0.1200405467
H  H126  1  0.16030000  0.63862000  0.60481000  1.0 0.1200405467
H  H127  1  0.91639000  0.90291000  0.16657000  1.0 0.1283944846
H  H128  1  0.95956000  0.12068000  0.20612000  1.0 0.1200405467
H  H129  1  0.32755000  0.50961000  0.21763000  1.0 0.1283944846
H  H130  1  0.86035000  0.81453000  0.11665000  1.0 0.1402410143
H  H131  1  0.86371000  0.02779000  0.20604000  1.0 0.1200405467
H  H132  1  0.65472000  0.58652000  0.11972000  1.0 0.1283944846
H  H133  1  0.57252000  0.52258000  0.17223000  1.0 0.1283944846
H  H134  1  0.72425000  0.73831000  0.00252000  1.0 0.1123476234
H  H135  1  0.69712000  0.77948000  0.06559000  1.0 0.1200405467
H  H136  1  0.87759000  0.53391000  0.06908000  1.0 0.1283944846
H  H137  1  0.85063000  0.57937000  0.13202000  1.0 0.1200405467
H  H138  1  0.64747000  0.64967000  0.67937000  1.0 0.0972325986
H  H139  1  0.66113000  0.50589000  0.68217000  1.0 0.1283944846
H  H140  1  0.68629000  0.47141000  0.64161000  1.0 0.1402410143
H  H141  1  0.59154000  0.50054000  0.64349000  1.0 0.1283944846
H  H142  1  0.76296000  0.61648000  0.60654000  1.0 0.1283944846
H  H143  1  0.68621000  0.61293000  0.57117000  1.0 0.1402410143
H  H144  1  0.73332000  0.52988000  0.60023000  1.0 0.1283944846
H  H145  1  0.14601000  0.66301000  0.54420000  1.0 0.1200405467
H  H146  1  0.32257000  0.48135000  0.61367000  1.0 0.1123476234
H  H147  1  0.41779000  0.57721000  0.61745000  1.0 0.1123476234
H  H148  1  0.24123000  0.75887000  0.54798000  1.0 0.1123476234
H  H149  1  0.76428000  0.76662000  0.22416000  1.0 0.2222819419
H  H150  1  0.69617000  0.68811000  0.22558000  1.0 0.2222819419
H  H151  1  0.32005000  0.99231000  0.90156000  1.0 0.2719509078
H  H152  1  0.38433000  0.06669000  0.95232000  1.0 0.2719509078
H  H153  1  0.40597000  0.02133000  0.17585000  1.0 0.1200405467
H  H154  1  0.29643000  0.85627000  0.80718000  1.0 0.1283944846
H  H155  1  0.20780000  0.80896000  0.85783000  1.0 0.1283944846
H  H156  1  0.50433000  0.83539000  0.74414000  1.0 0.1200405467
H  H157  1  0.20813000  0.19371000  0.12327000  1.0 0.1283944846
H  H158  1  0.11102000  0.64508000  0.95790000  1.0 0.1283944846
H  H159  1  0.20606000  0.73844000  0.96902000  1.0 0.1200405467
H  H160  1  0.13017000  0.90131000  0.00331000  1.0 0.1283944846
H  H161  1  0.35665000  0.04411000  0.67939000  1.0 0.1123476234
H  H162  1  0.46633000  0.86839000  0.80682000  1.0 0.1200405467
H  H163  1  0.96031000  0.82041000  0.87151000  1.0 0.1200405467
H  H164  1  0.42112000  0.99066000  0.10788000  1.0 0.1200405467
H  H165  1  0.19359000  0.98189000  0.05458000  1.0 0.1200405467
H  H166  1  0.45834000  0.12836000  0.78830000  1.0 0.1200405467
H  H167  1  0.22246000  0.16236000  0.05602000  1.0 0.1200405467
H  H168  1  0.55094000  0.19310000  0.00939000  1.0 0.1200405467
H  H169  1  0.32245000  0.07661000  0.74402000  1.0 0.1123476234
H  H170  1  0.05200000  0.91644000  0.88286000  1.0 0.1200405467
H  H171  1  0.46855000  0.13905000  0.06296000  1.0 0.1283944846
H  H172  1  0.51651000  0.21373000  0.83799000  1.0 0.1123476234
H  H173  1  0.49288000  0.31740000  0.94756000  1.0 0.1200405467
H  H174  1  0.58648000  0.41202000  0.94568000  1.0 0.1200405467
H  H175  1  0.73034000  0.25472000  0.88983000  1.0 0.1200405467
H  H176  1  0.63862000  0.16030000  0.89519000  1.0 0.1200405467
H  H177  1  0.90291000  0.91639000  0.33343000  1.0 0.1283944846
H  H178  1  0.12068000  0.95956000  0.29388000  1.0 0.1200405467
H  H179  1  0.50961000  0.32755000  0.28237000  1.0 0.1283944846
H  H180  1  0.81453000  0.86035000  0.38335000  1.0 0.1402410143
H  H181  1  0.02779000  0.86371000  0.29396000  1.0 0.1200405467
H  H182  1  0.58652000  0.65472000  0.38028000  1.0 0.1283944846
H  H183  1  0.52258000  0.57252000  0.32777000  1.0 0.1283944846
H  H184  1  0.73831000  0.72425000  0.49748000  1.0 0.1123476234
H  H185  1  0.77948000  0.69712000  0.43441000  1.0 0.1200405467
H  H186  1  0.53391000  0.87759000  0.43092000  1.0 0.1283944846
H  H187  1  0.57937000  0.85063000  0.36798000  1.0 0.1200405467
H  H188  1  0.64967000  0.64747000  0.82063000  1.0 0.0972325986
H  H189  1  0.50589000  0.66113000  0.81783000  1.0 0.1283944846
H  H190  1  0.47141000  0.68629000  0.85839000  1.0 0.1402410143
H  H191  1  0.50054000  0.59154000  0.85651000  1.0 0.1283944846
H  H192  1  0.61648000  0.76296000  0.89346000  1.0 0.1283944846
H  H193  1  0.61293000  0.68621000  0.92883000  1.0 0.1402410143
H  H194  1  0.52988000  0.73332000  0.89977000  1.0 0.1283944846
H  H195  1  0.66301000  0.14601000  0.95580000  1.0 0.1200405467
H  H196  1  0.48135000  0.32257000  0.88633000  1.0 0.1123476234
H  H197  1  0.57721000  0.41779000  0.88255000  1.0 0.1123476234
H  H198  1  0.75887000  0.24123000  0.95202000  1.0 0.1123476234
H  H199  1  0.76662000  0.76428000  0.27584000  1.0 0.2222819419
H  H200  1  0.68811000  0.69617000  0.27442000  1.0 0.2222819419
C  C1  1  0.00190000  0.62410000  0.32450000  1.0 -0.0901716018
C  C2  1  0.27610000  0.97330000  0.41310000  1.0 -0.0297374935
C  C3  1  0.88780000  0.69300000  0.65587000  1.0 -0.0297374935
C  C4  1  0.83430000  0.50350000  0.42510000  1.0 -0.0520221313
C  C5  1  0.98980000  0.72260000  0.51080000  1.0 0.1667098575
C  C6  1  0.93520000  0.59060000  0.34010000  1.0 0.1598909751
C  C7  1  0.16170000  0.86050000  0.42670000  1.0 0.0871896239
C  C8  1  0.94960000  0.63040000  0.65170000  1.0 -0.0983357586
C  C9  1  0.94480000  0.66560000  0.53110000  1.0 -0.0901716018
C  C10  1  0.06150000  0.56290000  0.20460000  1.0 -0.039862652
C  C11  1  0.05340000  0.67260000  0.34700000  1.0 0.1598909751
C  C12  1  0.09880000  0.75100000  0.39400000  1.0 0.1598909751
C  C13  1  0.07930000  0.53310000  0.16450000  1.0 0.5692169081
C  C14  1  0.12200000  0.71120000  0.33200000  1.0 -0.2001731775
C  C15  1  0.14830000  0.75910000  0.35990000  1.0 -0.2001731775
C  C16  1  0.92680000  0.67740000  0.57490000  1.0 0.0871896239
C  C17  1  0.86430000  0.69690000  0.70010000  1.0 0.6014191022
C  C18  1  0.11540000  0.53160000  0.24370000  1.0 -0.0983357586
C  C19  1  0.84690000  0.74870000  0.62030000  1.0 -0.0901716018
C  C20  1  0.30050000  0.90010000  0.44260000  1.0 -0.0813337835
C  C21  1  0.24450000  0.84330000  0.44940000  1.0 -0.1505627218
C  C22  1  0.06410000  0.78110000  0.46410000  1.0 0.1667098575
C  C23  1  0.06930000  0.82470000  0.50010000  1.0 -0.2089648978
C  C24  1  0.86260000  0.52540000  0.46510000  1.0 0.1200405467
C  C25  1  0.02220000  0.60700000  0.28220000  1.0 0.0830071454
C  C26  1  0.91190000  0.60050000  0.51330000  1.0 0.1667098575
C  C27  1  0.99070000  0.61930000  0.20500000  1.0 -0.0901716018
C  C28  1  0.09510000  0.55430000  0.28120000  1.0 -0.1505627218
C  C29  1  0.19590000  0.99030000  0.39120000  1.0 -0.0983357586
C  C30  1  0.85750000  0.53570000  0.38580000  1.0 0.1200405467
C  C31  1  0.96850000  0.62190000  0.61090000  1.0 -0.1579918811
C  C32  1  0.10460000  0.79640000  0.42920000  1.0 -0.0813337835
C  C33  1  0.02500000  0.79000000  0.52840000  1.0 -0.2089648978
C  C34  1  0.87620000  0.54660000  0.31720000  1.0 -0.2001731775
C  C35  1  0.86620000  0.74020000  0.58000000  1.0 -0.1388430783
C  C36  1  0.83790000  0.49330000  0.50480000  1.0 -0.2089648978
C  C37  1  0.34010000  0.02930000  0.40330000  1.0 0.584920775
C  C38  1  0.97150000  0.64030000  0.24410000  1.0 -0.1505627218
C  C39  1  0.13820000  0.93500000  0.39780000  1.0 -0.1505627218
C  C40  1  0.86770000  0.53870000  0.53420000  1.0 -0.1917915383
C  C41  1  0.82970000  0.51450000  0.34450000  1.0 -0.2192329729
C  C42  1  0.69710000  0.45670000  0.43800000  1.0 -0.039862652
C  C43  1  0.63890000  0.40250000  0.43600000  1.0 -0.0813337835
C  C44  1  0.73220000  0.31580000  0.40310000  1.0 -0.0520221313
C  C45  1  0.79000000  0.37040000  0.40630000  1.0 -0.0182009574
C  C46  1  0.77230000  0.44290000  0.42740000  1.0 0.0244401561
C  C47  1  0.15320000  0.15640000  0.78880000  1.0 0.1598909751
C  C48  1  0.20700000  0.23260000  0.83490000  1.0 0.1598909751
C  C49  1  0.12010000  0.13610000  0.82820000  1.0 -0.1917915383
C  C50  1  0.02690000  0.93110000  0.77600000  1.0 -0.0983357586
C  C51  1  0.24830000  0.29410000  0.85250000  1.0 -0.0983357586
C  C52  1  0.37940000  0.39700000  0.78700000  1.0 0.1598909751
C  C53  1  0.30270000  0.34210000  0.83320000  1.0 0.1598909751
C  C54  1  0.19770000  0.36930000  0.97140000  1.0 -0.0297374935
C  C55  1  0.61700000  0.50880000  0.76940000  1.0 -0.1505627218
C  C56  1  0.22880000  0.31600000  0.89450000  1.0 0.0830071454
C  C57  1  0.15160000  0.18400000  0.85580000  1.0 -0.180105094
C  C58  1  0.08430000  0.98690000  0.77620000  1.0 -0.1505627218
C  C59  1  0.56030000  0.45230000  0.76970000  1.0 -0.1388430783
C  C60  1  0.34720000  0.40100000  0.85280000  1.0 -0.2192329729
C  C61  1  0.39340000  0.43600000  0.82390000  1.0 -0.2089648978
C  C62  1  0.18270000  0.40070000  0.01160000  1.0 0.4671268573
C  C63  1  0.25070000  0.29470000  0.97150000  1.0 -0.0983357586
C  C64  1  0.26640000  0.26960000  0.93360000  1.0 -0.1505627218
C  C65  1  0.15870000  0.41690000  0.93200000  1.0 -0.0813337835
C  C66  1  0.17520000  0.38900000  0.89420000  1.0 -0.1331197509
C  C67  1  0.35390000  0.33710000  0.35010000  1.0 0.2779923638
C  C68  1  0.35190000  0.48870000  0.34850000  1.0 -0.3329281846
C  C69  1  0.66110000  0.32250000  0.41690000  1.0 -0.0297374935
C  C70  1  0.59650000  0.26250000  0.41330000  1.0 0.4036732277
C  C71  1  0.28500000  0.41140000  0.40050000  1.0 -0.3210090065
C  C72  1  0.79960000  0.35420000  0.44110000  1.0 -0.0182009574
C  C73  1  0.77510000  0.43730000  0.42140000  1.0 0.0018456396
C  C74  1  0.69380000  0.46300000  0.39950000  1.0 -0.0297374935
C  C75  1  0.63660000  0.40560000  0.39720000  1.0 -0.0983357586
C  C76  1  0.74250000  0.29670000  0.43880000  1.0 -0.0725005916
C  C77  1  0.62410000  0.00190000  0.17550000  1.0 -0.0901716018
C  C78  1  0.97330000  0.27610000  0.08690000  1.0 -0.0297374935
C  C79  1  0.69300000  0.88780000  0.84413000  1.0 -0.0297374935
C  C80  1  0.50350000  0.83430000  0.07490000  1.0 -0.0520221313
C  C81  1  0.72260000  0.98980000  0.98920000  1.0 0.1667098575
C  C82  1  0.59060000  0.93520000  0.15990000  1.0 0.1598909751
C  C83  1  0.86050000  0.16170000  0.07330000  1.0 0.0871896239
C  C84  1  0.63040000  0.94960000  0.84830000  1.0 -0.0983357586
C  C85  1  0.66560000  0.94480000  0.96890000  1.0 -0.0901716018
C  C86  1  0.56290000  0.06150000  0.29540000  1.0 -0.039862652
C  C87  1  0.67260000  0.05340000  0.15300000  1.0 0.1598909751
C  C88  1  0.75100000  0.09880000  0.10600000  1.0 0.1598909751
C  C89  1  0.53310000  0.07930000  0.33550000  1.0 0.5692169081
C  C90  1  0.71120000  0.12200000  0.16800000  1.0 -0.2001731775
C  C91  1  0.75910000  0.14830000  0.14010000  1.0 -0.2001731775
C  C92  1  0.67740000  0.92680000  0.92510000  1.0 0.0871896239
C  C93  1  0.69690000  0.86430000  0.79990000  1.0 0.6014191022
C  C94  1  0.53160000  0.11540000  0.25630000  1.0 -0.0983357586
C  C95  1  0.74870000  0.84690000  0.87970000  1.0 -0.0901716018
C  C96  1  0.90010000  0.30050000  0.05740000  1.0 -0.0813337835
C  C97  1  0.84330000  0.24450000  0.05060000  1.0 -0.1505627218
C  C98  1  0.78110000  0.06410000  0.03590000  1.0 0.1667098575
C  C99  1  0.82470000  0.06930000  0.99990000  1.0 -0.2001731775
C  C100  1  0.52540000  0.86260000  0.03490000  1.0 0.1200405467
C  C101  1  0.60700000  0.02220000  0.21780000  1.0 0.0830071454
C  C102  1  0.60050000  0.91190000  0.98670000  1.0 0.1667098575
C  C103  1  0.61930000  0.99070000  0.29500000  1.0 -0.0901716018
C  C104  1  0.55430000  0.09510000  0.21880000  1.0 -0.1505627218
C  C105  1  0.99030000  0.19590000  0.10880000  1.0 -0.0983357586
C  C106  1  0.53570000  0.85750000  0.11420000  1.0 0.1200405467
C  C107  1  0.62190000  0.96850000  0.88910000  1.0 -0.1579918811
C  C108  1  0.79640000  0.10460000  0.07080000  1.0 -0.0813337835
C  C109  1  0.79000000  0.02500000  0.97160000  1.0 -0.2089648978
C  C110  1  0.54660000  0.87620000  0.18280000  1.0 -0.2001731775
C  C111  1  0.74020000  0.86620000  0.92000000  1.0 -0.1388430783
C  C112  1  0.49330000  0.83790000  0.99520000  1.0 -0.2089648978
C  C113  1  0.02930000  0.34010000  0.09670000  1.0 0.584920775
C  C114  1  0.64030000  0.97150000  0.25590000  1.0 -0.1505627218
C  C115  1  0.93500000  0.13820000  0.10220000  1.0 -0.1505627218
C  C116  1  0.53870000  0.86770000  0.96580000  1.0 -0.1917915383
C  C117  1  0.51450000  0.82970000  0.15550000  1.0 -0.2192329729
C  C118  1  0.45670000  0.69710000  0.06200000  1.0 -0.039862652
C  C119  1  0.40250000  0.63890000  0.06400000  1.0 -0.0813337835
C  C120  1  0.31580000  0.73220000  0.09690000  1.0 -0.0520221313
C  C121  1  0.37040000  0.79000000  0.09370000  1.0 -0.0182009574
C  C122  1  0.44290000  0.77230000  0.07260000  1.0 0.0244401561
C  C123  1  0.15640000  0.15320000  0.71120000  1.0 0.1598909751
C  C124  1  0.23260000  0.20700000  0.66510000  1.0 0.1598909751
C  C125  1  0.13610000  0.12010000  0.67180000  1.0 -0.1917915383
C  C126  1  0.93110000  0.02690000  0.72400000  1.0 -0.0983357586
C  C127  1  0.29410000  0.24830000  0.64750000  1.0 -0.0983357586
C  C128  1  0.39700000  0.37940000  0.71300000  1.0 0.1598909751
C  C129  1  0.34210000  0.30270000  0.66680000  1.0 0.1598909751
C  C130  1  0.36930000  0.19770000  0.52860000  1.0 -0.0297374935
C  C131  1  0.50880000  0.61700000  0.73060000  1.0 -0.1505627218
C  C132  1  0.31600000  0.22880000  0.60550000  1.0 0.0830071454
C  C133  1  0.18400000  0.15160000  0.64420000  1.0 -0.180105094
C  C134  1  0.98690000  0.08430000  0.72380000  1.0 -0.1505627218
C  C135  1  0.45230000  0.56030000  0.73030000  1.0 -0.1388430783
C  C136  1  0.40100000  0.34720000  0.64720000  1.0 -0.2192329729
C  C137  1  0.43600000  0.39340000  0.67610000  1.0 -0.2089648978
C  C138  1  0.40070000  0.18270000  0.48840000  1.0 0.4671268573
C  C139  1  0.29470000  0.25070000  0.52850000  1.0 -0.0983357586
C  C140  1  0.26960000  0.26640000  0.56640000  1.0 -0.1505627218
C  C141  1  0.41690000  0.15870000  0.56800000  1.0 -0.0813337835
C  C142  1  0.38900000  0.17520000  0.60580000  1.0 -0.1331197509
C  C143  1  0.33710000  0.35390000  0.14990000  1.0 0.2779923638
C  C144  1  0.48870000  0.35190000  0.15150000  1.0 -0.3329281846
C  C145  1  0.32250000  0.66110000  0.08310000  1.0 -0.0297374935
C  C146  1  0.26250000  0.59650000  0.08670000  1.0 0.4036732277
C  C147  1  0.41140000  0.28500000  0.09950000  1.0 -0.3210090065
C  C148  1  0.35420000  0.79960000  0.05890000  1.0 -0.0182009574
C  C149  1  0.43730000  0.77510000  0.07860000  1.0 0.0018456396
C  C150  1  0.46300000  0.69380000  0.10050000  1.0 -0.0297374935
C  C151  1  0.40560000  0.63660000  0.10280000  1.0 -0.0983357586
C  C152  1  0.29670000  0.74250000  0.06120000  1.0 -0.0725005916
C  C153  1  0.99810000  0.37590000  0.67550000  1.0 -0.0901716018
C  C154  1  0.72390000  0.02670000  0.58690000  1.0 -0.0297374935
C  C155  1  0.11220000  0.30700000  0.34413000  1.0 -0.0297374935
C  C156  1  0.16570000  0.49650000  0.57490000  1.0 -0.0520221313
C  C157  1  0.01020000  0.27740000  0.48920000  1.0 0.1667098575
C  C158  1  0.06480000  0.40940000  0.65990000  1.0 0.1598909751
C  C159  1  0.83830000  0.13950000  0.57330000  1.0 0.0871896239
C  C160  1  0.05040000  0.36960000  0.34830000  1.0 -0.0983357586
C  C161  1  0.05520000  0.33440000  0.46890000  1.0 -0.0901716018
C  C162  1  0.93850000  0.43710000  0.79540000  1.0 -0.039862652
C  C163  1  0.94660000  0.32740000  0.65300000  1.0 0.1598909751
C  C164  1  0.90120000  0.24900000  0.60600000  1.0 0.1598909751
C  C165  1  0.92070000  0.46690000  0.83550000  1.0 0.5692169081
C  C166  1  0.87800000  0.28880000  0.66800000  1.0 -0.2001731775
C  C167  1  0.85170000  0.24090000  0.64010000  1.0 -0.2001731775
C  C168  1  0.07320000  0.32260000  0.42510000  1.0 0.0871896239
C  C169  1  0.13570000  0.30310000  0.29990000  1.0 0.6014191022
C  C170  1  0.88460000  0.46840000  0.75630000  1.0 -0.0983357586
C  C171  1  0.15310000  0.25130000  0.37970000  1.0 -0.0901716018
C  C172  1  0.69950000  0.09990000  0.55740000  1.0 -0.0813337835
C  C173  1  0.75550000  0.15670000  0.55060000  1.0 -0.1505627218
C  C174  1  0.93590000  0.21890000  0.53590000  1.0 0.1667098575
C  C175  1  0.93070000  0.17530000  0.49990000  1.0 -0.2001731775
C  C176  1  0.13740000  0.47460000  0.53490000  1.0 0.1200405467
C  C177  1  0.97780000  0.39300000  0.71780000  1.0 0.0830071454
C  C178  1  0.08810000  0.39950000  0.48670000  1.0 0.1667098575
C  C179  1  0.00930000  0.38070000  0.79500000  1.0 -0.0901716018
C  C180  1  0.90490000  0.44570000  0.71880000  1.0 -0.1505627218
C  C181  1  0.80410000  0.00970000  0.60880000  1.0 -0.0983357586
C  C182  1  0.14250000  0.46430000  0.61420000  1.0 0.1200405467
C  C183  1  0.03150000  0.37810000  0.38910000  1.0 -0.1579918811
C  C184  1  0.89540000  0.20360000  0.57080000  1.0 -0.0813337835
C  C185  1  0.97500000  0.21000000  0.47160000  1.0 -0.2089648978
C  C186  1  0.12380000  0.45340000  0.68280000  1.0 -0.2001731775
C  C187  1  0.13380000  0.25980000  0.42000000  1.0 -0.1388430783
C  C188  1  0.16210000  0.50670000  0.49520000  1.0 -0.2089648978
C  C189  1  0.65990000  0.97070000  0.59670000  1.0 0.584920775
C  C190  1  0.02850000  0.35970000  0.75590000  1.0 -0.1579918811
C  C191  1  0.86180000  0.06500000  0.60220000  1.0 -0.1505627218
C  C192  1  0.13230000  0.46130000  0.46580000  1.0 -0.1917915383
C  C193  1  0.17030000  0.48550000  0.65550000  1.0 -0.2192329729
C  C194  1  0.30290000  0.54330000  0.56200000  1.0 -0.039862652
C  C195  1  0.36110000  0.59750000  0.56400000  1.0 -0.0813337835
C  C196  1  0.26780000  0.68420000  0.59690000  1.0 -0.0520221313
C  C197  1  0.21000000  0.62960000  0.59370000  1.0 -0.0182009574
C  C198  1  0.22770000  0.55710000  0.57260000  1.0 0.0244401561
C  C199  1  0.84680000  0.84360000  0.21120000  1.0 0.1598909751
C  C200  1  0.79300000  0.76740000  0.16510000  1.0 0.1598909751
C  C201  1  0.87990000  0.86390000  0.17180000  1.0 -0.1917915383
C  C202  1  0.97310000  0.06890000  0.22400000  1.0 -0.0983357586
C  C203  1  0.75170000  0.70590000  0.14750000  1.0 -0.0983357586
C  C204  1  0.62060000  0.60300000  0.21300000  1.0 0.1598909751
C  C205  1  0.69730000  0.65790000  0.16680000  1.0 0.1598909751
C  C206  1  0.80230000  0.63070000  0.02860000  1.0 -0.0297374935
C  C207  1  0.38300000  0.49120000  0.23060000  1.0 -0.1505627218
C  C208  1  0.77120000  0.68400000  0.10550000  1.0 0.0830071454
C  C209  1  0.84840000  0.81600000  0.14420000  1.0 -0.180105094
C  C210  1  0.91570000  0.01310000  0.22380000  1.0 -0.1505627218
C  C211  1  0.43970000  0.54770000  0.23030000  1.0 -0.1388430783
C  C212  1  0.65280000  0.59900000  0.14720000  1.0 -0.2192329729
C  C213  1  0.60660000  0.56400000  0.17610000  1.0 -0.2089648978
C  C214  1  0.81730000  0.59930000  0.98840000  1.0 0.4671268573
C  C215  1  0.74930000  0.70530000  0.02850000  1.0 -0.0983357586
C  C216  1  0.73360000  0.73040000  0.06640000  1.0 -0.1505627218
C  C217  1  0.84130000  0.58310000  0.06800000  1.0 -0.0813337835
C  C218  1  0.82480000  0.61100000  0.10580000  1.0 -0.1331197509
C  C219  1  0.64610000  0.66290000  0.64990000  1.0 0.2779923638
C  C220  1  0.64810000  0.51130000  0.65150000  1.0 -0.3329281846
C  C221  1  0.33890000  0.67750000  0.58310000  1.0 -0.0297374935
C  C222  1  0.40350000  0.73750000  0.58670000  1.0 0.4036732277
C  C223  1  0.71500000  0.58860000  0.59950000  1.0 -0.3210090065
C  C224  1  0.20040000  0.64580000  0.55890000  1.0 -0.0182009574
C  C225  1  0.22490000  0.56270000  0.57860000  1.0 0.0018456396
C  C226  1  0.30620000  0.53700000  0.60050000  1.0 -0.0297374935
C  C227  1  0.36340000  0.59440000  0.60280000  1.0 -0.0983357586
C  C228  1  0.25750000  0.70330000  0.56120000  1.0 -0.0725005916
C  C229  1  0.37590000  0.99810000  0.82450000  1.0 -0.0901716018
C  C230  1  0.02670000  0.72390000  0.91310000  1.0 -0.0297374935
C  C231  1  0.30700000  0.11220000  0.15587000  1.0 -0.0297374935
C  C232  1  0.49650000  0.16570000  0.92510000  1.0 -0.0520221313
C  C233  1  0.27740000  0.01020000  0.01080000  1.0 0.1667098575
C  C234  1  0.40940000  0.06480000  0.84010000  1.0 0.1598909751
C  C235  1  0.13950000  0.83830000  0.92670000  1.0 0.0871896239
C  C236  1  0.36960000  0.05040000  0.15170000  1.0 -0.0983357586
C  C237  1  0.33440000  0.05520000  0.03110000  1.0 -0.0901716018
C  C238  1  0.43710000  0.93850000  0.70460000  1.0 -0.039862652
C  C239  1  0.32740000  0.94660000  0.84700000  1.0 0.1598909751
C  C240  1  0.24900000  0.90120000  0.89400000  1.0 0.1598909751
C  C241  1  0.46690000  0.92070000  0.66450000  1.0 0.5692169081
C  C242  1  0.28880000  0.87800000  0.83200000  1.0 -0.2001731775
C  C243  1  0.24090000  0.85170000  0.85990000  1.0 -0.2001731775
C  C244  1  0.32260000  0.07320000  0.07490000  1.0 0.0871896239
C  C245  1  0.30310000  0.13570000  0.20010000  1.0 0.6014191022
C  C246  1  0.46840000  0.88460000  0.74370000  1.0 -0.0983357586
C  C247  1  0.25130000  0.15310000  0.12030000  1.0 -0.0901716018
C  C248  1  0.09990000  0.69950000  0.94260000  1.0 -0.0813337835
C  C249  1  0.15670000  0.75550000  0.94940000  1.0 -0.1505627218
C  C250  1  0.21890000  0.93590000  0.96410000  1.0 0.1667098575
C  C251  1  0.17530000  0.93070000  0.00010000  1.0 -0.2089648978
C  C252  1  0.47460000  0.13740000  0.96510000  1.0 0.1200405467
C  C253  1  0.39300000  0.97780000  0.78220000  1.0 0.0830071454
C  C254  1  0.39950000  0.08810000  0.01330000  1.0 0.1667098575
C  C255  1  0.38070000  0.00930000  0.70500000  1.0 -0.0901716018
C  C256  1  0.44570000  0.90490000  0.78120000  1.0 -0.1505627218
C  C257  1  0.00970000  0.80410000  0.89120000  1.0 -0.0983357586
C  C258  1  0.46430000  0.14250000  0.88580000  1.0 0.1200405467
C  C259  1  0.37810000  0.03150000  0.11090000  1.0 -0.1579918811
C  C260  1  0.20360000  0.89540000  0.92920000  1.0 -0.0813337835
C  C261  1  0.21000000  0.97500000  0.02840000  1.0 -0.2089648978
C  C262  1  0.45340000  0.12380000  0.81720000  1.0 -0.2001731775
C  C263  1  0.25980000  0.13380000  0.08000000  1.0 -0.1388430783
C  C264  1  0.50670000  0.16210000  0.00480000  1.0 -0.2089648978
C  C265  1  0.97070000  0.65990000  0.90330000  1.0 0.584920775
C  C266  1  0.35970000  0.02850000  0.74410000  1.0 -0.1505627218
C  C267  1  0.06500000  0.86180000  0.89780000  1.0 -0.1505627218
C  C268  1  0.46130000  0.13230000  0.03420000  1.0 -0.1917915383
C  C269  1  0.48550000  0.17030000  0.84450000  1.0 -0.2192329729
C  C270  1  0.54330000  0.30290000  0.93800000  1.0 -0.039862652
C  C271  1  0.59750000  0.36110000  0.93600000  1.0 -0.0813337835
C  C272  1  0.68420000  0.26780000  0.90310000  1.0 -0.0520221313
C  C273  1  0.62960000  0.21000000  0.90630000  1.0 -0.0182009574
C  C274  1  0.55710000  0.22770000  0.92740000  1.0 0.0244401561
C  C275  1  0.84360000  0.84680000  0.28880000  1.0 0.1598909751
C  C276  1  0.76740000  0.79300000  0.33490000  1.0 0.1598909751
C  C277  1  0.86390000  0.87990000  0.32820000  1.0 -0.1917915383
C  C278  1  0.06890000  0.97310000  0.27600000  1.0 -0.0983357586
C  C279  1  0.70590000  0.75170000  0.35250000  1.0 -0.0983357586
C  C280  1  0.60300000  0.62060000  0.28700000  1.0 0.1598909751
C  C281  1  0.65790000  0.69730000  0.33320000  1.0 0.1598909751
C  C282  1  0.63070000  0.80230000  0.47140000  1.0 -0.0297374935
C  C283  1  0.49120000  0.38300000  0.26940000  1.0 -0.1505627218
C  C284  1  0.68400000  0.77120000  0.39450000  1.0 0.0830071454
C  C285  1  0.81600000  0.84840000  0.35580000  1.0 -0.180105094
C  C286  1  0.01310000  0.91570000  0.27620000  1.0 -0.1505627218
C  C287  1  0.54770000  0.43970000  0.26970000  1.0 -0.1388430783
C  C288  1  0.59900000  0.65280000  0.35280000  1.0 -0.2192329729
C  C289  1  0.56400000  0.60660000  0.32390000  1.0 -0.2089648978
C  C290  1  0.59930000  0.81730000  0.51160000  1.0 0.4671268573
C  C291  1  0.70530000  0.74930000  0.47150000  1.0 -0.0983357586
C  C292  1  0.73040000  0.73360000  0.43360000  1.0 -0.1505627218
C  C293  1  0.58310000  0.84130000  0.43200000  1.0 -0.0813337835
C  C294  1  0.61100000  0.82480000  0.39420000  1.0 -0.1331197509
C  C295  1  0.66290000  0.64610000  0.85010000  1.0 0.2779923638
C  C296  1  0.51130000  0.64810000  0.84850000  1.0 -0.3329281846
C  C297  1  0.67750000  0.33890000  0.91690000  1.0 -0.0297374935
C  C298  1  0.73750000  0.40350000  0.91330000  1.0 0.4036732277
C  C299  1  0.58860000  0.71500000  0.90050000  1.0 -0.3210090065
C  C300  1  0.64580000  0.20040000  0.94110000  1.0 -0.0182009574
C  C301  1  0.56270000  0.22490000  0.92140000  1.0 0.0018456396
C  C302  1  0.53700000  0.30620000  0.89950000  1.0 -0.0297374935
C  C303  1  0.59440000  0.36340000  0.89720000  1.0 -0.0983357586
C  C304  1  0.70330000  0.25750000  0.93880000  1.0 -0.0725005916
C  C305  1  0.12780000  0.12780000  0.75000000  1.0 -0.1149520764
C  C306  1  0.06530000  0.06530000  0.75000000  1.0 0.0972325986
C  C307  1  0.65470000  0.65470000  0.75000000  1.0 0.5692169081
C  C308  1  0.88740000  0.88740000  0.75000000  1.0 0.6291720977
C  C309  1  0.59390000  0.59390000  0.75000000  1.0 -0.0725005916
C  C310  1  0.94990000  0.94990000  0.75000000  1.0 -0.0297374935
C  C311  1  0.41560000  0.41560000  0.75000000  1.0 -0.0813337835
C  C312  1  0.47690000  0.47690000  0.75000000  1.0 0.062218543
C  C313  1  0.87220000  0.87220000  0.25000000  1.0 -0.1158450061
C  C314  1  0.93470000  0.93470000  0.25000000  1.0 0.0972325986
C  C315  1  0.34530000  0.34530000  0.25000000  1.0 0.5692169081
C  C316  1  0.11260000  0.11260000  0.25000000  1.0 0.6291720977
C  C317  1  0.40610000  0.40610000  0.25000000  1.0 -0.0725005916
C  C318  1  0.05010000  0.05010000  0.25000000  1.0 -0.0297374935
C  C319  1  0.58440000  0.58440000  0.25000000  1.0 -0.0813337835
C  C320  1  0.52310000  0.52310000  0.25000000  1.0 0.062218543
N  N1  1  0.91920000  0.58560000  0.38165000  1.0 -0.4282708803
N  N2  1  0.04300000  0.69640000  0.38556000  1.0 -0.269947
N  N3  1  0.90955000  0.58835000  0.47126000  1.0 -0.2531111428
N  N4  1  0.01287000  0.72027000  0.47120000  1.0 -0.4282708803
N  N5  1  0.32312000  0.34172000  0.79280000  1.0 -0.3098189075
N  N6  1  0.20672000  0.21312000  0.79441000  1.0 -0.3014366576
N  N7  1  0.34330000  0.40130000  0.36860000  1.0 0.0244401561
N  N8  1  0.58560000  0.91920000  0.11835000  1.0 -0.4282708803
N  N9  1  0.69640000  0.04300000  0.11444000  1.0 -0.269947
N  N10  1  0.58835000  0.90955000  0.02874000  1.0 -0.2531111428
N  N11  1  0.72027000  0.01287000  0.02880000  1.0 -0.4282708803
N  N12  1  0.34172000  0.32312000  0.70720000  1.0 -0.3014366576
N  N13  1  0.21312000  0.20672000  0.70559000  1.0 -0.3014366576
N  N14  1  0.40130000  0.34330000  0.13140000  1.0 0.0244401561
N  N15  1  0.08080000  0.41440000  0.61835000  1.0 -0.4282708803
N  N16  1  0.95700000  0.30360000  0.61444000  1.0 -0.269947
N  N17  1  0.09045000  0.41165000  0.52874000  1.0 -0.2531111428
N  N18  1  0.98713000  0.27973000  0.52880000  1.0 -0.4282708803
N  N19  1  0.67688000  0.65828000  0.20720000  1.0 -0.3098189075
N  N20  1  0.79328000  0.78688000  0.20559000  1.0 -0.3014366576
N  N21  1  0.65670000  0.59870000  0.63140000  1.0 0.0244401561
N  N22  1  0.41440000  0.08080000  0.88165000  1.0 -0.4282708803
N  N23  1  0.30360000  0.95700000  0.88556000  1.0 -0.269947
N  N24  1  0.41165000  0.09045000  0.97126000  1.0 -0.2531111428
N  N25  1  0.27973000  0.98713000  0.97120000  1.0 -0.4282708803
N  N26  1  0.65828000  0.67688000  0.29280000  1.0 -0.3014366576
N  N27  1  0.78688000  0.79328000  0.29441000  1.0 -0.3014366576
N  N28  1  0.59870000  0.65670000  0.86860000  1.0 0.0244401561
O  O1  1  0.12899000  0.46499000  0.16793000  1.0 -0.6675489554
O  O2  1  0.31867000  0.09587000  0.37573000  1.0 -0.6609986485
O  O3  1  0.80033000  0.74653000  0.70304000  1.0 -0.6609986485
O  O4  1  0.90840000  0.65120000  0.73164000  1.0 -0.5740911851
O  O5  1  0.04540000  0.57340000  0.12842000  1.0 -0.5403290579
O  O6  1  0.41332000  0.01112000  0.42350000  1.0 -0.5403290579
O  O7  1  0.73010000  0.62730000  0.76620000  1.0 -0.623664085
O  O8  1  0.91036000  0.81696000  0.77402000  1.0 -0.6318791399
O  O9  1  0.18610000  0.35770000  0.04390000  1.0 -0.4029383922
O  O10  1  0.12920000  0.47400000  0.00670000  1.0 -0.3014366576
O  O11  1  0.36560000  0.26180000  0.36360000  1.0 -0.483695198
O  O12  1  0.60040000  0.21840000  0.38660000  1.0 -0.0983357586
O  O13  1  0.53290000  0.27510000  0.43450000  1.0 -0.3210090065
O  O14  1  0.61950000  0.18510000  0.43690000  1.0 -0.3098189075
O  O15  1  0.53760000  0.27260000  0.38690000  1.0 -0.0983357586
O  O16  1  0.21260000  0.46740000  0.01700000  1.0 -0.269947
O  O17  1  0.46499000  0.12899000  0.33207000  1.0 -0.6675489554
O  O18  1  0.09587000  0.31867000  0.12427000  1.0 -0.6609986485
O  O19  1  0.74653000  0.80033000  0.79696000  1.0 -0.6609986485
O  O20  1  0.65120000  0.90840000  0.76836000  1.0 -0.5740911851
O  O21  1  0.57340000  0.04540000  0.37158000  1.0 -0.5403290579
O  O22  1  0.01112000  0.41332000  0.07650000  1.0 -0.5403290579
O  O23  1  0.62730000  0.73010000  0.73380000  1.0 -0.623664085
O  O24  1  0.81696000  0.91036000  0.72598000  1.0 -0.6318791399
O  O25  1  0.35770000  0.18610000  0.45610000  1.0 -0.4029383922
O  O26  1  0.47400000  0.12920000  0.49330000  1.0 -0.3014366576
O  O27  1  0.26180000  0.36560000  0.13640000  1.0 -0.483695198
O  O28  1  0.21840000  0.60040000  0.11340000  1.0 -0.0983357586
O  O29  1  0.27510000  0.53290000  0.06550000  1.0 -0.3210090065
O  O30  1  0.18510000  0.61950000  0.06310000  1.0 -0.3098189075
O  O31  1  0.27260000  0.53760000  0.11310000  1.0 -0.0983357586
O  O32  1  0.46740000  0.21260000  0.48300000  1.0 -0.269947
O  O33  1  0.87101000  0.53501000  0.83207000  1.0 -0.6675489554
O  O34  1  0.68133000  0.90413000  0.62427000  1.0 -0.6609986485
O  O35  1  0.19967000  0.25347000  0.29696000  1.0 -0.6609986485
O  O36  1  0.09160000  0.34880000  0.26836000  1.0 -0.5753033946
O  O37  1  0.95460000  0.42660000  0.87158000  1.0 -0.5403290579
O  O38  1  0.58668000  0.98888000  0.57650000  1.0 -0.5403290579
O  O39  1  0.26990000  0.37270000  0.23380000  1.0 -0.623664085
O  O40  1  0.08964000  0.18304000  0.22598000  1.0 -0.6318791399
O  O41  1  0.81390000  0.64230000  0.95610000  1.0 -0.4029383922
O  O42  1  0.87080000  0.52600000  0.99330000  1.0 -0.3014366576
O  O43  1  0.63440000  0.73820000  0.63640000  1.0 -0.483695198
O  O44  1  0.39960000  0.78160000  0.61340000  1.0 -0.0983357586
O  O45  1  0.46710000  0.72490000  0.56550000  1.0 -0.3210090065
O  O46  1  0.38050000  0.81490000  0.56310000  1.0 -0.3098189075
O  O47  1  0.46240000  0.72740000  0.61310000  1.0 -0.0983357586
O  O48  1  0.78740000  0.53260000  0.98300000  1.0 -0.269947
O  O49  1  0.53501000  0.87101000  0.66793000  1.0 -0.6675489554
O  O50  1  0.90413000  0.68133000  0.87573000  1.0 -0.6609986485
O  O51  1  0.25347000  0.19967000  0.20304000  1.0 -0.6675489554
O  O52  1  0.34880000  0.09160000  0.23164000  1.0 -0.5753033946
O  O53  1  0.42660000  0.95460000  0.62842000  1.0 -0.5403290579
O  O54  1  0.98888000  0.58668000  0.92350000  1.0 -0.5403290579
O  O55  1  0.37270000  0.26990000  0.26620000  1.0 -0.623664085
O  O56  1  0.18304000  0.08964000  0.27402000  1.0 -0.6318791399
O  O57  1  0.64230000  0.81390000  0.54390000  1.0 -0.4029383922
O  O58  1  0.52600000  0.87080000  0.50670000  1.0 -0.3014366576
O  O59  1  0.73820000  0.63440000  0.86360000  1.0 -0.483695198
O  O60  1  0.78160000  0.39960000  0.88660000  1.0 -0.0983357586
O  O61  1  0.72490000  0.46710000  0.93450000  1.0 -0.3210090065
O  O62  1  0.81490000  0.38050000  0.93690000  1.0 -0.3098189075
O  O63  1  0.72740000  0.46240000  0.88690000  1.0 -0.0983357586
O  O64  1  0.53260000  0.78740000  0.51700000  1.0 -0.269947
