# DDEC6 charges by PACMAN v1.1 (https://github.com/mtap-research/PACMAN-charge/)
data_YAXFAI_FSR_pacman
_symmetry_space_group_name_H-M   'P 1'
_cell_length_a   17.94580000
_cell_length_b   17.94580000
_cell_length_c   18.20200000
_cell_angle_alpha   77.46210000
_cell_angle_beta   102.53800000
_cell_angle_gamma   147.04900000
_symmetry_Int_Tables_number   1
_chemical_formula_structural   Cd3H22C32(N3O8)2
_chemical_formula_sum   'Cd6 H44 C64 N12 O32'
_cell_volume   3105.68432675
_cell_formula_units_Z   2
loop_
 _symmetry_equiv_pos_site_id
 _symmetry_equiv_pos_as_xyz
  1  'x, y, z'
loop_
 _atom_site_type_symbol
 _atom_site_label
 _atom_site_symmetry_multiplicity
 _atom_site_fract_x
 _atom_site_fract_y
 _atom_site_fract_z
 _atom_site_occupancy
 _atom_site_charge
Cd  Cd1  1  0.46928000  0.17662000  0.95447000  1.0 0.9598143706
Cd  Cd2  1  0.17662000  0.46928000  0.54553000  1.0 0.9598143706
Cd  Cd3  1  0.53072000  0.82338000  0.04553000  1.0 0.9598143706
Cd  Cd4  1  0.82338000  0.53072000  0.45447000  1.0 0.9598143706
Cd  Cd5  1  0.00000000  0.50000000  0.50000000  1.0 1.1038348088
Cd  Cd6  1  0.50000000  0.00000000  0.00000000  1.0 1.1057568202
H  H1  1  0.30747000  0.82881000  0.42088000  1.0 0.1374201486
H  H2  1  0.14171000  0.89613000  0.75733000  1.0 0.1291951398
H  H3  1  0.37297000  0.89793000  0.78019000  1.0 0.1374201486
H  H4  1  0.25186000  0.77108000  0.67544000  1.0 0.1291951398
H  H5  1  0.63138000  0.51320000  0.07118000  1.0 0.1374201486
H  H6  1  0.06601000  0.86047000  0.60978000  1.0 0.2994668605
H  H7  1  0.97934000  0.76868000  0.67187000  1.0 0.2994668605
H  H8  1  0.52514000  0.14334000  0.34596000  1.0 0.2839661176
H  H9  1  0.38379000  0.03943000  0.35642000  1.0 0.2741310531
H  H10  1  0.40004000  0.45340000  0.81553000  1.0 0.2741310531
H  H11  1  0.56539000  0.49843000  0.84965000  1.0 0.2839661176
H  H12  1  0.82881000  0.30747000  0.07912000  1.0 0.1374201486
H  H13  1  0.89613000  0.14171000  0.74267000  1.0 0.1291951398
H  H14  1  0.89793000  0.37297000  0.71981000  1.0 0.1374201486
H  H15  1  0.77108000  0.25186000  0.82456000  1.0 0.1291951398
H  H16  1  0.51320000  0.63138000  0.42882000  1.0 0.1374201486
H  H17  1  0.86047000  0.06601000  0.89022000  1.0 0.2994668605
H  H18  1  0.76868000  0.97934000  0.82813000  1.0 0.2994668605
H  H19  1  0.14334000  0.52514000  0.15404000  1.0 0.2839661176
H  H20  1  0.03943000  0.38379000  0.14358000  1.0 0.2741310531
H  H21  1  0.45340000  0.40004000  0.68447000  1.0 0.2741310531
H  H22  1  0.49843000  0.56539000  0.65035000  1.0 0.2839661176
H  H23  1  0.69253000  0.17119000  0.57912000  1.0 0.1374201486
H  H24  1  0.85829000  0.10387000  0.24267000  1.0 0.1291951398
H  H25  1  0.62703000  0.10207000  0.21981000  1.0 0.1374201486
H  H26  1  0.74814000  0.22892000  0.32456000  1.0 0.1291951398
H  H27  1  0.36862000  0.48680000  0.92882000  1.0 0.1374201486
H  H28  1  0.93399000  0.13953000  0.39022000  1.0 0.2994668605
H  H29  1  0.02066000  0.23132000  0.32813000  1.0 0.2994668605
H  H30  1  0.47486000  0.85666000  0.65404000  1.0 0.2839661176
H  H31  1  0.61621000  0.96057000  0.64358000  1.0 0.2741310531
H  H32  1  0.59996000  0.54660000  0.18447000  1.0 0.2741310531
H  H33  1  0.43461000  0.50157000  0.15035000  1.0 0.2839661176
H  H34  1  0.17119000  0.69253000  0.92088000  1.0 0.1374201486
H  H35  1  0.10387000  0.85829000  0.25733000  1.0 0.1291951398
H  H36  1  0.10207000  0.62703000  0.28019000  1.0 0.1374201486
H  H37  1  0.22892000  0.74814000  0.17544000  1.0 0.1291951398
H  H38  1  0.48680000  0.36862000  0.57118000  1.0 0.1374201486
H  H39  1  0.13953000  0.93399000  0.10978000  1.0 0.2994668605
H  H40  1  0.23132000  0.02066000  0.17187000  1.0 0.2994668605
H  H41  1  0.85666000  0.47486000  0.84596000  1.0 0.2839661176
H  H42  1  0.96057000  0.61621000  0.85642000  1.0 0.2741310531
H  H43  1  0.54660000  0.59996000  0.31553000  1.0 0.2741310531
H  H44  1  0.50157000  0.43461000  0.34965000  1.0 0.2839661176
C  C1  1  0.06034000  0.68684000  0.58350000  1.0 0.6069546351
C  C2  1  0.13077000  0.76379000  0.65305000  1.0 -0.1362677356
C  C3  1  0.26814000  0.90940000  0.77970000  1.0 0.0297479844
C  C4  1  0.41238000  0.86502000  0.51878000  1.0 -0.1048491886
C  C5  1  0.32472000  0.72286000  0.53378000  1.0 0.5774686048
C  C6  1  0.34588000  0.99626000  0.84838000  1.0 0.5774686048
C  C7  1  0.38639000  0.89899000  0.45311000  1.0 -0.1802485501
C  C8  1  0.10087000  0.80191000  0.67892000  1.0 0.2528559724
C  C9  1  0.16593000  0.87199000  0.74049000  1.0 -0.2901234617
C  C10  1  0.30210000  0.87232000  0.75445000  1.0 -0.1063224366
C  C11  1  0.48764000  0.33446000  0.97916000  1.0 0.5746761123
C  C12  1  0.49595000  0.42291000  0.98568000  1.0 -0.0645694332
C  C13  1  0.23134000  0.79890000  0.69227000  1.0 -0.0826098127
C  C14  1  0.43307000  0.42739000  0.93876000  1.0 0.1865465241
C  C15  1  0.57159000  0.50155000  0.04191000  1.0 -0.1506474605
C  C16  1  0.47205000  0.03113000  0.43407000  1.0 0.2178750346
C  C17  1  0.68684000  0.06034000  0.91650000  1.0 0.6069546351
C  C18  1  0.76379000  0.13077000  0.84695000  1.0 -0.1362677356
C  C19  1  0.90940000  0.26814000  0.72030000  1.0 0.0297479844
C  C20  1  0.86502000  0.41238000  0.98122000  1.0 -0.1048491886
C  C21  1  0.72286000  0.32472000  0.96622000  1.0 0.5774686048
C  C22  1  0.99626000  0.34588000  0.65162000  1.0 0.5774686048
C  C23  1  0.89899000  0.38639000  0.04689000  1.0 -0.1802485501
C  C24  1  0.80191000  0.10087000  0.82108000  1.0 0.2528559724
C  C25  1  0.87199000  0.16593000  0.75951000  1.0 -0.2901234617
C  C26  1  0.87232000  0.30210000  0.74555000  1.0 -0.1063224366
C  C27  1  0.33446000  0.48764000  0.52084000  1.0 0.5746761123
C  C28  1  0.42291000  0.49595000  0.51432000  1.0 -0.0645694332
C  C29  1  0.79890000  0.23134000  0.80773000  1.0 -0.0826098127
C  C30  1  0.42739000  0.43307000  0.56124000  1.0 0.1865465241
C  C31  1  0.50155000  0.57159000  0.45809000  1.0 -0.1506474605
C  C32  1  0.03113000  0.47205000  0.06593000  1.0 0.2178750346
C  C33  1  0.93966000  0.31316000  0.41650000  1.0 0.6069546351
C  C34  1  0.86923000  0.23621000  0.34695000  1.0 -0.1362677356
C  C35  1  0.73186000  0.09060000  0.22030000  1.0 0.0297479844
C  C36  1  0.58762000  0.13498000  0.48122000  1.0 -0.1048491886
C  C37  1  0.67528000  0.27714000  0.46622000  1.0 0.5774686048
C  C38  1  0.65412000  0.00374000  0.15162000  1.0 0.5774686048
C  C39  1  0.61361000  0.10101000  0.54689000  1.0 -0.1802485501
C  C40  1  0.89913000  0.19809000  0.32108000  1.0 0.2528559724
C  C41  1  0.83407000  0.12801000  0.25951000  1.0 -0.2901234617
C  C42  1  0.69790000  0.12768000  0.24555000  1.0 -0.1063224366
C  C43  1  0.51236000  0.66554000  0.02084000  1.0 0.5746761123
C  C44  1  0.50405000  0.57709000  0.01432000  1.0 -0.0645694332
C  C45  1  0.76866000  0.20110000  0.30773000  1.0 -0.0826098127
C  C46  1  0.56693000  0.57261000  0.06124000  1.0 0.1865465241
C  C47  1  0.42841000  0.49845000  0.95809000  1.0 -0.1506474605
C  C48  1  0.52795000  0.96887000  0.56593000  1.0 0.2178750346
C  C49  1  0.31316000  0.93966000  0.08350000  1.0 0.6069546351
C  C50  1  0.23621000  0.86923000  0.15305000  1.0 -0.1362677356
C  C51  1  0.09060000  0.73186000  0.27970000  1.0 0.0297479844
C  C52  1  0.13498000  0.58762000  0.01878000  1.0 -0.1048491886
C  C53  1  0.27714000  0.67528000  0.03378000  1.0 0.5774686048
C  C54  1  0.00374000  0.65412000  0.34838000  1.0 0.5774686048
C  C55  1  0.10101000  0.61361000  0.95311000  1.0 -0.1802485501
C  C56  1  0.19809000  0.89913000  0.17892000  1.0 0.2528559724
C  C57  1  0.12801000  0.83407000  0.24049000  1.0 -0.2901234617
C  C58  1  0.12768000  0.69790000  0.25445000  1.0 -0.1063224366
C  C59  1  0.66554000  0.51236000  0.47916000  1.0 0.5746761123
C  C60  1  0.57709000  0.50405000  0.48568000  1.0 -0.0645694332
C  C61  1  0.20110000  0.76866000  0.19227000  1.0 -0.0826098127
C  C62  1  0.57261000  0.56693000  0.43876000  1.0 0.1865465241
C  C63  1  0.49845000  0.42841000  0.54191000  1.0 -0.1506474605
C  C64  1  0.96887000  0.52795000  0.93407000  1.0 0.2178750346
N  N1  1  0.02428000  0.78806000  0.63914000  1.0 -0.4448087206
N  N2  1  0.44667000  0.05633000  0.35940000  1.0 -0.5987858092
N  N3  1  0.44658000  0.43078000  0.85600000  1.0 -0.5492491117
N  N4  1  0.78806000  0.02428000  0.86086000  1.0 -0.4448087206
N  N5  1  0.05633000  0.44667000  0.14060000  1.0 -0.5987858092
N  N6  1  0.43078000  0.44658000  0.64400000  1.0 -0.5492491117
N  N7  1  0.97572000  0.21194000  0.36086000  1.0 -0.4448087206
N  N8  1  0.55333000  0.94367000  0.64060000  1.0 -0.5987858092
N  N9  1  0.55342000  0.56922000  0.14400000  1.0 -0.5492491117
N  N10  1  0.21194000  0.97572000  0.13914000  1.0 -0.4448087206
N  N11  1  0.94367000  0.55333000  0.85940000  1.0 -0.5987858092
N  N12  1  0.56922000  0.55342000  0.35600000  1.0 -0.5492491117
O  O1  1  0.21661000  0.63269000  0.48741000  1.0 -0.5987858092
O  O2  1  0.35251000  0.69067000  0.58678000  1.0 -0.5093172109
O  O3  1  0.33574000  0.05272000  0.85748000  1.0 -0.4838797441
O  O4  1  0.09059000  0.65193000  0.56681000  1.0 -0.5307079246
O  O5  1  0.97511000  0.66503000  0.54783000  1.0 -0.504349648
O  O6  1  0.41982000  0.00744000  0.88830000  1.0 -0.5591186276
O  O7  1  0.54950000  0.33484000  0.02628000  1.0 -0.5176266422
O  O8  1  0.42842000  0.27264000  0.91966000  1.0 -0.5093172109
O  O9  1  0.63269000  0.21661000  0.01259000  1.0 -0.5987858092
O  O10  1  0.69067000  0.35251000  0.91322000  1.0 -0.5093172109
O  O11  1  0.05272000  0.33574000  0.64252000  1.0 -0.4838797441
O  O12  1  0.65193000  0.09059000  0.93319000  1.0 -0.5307079246
O  O13  1  0.66503000  0.97511000  0.95217000  1.0 -0.504349648
O  O14  1  0.00744000  0.41982000  0.61170000  1.0 -0.5591186276
O  O15  1  0.33484000  0.54950000  0.47372000  1.0 -0.5176266422
O  O16  1  0.27264000  0.42842000  0.58034000  1.0 -0.5093172109
O  O17  1  0.78339000  0.36731000  0.51259000  1.0 -0.5987858092
O  O18  1  0.64749000  0.30933000  0.41322000  1.0 -0.5093172109
O  O19  1  0.66426000  0.94728000  0.14252000  1.0 -0.4838797441
O  O20  1  0.90941000  0.34807000  0.43319000  1.0 -0.5307079246
O  O21  1  0.02489000  0.33497000  0.45217000  1.0 -0.504349648
O  O22  1  0.58018000  0.99256000  0.11170000  1.0 -0.5591186276
O  O23  1  0.45050000  0.66516000  0.97372000  1.0 -0.5176266422
O  O24  1  0.57158000  0.72736000  0.08034000  1.0 -0.5093172109
O  O25  1  0.36731000  0.78339000  0.98741000  1.0 -0.5987858092
O  O26  1  0.30933000  0.64749000  0.08678000  1.0 -0.5093172109
O  O27  1  0.94728000  0.66426000  0.35748000  1.0 -0.4838797441
O  O28  1  0.34807000  0.90941000  0.06681000  1.0 -0.5307079246
O  O29  1  0.33497000  0.02489000  0.04783000  1.0 -0.504349648
O  O30  1  0.99256000  0.58018000  0.38830000  1.0 -0.5591186276
O  O31  1  0.66516000  0.45050000  0.52628000  1.0 -0.5176266422
O  O32  1  0.72736000  0.57158000  0.41966000  1.0 -0.5093172109
