# DDEC6 charges by PACMAN v1.1 (https://github.com/mtap-research/PACMAN-charge/)
data_YAZYUU_ion_pacman
_symmetry_space_group_name_H-M   'P 1'
_cell_length_a   23.30190000
_cell_length_b   23.30190000
_cell_length_c   23.30190000
_cell_angle_alpha   90.00000000
_cell_angle_beta   90.00000000
_cell_angle_gamma   90.00000000
_symmetry_Int_Tables_number   1
_chemical_formula_structural   Cu6H45C50N13(ClO3)3
_chemical_formula_sum   'Cu48 H360 C400 N104 Cl24 O72'
_cell_volume   12652.43172535
_cell_formula_units_Z   8
loop_
 _symmetry_equiv_pos_site_id
 _symmetry_equiv_pos_as_xyz
  1  'x, y, z'
loop_
 _atom_site_type_symbol
 _atom_site_label
 _atom_site_symmetry_multiplicity
 _atom_site_fract_x
 _atom_site_fract_y
 _atom_site_fract_z
 _atom_site_occupancy
 _atom_site_charge
Cu  Cu1  1  0.73209000  0.85508000  0.06450000  1.0 0.7178663732
Cu  Cu2  1  0.06450000  0.73209000  0.85508000  1.0 0.7178663732
Cu  Cu3  1  0.85508000  0.06450000  0.73209000  1.0 0.7178663732
Cu  Cu4  1  0.76791000  0.14492000  0.56450000  1.0 0.7178663732
Cu  Cu5  1  0.26791000  0.35508000  0.43550000  1.0 0.7178663732
Cu  Cu6  1  0.23209000  0.64492000  0.93550000  1.0 0.7178663732
Cu  Cu7  1  0.56450000  0.76791000  0.14492000  1.0 0.7178663732
Cu  Cu8  1  0.43550000  0.26791000  0.35508000  1.0 0.7178663732
Cu  Cu9  1  0.93550000  0.23209000  0.64492000  1.0 0.7178663732
Cu  Cu10  1  0.14492000  0.56450000  0.76791000  1.0 0.7178663732
Cu  Cu11  1  0.35508000  0.43550000  0.26791000  1.0 0.7178663732
Cu  Cu12  1  0.64492000  0.93550000  0.23209000  1.0 0.7178663732
Cu  Cu13  1  0.78270000  0.84164000  0.94849000  1.0 0.7178663732
Cu  Cu14  1  0.94849000  0.78270000  0.84164000  1.0 0.7178663732
Cu  Cu15  1  0.84164000  0.94849000  0.78270000  1.0 0.7178663732
Cu  Cu16  1  0.71730000  0.15836000  0.44849000  1.0 0.7178663732
Cu  Cu17  1  0.21730000  0.34164000  0.55151000  1.0 0.7178663732
Cu  Cu18  1  0.28270000  0.65836000  0.05151000  1.0 0.7178663732
Cu  Cu19  1  0.44849000  0.71730000  0.15836000  1.0 0.7178663732
Cu  Cu20  1  0.55151000  0.21730000  0.34164000  1.0 0.7178663732
Cu  Cu21  1  0.05151000  0.28270000  0.65836000  1.0 0.7178663732
Cu  Cu22  1  0.15836000  0.44849000  0.71730000  1.0 0.7178663732
Cu  Cu23  1  0.34164000  0.55151000  0.21730000  1.0 0.7178663732
Cu  Cu24  1  0.65836000  0.05151000  0.28270000  1.0 0.7178663732
Cu  Cu25  1  0.26791000  0.14492000  0.93550000  1.0 0.7178663732
Cu  Cu26  1  0.93550000  0.26791000  0.14492000  1.0 0.7178663732
Cu  Cu27  1  0.14492000  0.93550000  0.26791000  1.0 0.7178663732
Cu  Cu28  1  0.23209000  0.85508000  0.43550000  1.0 0.7178663732
Cu  Cu29  1  0.73209000  0.64492000  0.56450000  1.0 0.7178663732
Cu  Cu30  1  0.76791000  0.35508000  0.06450000  1.0 0.7178663732
Cu  Cu31  1  0.43550000  0.23209000  0.85508000  1.0 0.7178663732
Cu  Cu32  1  0.56450000  0.73209000  0.64492000  1.0 0.7178663732
Cu  Cu33  1  0.06450000  0.76791000  0.35508000  1.0 0.7178663732
Cu  Cu34  1  0.85508000  0.43550000  0.23209000  1.0 0.7178663732
Cu  Cu35  1  0.64492000  0.56450000  0.73209000  1.0 0.7178663732
Cu  Cu36  1  0.35508000  0.06450000  0.76791000  1.0 0.7178663732
Cu  Cu37  1  0.21730000  0.15836000  0.05151000  1.0 0.7178663732
Cu  Cu38  1  0.05151000  0.21730000  0.15836000  1.0 0.7178663732
Cu  Cu39  1  0.15836000  0.05151000  0.21730000  1.0 0.7178663732
Cu  Cu40  1  0.28270000  0.84164000  0.55151000  1.0 0.7178663732
Cu  Cu41  1  0.78270000  0.65836000  0.44849000  1.0 0.7178663732
Cu  Cu42  1  0.71730000  0.34164000  0.94849000  1.0 0.7178663732
Cu  Cu43  1  0.55151000  0.28270000  0.84164000  1.0 0.7178663732
Cu  Cu44  1  0.44849000  0.78270000  0.65836000  1.0 0.7178663732
Cu  Cu45  1  0.94849000  0.71730000  0.34164000  1.0 0.7178663732
Cu  Cu46  1  0.84164000  0.55151000  0.28270000  1.0 0.7178663732
Cu  Cu47  1  0.65836000  0.44849000  0.78270000  1.0 0.7178663732
Cu  Cu48  1  0.34164000  0.94849000  0.71730000  1.0 0.7178663732
H  H1  1  0.73270000  0.99040000  0.15340000  1.0 0.1297731688
H  H2  1  0.15340000  0.73270000  0.99040000  1.0 0.1297731688
H  H3  1  0.99040000  0.15340000  0.73270000  1.0 0.1297731688
H  H4  1  0.76730000  0.00960000  0.65340000  1.0 0.1297731688
H  H5  1  0.26730000  0.49040000  0.34660000  1.0 0.1297731688
H  H6  1  0.23270000  0.50960000  0.84660000  1.0 0.1297731688
H  H7  1  0.65340000  0.76730000  0.00960000  1.0 0.1297731688
H  H8  1  0.34660000  0.26730000  0.49040000  1.0 0.1297731688
H  H9  1  0.84660000  0.23270000  0.50960000  1.0 0.1297731688
H  H10  1  0.00960000  0.65340000  0.76730000  1.0 0.1297731688
H  H11  1  0.49040000  0.34660000  0.26730000  1.0 0.1297731688
H  H12  1  0.50960000  0.84660000  0.23270000  1.0 0.1297731688
H  H13  1  0.86950000  0.94930000  0.97350000  1.0 0.1397655726
H  H14  1  0.97350000  0.86950000  0.94930000  1.0 0.1397655726
H  H15  1  0.94930000  0.97350000  0.86950000  1.0 0.1397655726
H  H16  1  0.63050000  0.05070000  0.47350000  1.0 0.1397655726
H  H17  1  0.13050000  0.44930000  0.52650000  1.0 0.1397655726
H  H18  1  0.36950000  0.55070000  0.02650000  1.0 0.1397655726
H  H19  1  0.47350000  0.63050000  0.05070000  1.0 0.1397655726
H  H20  1  0.52650000  0.13050000  0.44930000  1.0 0.1397655726
H  H21  1  0.02650000  0.36950000  0.55070000  1.0 0.1397655726
H  H22  1  0.05070000  0.47350000  0.63050000  1.0 0.1397655726
H  H23  1  0.44930000  0.52650000  0.13050000  1.0 0.1397655726
H  H24  1  0.55070000  0.02650000  0.36950000  1.0 0.1397655726
H  H25  1  0.90070000  0.04440000  0.98670000  1.0 0.1206585494
H  H26  1  0.98670000  0.90070000  0.04440000  1.0 0.1206585494
H  H27  1  0.04440000  0.98670000  0.90070000  1.0 0.1206585494
H  H28  1  0.59930000  0.95560000  0.48670000  1.0 0.1206585494
H  H29  1  0.09930000  0.54440000  0.51330000  1.0 0.1206585494
H  H30  1  0.40070000  0.45560000  0.01330000  1.0 0.1206585494
H  H31  1  0.48670000  0.59930000  0.95560000  1.0 0.1206585494
H  H32  1  0.51330000  0.09930000  0.54440000  1.0 0.1206585494
H  H33  1  0.01330000  0.40070000  0.45560000  1.0 0.1206585494
H  H34  1  0.95560000  0.48670000  0.59930000  1.0 0.1206585494
H  H35  1  0.54440000  0.51330000  0.09930000  1.0 0.1206585494
H  H36  1  0.45560000  0.01330000  0.40070000  1.0 0.1206585494
H  H37  1  0.86500000  0.10020000  0.06100000  1.0 0.1297731688
H  H38  1  0.06100000  0.86500000  0.10020000  1.0 0.1297731688
H  H39  1  0.10020000  0.06100000  0.86500000  1.0 0.1297731688
H  H40  1  0.63500000  0.89980000  0.56100000  1.0 0.1297731688
H  H41  1  0.13500000  0.60020000  0.43900000  1.0 0.1297731688
H  H42  1  0.36500000  0.39980000  0.93900000  1.0 0.1297731688
H  H43  1  0.56100000  0.63500000  0.89980000  1.0 0.1297731688
H  H44  1  0.43900000  0.13500000  0.60020000  1.0 0.1297731688
H  H45  1  0.93900000  0.36500000  0.39980000  1.0 0.1297731688
H  H46  1  0.89980000  0.56100000  0.63500000  1.0 0.1297731688
H  H47  1  0.60020000  0.43900000  0.13500000  1.0 0.1297731688
H  H48  1  0.39980000  0.93900000  0.36500000  1.0 0.1297731688
H  H49  1  0.79510000  0.06200000  0.12230000  1.0 0.1297731688
H  H50  1  0.12230000  0.79510000  0.06200000  1.0 0.1297731688
H  H51  1  0.06200000  0.12230000  0.79510000  1.0 0.1297731688
H  H52  1  0.70490000  0.93800000  0.62230000  1.0 0.1297731688
H  H53  1  0.20490000  0.56200000  0.37770000  1.0 0.1297731688
H  H54  1  0.29510000  0.43800000  0.87770000  1.0 0.1297731688
H  H55  1  0.62230000  0.70490000  0.93800000  1.0 0.1297731688
H  H56  1  0.37770000  0.20490000  0.56200000  1.0 0.1297731688
H  H57  1  0.87770000  0.29510000  0.43800000  1.0 0.1297731688
H  H58  1  0.93800000  0.62230000  0.70490000  1.0 0.1297731688
H  H59  1  0.56200000  0.37770000  0.20490000  1.0 0.1297731688
H  H60  1  0.43800000  0.87770000  0.29510000  1.0 0.1297731688
H  H61  1  0.59130000  0.26030000  0.45440000  1.0 0.1297731688
H  H62  1  0.45440000  0.59130000  0.26030000  1.0 0.1297731688
H  H63  1  0.26030000  0.45440000  0.59130000  1.0 0.1297731688
H  H64  1  0.90870000  0.73970000  0.95440000  1.0 0.1297731688
H  H65  1  0.40870000  0.76030000  0.04560000  1.0 0.1297731688
H  H66  1  0.09130000  0.23970000  0.54560000  1.0 0.1297731688
H  H67  1  0.95440000  0.90870000  0.73970000  1.0 0.1297731688
H  H68  1  0.04560000  0.40870000  0.76030000  1.0 0.1297731688
H  H69  1  0.54560000  0.09130000  0.23970000  1.0 0.1297731688
H  H70  1  0.73970000  0.95440000  0.90870000  1.0 0.1297731688
H  H71  1  0.76030000  0.04560000  0.40870000  1.0 0.1297731688
H  H72  1  0.23970000  0.54560000  0.09130000  1.0 0.1297731688
H  H73  1  0.77130000  0.27290000  0.59540000  1.0 0.1297731688
H  H74  1  0.59540000  0.77130000  0.27290000  1.0 0.1297731688
H  H75  1  0.27290000  0.59540000  0.77130000  1.0 0.1297731688
H  H76  1  0.72870000  0.72710000  0.09540000  1.0 0.1297731688
H  H77  1  0.22870000  0.77290000  0.90460000  1.0 0.1297731688
H  H78  1  0.27130000  0.22710000  0.40460000  1.0 0.1297731688
H  H79  1  0.09540000  0.72870000  0.72710000  1.0 0.1297731688
H  H80  1  0.90460000  0.22870000  0.77290000  1.0 0.1297731688
H  H81  1  0.40460000  0.27130000  0.22710000  1.0 0.1297731688
H  H82  1  0.72710000  0.09540000  0.72870000  1.0 0.1297731688
H  H83  1  0.77290000  0.90460000  0.22870000  1.0 0.1297731688
H  H84  1  0.22710000  0.40460000  0.27130000  1.0 0.1297731688
H  H85  1  0.72960000  0.35680000  0.62760000  1.0 0.1206585494
H  H86  1  0.62760000  0.72960000  0.35680000  1.0 0.1206585494
H  H87  1  0.35680000  0.62760000  0.72960000  1.0 0.1206585494
H  H88  1  0.77040000  0.64320000  0.12760000  1.0 0.1206585494
H  H89  1  0.27040000  0.85680000  0.87240000  1.0 0.1206585494
H  H90  1  0.22960000  0.14320000  0.37240000  1.0 0.1206585494
H  H91  1  0.12760000  0.77040000  0.64320000  1.0 0.1206585494
H  H92  1  0.87240000  0.27040000  0.85680000  1.0 0.1206585494
H  H93  1  0.37240000  0.22960000  0.14320000  1.0 0.1206585494
H  H94  1  0.64320000  0.12760000  0.77040000  1.0 0.1206585494
H  H95  1  0.85680000  0.87240000  0.27040000  1.0 0.1206585494
H  H96  1  0.14320000  0.37240000  0.22960000  1.0 0.1206585494
H  H97  1  0.63770000  0.38570000  0.59240000  1.0 0.1297731688
H  H98  1  0.59240000  0.63770000  0.38570000  1.0 0.1297731688
H  H99  1  0.38570000  0.59240000  0.63770000  1.0 0.1297731688
H  H100  1  0.86230000  0.61430000  0.09240000  1.0 0.1297731688
H  H101  1  0.36230000  0.88570000  0.90760000  1.0 0.1297731688
H  H102  1  0.13770000  0.11430000  0.40760000  1.0 0.1297731688
H  H103  1  0.09240000  0.86230000  0.61430000  1.0 0.1297731688
H  H104  1  0.90760000  0.36230000  0.88570000  1.0 0.1297731688
H  H105  1  0.40760000  0.13770000  0.11430000  1.0 0.1297731688
H  H106  1  0.61430000  0.09240000  0.86230000  1.0 0.1297731688
H  H107  1  0.88570000  0.90760000  0.36230000  1.0 0.1297731688
H  H108  1  0.11430000  0.40760000  0.13770000  1.0 0.1297731688
H  H109  1  0.59890000  0.33680000  0.51540000  1.0 0.1397655726
H  H110  1  0.51540000  0.59890000  0.33680000  1.0 0.1397655726
H  H111  1  0.33680000  0.51540000  0.59890000  1.0 0.1397655726
H  H112  1  0.90110000  0.66320000  0.01540000  1.0 0.1397655726
H  H113  1  0.40110000  0.83680000  0.98460000  1.0 0.1397655726
H  H114  1  0.09890000  0.16320000  0.48460000  1.0 0.1397655726
H  H115  1  0.01540000  0.90110000  0.66320000  1.0 0.1397655726
H  H116  1  0.98460000  0.40110000  0.83680000  1.0 0.1397655726
H  H117  1  0.48460000  0.09890000  0.16320000  1.0 0.1397655726
H  H118  1  0.66320000  0.01540000  0.90110000  1.0 0.1397655726
H  H119  1  0.83680000  0.98460000  0.40110000  1.0 0.1397655726
H  H120  1  0.16320000  0.48460000  0.09890000  1.0 0.1397655726
H  H121  1  0.26730000  0.00960000  0.84660000  1.0 0.1297731688
H  H122  1  0.84660000  0.26730000  0.00960000  1.0 0.1297731688
H  H123  1  0.00960000  0.84660000  0.26730000  1.0 0.1297731688
H  H124  1  0.23270000  0.99040000  0.34660000  1.0 0.1297731688
H  H125  1  0.73270000  0.50960000  0.65340000  1.0 0.1297731688
H  H126  1  0.76730000  0.49040000  0.15340000  1.0 0.1297731688
H  H127  1  0.34660000  0.23270000  0.99040000  1.0 0.1297731688
H  H128  1  0.65340000  0.73270000  0.50960000  1.0 0.1297731688
H  H129  1  0.15340000  0.76730000  0.49040000  1.0 0.1297731688
H  H130  1  0.99040000  0.34660000  0.23270000  1.0 0.1297731688
H  H131  1  0.50960000  0.65340000  0.73270000  1.0 0.1297731688
H  H132  1  0.49040000  0.15340000  0.76730000  1.0 0.1297731688
H  H133  1  0.13050000  0.05070000  0.02650000  1.0 0.1397655726
H  H134  1  0.02650000  0.13050000  0.05070000  1.0 0.1397655726
H  H135  1  0.05070000  0.02650000  0.13050000  1.0 0.1397655726
H  H136  1  0.36950000  0.94930000  0.52650000  1.0 0.1397655726
H  H137  1  0.86950000  0.55070000  0.47350000  1.0 0.1397655726
H  H138  1  0.63050000  0.44930000  0.97350000  1.0 0.1397655726
H  H139  1  0.52650000  0.36950000  0.94930000  1.0 0.1397655726
H  H140  1  0.47350000  0.86950000  0.55070000  1.0 0.1397655726
H  H141  1  0.97350000  0.63050000  0.44930000  1.0 0.1397655726
H  H142  1  0.94930000  0.52650000  0.36950000  1.0 0.1397655726
H  H143  1  0.55070000  0.47350000  0.86950000  1.0 0.1397655726
H  H144  1  0.44930000  0.97350000  0.63050000  1.0 0.1397655726
H  H145  1  0.09930000  0.95560000  0.01330000  1.0 0.1206585494
H  H146  1  0.01330000  0.09930000  0.95560000  1.0 0.1206585494
H  H147  1  0.95560000  0.01330000  0.09930000  1.0 0.1206585494
H  H148  1  0.40070000  0.04440000  0.51330000  1.0 0.1206585494
H  H149  1  0.90070000  0.45560000  0.48670000  1.0 0.1206585494
H  H150  1  0.59930000  0.54440000  0.98670000  1.0 0.1206585494
H  H151  1  0.51330000  0.40070000  0.04440000  1.0 0.1206585494
H  H152  1  0.48670000  0.90070000  0.45560000  1.0 0.1206585494
H  H153  1  0.98670000  0.59930000  0.54440000  1.0 0.1206585494
H  H154  1  0.04440000  0.51330000  0.40070000  1.0 0.1206585494
H  H155  1  0.45560000  0.48670000  0.90070000  1.0 0.1206585494
H  H156  1  0.54440000  0.98670000  0.59930000  1.0 0.1206585494
H  H157  1  0.13500000  0.89980000  0.93900000  1.0 0.1297731688
H  H158  1  0.93900000  0.13500000  0.89980000  1.0 0.1297731688
H  H159  1  0.89980000  0.93900000  0.13500000  1.0 0.1297731688
H  H160  1  0.36500000  0.10020000  0.43900000  1.0 0.1297731688
H  H161  1  0.86500000  0.39980000  0.56100000  1.0 0.1297731688
H  H162  1  0.63500000  0.60020000  0.06100000  1.0 0.1297731688
H  H163  1  0.43900000  0.36500000  0.10020000  1.0 0.1297731688
H  H164  1  0.56100000  0.86500000  0.39980000  1.0 0.1297731688
H  H165  1  0.06100000  0.63500000  0.60020000  1.0 0.1297731688
H  H166  1  0.10020000  0.43900000  0.36500000  1.0 0.1297731688
H  H167  1  0.39980000  0.56100000  0.86500000  1.0 0.1297731688
H  H168  1  0.60020000  0.06100000  0.63500000  1.0 0.1297731688
H  H169  1  0.20490000  0.93800000  0.87770000  1.0 0.1297731688
H  H170  1  0.87770000  0.20490000  0.93800000  1.0 0.1297731688
H  H171  1  0.93800000  0.87770000  0.20490000  1.0 0.1297731688
H  H172  1  0.29510000  0.06200000  0.37770000  1.0 0.1297731688
H  H173  1  0.79510000  0.43800000  0.62230000  1.0 0.1297731688
H  H174  1  0.70490000  0.56200000  0.12230000  1.0 0.1297731688
H  H175  1  0.37770000  0.29510000  0.06200000  1.0 0.1297731688
H  H176  1  0.62230000  0.79510000  0.43800000  1.0 0.1297731688
H  H177  1  0.12230000  0.70490000  0.56200000  1.0 0.1297731688
H  H178  1  0.06200000  0.37770000  0.29510000  1.0 0.1297731688
H  H179  1  0.43800000  0.62230000  0.79510000  1.0 0.1297731688
H  H180  1  0.56200000  0.12230000  0.70490000  1.0 0.1297731688
H  H181  1  0.40870000  0.73970000  0.54560000  1.0 0.1297731688
H  H182  1  0.54560000  0.40870000  0.73970000  1.0 0.1297731688
H  H183  1  0.73970000  0.54560000  0.40870000  1.0 0.1297731688
H  H184  1  0.09130000  0.26030000  0.04560000  1.0 0.1297731688
H  H185  1  0.59130000  0.23970000  0.95440000  1.0 0.1297731688
H  H186  1  0.90870000  0.76030000  0.45440000  1.0 0.1297731688
H  H187  1  0.04560000  0.09130000  0.26030000  1.0 0.1297731688
H  H188  1  0.95440000  0.59130000  0.23970000  1.0 0.1297731688
H  H189  1  0.45440000  0.90870000  0.76030000  1.0 0.1297731688
H  H190  1  0.26030000  0.04560000  0.09130000  1.0 0.1297731688
H  H191  1  0.23970000  0.95440000  0.59130000  1.0 0.1297731688
H  H192  1  0.76030000  0.45440000  0.90870000  1.0 0.1297731688
H  H193  1  0.22870000  0.72710000  0.40460000  1.0 0.1297731688
H  H194  1  0.40460000  0.22870000  0.72710000  1.0 0.1297731688
H  H195  1  0.72710000  0.40460000  0.22870000  1.0 0.1297731688
H  H196  1  0.27130000  0.27290000  0.90460000  1.0 0.1297731688
H  H197  1  0.77130000  0.22710000  0.09540000  1.0 0.1297731688
H  H198  1  0.72870000  0.77290000  0.59540000  1.0 0.1297731688
H  H199  1  0.90460000  0.27130000  0.27290000  1.0 0.1297731688
H  H200  1  0.09540000  0.77130000  0.22710000  1.0 0.1297731688
H  H201  1  0.59540000  0.72870000  0.77290000  1.0 0.1297731688
H  H202  1  0.27290000  0.90460000  0.27130000  1.0 0.1297731688
H  H203  1  0.22710000  0.09540000  0.77130000  1.0 0.1297731688
H  H204  1  0.77290000  0.59540000  0.72870000  1.0 0.1297731688
H  H205  1  0.27040000  0.64320000  0.37240000  1.0 0.1206585494
H  H206  1  0.37240000  0.27040000  0.64320000  1.0 0.1206585494
H  H207  1  0.64320000  0.37240000  0.27040000  1.0 0.1206585494
H  H208  1  0.22960000  0.35680000  0.87240000  1.0 0.1206585494
H  H209  1  0.72960000  0.14320000  0.12760000  1.0 0.1206585494
H  H210  1  0.77040000  0.85680000  0.62760000  1.0 0.1206585494
H  H211  1  0.87240000  0.22960000  0.35680000  1.0 0.1206585494
H  H212  1  0.12760000  0.72960000  0.14320000  1.0 0.1206585494
H  H213  1  0.62760000  0.77040000  0.85680000  1.0 0.1206585494
H  H214  1  0.35680000  0.87240000  0.22960000  1.0 0.1206585494
H  H215  1  0.14320000  0.12760000  0.72960000  1.0 0.1206585494
H  H216  1  0.85680000  0.62760000  0.77040000  1.0 0.1206585494
H  H217  1  0.36230000  0.61430000  0.40760000  1.0 0.1297731688
H  H218  1  0.40760000  0.36230000  0.61430000  1.0 0.1297731688
H  H219  1  0.61430000  0.40760000  0.36230000  1.0 0.1297731688
H  H220  1  0.13770000  0.38570000  0.90760000  1.0 0.1297731688
H  H221  1  0.63770000  0.11430000  0.09240000  1.0 0.1297731688
H  H222  1  0.86230000  0.88570000  0.59240000  1.0 0.1297731688
H  H223  1  0.90760000  0.13770000  0.38570000  1.0 0.1297731688
H  H224  1  0.09240000  0.63770000  0.11430000  1.0 0.1297731688
H  H225  1  0.59240000  0.86230000  0.88570000  1.0 0.1297731688
H  H226  1  0.38570000  0.90760000  0.13770000  1.0 0.1297731688
H  H227  1  0.11430000  0.09240000  0.63770000  1.0 0.1297731688
H  H228  1  0.88570000  0.59240000  0.86230000  1.0 0.1297731688
H  H229  1  0.40110000  0.66320000  0.48460000  1.0 0.1397655726
H  H230  1  0.48460000  0.40110000  0.66320000  1.0 0.1397655726
H  H231  1  0.66320000  0.48460000  0.40110000  1.0 0.1397655726
H  H232  1  0.09890000  0.33680000  0.98460000  1.0 0.1397655726
H  H233  1  0.59890000  0.16320000  0.01540000  1.0 0.1397655726
H  H234  1  0.90110000  0.83680000  0.51540000  1.0 0.1397655726
H  H235  1  0.98460000  0.09890000  0.33680000  1.0 0.1397655726
H  H236  1  0.01540000  0.59890000  0.16320000  1.0 0.1397655726
H  H237  1  0.51540000  0.90110000  0.83680000  1.0 0.1397655726
H  H238  1  0.33680000  0.98460000  0.09890000  1.0 0.1397655726
H  H239  1  0.16320000  0.01540000  0.59890000  1.0 0.1397655726
H  H240  1  0.83680000  0.51540000  0.90110000  1.0 0.1397655726
H  H241  1  0.42200000  0.51790000  0.40920000  1.0 0.101925124
H  H242  1  0.40920000  0.42200000  0.51790000  1.0 0.101925124
H  H243  1  0.51790000  0.40920000  0.42200000  1.0 0.101925124
H  H244  1  0.39280000  0.45600000  0.40830000  1.0 0.0777014587
H  H245  1  0.40830000  0.39280000  0.45600000  1.0 0.0777014587
H  H246  1  0.45600000  0.40830000  0.39280000  1.0 0.0777014587
H  H247  1  0.33210000  0.52440000  0.45170000  1.0 0.1297731688
H  H248  1  0.45170000  0.33210000  0.52440000  1.0 0.1297731688
H  H249  1  0.52440000  0.45170000  0.33210000  1.0 0.1297731688
H  H250  1  0.34790000  0.47460000  0.49640000  1.0 0.1297731688
H  H251  1  0.49640000  0.34790000  0.47460000  1.0 0.1297731688
H  H252  1  0.47460000  0.49640000  0.34790000  1.0 0.1297731688
H  H253  1  0.37930000  0.53550000  0.50030000  1.0 0.1297731688
H  H254  1  0.50030000  0.37930000  0.53550000  1.0 0.1297731688
H  H255  1  0.53550000  0.50030000  0.37930000  1.0 0.1297731688
H  H256  1  0.01790000  0.09080000  0.57800000  1.0 0.101925124
H  H257  1  0.92200000  0.98210000  0.59080000  1.0 0.101925124
H  H258  1  0.90920000  0.07800000  0.48210000  1.0 0.101925124
H  H259  1  0.95600000  0.09170000  0.60720000  1.0 0.0777014587
H  H260  1  0.89280000  0.04400000  0.59170000  1.0 0.0777014587
H  H261  1  0.90830000  0.10720000  0.54400000  1.0 0.0777014587
H  H262  1  0.02440000  0.04830000  0.66790000  1.0 0.1297731688
H  H263  1  0.83210000  0.97560000  0.54830000  1.0 0.1297731688
H  H264  1  0.95170000  0.16790000  0.47560000  1.0 0.1297731688
H  H265  1  0.97460000  0.00360000  0.65210000  1.0 0.1297731688
H  H266  1  0.84790000  0.02540000  0.50360000  1.0 0.1297731688
H  H267  1  0.99640000  0.15210000  0.52540000  1.0 0.1297731688
H  H268  1  0.03550000  0.99970000  0.62070000  1.0 0.1297731688
H  H269  1  0.87930000  0.96450000  0.49970000  1.0 0.1297731688
H  H270  1  0.00030000  0.12070000  0.46450000  1.0 0.1297731688
H  H271  1  0.09080000  0.57800000  0.01790000  1.0 0.101925124
H  H272  1  0.07800000  0.48210000  0.90920000  1.0 0.101925124
H  H273  1  0.98210000  0.59080000  0.92200000  1.0 0.101925124
H  H274  1  0.09170000  0.60720000  0.95600000  1.0 0.0777014587
H  H275  1  0.10720000  0.54400000  0.90830000  1.0 0.0777014587
H  H276  1  0.04400000  0.59170000  0.89280000  1.0 0.0777014587
H  H277  1  0.04830000  0.66790000  0.02440000  1.0 0.1297731688
H  H278  1  0.16790000  0.47560000  0.95170000  1.0 0.1297731688
H  H279  1  0.97560000  0.54830000  0.83210000  1.0 0.1297731688
H  H280  1  0.00360000  0.65210000  0.97460000  1.0 0.1297731688
H  H281  1  0.15210000  0.52540000  0.99640000  1.0 0.1297731688
H  H282  1  0.02540000  0.50360000  0.84790000  1.0 0.1297731688
H  H283  1  0.99970000  0.62070000  0.03550000  1.0 0.1297731688
H  H284  1  0.12070000  0.46450000  0.00030000  1.0 0.1297731688
H  H285  1  0.96450000  0.49970000  0.87930000  1.0 0.1297731688
H  H286  1  0.57800000  0.01790000  0.09080000  1.0 0.101925124
H  H287  1  0.59080000  0.92200000  0.98210000  1.0 0.101925124
H  H288  1  0.48210000  0.90920000  0.07800000  1.0 0.101925124
H  H289  1  0.60720000  0.95600000  0.09170000  1.0 0.0777014587
H  H290  1  0.59170000  0.89280000  0.04400000  1.0 0.0777014587
H  H291  1  0.54400000  0.90830000  0.10720000  1.0 0.0777014587
H  H292  1  0.66790000  0.02440000  0.04830000  1.0 0.1297731688
H  H293  1  0.54830000  0.83210000  0.97560000  1.0 0.1297731688
H  H294  1  0.47560000  0.95170000  0.16790000  1.0 0.1297731688
H  H295  1  0.65210000  0.97460000  0.00360000  1.0 0.1297731688
H  H296  1  0.50360000  0.84790000  0.02540000  1.0 0.1297731688
H  H297  1  0.52540000  0.99640000  0.15210000  1.0 0.1297731688
H  H298  1  0.62070000  0.03550000  0.99970000  1.0 0.1297731688
H  H299  1  0.49970000  0.87930000  0.96450000  1.0 0.1297731688
H  H300  1  0.46450000  0.00030000  0.12070000  1.0 0.1297731688
H  H301  1  0.57800000  0.48210000  0.59080000  1.0 0.101925124
H  H302  1  0.59080000  0.57800000  0.48210000  1.0 0.101925124
H  H303  1  0.48210000  0.59080000  0.57800000  1.0 0.101925124
H  H304  1  0.60720000  0.54400000  0.59170000  1.0 0.0777014587
H  H305  1  0.59170000  0.60720000  0.54400000  1.0 0.0777014587
H  H306  1  0.54400000  0.59170000  0.60720000  1.0 0.0777014587
H  H307  1  0.66790000  0.47560000  0.54830000  1.0 0.1297731688
H  H308  1  0.54830000  0.66790000  0.47560000  1.0 0.1297731688
H  H309  1  0.47560000  0.54830000  0.66790000  1.0 0.1297731688
H  H310  1  0.65210000  0.52540000  0.50360000  1.0 0.1297731688
H  H311  1  0.50360000  0.65210000  0.52540000  1.0 0.1297731688
H  H312  1  0.52540000  0.50360000  0.65210000  1.0 0.1297731688
H  H313  1  0.62070000  0.46450000  0.49970000  1.0 0.1297731688
H  H314  1  0.49970000  0.62070000  0.46450000  1.0 0.1297731688
H  H315  1  0.46450000  0.49970000  0.62070000  1.0 0.1297731688
H  H316  1  0.98210000  0.90920000  0.42200000  1.0 0.101925124
H  H317  1  0.07800000  0.01790000  0.40920000  1.0 0.101925124
H  H318  1  0.09080000  0.92200000  0.51790000  1.0 0.101925124
H  H319  1  0.04400000  0.90830000  0.39280000  1.0 0.0777014587
H  H320  1  0.10720000  0.95600000  0.40830000  1.0 0.0777014587
H  H321  1  0.09170000  0.89280000  0.45600000  1.0 0.0777014587
H  H322  1  0.97560000  0.95170000  0.33210000  1.0 0.1297731688
H  H323  1  0.16790000  0.02440000  0.45170000  1.0 0.1297731688
H  H324  1  0.04830000  0.83210000  0.52440000  1.0 0.1297731688
H  H325  1  0.02540000  0.99640000  0.34790000  1.0 0.1297731688
H  H326  1  0.15210000  0.97460000  0.49640000  1.0 0.1297731688
H  H327  1  0.00360000  0.84790000  0.47460000  1.0 0.1297731688
H  H328  1  0.96450000  0.00030000  0.37930000  1.0 0.1297731688
H  H329  1  0.12070000  0.03550000  0.50030000  1.0 0.1297731688
H  H330  1  0.99970000  0.87930000  0.53550000  1.0 0.1297731688
H  H331  1  0.90920000  0.42200000  0.98210000  1.0 0.101925124
H  H332  1  0.92200000  0.51790000  0.09080000  1.0 0.101925124
H  H333  1  0.01790000  0.40920000  0.07800000  1.0 0.101925124
H  H334  1  0.90830000  0.39280000  0.04400000  1.0 0.0777014587
H  H335  1  0.89280000  0.45600000  0.09170000  1.0 0.0777014587
H  H336  1  0.95600000  0.40830000  0.10720000  1.0 0.0777014587
H  H337  1  0.95170000  0.33210000  0.97560000  1.0 0.1297731688
H  H338  1  0.83210000  0.52440000  0.04830000  1.0 0.1297731688
H  H339  1  0.02440000  0.45170000  0.16790000  1.0 0.1297731688
H  H340  1  0.99640000  0.34790000  0.02540000  1.0 0.1297731688
H  H341  1  0.84790000  0.47460000  0.00360000  1.0 0.1297731688
H  H342  1  0.97460000  0.49640000  0.15210000  1.0 0.1297731688
H  H343  1  0.00030000  0.37930000  0.96450000  1.0 0.1297731688
H  H344  1  0.87930000  0.53550000  0.99970000  1.0 0.1297731688
H  H345  1  0.03550000  0.50030000  0.12070000  1.0 0.1297731688
H  H346  1  0.42200000  0.98210000  0.90920000  1.0 0.101925124
H  H347  1  0.40920000  0.07800000  0.01790000  1.0 0.101925124
H  H348  1  0.51790000  0.09080000  0.92200000  1.0 0.101925124
H  H349  1  0.39280000  0.04400000  0.90830000  1.0 0.0777014587
H  H350  1  0.40830000  0.10720000  0.95600000  1.0 0.0777014587
H  H351  1  0.45600000  0.09170000  0.89280000  1.0 0.0777014587
H  H352  1  0.33210000  0.97560000  0.95170000  1.0 0.1297731688
H  H353  1  0.45170000  0.16790000  0.02440000  1.0 0.1297731688
H  H354  1  0.52440000  0.04830000  0.83210000  1.0 0.1297731688
H  H355  1  0.34790000  0.02540000  0.99640000  1.0 0.1297731688
H  H356  1  0.49640000  0.15210000  0.97460000  1.0 0.1297731688
H  H357  1  0.47460000  0.00360000  0.84790000  1.0 0.1297731688
H  H358  1  0.37930000  0.96450000  0.00030000  1.0 0.1297731688
H  H359  1  0.50030000  0.12070000  0.03550000  1.0 0.1297731688
H  H360  1  0.53550000  0.99970000  0.87930000  1.0 0.1297731688
C  C1  1  0.64350000  0.85650000  0.14350000  1.0 0.3994784028
C  C2  1  0.14350000  0.64350000  0.85650000  1.0 0.3994784028
C  C3  1  0.85650000  0.14350000  0.64350000  1.0 0.3994784028
C  C4  1  0.35650000  0.35650000  0.35650000  1.0 0.3994784028
C  C5  1  0.74290000  0.96530000  0.12290000  1.0 0.0705735432
C  C6  1  0.12290000  0.74290000  0.96530000  1.0 0.0705735432
C  C7  1  0.96530000  0.12290000  0.74290000  1.0 0.0705735432
C  C8  1  0.75710000  0.03470000  0.62290000  1.0 0.0705735432
C  C9  1  0.25710000  0.46530000  0.37710000  1.0 0.0705735432
C  C10  1  0.24290000  0.53470000  0.87710000  1.0 0.0705735432
C  C11  1  0.62290000  0.75710000  0.03470000  1.0 0.0705735432
C  C12  1  0.37710000  0.25710000  0.46530000  1.0 0.0705735432
C  C13  1  0.87710000  0.24290000  0.53470000  1.0 0.0705735432
C  C14  1  0.03470000  0.62290000  0.75710000  1.0 0.0705735432
C  C15  1  0.46530000  0.37710000  0.25710000  1.0 0.0705735432
C  C16  1  0.53470000  0.87710000  0.24290000  1.0 0.0705735432
C  C17  1  0.78700000  0.98410000  0.08360000  1.0 -0.0453723959
C  C18  1  0.08360000  0.78700000  0.98410000  1.0 -0.0453723959
C  C19  1  0.98410000  0.08360000  0.78700000  1.0 -0.0453723959
C  C20  1  0.71300000  0.01590000  0.58360000  1.0 -0.0453723959
C  C21  1  0.21300000  0.48410000  0.41640000  1.0 -0.0453723959
C  C22  1  0.28700000  0.51590000  0.91640000  1.0 -0.0453723959
C  C23  1  0.58360000  0.71300000  0.01590000  1.0 -0.0453723959
C  C24  1  0.41640000  0.21300000  0.48410000  1.0 -0.0453723959
C  C25  1  0.91640000  0.28700000  0.51590000  1.0 -0.0453723959
C  C26  1  0.01590000  0.58360000  0.71300000  1.0 -0.0453723959
C  C27  1  0.48410000  0.41640000  0.21300000  1.0 -0.0453723959
C  C28  1  0.51590000  0.91640000  0.28700000  1.0 -0.0453723959
C  C29  1  0.80990000  0.94950000  0.03820000  1.0 0.3230895496
C  C30  1  0.03820000  0.80990000  0.94950000  1.0 0.3230895496
C  C31  1  0.94950000  0.03820000  0.80990000  1.0 0.3230895496
C  C32  1  0.69010000  0.05050000  0.53820000  1.0 0.3230895496
C  C33  1  0.19010000  0.44950000  0.46180000  1.0 0.3230895496
C  C34  1  0.30990000  0.55050000  0.96180000  1.0 0.3230895496
C  C35  1  0.53820000  0.69010000  0.05050000  1.0 0.3230895496
C  C36  1  0.46180000  0.19010000  0.44950000  1.0 0.3230895496
C  C37  1  0.96180000  0.30990000  0.55050000  1.0 0.3230895496
C  C38  1  0.05050000  0.53820000  0.69010000  1.0 0.3230895496
C  C39  1  0.44950000  0.46180000  0.19010000  1.0 0.3230895496
C  C40  1  0.55050000  0.96180000  0.30990000  1.0 0.3230895496
C  C41  1  0.85320000  0.97210000  0.00300000  1.0 -0.2364285822
C  C42  1  0.00300000  0.85320000  0.97210000  1.0 -0.2364285822
C  C43  1  0.97210000  0.00300000  0.85320000  1.0 -0.2364285822
C  C44  1  0.64680000  0.02790000  0.50300000  1.0 -0.2364285822
C  C45  1  0.14680000  0.47210000  0.49700000  1.0 -0.2364285822
C  C46  1  0.35320000  0.52790000  0.99700000  1.0 -0.2364285822
C  C47  1  0.50300000  0.64680000  0.02790000  1.0 -0.2364285822
C  C48  1  0.49700000  0.14680000  0.47210000  1.0 -0.2364285822
C  C49  1  0.99700000  0.35320000  0.52790000  1.0 -0.2364285822
C  C50  1  0.02790000  0.50300000  0.64680000  1.0 -0.2364285822
C  C51  1  0.47210000  0.49700000  0.14680000  1.0 -0.2364285822
C  C52  1  0.52790000  0.99700000  0.35320000  1.0 -0.2364285822
C  C53  1  0.87250000  0.02890000  0.01170000  1.0 -0.0598945246
C  C54  1  0.01170000  0.87250000  0.02890000  1.0 -0.0598945246
C  C55  1  0.02890000  0.01170000  0.87250000  1.0 -0.0598945246
C  C56  1  0.62750000  0.97110000  0.51170000  1.0 -0.0598945246
C  C57  1  0.12750000  0.52890000  0.48830000  1.0 -0.0598945246
C  C58  1  0.37250000  0.47110000  0.98830000  1.0 -0.0598945246
C  C59  1  0.51170000  0.62750000  0.97110000  1.0 -0.0598945246
C  C60  1  0.48830000  0.12750000  0.52890000  1.0 -0.0598945246
C  C61  1  0.98830000  0.37250000  0.47110000  1.0 -0.0598945246
C  C62  1  0.97110000  0.51170000  0.62750000  1.0 -0.0598945246
C  C63  1  0.52890000  0.48830000  0.12750000  1.0 -0.0598945246
C  C64  1  0.47110000  0.98830000  0.37250000  1.0 -0.0598945246
C  C65  1  0.85130000  0.06220000  0.05540000  1.0 -0.1357904763
C  C66  1  0.05540000  0.85130000  0.06220000  1.0 -0.1357904763
C  C67  1  0.06220000  0.05540000  0.85130000  1.0 -0.1357904763
C  C68  1  0.64870000  0.93780000  0.55540000  1.0 -0.1357904763
C  C69  1  0.14870000  0.56220000  0.44460000  1.0 -0.1357904763
C  C70  1  0.35130000  0.43780000  0.94460000  1.0 -0.1357904763
C  C71  1  0.55540000  0.64870000  0.93780000  1.0 -0.1357904763
C  C72  1  0.44460000  0.14870000  0.56220000  1.0 -0.1357904763
C  C73  1  0.94460000  0.35130000  0.43780000  1.0 -0.1357904763
C  C74  1  0.93780000  0.55540000  0.64870000  1.0 -0.1357904763
C  C75  1  0.56220000  0.44460000  0.14870000  1.0 -0.1357904763
C  C76  1  0.43780000  0.94460000  0.35130000  1.0 -0.1357904763
C  C77  1  0.80910000  0.03930000  0.09140000  1.0 -0.1101595144
C  C78  1  0.09140000  0.80910000  0.03930000  1.0 -0.1101595144
C  C79  1  0.03930000  0.09140000  0.80910000  1.0 -0.1101595144
C  C80  1  0.69090000  0.96070000  0.59140000  1.0 -0.1101595144
C  C81  1  0.19090000  0.53930000  0.40860000  1.0 -0.1101595144
C  C82  1  0.30910000  0.46070000  0.90860000  1.0 -0.1101595144
C  C83  1  0.59140000  0.69090000  0.96070000  1.0 -0.1101595144
C  C84  1  0.40860000  0.19090000  0.53930000  1.0 -0.1101595144
C  C85  1  0.90860000  0.30910000  0.46070000  1.0 -0.1101595144
C  C86  1  0.96070000  0.59140000  0.69090000  1.0 -0.1101595144
C  C87  1  0.53930000  0.40860000  0.19090000  1.0 -0.1101595144
C  C88  1  0.46070000  0.90860000  0.30910000  1.0 -0.1101595144
C  C89  1  0.63660000  0.13660000  0.36340000  1.0 0.3994784028
C  C90  1  0.36340000  0.63660000  0.13660000  1.0 0.3994784028
C  C91  1  0.13660000  0.36340000  0.63660000  1.0 0.3994784028
C  C92  1  0.86340000  0.86340000  0.86340000  1.0 0.3994784028
C  C93  1  0.74580000  0.03640000  0.37170000  1.0 0.0452208602
C  C94  1  0.37170000  0.74580000  0.03640000  1.0 0.0452208602
C  C95  1  0.03640000  0.37170000  0.74580000  1.0 0.0448300288
C  C96  1  0.75420000  0.96360000  0.87170000  1.0 0.0452208602
C  C97  1  0.25420000  0.53640000  0.12830000  1.0 0.0452208602
C  C98  1  0.24580000  0.46360000  0.62830000  1.0 0.0448300288
C  C99  1  0.87170000  0.75420000  0.96360000  1.0 0.0452208602
C  C100  1  0.12830000  0.25420000  0.53640000  1.0 0.0448300288
C  C101  1  0.62830000  0.24580000  0.46360000  1.0 0.0452208602
C  C102  1  0.96360000  0.87170000  0.75420000  1.0 0.0452208602
C  C103  1  0.53640000  0.12830000  0.25420000  1.0 0.0452208602
C  C104  1  0.46360000  0.62830000  0.24580000  1.0 0.0452208602
C  C105  1  0.77340000  0.99080000  0.34080000  1.0 -0.0409304677
C  C106  1  0.34080000  0.77340000  0.99080000  1.0 -0.0409304677
C  C107  1  0.99080000  0.34080000  0.77340000  1.0 -0.0409304677
C  C108  1  0.72660000  0.00920000  0.84080000  1.0 -0.0409304677
C  C109  1  0.22660000  0.49080000  0.15920000  1.0 -0.0409304677
C  C110  1  0.27340000  0.50920000  0.65920000  1.0 -0.0409304677
C  C111  1  0.84080000  0.72660000  0.00920000  1.0 -0.0409304677
C  C112  1  0.15920000  0.22660000  0.49080000  1.0 -0.0409304677
C  C113  1  0.65920000  0.27340000  0.50920000  1.0 -0.0409304677
C  C114  1  0.00920000  0.84080000  0.72660000  1.0 -0.0409304677
C  C115  1  0.49080000  0.15920000  0.22660000  1.0 -0.0409304677
C  C116  1  0.50920000  0.65920000  0.27340000  1.0 -0.0409304677
C  C117  1  0.75440000  0.96760000  0.28740000  1.0 0.3230895496
C  C118  1  0.28740000  0.75440000  0.96760000  1.0 0.3230895496
C  C119  1  0.96760000  0.28740000  0.75440000  1.0 0.3230895496
C  C120  1  0.74560000  0.03240000  0.78740000  1.0 0.3230895496
C  C121  1  0.24560000  0.46760000  0.21260000  1.0 0.3230895496
C  C122  1  0.25440000  0.53240000  0.71260000  1.0 0.3230895496
C  C123  1  0.78740000  0.74560000  0.03240000  1.0 0.3230895496
C  C124  1  0.21260000  0.24560000  0.46760000  1.0 0.3230895496
C  C125  1  0.71260000  0.25440000  0.53240000  1.0 0.3230895496
C  C126  1  0.03240000  0.78740000  0.74560000  1.0 0.3230895496
C  C127  1  0.46760000  0.21260000  0.24560000  1.0 0.3230895496
C  C128  1  0.53240000  0.71260000  0.25440000  1.0 0.3230895496
C  C129  1  0.73670000  0.28590000  0.57830000  1.0 -0.2472443336
C  C130  1  0.57830000  0.73670000  0.28590000  1.0 -0.2472443336
C  C131  1  0.28590000  0.57830000  0.73670000  1.0 -0.2472443336
C  C132  1  0.76330000  0.71410000  0.07830000  1.0 -0.2472443336
C  C133  1  0.26330000  0.78590000  0.92170000  1.0 -0.2472443336
C  C134  1  0.23670000  0.21410000  0.42170000  1.0 -0.2472443336
C  C135  1  0.07830000  0.76330000  0.71410000  1.0 -0.2472443336
C  C136  1  0.92170000  0.26330000  0.78590000  1.0 -0.2472443336
C  C137  1  0.42170000  0.23670000  0.21410000  1.0 -0.2472443336
C  C138  1  0.71410000  0.07830000  0.76330000  1.0 -0.2472443336
C  C139  1  0.78590000  0.92170000  0.26330000  1.0 -0.2472443336
C  C140  1  0.21410000  0.42170000  0.23670000  1.0 -0.2472443336
C  C141  1  0.71110000  0.33500000  0.59860000  1.0 -0.0409304677
C  C142  1  0.59860000  0.71110000  0.33500000  1.0 -0.0409304677
C  C143  1  0.33500000  0.59860000  0.71110000  1.0 -0.0409304677
C  C144  1  0.78890000  0.66500000  0.09860000  1.0 -0.0409304677
C  C145  1  0.28890000  0.83500000  0.90140000  1.0 -0.0409304677
C  C146  1  0.21110000  0.16500000  0.40140000  1.0 -0.0409304677
C  C147  1  0.09860000  0.78890000  0.66500000  1.0 -0.0409304677
C  C148  1  0.90140000  0.28890000  0.83500000  1.0 -0.0409304677
C  C149  1  0.40140000  0.21110000  0.16500000  1.0 -0.0409304677
C  C150  1  0.66500000  0.09860000  0.78890000  1.0 -0.0409304677
C  C151  1  0.83500000  0.90140000  0.28890000  1.0 -0.0409304677
C  C152  1  0.16500000  0.40140000  0.21110000  1.0 -0.0409304677
C  C153  1  0.65700000  0.35340000  0.57650000  1.0 -0.0937704165
C  C154  1  0.57650000  0.65700000  0.35340000  1.0 -0.0937704165
C  C155  1  0.35340000  0.57650000  0.65700000  1.0 -0.0937704165
C  C156  1  0.84300000  0.64660000  0.07650000  1.0 -0.0937704165
C  C157  1  0.34300000  0.85340000  0.92350000  1.0 -0.0937704165
C  C158  1  0.15700000  0.14660000  0.42350000  1.0 -0.0937704165
C  C159  1  0.07650000  0.84300000  0.64660000  1.0 -0.0937704165
C  C160  1  0.92350000  0.34300000  0.85340000  1.0 -0.0937704165
C  C161  1  0.42350000  0.15700000  0.14660000  1.0 -0.0937704165
C  C162  1  0.64660000  0.07650000  0.84300000  1.0 -0.0937704165
C  C163  1  0.85340000  0.92350000  0.34300000  1.0 -0.0937704165
C  C164  1  0.14660000  0.42350000  0.15700000  1.0 -0.0937704165
C  C165  1  0.63370000  0.32340000  0.53180000  1.0 -0.103800702
C  C166  1  0.53180000  0.63370000  0.32340000  1.0 -0.103800702
C  C167  1  0.32340000  0.53180000  0.63370000  1.0 -0.103800702
C  C168  1  0.86630000  0.67660000  0.03180000  1.0 -0.103800702
C  C169  1  0.36630000  0.82340000  0.96820000  1.0 -0.103800702
C  C170  1  0.13370000  0.17660000  0.46820000  1.0 -0.103800702
C  C171  1  0.03180000  0.86630000  0.67660000  1.0 -0.103800702
C  C172  1  0.96820000  0.36630000  0.82340000  1.0 -0.103800702
C  C173  1  0.46820000  0.13370000  0.17660000  1.0 -0.103800702
C  C174  1  0.67660000  0.03180000  0.86630000  1.0 -0.103800702
C  C175  1  0.82340000  0.96820000  0.36630000  1.0 -0.103800702
C  C176  1  0.17660000  0.46820000  0.13370000  1.0 -0.103800702
C  C177  1  0.35650000  0.14350000  0.85650000  1.0 0.3994784028
C  C178  1  0.85650000  0.35650000  0.14350000  1.0 0.3994784028
C  C179  1  0.14350000  0.85650000  0.35650000  1.0 0.3994784028
C  C180  1  0.64350000  0.64350000  0.64350000  1.0 0.3994784028
C  C181  1  0.25710000  0.03470000  0.87710000  1.0 0.0705735432
C  C182  1  0.87710000  0.25710000  0.03470000  1.0 0.0705735432
C  C183  1  0.03470000  0.87710000  0.25710000  1.0 0.0705735432
C  C184  1  0.24290000  0.96530000  0.37710000  1.0 0.0705735432
C  C185  1  0.74290000  0.53470000  0.62290000  1.0 0.0705735432
C  C186  1  0.75710000  0.46530000  0.12290000  1.0 0.0705735432
C  C187  1  0.37710000  0.24290000  0.96530000  1.0 0.0705735432
C  C188  1  0.62290000  0.74290000  0.53470000  1.0 0.0705735432
C  C189  1  0.12290000  0.75710000  0.46530000  1.0 0.0705735432
C  C190  1  0.96530000  0.37710000  0.24290000  1.0 0.0705735432
C  C191  1  0.53470000  0.62290000  0.74290000  1.0 0.0705735432
C  C192  1  0.46530000  0.12290000  0.75710000  1.0 0.0705735432
C  C193  1  0.21300000  0.01590000  0.91640000  1.0 -0.0453723959
C  C194  1  0.91640000  0.21300000  0.01590000  1.0 -0.0453723959
C  C195  1  0.01590000  0.91640000  0.21300000  1.0 -0.0453723959
C  C196  1  0.28700000  0.98410000  0.41640000  1.0 -0.0453723959
C  C197  1  0.78700000  0.51590000  0.58360000  1.0 -0.0453723959
C  C198  1  0.71300000  0.48410000  0.08360000  1.0 -0.0453723959
C  C199  1  0.41640000  0.28700000  0.98410000  1.0 -0.0453723959
C  C200  1  0.58360000  0.78700000  0.51590000  1.0 -0.0453723959
C  C201  1  0.08360000  0.71300000  0.48410000  1.0 -0.0453723959
C  C202  1  0.98410000  0.41640000  0.28700000  1.0 -0.0453723959
C  C203  1  0.51590000  0.58360000  0.78700000  1.0 -0.0453723959
C  C204  1  0.48410000  0.08360000  0.71300000  1.0 -0.0453723959
C  C205  1  0.19010000  0.05050000  0.96180000  1.0 0.3230895496
C  C206  1  0.96180000  0.19010000  0.05050000  1.0 0.3230895496
C  C207  1  0.05050000  0.96180000  0.19010000  1.0 0.3230895496
C  C208  1  0.30990000  0.94950000  0.46180000  1.0 0.3230895496
C  C209  1  0.80990000  0.55050000  0.53820000  1.0 0.3230895496
C  C210  1  0.69010000  0.44950000  0.03820000  1.0 0.3230895496
C  C211  1  0.46180000  0.30990000  0.94950000  1.0 0.3230895496
C  C212  1  0.53820000  0.80990000  0.55050000  1.0 0.3230895496
C  C213  1  0.03820000  0.69010000  0.44950000  1.0 0.3230895496
C  C214  1  0.94950000  0.46180000  0.30990000  1.0 0.3230895496
C  C215  1  0.55050000  0.53820000  0.80990000  1.0 0.3230895496
C  C216  1  0.44950000  0.03820000  0.69010000  1.0 0.3230895496
C  C217  1  0.14680000  0.02790000  0.99700000  1.0 -0.2364285822
C  C218  1  0.99700000  0.14680000  0.02790000  1.0 -0.2364285822
C  C219  1  0.02790000  0.99700000  0.14680000  1.0 -0.2364285822
C  C220  1  0.35320000  0.97210000  0.49700000  1.0 -0.2364285822
C  C221  1  0.85320000  0.52790000  0.50300000  1.0 -0.2364285822
C  C222  1  0.64680000  0.47210000  0.00300000  1.0 -0.2364285822
C  C223  1  0.49700000  0.35320000  0.97210000  1.0 -0.2364285822
C  C224  1  0.50300000  0.85320000  0.52790000  1.0 -0.2364285822
C  C225  1  0.00300000  0.64680000  0.47210000  1.0 -0.2364285822
C  C226  1  0.97210000  0.49700000  0.35320000  1.0 -0.2364285822
C  C227  1  0.52790000  0.50300000  0.85320000  1.0 -0.2364285822
C  C228  1  0.47210000  0.00300000  0.64680000  1.0 -0.2364285822
C  C229  1  0.12750000  0.97110000  0.98830000  1.0 -0.0598945246
C  C230  1  0.98830000  0.12750000  0.97110000  1.0 -0.0598945246
C  C231  1  0.97110000  0.98830000  0.12750000  1.0 -0.0598945246
C  C232  1  0.37250000  0.02890000  0.48830000  1.0 -0.0598945246
C  C233  1  0.87250000  0.47110000  0.51170000  1.0 -0.0598945246
C  C234  1  0.62750000  0.52890000  0.01170000  1.0 -0.0598945246
C  C235  1  0.48830000  0.37250000  0.02890000  1.0 -0.0598945246
C  C236  1  0.51170000  0.87250000  0.47110000  1.0 -0.0598945246
C  C237  1  0.01170000  0.62750000  0.52890000  1.0 -0.0598945246
C  C238  1  0.02890000  0.48830000  0.37250000  1.0 -0.0598945246
C  C239  1  0.47110000  0.51170000  0.87250000  1.0 -0.0598945246
C  C240  1  0.52890000  0.01170000  0.62750000  1.0 -0.0598945246
C  C241  1  0.14870000  0.93780000  0.94460000  1.0 -0.1357904763
C  C242  1  0.94460000  0.14870000  0.93780000  1.0 -0.1357904763
C  C243  1  0.93780000  0.94460000  0.14870000  1.0 -0.1357904763
C  C244  1  0.35130000  0.06220000  0.44460000  1.0 -0.1357904763
C  C245  1  0.85130000  0.43780000  0.55540000  1.0 -0.1357904763
C  C246  1  0.64870000  0.56220000  0.05540000  1.0 -0.1357904763
C  C247  1  0.44460000  0.35130000  0.06220000  1.0 -0.1357904763
C  C248  1  0.55540000  0.85130000  0.43780000  1.0 -0.1357904763
C  C249  1  0.05540000  0.64870000  0.56220000  1.0 -0.1357904763
C  C250  1  0.06220000  0.44460000  0.35130000  1.0 -0.1357904763
C  C251  1  0.43780000  0.55540000  0.85130000  1.0 -0.1357904763
C  C252  1  0.56220000  0.05540000  0.64870000  1.0 -0.1357904763
C  C253  1  0.19090000  0.96070000  0.90860000  1.0 -0.1101595144
C  C254  1  0.90860000  0.19090000  0.96070000  1.0 -0.1101595144
C  C255  1  0.96070000  0.90860000  0.19090000  1.0 -0.1101595144
C  C256  1  0.30910000  0.03930000  0.40860000  1.0 -0.1101595144
C  C257  1  0.80910000  0.46070000  0.59140000  1.0 -0.1101595144
C  C258  1  0.69090000  0.53930000  0.09140000  1.0 -0.1101595144
C  C259  1  0.40860000  0.30910000  0.03930000  1.0 -0.1101595144
C  C260  1  0.59140000  0.80910000  0.46070000  1.0 -0.1101595144
C  C261  1  0.09140000  0.69090000  0.53930000  1.0 -0.1101595144
C  C262  1  0.03930000  0.40860000  0.30910000  1.0 -0.1101595144
C  C263  1  0.46070000  0.59140000  0.80910000  1.0 -0.1101595144
C  C264  1  0.53930000  0.09140000  0.69090000  1.0 -0.1101595144
C  C265  1  0.36340000  0.86340000  0.63660000  1.0 0.3994784028
C  C266  1  0.63660000  0.36340000  0.86340000  1.0 0.3994784028
C  C267  1  0.86340000  0.63660000  0.36340000  1.0 0.3994784028
C  C268  1  0.13660000  0.13660000  0.13660000  1.0 0.3994784028
C  C269  1  0.25420000  0.96360000  0.62830000  1.0 0.0452208602
C  C270  1  0.62830000  0.25420000  0.96360000  1.0 0.0448300288
C  C271  1  0.96360000  0.62830000  0.25420000  1.0 0.0452208602
C  C272  1  0.24580000  0.03640000  0.12830000  1.0 0.0452208602
C  C273  1  0.74580000  0.46360000  0.87170000  1.0 0.0448300288
C  C274  1  0.75420000  0.53640000  0.37170000  1.0 0.0452208602
C  C275  1  0.12830000  0.24580000  0.03640000  1.0 0.0452208602
C  C276  1  0.87170000  0.74580000  0.46360000  1.0 0.0452208602
C  C277  1  0.37170000  0.75420000  0.53640000  1.0 0.0452208602
C  C278  1  0.03640000  0.12830000  0.24580000  1.0 0.0452208602
C  C279  1  0.46360000  0.87170000  0.74580000  1.0 0.0452208602
C  C280  1  0.53640000  0.37170000  0.75420000  1.0 0.0448300288
C  C281  1  0.22660000  0.00920000  0.65920000  1.0 -0.0409304677
C  C282  1  0.65920000  0.22660000  0.00920000  1.0 -0.0409304677
C  C283  1  0.00920000  0.65920000  0.22660000  1.0 -0.0409304677
C  C284  1  0.27340000  0.99080000  0.15920000  1.0 -0.0409304677
C  C285  1  0.77340000  0.50920000  0.84080000  1.0 -0.0409304677
C  C286  1  0.72660000  0.49080000  0.34080000  1.0 -0.0409304677
C  C287  1  0.15920000  0.27340000  0.99080000  1.0 -0.0409304677
C  C288  1  0.84080000  0.77340000  0.50920000  1.0 -0.0409304677
C  C289  1  0.34080000  0.72660000  0.49080000  1.0 -0.0409304677
C  C290  1  0.99080000  0.15920000  0.27340000  1.0 -0.0409304677
C  C291  1  0.50920000  0.84080000  0.77340000  1.0 -0.0409304677
C  C292  1  0.49080000  0.34080000  0.72660000  1.0 -0.0409304677
C  C293  1  0.24560000  0.03240000  0.71260000  1.0 0.3230895496
C  C294  1  0.71260000  0.24560000  0.03240000  1.0 0.3230895496
C  C295  1  0.03240000  0.71260000  0.24560000  1.0 0.3230895496
C  C296  1  0.25440000  0.96760000  0.21260000  1.0 0.3230895496
C  C297  1  0.75440000  0.53240000  0.78740000  1.0 0.3230895496
C  C298  1  0.74560000  0.46760000  0.28740000  1.0 0.3230895496
C  C299  1  0.21260000  0.25440000  0.96760000  1.0 0.3230895496
C  C300  1  0.78740000  0.75440000  0.53240000  1.0 0.3230895496
C  C301  1  0.28740000  0.74560000  0.46760000  1.0 0.3230895496
C  C302  1  0.96760000  0.21260000  0.25440000  1.0 0.3230895496
C  C303  1  0.53240000  0.78740000  0.75440000  1.0 0.3230895496
C  C304  1  0.46760000  0.28740000  0.74560000  1.0 0.3230895496
C  C305  1  0.26330000  0.71410000  0.42170000  1.0 -0.2472443336
C  C306  1  0.42170000  0.26330000  0.71410000  1.0 -0.2472443336
C  C307  1  0.71410000  0.42170000  0.26330000  1.0 -0.2472443336
C  C308  1  0.23670000  0.28590000  0.92170000  1.0 -0.2472443336
C  C309  1  0.73670000  0.21410000  0.07830000  1.0 -0.2472443336
C  C310  1  0.76330000  0.78590000  0.57830000  1.0 -0.2472443336
C  C311  1  0.92170000  0.23670000  0.28590000  1.0 -0.2472443336
C  C312  1  0.07830000  0.73670000  0.21410000  1.0 -0.2472443336
C  C313  1  0.57830000  0.76330000  0.78590000  1.0 -0.2472443336
C  C314  1  0.28590000  0.92170000  0.23670000  1.0 -0.2472443336
C  C315  1  0.21410000  0.07830000  0.73670000  1.0 -0.2472443336
C  C316  1  0.78590000  0.57830000  0.76330000  1.0 -0.2472443336
C  C317  1  0.28890000  0.66500000  0.40140000  1.0 -0.0409304677
C  C318  1  0.40140000  0.28890000  0.66500000  1.0 -0.0409304677
C  C319  1  0.66500000  0.40140000  0.28890000  1.0 -0.0409304677
C  C320  1  0.21110000  0.33500000  0.90140000  1.0 -0.0409304677
C  C321  1  0.71110000  0.16500000  0.09860000  1.0 -0.0409304677
C  C322  1  0.78890000  0.83500000  0.59860000  1.0 -0.0409304677
C  C323  1  0.90140000  0.21110000  0.33500000  1.0 -0.0409304677
C  C324  1  0.09860000  0.71110000  0.16500000  1.0 -0.0409304677
C  C325  1  0.59860000  0.78890000  0.83500000  1.0 -0.0409304677
C  C326  1  0.33500000  0.90140000  0.21110000  1.0 -0.0409304677
C  C327  1  0.16500000  0.09860000  0.71110000  1.0 -0.0409304677
C  C328  1  0.83500000  0.59860000  0.78890000  1.0 -0.0409304677
C  C329  1  0.34300000  0.64660000  0.42350000  1.0 -0.0937704165
C  C330  1  0.42350000  0.34300000  0.64660000  1.0 -0.0937704165
C  C331  1  0.64660000  0.42350000  0.34300000  1.0 -0.0937704165
C  C332  1  0.15700000  0.35340000  0.92350000  1.0 -0.0937704165
C  C333  1  0.65700000  0.14660000  0.07650000  1.0 -0.0937704165
C  C334  1  0.84300000  0.85340000  0.57650000  1.0 -0.0937704165
C  C335  1  0.92350000  0.15700000  0.35340000  1.0 -0.0937704165
C  C336  1  0.07650000  0.65700000  0.14660000  1.0 -0.0937704165
C  C337  1  0.57650000  0.84300000  0.85340000  1.0 -0.0937704165
C  C338  1  0.35340000  0.92350000  0.15700000  1.0 -0.0937704165
C  C339  1  0.14660000  0.07650000  0.65700000  1.0 -0.0937704165
C  C340  1  0.85340000  0.57650000  0.84300000  1.0 -0.0937704165
C  C341  1  0.36630000  0.67660000  0.46820000  1.0 -0.103800702
C  C342  1  0.46820000  0.36630000  0.67660000  1.0 -0.103800702
C  C343  1  0.67660000  0.46820000  0.36630000  1.0 -0.103800702
C  C344  1  0.13370000  0.32340000  0.96820000  1.0 -0.103800702
C  C345  1  0.63370000  0.17660000  0.03180000  1.0 -0.103800702
C  C346  1  0.86630000  0.82340000  0.53180000  1.0 -0.103800702
C  C347  1  0.96820000  0.13370000  0.32340000  1.0 -0.103800702
C  C348  1  0.03180000  0.63370000  0.17660000  1.0 -0.103800702
C  C349  1  0.53180000  0.86630000  0.82340000  1.0 -0.103800702
C  C350  1  0.32340000  0.96820000  0.13370000  1.0 -0.103800702
C  C351  1  0.17660000  0.03180000  0.63370000  1.0 -0.103800702
C  C352  1  0.82340000  0.53180000  0.86630000  1.0 -0.103800702
C  C353  1  0.40980000  0.48500000  0.43380000  1.0 -0.07070416
C  C354  1  0.43380000  0.40980000  0.48500000  1.0 -0.07070416
C  C355  1  0.48500000  0.43380000  0.40980000  1.0 -0.07070416
C  C356  1  0.36310000  0.50690000  0.47410000  1.0 -0.4036707013
C  C357  1  0.47410000  0.36310000  0.50690000  1.0 -0.4036707013
C  C358  1  0.50690000  0.47410000  0.36310000  1.0 -0.4036707013
C  C359  1  0.98500000  0.06620000  0.59020000  1.0 -0.07070416
C  C360  1  0.90980000  0.01500000  0.56620000  1.0 -0.07070416
C  C361  1  0.93380000  0.09020000  0.51500000  1.0 -0.07070416
C  C362  1  0.00690000  0.02590000  0.63690000  1.0 -0.4036707013
C  C363  1  0.86310000  0.99310000  0.52590000  1.0 -0.4036707013
C  C364  1  0.97410000  0.13690000  0.49310000  1.0 -0.4036707013
C  C365  1  0.06620000  0.59020000  0.98500000  1.0 -0.07070416
C  C366  1  0.09020000  0.51500000  0.93380000  1.0 -0.07070416
C  C367  1  0.01500000  0.56620000  0.90980000  1.0 -0.07070416
C  C368  1  0.02590000  0.63690000  0.00690000  1.0 -0.4036707013
C  C369  1  0.13690000  0.49310000  0.97410000  1.0 -0.4036707013
C  C370  1  0.99310000  0.52590000  0.86310000  1.0 -0.4036707013
C  C371  1  0.59020000  0.98500000  0.06620000  1.0 -0.07070416
C  C372  1  0.56620000  0.90980000  0.01500000  1.0 -0.07070416
C  C373  1  0.51500000  0.93380000  0.09020000  1.0 -0.07070416
C  C374  1  0.63690000  0.00690000  0.02590000  1.0 -0.4036707013
C  C375  1  0.52590000  0.86310000  0.99310000  1.0 -0.4036707013
C  C376  1  0.49310000  0.97410000  0.13690000  1.0 -0.4036707013
C  C377  1  0.59020000  0.51500000  0.56620000  1.0 -0.07070416
C  C378  1  0.56620000  0.59020000  0.51500000  1.0 -0.07070416
C  C379  1  0.51500000  0.56620000  0.59020000  1.0 -0.07070416
C  C380  1  0.63690000  0.49310000  0.52590000  1.0 -0.4036707013
C  C381  1  0.52590000  0.63690000  0.49310000  1.0 -0.4036707013
C  C382  1  0.49310000  0.52590000  0.63690000  1.0 -0.4036707013
C  C383  1  0.01500000  0.93380000  0.40980000  1.0 -0.07070416
C  C384  1  0.09020000  0.98500000  0.43380000  1.0 -0.07070416
C  C385  1  0.06620000  0.90980000  0.48500000  1.0 -0.07070416
C  C386  1  0.99310000  0.97410000  0.36310000  1.0 -0.4036707013
C  C387  1  0.13690000  0.00690000  0.47410000  1.0 -0.4036707013
C  C388  1  0.02590000  0.86310000  0.50690000  1.0 -0.4036707013
C  C389  1  0.93380000  0.40980000  0.01500000  1.0 -0.07070416
C  C390  1  0.90980000  0.48500000  0.06620000  1.0 -0.07070416
C  C391  1  0.98500000  0.43380000  0.09020000  1.0 -0.07070416
C  C392  1  0.97410000  0.36310000  0.99310000  1.0 -0.4036707013
C  C393  1  0.86310000  0.50690000  0.02590000  1.0 -0.4036707013
C  C394  1  0.00690000  0.47410000  0.13690000  1.0 -0.4036707013
C  C395  1  0.40980000  0.01500000  0.93380000  1.0 -0.07070416
C  C396  1  0.43380000  0.09020000  0.98500000  1.0 -0.07070416
C  C397  1  0.48500000  0.06620000  0.90980000  1.0 -0.07070416
C  C398  1  0.36310000  0.99310000  0.97410000  1.0 -0.4036707013
C  C399  1  0.47410000  0.13690000  0.00690000  1.0 -0.4036707013
C  C400  1  0.50690000  0.02590000  0.86310000  1.0 -0.4036707013
N  N1  1  0.65930000  0.82640000  0.09640000  1.0 -0.3098780318
N  N2  1  0.09640000  0.65930000  0.82640000  1.0 -0.3098780318
N  N3  1  0.82640000  0.09640000  0.65930000  1.0 -0.3098780318
N  N4  1  0.84070000  0.17360000  0.59640000  1.0 -0.3098780318
N  N5  1  0.34070000  0.32640000  0.40360000  1.0 -0.3098780318
N  N6  1  0.15930000  0.67360000  0.90360000  1.0 -0.3098780318
N  N7  1  0.59640000  0.84070000  0.17360000  1.0 -0.3098780318
N  N8  1  0.40360000  0.34070000  0.32640000  1.0 -0.3098780318
N  N9  1  0.90360000  0.15930000  0.67360000  1.0 -0.3098780318
N  N10  1  0.17360000  0.59640000  0.84070000  1.0 -0.3098780318
N  N11  1  0.32640000  0.40360000  0.34070000  1.0 -0.3098780318
N  N12  1  0.67360000  0.90360000  0.15930000  1.0 -0.3098780318
N  N13  1  0.71600000  0.91640000  0.11930000  1.0 -0.1101595144
N  N14  1  0.11930000  0.71600000  0.91640000  1.0 -0.1101595144
N  N15  1  0.91640000  0.11930000  0.71600000  1.0 -0.1101595144
N  N16  1  0.78400000  0.08360000  0.61930000  1.0 -0.1101595144
N  N17  1  0.28400000  0.41640000  0.38070000  1.0 -0.1101595144
N  N18  1  0.21600000  0.58360000  0.88070000  1.0 -0.1101595144
N  N19  1  0.61930000  0.78400000  0.08360000  1.0 -0.1101595144
N  N20  1  0.38070000  0.28400000  0.41640000  1.0 -0.1101595144
N  N21  1  0.88070000  0.21600000  0.58360000  1.0 -0.1101595144
N  N22  1  0.08360000  0.61930000  0.78400000  1.0 -0.1101595144
N  N23  1  0.41640000  0.38070000  0.28400000  1.0 -0.1101595144
N  N24  1  0.58360000  0.88070000  0.21600000  1.0 -0.1101595144
N  N25  1  0.61170000  0.11330000  0.31670000  1.0 -0.3098780318
N  N26  1  0.31670000  0.61170000  0.11330000  1.0 -0.3098780318
N  N27  1  0.11330000  0.31670000  0.61170000  1.0 -0.3098780318
N  N28  1  0.88830000  0.88670000  0.81670000  1.0 -0.3098780318
N  N29  1  0.38830000  0.61330000  0.18330000  1.0 -0.3098780318
N  N30  1  0.11170000  0.38670000  0.68330000  1.0 -0.3098780318
N  N31  1  0.81670000  0.88830000  0.88670000  1.0 -0.3098780318
N  N32  1  0.18330000  0.38830000  0.61330000  1.0 -0.3098780318
N  N33  1  0.68330000  0.11170000  0.38670000  1.0 -0.3098780318
N  N34  1  0.88670000  0.81670000  0.88830000  1.0 -0.3098780318
N  N35  1  0.61330000  0.18330000  0.38830000  1.0 -0.3098780318
N  N36  1  0.38670000  0.68330000  0.11170000  1.0 -0.3098780318
N  N37  1  0.70230000  0.06630000  0.35290000  1.0 -0.1101595144
N  N38  1  0.35290000  0.70230000  0.06630000  1.0 -0.1101595144
N  N39  1  0.06630000  0.35290000  0.70230000  1.0 -0.1101595144
N  N40  1  0.79770000  0.93370000  0.85290000  1.0 -0.1101595144
N  N41  1  0.29770000  0.56630000  0.14710000  1.0 -0.1101595144
N  N42  1  0.20230000  0.43370000  0.64710000  1.0 -0.1101595144
N  N43  1  0.85290000  0.79770000  0.93370000  1.0 -0.1101595144
N  N44  1  0.14710000  0.29770000  0.56630000  1.0 -0.1101595144
N  N45  1  0.64710000  0.20230000  0.43370000  1.0 -0.1101595144
N  N46  1  0.93370000  0.85290000  0.79770000  1.0 -0.1101595144
N  N47  1  0.56630000  0.14710000  0.29770000  1.0 -0.1101595144
N  N48  1  0.43370000  0.64710000  0.20230000  1.0 -0.1101595144
N  N49  1  0.34070000  0.17360000  0.90360000  1.0 -0.3098780318
N  N50  1  0.90360000  0.34070000  0.17360000  1.0 -0.3098780318
N  N51  1  0.17360000  0.90360000  0.34070000  1.0 -0.3098780318
N  N52  1  0.15930000  0.82640000  0.40360000  1.0 -0.3098780318
N  N53  1  0.65930000  0.67360000  0.59640000  1.0 -0.3098780318
N  N54  1  0.84070000  0.32640000  0.09640000  1.0 -0.3098780318
N  N55  1  0.40360000  0.15930000  0.82640000  1.0 -0.3098780318
N  N56  1  0.59640000  0.65930000  0.67360000  1.0 -0.3098780318
N  N57  1  0.09640000  0.84070000  0.32640000  1.0 -0.3098780318
N  N58  1  0.82640000  0.40360000  0.15930000  1.0 -0.3098780318
N  N59  1  0.67360000  0.59640000  0.65930000  1.0 -0.3098780318
N  N60  1  0.32640000  0.09640000  0.84070000  1.0 -0.3098780318
N  N61  1  0.28400000  0.08360000  0.88070000  1.0 -0.1101595144
N  N62  1  0.88070000  0.28400000  0.08360000  1.0 -0.1101595144
N  N63  1  0.08360000  0.88070000  0.28400000  1.0 -0.1101595144
N  N64  1  0.21600000  0.91640000  0.38070000  1.0 -0.1101595144
N  N65  1  0.71600000  0.58360000  0.61930000  1.0 -0.1101595144
N  N66  1  0.78400000  0.41640000  0.11930000  1.0 -0.1101595144
N  N67  1  0.38070000  0.21600000  0.91640000  1.0 -0.1101595144
N  N68  1  0.61930000  0.71600000  0.58360000  1.0 -0.1101595144
N  N69  1  0.11930000  0.78400000  0.41640000  1.0 -0.1101595144
N  N70  1  0.91640000  0.38070000  0.21600000  1.0 -0.1101595144
N  N71  1  0.58360000  0.61930000  0.71600000  1.0 -0.1101595144
N  N72  1  0.41640000  0.11930000  0.78400000  1.0 -0.1101595144
N  N73  1  0.38830000  0.88670000  0.68330000  1.0 -0.3098780318
N  N74  1  0.68330000  0.38830000  0.88670000  1.0 -0.3098780318
N  N75  1  0.88670000  0.68330000  0.38830000  1.0 -0.3098780318
N  N76  1  0.11170000  0.11330000  0.18330000  1.0 -0.3098780318
N  N77  1  0.61170000  0.38670000  0.81670000  1.0 -0.3098780318
N  N78  1  0.88830000  0.61330000  0.31670000  1.0 -0.3098780318
N  N79  1  0.18330000  0.11170000  0.11330000  1.0 -0.3098780318
N  N80  1  0.81670000  0.61170000  0.38670000  1.0 -0.3098780318
N  N81  1  0.31670000  0.88830000  0.61330000  1.0 -0.3098780318
N  N82  1  0.11330000  0.18330000  0.11170000  1.0 -0.3098780318
N  N83  1  0.38670000  0.81670000  0.61170000  1.0 -0.3098780318
N  N84  1  0.61330000  0.31670000  0.88830000  1.0 -0.3098780318
N  N85  1  0.29770000  0.93370000  0.64710000  1.0 -0.1101595144
N  N86  1  0.64710000  0.29770000  0.93370000  1.0 -0.1101595144
N  N87  1  0.93370000  0.64710000  0.29770000  1.0 -0.1101595144
N  N88  1  0.20230000  0.06630000  0.14710000  1.0 -0.1101595144
N  N89  1  0.70230000  0.43370000  0.85290000  1.0 -0.1101595144
N  N90  1  0.79770000  0.56630000  0.35290000  1.0 -0.1101595144
N  N91  1  0.14710000  0.20230000  0.06630000  1.0 -0.1101595144
N  N92  1  0.85290000  0.70230000  0.43370000  1.0 -0.1101595144
N  N93  1  0.35290000  0.79770000  0.56630000  1.0 -0.1101595144
N  N94  1  0.06630000  0.14710000  0.20230000  1.0 -0.1101595144
N  N95  1  0.43370000  0.85290000  0.70230000  1.0 -0.1101595144
N  N96  1  0.56630000  0.35290000  0.79770000  1.0 -0.1101595144
N  N97  1  0.46090000  0.46090000  0.46090000  1.0 -0.0598945246
N  N98  1  0.96090000  0.03910000  0.53910000  1.0 -0.0598945246
N  N99  1  0.03910000  0.53910000  0.96090000  1.0 -0.0598945246
N  N100  1  0.53910000  0.96090000  0.03910000  1.0 -0.0598945246
N  N101  1  0.53910000  0.53910000  0.53910000  1.0 -0.0598945246
N  N102  1  0.03910000  0.96090000  0.46090000  1.0 -0.0598945246
N  N103  1  0.96090000  0.46090000  0.03910000  1.0 -0.0598945246
N  N104  1  0.46090000  0.03910000  0.96090000  1.0 -0.0598945246
Cl  Cl1  1  0.68780000  0.86610000  0.94110000  1.0 -0.3746865718
Cl  Cl2  1  0.94110000  0.68780000  0.86610000  1.0 -0.3746865718
Cl  Cl3  1  0.86610000  0.94110000  0.68780000  1.0 -0.3746865718
Cl  Cl4  1  0.81220000  0.13390000  0.44110000  1.0 -0.3751159637
Cl  Cl5  1  0.31220000  0.36610000  0.55890000  1.0 -0.3746865718
Cl  Cl6  1  0.18780000  0.63390000  0.05890000  1.0 -0.3746865718
Cl  Cl7  1  0.44110000  0.81220000  0.13390000  1.0 -0.3746865718
Cl  Cl8  1  0.55890000  0.31220000  0.36610000  1.0 -0.3746865718
Cl  Cl9  1  0.05890000  0.18780000  0.63390000  1.0 -0.3751159637
Cl  Cl10  1  0.13390000  0.44110000  0.81220000  1.0 -0.3746865718
Cl  Cl11  1  0.36610000  0.55890000  0.31220000  1.0 -0.3746865718
Cl  Cl12  1  0.63390000  0.05890000  0.18780000  1.0 -0.3746865718
Cl  Cl13  1  0.31220000  0.13390000  0.05890000  1.0 -0.3746865718
Cl  Cl14  1  0.05890000  0.31220000  0.13390000  1.0 -0.3746865718
Cl  Cl15  1  0.13390000  0.05890000  0.31220000  1.0 -0.3746865718
Cl  Cl16  1  0.18780000  0.86610000  0.55890000  1.0 -0.3746865718
Cl  Cl17  1  0.68780000  0.63390000  0.44110000  1.0 -0.3746865718
Cl  Cl18  1  0.81220000  0.36610000  0.94110000  1.0 -0.3746865718
Cl  Cl19  1  0.55890000  0.18780000  0.86610000  1.0 -0.3751159637
Cl  Cl20  1  0.44110000  0.68780000  0.63390000  1.0 -0.3746865718
Cl  Cl21  1  0.94110000  0.81220000  0.36610000  1.0 -0.3746865718
Cl  Cl22  1  0.86610000  0.55890000  0.18780000  1.0 -0.3746865718
Cl  Cl23  1  0.63390000  0.44110000  0.68780000  1.0 -0.3746865718
Cl  Cl24  1  0.36610000  0.94110000  0.81220000  1.0 -0.3746865718
O  O1  1  0.79350000  0.89580000  0.02880000  1.0 -0.5271275296
O  O2  1  0.02880000  0.79350000  0.89580000  1.0 -0.5271275296
O  O3  1  0.89580000  0.02880000  0.79350000  1.0 -0.5271275296
O  O4  1  0.70650000  0.10420000  0.52880000  1.0 -0.5271275296
O  O5  1  0.20650000  0.39580000  0.47120000  1.0 -0.5271275296
O  O6  1  0.29350000  0.60420000  0.97120000  1.0 -0.5271275296
O  O7  1  0.52880000  0.70650000  0.10420000  1.0 -0.5271275296
O  O8  1  0.47120000  0.20650000  0.39580000  1.0 -0.5271275296
O  O9  1  0.97120000  0.29350000  0.60420000  1.0 -0.5271275296
O  O10  1  0.10420000  0.52880000  0.70650000  1.0 -0.5271275296
O  O11  1  0.39580000  0.47120000  0.20650000  1.0 -0.5271275296
O  O12  1  0.60420000  0.97120000  0.29350000  1.0 -0.5271275296
O  O13  1  0.70860000  0.98690000  0.26020000  1.0 -0.4766180842
O  O14  1  0.26020000  0.70860000  0.98690000  1.0 -0.4766180842
O  O15  1  0.98690000  0.26020000  0.70860000  1.0 -0.4766180842
O  O16  1  0.79140000  0.01310000  0.76020000  1.0 -0.4766180842
O  O17  1  0.29140000  0.48690000  0.23980000  1.0 -0.4766180842
O  O18  1  0.20860000  0.51310000  0.73980000  1.0 -0.4766180842
O  O19  1  0.76020000  0.79140000  0.01310000  1.0 -0.4766180842
O  O20  1  0.23980000  0.29140000  0.48690000  1.0 -0.4766180842
O  O21  1  0.73980000  0.20860000  0.51310000  1.0 -0.4766180842
O  O22  1  0.01310000  0.76020000  0.79140000  1.0 -0.4766180842
O  O23  1  0.48690000  0.23980000  0.29140000  1.0 -0.4766180842
O  O24  1  0.51310000  0.73980000  0.20860000  1.0 -0.4766180842
O  O25  1  0.68870000  0.85880000  0.95270000  1.0 -0.5054735292
O  O26  1  0.95270000  0.68870000  0.85880000  1.0 -0.5045795469
O  O27  1  0.85880000  0.95270000  0.68870000  1.0 -0.5045795469
O  O28  1  0.81130000  0.14120000  0.45270000  1.0 -0.5045795469
O  O29  1  0.31130000  0.35880000  0.54730000  1.0 -0.5054735292
O  O30  1  0.18870000  0.64120000  0.04730000  1.0 -0.5054735292
O  O31  1  0.45270000  0.81130000  0.14120000  1.0 -0.5054735292
O  O32  1  0.54730000  0.31130000  0.35880000  1.0 -0.5054735292
O  O33  1  0.04730000  0.18870000  0.64120000  1.0 -0.5054735292
O  O34  1  0.14120000  0.45270000  0.81130000  1.0 -0.5054735292
O  O35  1  0.35880000  0.54730000  0.31130000  1.0 -0.5054735292
O  O36  1  0.64120000  0.04730000  0.18870000  1.0 -0.5054735292
O  O37  1  0.20650000  0.10420000  0.97120000  1.0 -0.5271275296
O  O38  1  0.97120000  0.20650000  0.10420000  1.0 -0.5271275296
O  O39  1  0.10420000  0.97120000  0.20650000  1.0 -0.5271275296
O  O40  1  0.29350000  0.89580000  0.47120000  1.0 -0.5271275296
O  O41  1  0.79350000  0.60420000  0.52880000  1.0 -0.5271275296
O  O42  1  0.70650000  0.39580000  0.02880000  1.0 -0.5271275296
O  O43  1  0.47120000  0.29350000  0.89580000  1.0 -0.5271275296
O  O44  1  0.52880000  0.79350000  0.60420000  1.0 -0.5271275296
O  O45  1  0.02880000  0.70650000  0.39580000  1.0 -0.5271275296
O  O46  1  0.89580000  0.47120000  0.29350000  1.0 -0.5271275296
O  O47  1  0.60420000  0.52880000  0.79350000  1.0 -0.5271275296
O  O48  1  0.39580000  0.02880000  0.70650000  1.0 -0.5271275296
O  O49  1  0.29140000  0.01310000  0.73980000  1.0 -0.4766180842
O  O50  1  0.73980000  0.29140000  0.01310000  1.0 -0.4766180842
O  O51  1  0.01310000  0.73980000  0.29140000  1.0 -0.4766180842
O  O52  1  0.20860000  0.98690000  0.23980000  1.0 -0.4766180842
O  O53  1  0.70860000  0.51310000  0.76020000  1.0 -0.4766180842
O  O54  1  0.79140000  0.48690000  0.26020000  1.0 -0.4766180842
O  O55  1  0.23980000  0.20860000  0.98690000  1.0 -0.4766180842
O  O56  1  0.76020000  0.70860000  0.51310000  1.0 -0.4766180842
O  O57  1  0.26020000  0.79140000  0.48690000  1.0 -0.4766180842
O  O58  1  0.98690000  0.23980000  0.20860000  1.0 -0.4766180842
O  O59  1  0.51310000  0.76020000  0.70860000  1.0 -0.4766180842
O  O60  1  0.48690000  0.26020000  0.79140000  1.0 -0.4766180842
O  O61  1  0.31130000  0.14120000  0.04730000  1.0 -0.5054735292
O  O62  1  0.04730000  0.31130000  0.14120000  1.0 -0.5054735292
O  O63  1  0.14120000  0.04730000  0.31130000  1.0 -0.5054735292
O  O64  1  0.18870000  0.85880000  0.54730000  1.0 -0.5054735292
O  O65  1  0.68870000  0.64120000  0.45270000  1.0 -0.5045795469
O  O66  1  0.81130000  0.35880000  0.95270000  1.0 -0.5045795469
O  O67  1  0.54730000  0.18870000  0.85880000  1.0 -0.5045795469
O  O68  1  0.45270000  0.68870000  0.64120000  1.0 -0.5054735292
O  O69  1  0.95270000  0.81130000  0.35880000  1.0 -0.5045795469
O  O70  1  0.85880000  0.54730000  0.18870000  1.0 -0.5045795469
O  O71  1  0.64120000  0.45270000  0.68870000  1.0 -0.5045795469
O  O72  1  0.35880000  0.95270000  0.81130000  1.0 -0.5054735292
