# DDEC6 charges by PACMAN v1.1 (https://github.com/mtap-research/PACMAN-charge/)
data_YEGQOT_FSR_pacman
_symmetry_space_group_name_H-M   'P 1'
_cell_length_a   11.79800000
_cell_length_b   18.02200000
_cell_length_c   12.21300000
_cell_angle_alpha   90.00000000
_cell_angle_beta   98.89500000
_cell_angle_gamma   90.00000000
_symmetry_Int_Tables_number   1
_chemical_formula_structural   CoH18C26N4O5
_chemical_formula_sum   'Co4 H72 C104 N16 O20'
_cell_volume   2565.54106145
_cell_formula_units_Z   4
loop_
 _symmetry_equiv_pos_site_id
 _symmetry_equiv_pos_as_xyz
  1  'x, y, z'
loop_
 _atom_site_type_symbol
 _atom_site_label
 _atom_site_symmetry_multiplicity
 _atom_site_fract_x
 _atom_site_fract_y
 _atom_site_fract_z
 _atom_site_occupancy
 _atom_site_charge
Co  Co1  1  0.09033000  0.05773000  0.88621000  1.0 0.8396332957
Co  Co2  1  0.90967000  0.55773000  0.61379000  1.0 0.8396332957
Co  Co3  1  0.90967000  0.94227000  0.11379000  1.0 0.8396332957
Co  Co4  1  0.09033000  0.44227000  0.38621000  1.0 0.8396332957
H  H1  1  0.20970000  0.81860000  0.14630000  1.0 0.1106353658
H  H2  1  0.38200000  0.75640000  0.16770000  1.0 0.1368670611
H  H3  1  0.42610000  0.81720000  0.86260000  1.0 0.1276905261
H  H4  1  0.25570000  0.88190000  0.84200000  1.0 0.1190450811
H  H5  1  0.72780000  0.77720000  0.00760000  1.0 0.1368670611
H  H6  1  0.82700000  0.73170000  0.87360000  1.0 0.1190450811
H  H7  1  0.56460000  0.60080000  0.75820000  1.0 0.1190450811
H  H8  1  0.45710000  0.65300000  0.88200000  1.0 0.1276905261
H  H9  1  0.00250000  0.94630000  0.69580000  1.0 0.1106353658
H  H10  1  0.87720000  0.93870000  0.53200000  1.0 0.1368670611
H  H11  1  0.78970000  0.14920000  0.57180000  1.0 0.1368670611
H  H12  1  0.92380000  0.15320000  0.72890000  1.0 0.1106353658
H  H13  1  0.73760000  0.00210000  0.38100000  1.0 0.1106353658
H  H14  1  0.44670000  0.09740000  0.39170000  1.0 0.1106353658
H  H15  1  0.47570000  0.02280000  0.12660000  1.0 0.1368670611
H  H16  1  0.33730000  0.01900000  0.97360000  1.0 0.1106353658
H  H17  1  0.11660000  0.11390000  0.13430000  1.0 0.1106353658
H  H18  1  0.24960000  0.12200000  0.29040000  1.0 0.1368670611
H  H19  1  0.79030000  0.31860000  0.35370000  1.0 0.1106353658
H  H20  1  0.61800000  0.25640000  0.33230000  1.0 0.1368670611
H  H21  1  0.57390000  0.31720000  0.63740000  1.0 0.1276905261
H  H22  1  0.74430000  0.38190000  0.65800000  1.0 0.1190450811
H  H23  1  0.27220000  0.27720000  0.49240000  1.0 0.1368670611
H  H24  1  0.17300000  0.23170000  0.62640000  1.0 0.1190450811
H  H25  1  0.43540000  0.10080000  0.74180000  1.0 0.1190450811
H  H26  1  0.54290000  0.15300000  0.61800000  1.0 0.1276905261
H  H27  1  0.99750000  0.44630000  0.80420000  1.0 0.1106353658
H  H28  1  0.12280000  0.43870000  0.96800000  1.0 0.1368670611
H  H29  1  0.21030000  0.64920000  0.92820000  1.0 0.1368670611
H  H30  1  0.07620000  0.65320000  0.77110000  1.0 0.1106353658
H  H31  1  0.26240000  0.50210000  0.11900000  1.0 0.1106353658
H  H32  1  0.55330000  0.59740000  0.10830000  1.0 0.1106353658
H  H33  1  0.52430000  0.52280000  0.37340000  1.0 0.1368670611
H  H34  1  0.66270000  0.51900000  0.52640000  1.0 0.1106353658
H  H35  1  0.88340000  0.61390000  0.36570000  1.0 0.1106353658
H  H36  1  0.75040000  0.62200000  0.20960000  1.0 0.1368670611
H  H37  1  0.79030000  0.18140000  0.85370000  1.0 0.1106353658
H  H38  1  0.61800000  0.24360000  0.83230000  1.0 0.1368670611
H  H39  1  0.57390000  0.18280000  0.13740000  1.0 0.1276905261
H  H40  1  0.74430000  0.11810000  0.15800000  1.0 0.1190450811
H  H41  1  0.27220000  0.22280000  0.99240000  1.0 0.1368670611
H  H42  1  0.17300000  0.26830000  0.12640000  1.0 0.1190450811
H  H43  1  0.43540000  0.39920000  0.24180000  1.0 0.1190450811
H  H44  1  0.54290000  0.34700000  0.11800000  1.0 0.1276905261
H  H45  1  0.99750000  0.05370000  0.30420000  1.0 0.1106353658
H  H46  1  0.12280000  0.06130000  0.46800000  1.0 0.1368670611
H  H47  1  0.21030000  0.85080000  0.42820000  1.0 0.1368670611
H  H48  1  0.07620000  0.84680000  0.27110000  1.0 0.1106353658
H  H49  1  0.26240000  0.99790000  0.61900000  1.0 0.1106353658
H  H50  1  0.55330000  0.90260000  0.60830000  1.0 0.1106353658
H  H51  1  0.52430000  0.97720000  0.87340000  1.0 0.1368670611
H  H52  1  0.66270000  0.98100000  0.02640000  1.0 0.1106353658
H  H53  1  0.88340000  0.88610000  0.86570000  1.0 0.1106353658
H  H54  1  0.75040000  0.87800000  0.70960000  1.0 0.1368670611
H  H55  1  0.20970000  0.68140000  0.64630000  1.0 0.1106353658
H  H56  1  0.38200000  0.74360000  0.66770000  1.0 0.1368670611
H  H57  1  0.42610000  0.68280000  0.36260000  1.0 0.1276905261
H  H58  1  0.25570000  0.61810000  0.34200000  1.0 0.1190450811
H  H59  1  0.72780000  0.72280000  0.50760000  1.0 0.1368670611
H  H60  1  0.82700000  0.76830000  0.37360000  1.0 0.1190450811
H  H61  1  0.56460000  0.89920000  0.25820000  1.0 0.1190450811
H  H62  1  0.45710000  0.84700000  0.38200000  1.0 0.1276905261
H  H63  1  0.00250000  0.55370000  0.19580000  1.0 0.1106353658
H  H64  1  0.87720000  0.56130000  0.03200000  1.0 0.1368670611
H  H65  1  0.78970000  0.35080000  0.07180000  1.0 0.1368670611
H  H66  1  0.92380000  0.34680000  0.22890000  1.0 0.1106353658
H  H67  1  0.73760000  0.49790000  0.88100000  1.0 0.1106353658
H  H68  1  0.44670000  0.40260000  0.89170000  1.0 0.1106353658
H  H69  1  0.47570000  0.47720000  0.62660000  1.0 0.1368670611
H  H70  1  0.33730000  0.48100000  0.47360000  1.0 0.1106353658
H  H71  1  0.11660000  0.38610000  0.63430000  1.0 0.1106353658
H  H72  1  0.24960000  0.37800000  0.79040000  1.0 0.1368670611
C  C1  1  0.10530000  0.90130000  0.98210000  1.0 0.572446356
C  C2  1  0.21320000  0.85670000  0.99140000  1.0 -0.0523657273
C  C3  1  0.25320000  0.81870000  0.08890000  1.0 -0.0908486454
C  C4  1  0.35600000  0.78130000  0.10190000  1.0 -0.2010295579
C  C5  1  0.42030000  0.78080000  0.01670000  1.0 0.2475729906
C  C6  1  0.38260000  0.81790000  0.91990000  1.0 -0.229399983
C  C7  1  0.28020000  0.85620000  0.90740000  1.0 -0.0908486454
C  C8  1  0.58200000  0.72020000  0.95500000  1.0 0.2337543764
C  C9  1  0.69370000  0.74320000  0.95550000  1.0 -0.2010295579
C  C10  1  0.75330000  0.71450000  0.87670000  1.0 -0.0977288983
C  C11  1  0.70730000  0.66150000  0.80300000  1.0 -0.0344626639
C  C12  1  0.59660000  0.63760000  0.80670000  1.0 -0.0908486454
C  C13  1  0.53250000  0.66800000  0.88160000  1.0 -0.2141255788
C  C14  1  0.77760000  0.62590000  0.72550000  1.0 0.5343620875
C  C15  1  0.95980000  0.98790000  0.67050000  1.0 0.0819943421
C  C16  1  0.88280000  0.98260000  0.57250000  1.0 -0.2010295579
C  C17  1  0.81490000  0.04240000  0.53560000  1.0 0.1106353658
C  C18  1  0.83200000  0.10690000  0.59510000  1.0 -0.1727228291
C  C19  1  0.91250000  0.10870000  0.69020000  1.0 0.0819943421
C  C20  1  0.72900000  0.03730000  0.43490000  1.0 0.0426151794
C  C21  1  0.46810000  0.08210000  0.32510000  1.0 0.0426151794
C  C22  1  0.37960000  0.07450000  0.22580000  1.0 0.1190450811
C  C23  1  0.40340000  0.04250000  0.12980000  1.0 -0.1727228291
C  C24  1  0.31920000  0.03970000  0.03840000  1.0 0.0819943421
C  C25  1  0.19000000  0.09550000  0.13240000  1.0 0.0884774052
C  C26  1  0.26950000  0.10080000  0.22650000  1.0 -0.1847869209
C  C27  1  0.89470000  0.40130000  0.51790000  1.0 0.572446356
C  C28  1  0.78680000  0.35670000  0.50860000  1.0 -0.0523657273
C  C29  1  0.74680000  0.31870000  0.41110000  1.0 -0.0908486454
C  C30  1  0.64400000  0.28130000  0.39810000  1.0 -0.2010295579
C  C31  1  0.57970000  0.28080000  0.48330000  1.0 0.2475729906
C  C32  1  0.61740000  0.31790000  0.58010000  1.0 -0.229399983
C  C33  1  0.71980000  0.35620000  0.59260000  1.0 -0.0908486454
C  C34  1  0.41800000  0.22020000  0.54500000  1.0 0.2337543764
C  C35  1  0.30630000  0.24320000  0.54450000  1.0 -0.2010295579
C  C36  1  0.24670000  0.21450000  0.62330000  1.0 -0.0977288983
C  C37  1  0.29270000  0.16150000  0.69700000  1.0 -0.0344626639
C  C38  1  0.40340000  0.13760000  0.69330000  1.0 -0.0908486454
C  C39  1  0.46750000  0.16800000  0.61840000  1.0 -0.2141255788
C  C40  1  0.22240000  0.12590000  0.77450000  1.0 0.5343620875
C  C41  1  0.04020000  0.48790000  0.82950000  1.0 0.0819943421
C  C42  1  0.11720000  0.48260000  0.92750000  1.0 -0.2010295579
C  C43  1  0.18510000  0.54240000  0.96440000  1.0 0.1106353658
C  C44  1  0.16800000  0.60690000  0.90490000  1.0 -0.1727228291
C  C45  1  0.08750000  0.60870000  0.80980000  1.0 0.0819943421
C  C46  1  0.27100000  0.53730000  0.06510000  1.0 0.0426151794
C  C47  1  0.53190000  0.58210000  0.17490000  1.0 0.0426151794
C  C48  1  0.62040000  0.57450000  0.27420000  1.0 0.1190450811
C  C49  1  0.59660000  0.54250000  0.37020000  1.0 -0.1727228291
C  C50  1  0.68080000  0.53970000  0.46160000  1.0 0.0819943421
C  C51  1  0.81000000  0.59550000  0.36760000  1.0 0.0884774052
C  C52  1  0.73050000  0.60080000  0.27350000  1.0 -0.1847869209
C  C53  1  0.89470000  0.09870000  0.01790000  1.0 0.572446356
C  C54  1  0.78680000  0.14330000  0.00860000  1.0 -0.0523657273
C  C55  1  0.74680000  0.18130000  0.91110000  1.0 -0.0908486454
C  C56  1  0.64400000  0.21870000  0.89810000  1.0 -0.2010295579
C  C57  1  0.57970000  0.21920000  0.98330000  1.0 0.2475729906
C  C58  1  0.61740000  0.18210000  0.08010000  1.0 -0.229399983
C  C59  1  0.71980000  0.14380000  0.09260000  1.0 -0.0908486454
C  C60  1  0.41800000  0.27980000  0.04500000  1.0 0.2337543764
C  C61  1  0.30630000  0.25680000  0.04450000  1.0 -0.2010295579
C  C62  1  0.24670000  0.28550000  0.12330000  1.0 -0.0977288983
C  C63  1  0.29270000  0.33850000  0.19700000  1.0 -0.0344626639
C  C64  1  0.40340000  0.36240000  0.19330000  1.0 -0.0908486454
C  C65  1  0.46750000  0.33200000  0.11840000  1.0 -0.2141255788
C  C66  1  0.22240000  0.37410000  0.27450000  1.0 0.5343620875
C  C67  1  0.04020000  0.01210000  0.32950000  1.0 0.0819943421
C  C68  1  0.11720000  0.01740000  0.42750000  1.0 -0.2010295579
C  C69  1  0.18510000  0.95760000  0.46440000  1.0 0.1106353658
C  C70  1  0.16800000  0.89310000  0.40490000  1.0 -0.1727228291
C  C71  1  0.08750000  0.89130000  0.30980000  1.0 0.0819943421
C  C72  1  0.27100000  0.96270000  0.56510000  1.0 0.0426151794
C  C73  1  0.53190000  0.91790000  0.67490000  1.0 0.0426151794
C  C74  1  0.62040000  0.92550000  0.77420000  1.0 0.1190450811
C  C75  1  0.59660000  0.95750000  0.87020000  1.0 -0.1727228291
C  C76  1  0.68080000  0.96030000  0.96160000  1.0 0.0819943421
C  C77  1  0.81000000  0.90450000  0.86760000  1.0 0.0884774052
C  C78  1  0.73050000  0.89920000  0.77350000  1.0 -0.1853850982
C  C79  1  0.10530000  0.59870000  0.48210000  1.0 0.572446356
C  C80  1  0.21320000  0.64330000  0.49140000  1.0 -0.0523657273
C  C81  1  0.25320000  0.68130000  0.58890000  1.0 -0.0908486454
C  C82  1  0.35600000  0.71870000  0.60190000  1.0 -0.2010295579
C  C83  1  0.42030000  0.71920000  0.51670000  1.0 0.2475729906
C  C84  1  0.38260000  0.68210000  0.41990000  1.0 -0.229399983
C  C85  1  0.28020000  0.64380000  0.40740000  1.0 -0.0908486454
C  C86  1  0.58200000  0.77980000  0.45500000  1.0 0.2337543764
C  C87  1  0.69370000  0.75680000  0.45550000  1.0 -0.2010295579
C  C88  1  0.75330000  0.78550000  0.37670000  1.0 -0.0977288983
C  C89  1  0.70730000  0.83850000  0.30300000  1.0 -0.0344626639
C  C90  1  0.59660000  0.86240000  0.30670000  1.0 -0.0908486454
C  C91  1  0.53250000  0.83200000  0.38160000  1.0 -0.2141255788
C  C92  1  0.77760000  0.87410000  0.22550000  1.0 0.5343620875
C  C93  1  0.95980000  0.51210000  0.17050000  1.0 0.0819943421
C  C94  1  0.88280000  0.51740000  0.07250000  1.0 -0.2010295579
C  C95  1  0.81490000  0.45760000  0.03560000  1.0 0.1106353658
C  C96  1  0.83200000  0.39310000  0.09510000  1.0 -0.1727228291
C  C97  1  0.91250000  0.39130000  0.19020000  1.0 0.0819943421
C  C98  1  0.72900000  0.46270000  0.93490000  1.0 0.0426151794
C  C99  1  0.46810000  0.41790000  0.82510000  1.0 0.0426151794
C  C100  1  0.37960000  0.42550000  0.72580000  1.0 0.1190450811
C  C101  1  0.40340000  0.45750000  0.62980000  1.0 -0.1727228291
C  C102  1  0.31920000  0.46030000  0.53840000  1.0 0.0819943421
C  C103  1  0.19000000  0.40450000  0.63240000  1.0 0.0884774052
C  C104  1  0.26950000  0.39920000  0.72650000  1.0 -0.1847869209
N  N1  1  0.97510000  0.04975000  0.72960000  1.0 -0.229399983
N  N2  1  0.64390000  0.08020000  0.42150000  1.0 -0.1727228291
N  N3  1  0.57100000  0.06840000  0.32090000  1.0 -0.1583597116
N  N4  1  0.21210000  0.06542000  0.03790000  1.0 -0.2461078181
N  N5  1  0.02490000  0.54975000  0.77040000  1.0 -0.229399983
N  N6  1  0.35610000  0.58020000  0.07850000  1.0 -0.1727228291
N  N7  1  0.42900000  0.56840000  0.17910000  1.0 -0.1583597116
N  N8  1  0.78790000  0.56542000  0.46210000  1.0 -0.2461078181
N  N9  1  0.02490000  0.95025000  0.27040000  1.0 -0.229399983
N  N10  1  0.35610000  0.91980000  0.57850000  1.0 -0.1727228291
N  N11  1  0.42900000  0.93160000  0.67910000  1.0 -0.1583597116
N  N12  1  0.78790000  0.93458000  0.96210000  1.0 -0.2461078181
N  N13  1  0.97510000  0.45025000  0.22960000  1.0 -0.229399983
N  N14  1  0.64390000  0.41980000  0.92150000  1.0 -0.1727228291
N  N15  1  0.57100000  0.43160000  0.82090000  1.0 -0.1583597116
N  N16  1  0.21210000  0.43458000  0.53790000  1.0 -0.2461078181
O  O1  1  0.08280000  0.94678000  0.90430000  1.0 -0.5659893504
O  O2  1  0.04200000  0.89053000  0.05550000  1.0 -0.5497424356
O  O3  1  0.52650000  0.74602000  0.04090000  1.0 -0.229399983
O  O4  1  0.76620000  0.55759000  0.70530000  1.0 -0.5497424356
O  O5  1  0.85080000  0.66335000  0.68390000  1.0 -0.5497424356
O  O6  1  0.91720000  0.44678000  0.59570000  1.0 -0.5659893504
O  O7  1  0.95800000  0.39053000  0.44450000  1.0 -0.5497424356
O  O8  1  0.47350000  0.24602000  0.45910000  1.0 -0.229399983
O  O9  1  0.23380000  0.05759000  0.79470000  1.0 -0.5497424356
O  O10  1  0.14920000  0.16335000  0.81610000  1.0 -0.5497424356
O  O11  1  0.91720000  0.05322000  0.09570000  1.0 -0.5659893504
O  O12  1  0.95800000  0.10947000  0.94450000  1.0 -0.5497424356
O  O13  1  0.47350000  0.25398000  0.95910000  1.0 -0.229399983
O  O14  1  0.23380000  0.44241000  0.29470000  1.0 -0.5497424356
O  O15  1  0.14920000  0.33665000  0.31610000  1.0 -0.5497424356
O  O16  1  0.08280000  0.55322000  0.40430000  1.0 -0.5659893504
O  O17  1  0.04200000  0.60947000  0.55550000  1.0 -0.5497424356
O  O18  1  0.52650000  0.75398000  0.54090000  1.0 -0.229399983
O  O19  1  0.76620000  0.94241000  0.20530000  1.0 -0.5497424356
O  O20  1  0.85080000  0.83665000  0.18390000  1.0 -0.5497424356
