# DDEC6 charges by PACMAN v1.1 (https://github.com/mtap-research/PACMAN-charge/)
data_YEKJEG_ASR_pacman
_symmetry_space_group_name_H-M   'P 1'
_cell_length_a   14.73000000
_cell_length_b   18.57700000
_cell_length_c   28.47300000
_cell_angle_alpha   90.00000000
_cell_angle_beta   90.00000000
_cell_angle_gamma   90.00000000
_symmetry_Int_Tables_number   1
_chemical_formula_structural   CdH14C17N2O5
_chemical_formula_sum   'Cd8 H112 C136 N16 O40'
_cell_volume   7791.32922633
_cell_formula_units_Z   8
loop_
 _symmetry_equiv_pos_site_id
 _symmetry_equiv_pos_as_xyz
  1  'x, y, z'
loop_
 _atom_site_type_symbol
 _atom_site_label
 _atom_site_symmetry_multiplicity
 _atom_site_fract_x
 _atom_site_fract_y
 _atom_site_fract_z
 _atom_site_occupancy
 _atom_site_charge
Cd  Cd1  1  0.70249000  0.97191000  0.56977000  1.0 1.0736405417
Cd  Cd2  1  0.47556000  0.94282000  0.59845000  1.0 0.9308701619
Cd  Cd3  1  0.79751000  0.47191000  0.06977000  1.0 1.0736405417
Cd  Cd4  1  0.02444000  0.44282000  0.09845000  1.0 0.9308701619
Cd  Cd5  1  0.29751000  0.47191000  0.43023000  1.0 1.0736405417
Cd  Cd6  1  0.52444000  0.44282000  0.40155000  1.0 0.9308701619
Cd  Cd7  1  0.20249000  0.97191000  0.93023000  1.0 1.0736405417
Cd  Cd8  1  0.97556000  0.94282000  0.90155000  1.0 0.9308701619
H  H1  1  0.48980000  0.26300000  0.36070000  1.0 0.2837458764
H  H2  1  0.42480000  0.31830000  0.30960000  1.0 0.2837458764
H  H3  1  0.57060000  0.63290000  0.36560000  1.0 0.2866887762
H  H4  1  0.62510000  0.58760000  0.30550000  1.0 0.2837458764
H  H5  1  0.62540000  0.10890000  0.46090000  1.0 0.1317944885
H  H6  1  0.33560000  0.17050000  0.42310000  1.0 0.1400391852
H  H7  1  0.36140000  0.09580000  0.48540000  1.0 0.1317944885
H  H8  1  0.63530000  0.25150000  0.39500000  1.0 0.1459025496
H  H9  1  0.68560000  0.17720000  0.39560000  1.0 0.1400391852
H  H10  1  0.61680000  0.19510000  0.35520000  1.0 0.1317944885
H  H11  1  0.30110000  0.41540000  0.18000000  1.0 0.1212619135
H  H12  1  0.11370000  0.27770000  0.23090000  1.0 0.1109378054
H  H13  1  0.21170000  0.24390000  0.28950000  1.0 0.1317944885
H  H14  1  0.44170000  0.43070000  0.21750000  1.0 0.1400391852
H  H15  1  0.44990000  0.40640000  0.27010000  1.0 0.1400391852
H  H16  1  0.48070000  0.35450000  0.22970000  1.0 0.1459025496
H  H17  1  0.45140000  0.78200000  0.47650000  1.0 0.1317944885
H  H18  1  0.72910000  0.72470000  0.42400000  1.0 0.1400391852
H  H19  1  0.71540000  0.80300000  0.48640000  1.0 0.1317944885
H  H20  1  0.37560000  0.71530000  0.41600000  1.0 0.1400391852
H  H21  1  0.42940000  0.70640000  0.36880000  1.0 0.1400391852
H  H22  1  0.42670000  0.64310000  0.40530000  1.0 0.1400391852
H  H23  1  0.75440000  0.48310000  0.18250000  1.0 0.1212619135
H  H24  1  0.93670000  0.62690000  0.22670000  1.0 0.1212619135
H  H25  1  0.83920000  0.66050000  0.28530000  1.0 0.1317944885
H  H26  1  0.57080000  0.54280000  0.23340000  1.0 0.1400391852
H  H27  1  0.61320000  0.47180000  0.21340000  1.0 0.1459025496
H  H28  1  0.60690000  0.48350000  0.26780000  1.0 0.1459025496
H  H29  1  0.01020000  0.76300000  0.86070000  1.0 0.2837458764
H  H30  1  0.07520000  0.81830000  0.80960000  1.0 0.2837458764
H  H31  1  0.92940000  0.13290000  0.86560000  1.0 0.2866887762
H  H32  1  0.87490000  0.08760000  0.80550000  1.0 0.2837458764
H  H33  1  0.87460000  0.60890000  0.96090000  1.0 0.1317944885
H  H34  1  0.16440000  0.67050000  0.92310000  1.0 0.1400391852
H  H35  1  0.13860000  0.59580000  0.98540000  1.0 0.1317944885
H  H36  1  0.86470000  0.75150000  0.89500000  1.0 0.1459025496
H  H37  1  0.81440000  0.67720000  0.89560000  1.0 0.1400391852
H  H38  1  0.88320000  0.69510000  0.85520000  1.0 0.1317944885
H  H39  1  0.19890000  0.91540000  0.68000000  1.0 0.1212619135
H  H40  1  0.38630000  0.77770000  0.73090000  1.0 0.1109378054
H  H41  1  0.28830000  0.74390000  0.78950000  1.0 0.1317944885
H  H42  1  0.05830000  0.93070000  0.71750000  1.0 0.1400391852
H  H43  1  0.05010000  0.90640000  0.77010000  1.0 0.1400391852
H  H44  1  0.01930000  0.85450000  0.72970000  1.0 0.1459025496
H  H45  1  0.04860000  0.28200000  0.97650000  1.0 0.1317944885
H  H46  1  0.77090000  0.22470000  0.92400000  1.0 0.1400391852
H  H47  1  0.78460000  0.30300000  0.98640000  1.0 0.1317944885
H  H48  1  0.12440000  0.21530000  0.91600000  1.0 0.1400391852
H  H49  1  0.07060000  0.20640000  0.86880000  1.0 0.1400391852
H  H50  1  0.07330000  0.14310000  0.90530000  1.0 0.1400391852
H  H51  1  0.74560000  0.98310000  0.68250000  1.0 0.1212619135
H  H52  1  0.56330000  0.12690000  0.72670000  1.0 0.1212619135
H  H53  1  0.66080000  0.16050000  0.78530000  1.0 0.1317944885
H  H54  1  0.92920000  0.04280000  0.73340000  1.0 0.1400391852
H  H55  1  0.88680000  0.97180000  0.71340000  1.0 0.1459025496
H  H56  1  0.89310000  0.98350000  0.76780000  1.0 0.1459025496
H  H57  1  0.51020000  0.76300000  0.63930000  1.0 0.2837458764
H  H58  1  0.57520000  0.81830000  0.69040000  1.0 0.2837458764
H  H59  1  0.42940000  0.13290000  0.63440000  1.0 0.2866887762
H  H60  1  0.37490000  0.08760000  0.69450000  1.0 0.2837458764
H  H61  1  0.37460000  0.60890000  0.53910000  1.0 0.1317944885
H  H62  1  0.66440000  0.67050000  0.57690000  1.0 0.1400391852
H  H63  1  0.63860000  0.59580000  0.51460000  1.0 0.1317944885
H  H64  1  0.36470000  0.75150000  0.60500000  1.0 0.1459025496
H  H65  1  0.31440000  0.67720000  0.60440000  1.0 0.1400391852
H  H66  1  0.38320000  0.69510000  0.64480000  1.0 0.1317944885
H  H67  1  0.69890000  0.91540000  0.82000000  1.0 0.1212619135
H  H68  1  0.88630000  0.77770000  0.76910000  1.0 0.1109378054
H  H69  1  0.78830000  0.74390000  0.71050000  1.0 0.1317944885
H  H70  1  0.55830000  0.93070000  0.78250000  1.0 0.1400391852
H  H71  1  0.55010000  0.90640000  0.72990000  1.0 0.1400391852
H  H72  1  0.51930000  0.85450000  0.77030000  1.0 0.1459025496
H  H73  1  0.54860000  0.28200000  0.52350000  1.0 0.1317944885
H  H74  1  0.27090000  0.22470000  0.57600000  1.0 0.1400391852
H  H75  1  0.28460000  0.30300000  0.51360000  1.0 0.1317944885
H  H76  1  0.62440000  0.21530000  0.58400000  1.0 0.1400391852
H  H77  1  0.57060000  0.20640000  0.63120000  1.0 0.1400391852
H  H78  1  0.57330000  0.14310000  0.59470000  1.0 0.1400391852
H  H79  1  0.24560000  0.98310000  0.81750000  1.0 0.1212619135
H  H80  1  0.06330000  0.12690000  0.77330000  1.0 0.1212619135
H  H81  1  0.16080000  0.16050000  0.71470000  1.0 0.1317944885
H  H82  1  0.42920000  0.04280000  0.76660000  1.0 0.1400391852
H  H83  1  0.38680000  0.97180000  0.78660000  1.0 0.1459025496
H  H84  1  0.39310000  0.98350000  0.73220000  1.0 0.1459025496
H  H85  1  0.98980000  0.26300000  0.13930000  1.0 0.2837458764
H  H86  1  0.92480000  0.31830000  0.19040000  1.0 0.2837458764
H  H87  1  0.07060000  0.63290000  0.13440000  1.0 0.2866887762
H  H88  1  0.12510000  0.58760000  0.19450000  1.0 0.2837458764
H  H89  1  0.12540000  0.10890000  0.03910000  1.0 0.1317944885
H  H90  1  0.83560000  0.17050000  0.07690000  1.0 0.1400391852
H  H91  1  0.86140000  0.09580000  0.01460000  1.0 0.1317944885
H  H92  1  0.13530000  0.25150000  0.10500000  1.0 0.1459025496
H  H93  1  0.18560000  0.17720000  0.10440000  1.0 0.1400391852
H  H94  1  0.11680000  0.19510000  0.14480000  1.0 0.1317944885
H  H95  1  0.80110000  0.41540000  0.32000000  1.0 0.1212619135
H  H96  1  0.61370000  0.27770000  0.26910000  1.0 0.1109378054
H  H97  1  0.71170000  0.24390000  0.21050000  1.0 0.1317944885
H  H98  1  0.94170000  0.43070000  0.28250000  1.0 0.1400391852
H  H99  1  0.94990000  0.40640000  0.22990000  1.0 0.1400391852
H  H100  1  0.98070000  0.35450000  0.27030000  1.0 0.1459025496
H  H101  1  0.95140000  0.78200000  0.02350000  1.0 0.1317944885
H  H102  1  0.22910000  0.72470000  0.07600000  1.0 0.1400391852
H  H103  1  0.21540000  0.80300000  0.01360000  1.0 0.1317944885
H  H104  1  0.87560000  0.71530000  0.08400000  1.0 0.1400391852
H  H105  1  0.92940000  0.70640000  0.13120000  1.0 0.1400391852
H  H106  1  0.92670000  0.64310000  0.09470000  1.0 0.1400391852
H  H107  1  0.25440000  0.48310000  0.31750000  1.0 0.1212619135
H  H108  1  0.43670000  0.62690000  0.27330000  1.0 0.1212619135
H  H109  1  0.33920000  0.66050000  0.21470000  1.0 0.1317944885
H  H110  1  0.07080000  0.54280000  0.26660000  1.0 0.1400391852
H  H111  1  0.11320000  0.47180000  0.28660000  1.0 0.1400391852
H  H112  1  0.10690000  0.48350000  0.23220000  1.0 0.1459025496
C  C1  1  0.51870000  0.04670000  0.51960000  1.0 0.6090127095
C  C2  1  0.49780000  0.09540000  0.47920000  1.0 -0.0477104172
C  C3  1  0.56600000  0.12200000  0.45390000  1.0 -0.1496854485
C  C4  1  0.54960000  0.16760000  0.41830000  1.0 0.0836193297
C  C5  1  0.46240000  0.18100000  0.40290000  1.0 0.1459025496
C  C6  1  0.39480000  0.15690000  0.43010000  1.0 -0.1612546337
C  C7  1  0.40980000  0.11320000  0.46770000  1.0 -0.0961989075
C  C8  1  0.62970000  0.20120000  0.38800000  1.0 -0.4200937566
C  C9  1  0.37360000  0.23460000  0.33760000  1.0 0.6090127095
C  C10  1  0.31540000  0.30740000  0.26970000  1.0 0.1729306891
C  C11  1  0.34600000  0.36040000  0.23650000  1.0 0.0862708504
C  C12  1  0.28340000  0.38060000  0.20160000  1.0 -0.1612546337
C  C13  1  0.19720000  0.35180000  0.19750000  1.0 -0.0833705314
C  C14  1  0.17120000  0.29840000  0.23240000  1.0 -0.1090107444
C  C15  1  0.22980000  0.27780000  0.26730000  1.0 -0.1890524053
C  C16  1  0.43740000  0.39060000  0.23860000  1.0 -0.4597925164
C  C17  1  0.13330000  0.37900000  0.16300000  1.0 0.5401941701
C  C18  1  0.56290000  0.84480000  0.53300000  1.0 0.5828563734
C  C19  1  0.57670000  0.79710000  0.48790000  1.0 -0.0131678183
C  C20  1  0.50920000  0.77050000  0.46570000  1.0 -0.1496854485
C  C21  1  0.51550000  0.72480000  0.42580000  1.0 0.0862708504
C  C22  1  0.60080000  0.71090000  0.41080000  1.0 0.1317944885
C  C23  1  0.67130000  0.73750000  0.43410000  1.0 -0.1674630379
C  C24  1  0.66450000  0.78300000  0.47220000  1.0 -0.1090107444
C  C25  1  0.42840000  0.69450000  0.40160000  1.0 -0.4319999502
C  C26  1  0.68000000  0.66680000  0.33860000  1.0 0.602308081
C  C27  1  0.73560000  0.59450000  0.26910000  1.0 0.1729306891
C  C28  1  0.70710000  0.54100000  0.23780000  1.0 0.0862708504
C  C29  1  0.77060000  0.51960000  0.20330000  1.0 -0.1674630379
C  C30  1  0.85390000  0.54980000  0.19900000  1.0 -0.0420367853
C  C31  1  0.88030000  0.60470000  0.22970000  1.0 -0.1218219906
C  C32  1  0.82140000  0.62490000  0.26420000  1.0 -0.1674630379
C  C33  1  0.61660000  0.50680000  0.23810000  1.0 -0.4597925164
C  C34  1  0.91900000  0.52250000  0.16180000  1.0 0.5713332459
C  C35  1  0.98130000  0.54670000  0.01960000  1.0 0.6090127095
C  C36  1  0.00220000  0.59540000  0.97920000  1.0 -0.0477104172
C  C37  1  0.93400000  0.62200000  0.95390000  1.0 -0.1496854485
C  C38  1  0.95040000  0.66760000  0.91830000  1.0 0.0836193297
C  C39  1  0.03760000  0.68100000  0.90290000  1.0 0.1459025496
C  C40  1  0.10520000  0.65690000  0.93010000  1.0 -0.1612546337
C  C41  1  0.09020000  0.61320000  0.96770000  1.0 -0.0961989075
C  C42  1  0.87030000  0.70120000  0.88800000  1.0 -0.4200937566
C  C43  1  0.12640000  0.73460000  0.83760000  1.0 0.6090127095
C  C44  1  0.18460000  0.80740000  0.76970000  1.0 0.1729306891
C  C45  1  0.15400000  0.86040000  0.73650000  1.0 0.0862708504
C  C46  1  0.21660000  0.88060000  0.70160000  1.0 -0.1612546337
C  C47  1  0.30280000  0.85180000  0.69750000  1.0 -0.0833705314
C  C48  1  0.32880000  0.79840000  0.73240000  1.0 -0.1090107444
C  C49  1  0.27020000  0.77780000  0.76730000  1.0 -0.1890524053
C  C50  1  0.06260000  0.89060000  0.73860000  1.0 -0.4597925164
C  C51  1  0.36670000  0.87900000  0.66300000  1.0 0.5401941701
C  C52  1  0.93710000  0.34480000  0.03300000  1.0 0.5828563734
C  C53  1  0.92330000  0.29710000  0.98790000  1.0 -0.0131678183
C  C54  1  0.99080000  0.27050000  0.96570000  1.0 -0.1496854485
C  C55  1  0.98450000  0.22480000  0.92580000  1.0 0.0862708504
C  C56  1  0.89920000  0.21090000  0.91080000  1.0 0.1317944885
C  C57  1  0.82870000  0.23750000  0.93410000  1.0 -0.1674630379
C  C58  1  0.83550000  0.28300000  0.97220000  1.0 -0.1090107444
C  C59  1  0.07160000  0.19450000  0.90160000  1.0 -0.4319999502
C  C60  1  0.82000000  0.16680000  0.83860000  1.0 0.602308081
C  C61  1  0.76440000  0.09450000  0.76910000  1.0 0.1729306891
C  C62  1  0.79290000  0.04100000  0.73780000  1.0 0.0862708504
C  C63  1  0.72940000  0.01960000  0.70330000  1.0 -0.1674630379
C  C64  1  0.64610000  0.04980000  0.69900000  1.0 -0.0420367853
C  C65  1  0.61970000  0.10470000  0.72970000  1.0 -0.1218219906
C  C66  1  0.67860000  0.12490000  0.76420000  1.0 -0.1674630379
C  C67  1  0.88340000  0.00680000  0.73810000  1.0 -0.4597925164
C  C68  1  0.58100000  0.02250000  0.66180000  1.0 0.5713332459
C  C69  1  0.48130000  0.54670000  0.48040000  1.0 0.6090127095
C  C70  1  0.50220000  0.59540000  0.52080000  1.0 -0.0477104172
C  C71  1  0.43400000  0.62200000  0.54610000  1.0 -0.1496854485
C  C72  1  0.45040000  0.66760000  0.58170000  1.0 0.0836193297
C  C73  1  0.53760000  0.68100000  0.59710000  1.0 0.1459025496
C  C74  1  0.60520000  0.65690000  0.56990000  1.0 -0.1612546337
C  C75  1  0.59020000  0.61320000  0.53230000  1.0 -0.0961989075
C  C76  1  0.37030000  0.70120000  0.61200000  1.0 -0.4200937566
C  C77  1  0.62640000  0.73460000  0.66240000  1.0 0.6090127095
C  C78  1  0.68460000  0.80740000  0.73030000  1.0 0.1729306891
C  C79  1  0.65400000  0.86040000  0.76350000  1.0 0.0862708504
C  C80  1  0.71660000  0.88060000  0.79840000  1.0 -0.1612546337
C  C81  1  0.80280000  0.85180000  0.80250000  1.0 -0.0833705314
C  C82  1  0.82880000  0.79840000  0.76760000  1.0 -0.1090107444
C  C83  1  0.77020000  0.77780000  0.73270000  1.0 -0.1890524053
C  C84  1  0.56260000  0.89060000  0.76140000  1.0 -0.4597925164
C  C85  1  0.86670000  0.87900000  0.83700000  1.0 0.5401941701
C  C86  1  0.43710000  0.34480000  0.46700000  1.0 0.5828563734
C  C87  1  0.42330000  0.29710000  0.51210000  1.0 -0.0131678183
C  C88  1  0.49080000  0.27050000  0.53430000  1.0 -0.1496854485
C  C89  1  0.48450000  0.22480000  0.57420000  1.0 0.0862708504
C  C90  1  0.39920000  0.21090000  0.58920000  1.0 0.1317944885
C  C91  1  0.32870000  0.23750000  0.56590000  1.0 -0.1674630379
C  C92  1  0.33550000  0.28300000  0.52780000  1.0 -0.1090107444
C  C93  1  0.57160000  0.19450000  0.59840000  1.0 -0.4319999502
C  C94  1  0.32000000  0.16680000  0.66140000  1.0 0.602308081
C  C95  1  0.26440000  0.09450000  0.73090000  1.0 0.1729306891
C  C96  1  0.29290000  0.04100000  0.76220000  1.0 0.0862708504
C  C97  1  0.22940000  0.01960000  0.79670000  1.0 -0.1674630379
C  C98  1  0.14610000  0.04980000  0.80100000  1.0 -0.0420367853
C  C99  1  0.11970000  0.10470000  0.77030000  1.0 -0.1218219906
C  C100  1  0.17860000  0.12490000  0.73580000  1.0 -0.1674630379
C  C101  1  0.38340000  0.00680000  0.76190000  1.0 -0.4597925164
C  C102  1  0.08100000  0.02250000  0.83820000  1.0 0.5713332459
C  C103  1  0.01870000  0.04670000  0.98040000  1.0 0.6090127095
C  C104  1  0.99780000  0.09540000  0.02080000  1.0 -0.0477104172
C  C105  1  0.06600000  0.12200000  0.04610000  1.0 -0.1496854485
C  C106  1  0.04960000  0.16760000  0.08170000  1.0 0.0836193297
C  C107  1  0.96240000  0.18100000  0.09710000  1.0 0.1459025496
C  C108  1  0.89480000  0.15690000  0.06990000  1.0 -0.1612546337
C  C109  1  0.90980000  0.11320000  0.03230000  1.0 -0.0961989075
C  C110  1  0.12970000  0.20120000  0.11200000  1.0 -0.4200937566
C  C111  1  0.87360000  0.23460000  0.16240000  1.0 0.6090127095
C  C112  1  0.81540000  0.30740000  0.23030000  1.0 0.1729306891
C  C113  1  0.84600000  0.36040000  0.26350000  1.0 0.0862708504
C  C114  1  0.78340000  0.38060000  0.29840000  1.0 -0.1612546337
C  C115  1  0.69720000  0.35180000  0.30250000  1.0 -0.0833705314
C  C116  1  0.67120000  0.29840000  0.26760000  1.0 -0.1090107444
C  C117  1  0.72980000  0.27780000  0.23270000  1.0 -0.1890524053
C  C118  1  0.93740000  0.39060000  0.26140000  1.0 -0.4597925164
C  C119  1  0.63330000  0.37900000  0.33700000  1.0 0.5401941701
C  C120  1  0.06290000  0.84480000  0.96700000  1.0 0.5828563734
C  C121  1  0.07670000  0.79710000  0.01210000  1.0 -0.0131678183
C  C122  1  0.00920000  0.77050000  0.03430000  1.0 -0.1496854485
C  C123  1  0.01550000  0.72480000  0.07420000  1.0 0.0862708504
C  C124  1  0.10080000  0.71090000  0.08920000  1.0 0.1317944885
C  C125  1  0.17130000  0.73750000  0.06590000  1.0 -0.1674630379
C  C126  1  0.16450000  0.78300000  0.02780000  1.0 -0.1090107444
C  C127  1  0.92840000  0.69450000  0.09840000  1.0 -0.4319999502
C  C128  1  0.18000000  0.66680000  0.16140000  1.0 0.602308081
C  C129  1  0.23560000  0.59450000  0.23090000  1.0 0.1729306891
C  C130  1  0.20710000  0.54100000  0.26220000  1.0 0.0862708504
C  C131  1  0.27060000  0.51960000  0.29670000  1.0 -0.1674630379
C  C132  1  0.35390000  0.54980000  0.30100000  1.0 -0.0420367853
C  C133  1  0.38030000  0.60470000  0.27030000  1.0 -0.1218219906
C  C134  1  0.32140000  0.62490000  0.23580000  1.0 -0.1674630379
C  C135  1  0.11660000  0.50680000  0.26190000  1.0 -0.4597925164
C  C136  1  0.41900000  0.52250000  0.33820000  1.0 0.5713332459
N  N1  1  0.44780000  0.23170000  0.36570000  1.0 -0.4319999502
N  N2  1  0.37870000  0.29020000  0.30670000  1.0 -0.4200937566
N  N3  1  0.61190000  0.66490000  0.37010000  1.0 -0.4200937566
N  N4  1  0.67380000  0.61310000  0.30460000  1.0 -0.4200937566
N  N5  1  0.05220000  0.73170000  0.86570000  1.0 -0.4319999502
N  N6  1  0.12130000  0.79020000  0.80670000  1.0 -0.4200937566
N  N7  1  0.88810000  0.16490000  0.87010000  1.0 -0.4200937566
N  N8  1  0.82620000  0.11310000  0.80460000  1.0 -0.4200937566
N  N9  1  0.55220000  0.73170000  0.63430000  1.0 -0.4319999502
N  N10  1  0.62130000  0.79020000  0.69330000  1.0 -0.4200937566
N  N11  1  0.38810000  0.16490000  0.62990000  1.0 -0.4200937566
N  N12  1  0.32620000  0.11310000  0.69540000  1.0 -0.4200937566
N  N13  1  0.94780000  0.23170000  0.13430000  1.0 -0.4319999502
N  N14  1  0.87870000  0.29020000  0.19330000  1.0 -0.4200937566
N  N15  1  0.11190000  0.66490000  0.12990000  1.0 -0.4200937566
N  N16  1  0.17380000  0.61310000  0.19540000  1.0 -0.4200937566
O  O1  1  0.60210000  0.02770000  0.52740000  1.0 -0.6353595243
O  O2  1  0.45160000  0.02530000  0.54760000  1.0 -0.5527524934
O  O3  1  0.30750000  0.19670000  0.34160000  1.0 -0.4769764901
O  O4  1  0.15930000  0.42660000  0.13380000  1.0 -0.5271762446
O  O5  1  0.05230000  0.35630000  0.16260000  1.0 -0.5795024992
O  O6  1  0.63740000  0.86720000  0.55190000  1.0 -0.6195228533
O  O7  1  0.48570000  0.85590000  0.54410000  1.0 -0.4727590278
O  O8  1  0.74140000  0.70870000  0.34000000  1.0 -0.4727590278
O  O9  1  0.00020000  0.54400000  0.16170000  1.0 -0.5567313269
O  O10  1  0.89260000  0.47350000  0.13467000  1.0 -0.5795024992
O  O11  1  0.89790000  0.52770000  0.02740000  1.0 -0.6353595243
O  O12  1  0.04840000  0.52530000  0.04760000  1.0 -0.5527524934
O  O13  1  0.19250000  0.69670000  0.84160000  1.0 -0.4769764901
O  O14  1  0.34070000  0.92660000  0.63380000  1.0 -0.5271762446
O  O15  1  0.44770000  0.85630000  0.66260000  1.0 -0.5795024992
O  O16  1  0.86260000  0.36720000  0.05190000  1.0 -0.6195228533
O  O17  1  0.01430000  0.35590000  0.04410000  1.0 -0.4727590278
O  O18  1  0.75860000  0.20870000  0.84000000  1.0 -0.4597925164
O  O19  1  0.49980000  0.04400000  0.66170000  1.0 -0.5567313269
O  O20  1  0.60740000  0.97350000  0.63467000  1.0 -0.5795024992
O  O21  1  0.39790000  0.52770000  0.47260000  1.0 -0.6353595243
O  O22  1  0.54840000  0.52530000  0.45240000  1.0 -0.5527524934
O  O23  1  0.69250000  0.69670000  0.65840000  1.0 -0.4769764901
O  O24  1  0.84070000  0.92660000  0.86620000  1.0 -0.5271762446
O  O25  1  0.94770000  0.85630000  0.83740000  1.0 -0.5795024992
O  O26  1  0.36260000  0.36720000  0.44810000  1.0 -0.6195228533
O  O27  1  0.51430000  0.35590000  0.45590000  1.0 -0.4727590278
O  O28  1  0.25860000  0.20870000  0.66000000  1.0 -0.4597925164
O  O29  1  0.99980000  0.04400000  0.83830000  1.0 -0.5567313269
O  O30  1  0.10740000  0.97350000  0.86533000  1.0 -0.5795024992
O  O31  1  0.10210000  0.02770000  0.97260000  1.0 -0.6353595243
O  O32  1  0.95160000  0.02530000  0.95240000  1.0 -0.5527524934
O  O33  1  0.80750000  0.19670000  0.15840000  1.0 -0.4769764901
O  O34  1  0.65930000  0.42660000  0.36620000  1.0 -0.5271762446
O  O35  1  0.55230000  0.35630000  0.33740000  1.0 -0.5795024992
O  O36  1  0.13740000  0.86720000  0.94810000  1.0 -0.6195228533
O  O37  1  0.98570000  0.85590000  0.95590000  1.0 -0.4727590278
O  O38  1  0.24140000  0.70870000  0.16000000  1.0 -0.4597925164
O  O39  1  0.50020000  0.54400000  0.33830000  1.0 -0.5567313269
O  O40  1  0.39260000  0.47350000  0.36533000  1.0 -0.5795024992
