# DDEC6 charges by PACMAN v1.1 (https://github.com/mtap-research/PACMAN-charge/)
data_YEKQOW_FSR_pacman
_symmetry_space_group_name_H-M   'P 1'
_cell_length_a   26.83260000
_cell_length_b   26.83260000
_cell_length_c   26.83260000
_cell_angle_alpha   109.47100000
_cell_angle_beta   109.47100000
_cell_angle_gamma   109.47100000
_symmetry_Int_Tables_number   1
_chemical_formula_structural   Zn26H52C144O133
_chemical_formula_sum   'Zn52 H104 C288 O266'
_cell_volume   14872.01882719
_cell_formula_units_Z   2
loop_
 _symmetry_equiv_pos_site_id
 _symmetry_equiv_pos_as_xyz
  1  'x, y, z'
loop_
 _atom_site_type_symbol
 _atom_site_label
 _atom_site_symmetry_multiplicity
 _atom_site_fract_x
 _atom_site_fract_y
 _atom_site_fract_z
 _atom_site_occupancy
 _atom_site_charge
Zn  Zn1  1  0.23959000  0.79732000  0.45329000  1.0 0.9244068088
Zn  Zn2  1  0.34403000  0.78630000  0.54671000  1.0 0.9244068088
Zn  Zn3  1  0.65597000  0.20268000  0.44227000  1.0 0.9244068088
Zn  Zn4  1  0.76041000  0.21370000  0.55773000  1.0 0.9300057414
Zn  Zn5  1  0.45329000  0.23959000  0.79732000  1.0 0.9244068088
Zn  Zn6  1  0.54671000  0.34403000  0.78630000  1.0 0.9244068088
Zn  Zn7  1  0.44227000  0.65597000  0.20268000  1.0 0.9300057414
Zn  Zn8  1  0.55773000  0.76041000  0.21370000  1.0 0.9244068088
Zn  Zn9  1  0.79732000  0.45329000  0.23959000  1.0 0.9300057414
Zn  Zn10  1  0.78630000  0.54671000  0.34403000  1.0 0.9300057414
Zn  Zn11  1  0.20268000  0.44227000  0.65597000  1.0 0.9244068088
Zn  Zn12  1  0.21370000  0.55773000  0.76041000  1.0 0.9244068088
Zn  Zn13  1  0.00000000  0.51924000  0.00000000  1.0 1.0881877067
Zn  Zn14  1  0.51924000  0.00000000  0.00000000  1.0 1.0881877067
Zn  Zn15  1  0.48076000  0.48076000  0.48076000  1.0 1.0881877067
Zn  Zn16  1  0.00000000  0.00000000  0.51924000  1.0 1.0881877067
Zn  Zn17  1  0.76948000  0.32811000  0.54903000  1.0 0.9300057414
Zn  Zn18  1  0.77908000  0.22045000  0.45097000  1.0 0.9300057414
Zn  Zn19  1  0.22092000  0.67189000  0.44137000  1.0 0.9300057414
Zn  Zn20  1  0.23052000  0.77955000  0.55863000  1.0 0.9300057414
Zn  Zn21  1  0.54903000  0.76948000  0.32811000  1.0 0.9300057414
Zn  Zn22  1  0.45097000  0.77908000  0.22045000  1.0 0.9300057414
Zn  Zn23  1  0.44137000  0.22092000  0.67189000  1.0 0.9300057414
Zn  Zn24  1  0.55863000  0.23052000  0.77955000  1.0 0.9300057414
Zn  Zn25  1  0.32811000  0.54903000  0.76948000  1.0 0.9300057414
Zn  Zn26  1  0.22045000  0.45097000  0.77908000  1.0 0.9300057414
Zn  Zn27  1  0.67189000  0.44137000  0.22092000  1.0 0.9300057414
Zn  Zn28  1  0.77955000  0.55863000  0.23052000  1.0 0.9300057414
Zn  Zn29  1  0.96546000  0.63612000  0.91182000  1.0 0.9770784748
Zn  Zn30  1  0.72430000  0.05364000  0.08818000  1.0 0.9770784748
Zn  Zn31  1  0.27570000  0.36388000  0.32934000  1.0 0.9770784748
Zn  Zn32  1  0.03454000  0.94636000  0.67066000  1.0 0.9770784748
Zn  Zn33  1  0.91182000  0.96546000  0.63612000  1.0 0.9770784748
Zn  Zn34  1  0.08818000  0.72430000  0.05364000  1.0 0.9770784748
Zn  Zn35  1  0.32934000  0.27570000  0.36388000  1.0 0.9770784748
Zn  Zn36  1  0.67066000  0.03454000  0.94636000  1.0 0.9770784748
Zn  Zn37  1  0.63612000  0.91182000  0.96546000  1.0 0.9770784748
Zn  Zn38  1  0.05364000  0.08818000  0.72430000  1.0 0.9770784748
Zn  Zn39  1  0.36388000  0.32934000  0.27570000  1.0 0.9770784748
Zn  Zn40  1  0.94636000  0.67066000  0.03454000  1.0 0.9770784748
Zn  Zn41  1  0.03631000  0.39955000  0.08744000  1.0 0.9475427689
Zn  Zn42  1  0.31211000  0.94887000  0.91256000  1.0 0.9475427689
Zn  Zn43  1  0.68789000  0.60045000  0.63676000  1.0 0.9475427689
Zn  Zn44  1  0.96369000  0.05113000  0.36324000  1.0 0.9475427689
Zn  Zn45  1  0.08744000  0.03631000  0.39955000  1.0 0.9475427689
Zn  Zn46  1  0.91256000  0.31211000  0.94887000  1.0 0.9475427689
Zn  Zn47  1  0.63676000  0.68789000  0.60045000  1.0 0.9475427689
Zn  Zn48  1  0.36324000  0.96369000  0.05113000  1.0 0.9475427689
Zn  Zn49  1  0.39955000  0.08744000  0.03631000  1.0 0.9475427689
Zn  Zn50  1  0.94887000  0.91256000  0.31211000  1.0 0.9475427689
Zn  Zn51  1  0.60045000  0.63676000  0.68789000  1.0 0.9475427689
Zn  Zn52  1  0.05113000  0.36324000  0.96369000  1.0 0.9475427689
H  H1  1  0.00000000  0.62300000  0.00000000  1.0 0.3818909797
H  H2  1  0.62300000  0.00000000  0.00000000  1.0 0.3818909797
H  H3  1  0.37700000  0.37700000  0.37700000  1.0 0.3818909797
H  H4  1  0.00000000  0.00000000  0.62300000  1.0 0.3818909797
H  H5  1  0.00000000  0.41360000  0.00000000  1.0 0.3964833515
H  H6  1  0.41360000  0.00000000  0.00000000  1.0 0.3964833515
H  H7  1  0.58640000  0.58640000  0.58640000  1.0 0.3964833515
H  H8  1  0.00000000  0.00000000  0.41360000  1.0 0.3964833515
H  H9  1  0.07320000  0.68050000  0.81950000  1.0 0.1681992148
H  H10  1  0.86100000  0.25370000  0.18050000  1.0 0.1681992148
H  H11  1  0.13900000  0.31950000  0.39270000  1.0 0.1681992148
H  H12  1  0.92680000  0.74630000  0.60730000  1.0 0.1681992148
H  H13  1  0.81950000  0.07320000  0.68050000  1.0 0.1681992148
H  H14  1  0.18050000  0.86100000  0.25370000  1.0 0.1681992148
H  H15  1  0.39270000  0.13900000  0.31950000  1.0 0.1681992148
H  H16  1  0.60730000  0.92680000  0.74630000  1.0 0.1681992148
H  H17  1  0.68050000  0.81950000  0.07320000  1.0 0.1681992148
H  H18  1  0.25370000  0.18050000  0.86100000  1.0 0.1681992148
H  H19  1  0.31950000  0.39270000  0.13900000  1.0 0.1681992148
H  H20  1  0.74630000  0.60730000  0.92680000  1.0 0.1681992148
H  H21  1  0.11560000  0.71790000  0.24410000  1.0 0.1483874914
H  H22  1  0.47380000  0.87150000  0.75590000  1.0 0.1483874914
H  H23  1  0.52620000  0.28210000  0.39770000  1.0 0.1483874914
H  H24  1  0.88440000  0.12850000  0.60230000  1.0 0.1483874914
H  H25  1  0.24410000  0.11560000  0.71790000  1.0 0.1483874914
H  H26  1  0.75590000  0.47380000  0.87150000  1.0 0.1483874914
H  H27  1  0.39770000  0.52620000  0.28210000  1.0 0.1483874914
H  H28  1  0.60230000  0.88440000  0.12850000  1.0 0.1483874914
H  H29  1  0.71790000  0.24410000  0.11560000  1.0 0.1483874914
H  H30  1  0.87150000  0.75590000  0.47380000  1.0 0.1483874914
H  H31  1  0.28210000  0.39770000  0.52620000  1.0 0.1483874914
H  H32  1  0.12850000  0.60230000  0.88440000  1.0 0.1483874914
H  H33  1  0.06460000  0.63330000  0.13610000  1.0 0.1395391962
H  H34  1  0.49720000  0.92850000  0.86390000  1.0 0.1395391962
H  H35  1  0.50280000  0.36670000  0.43130000  1.0 0.1395391962
H  H36  1  0.93540000  0.07150000  0.56870000  1.0 0.1395391962
H  H37  1  0.13610000  0.06460000  0.63330000  1.0 0.1395391962
H  H38  1  0.86390000  0.49720000  0.92850000  1.0 0.1395391962
H  H39  1  0.43130000  0.50280000  0.36670000  1.0 0.1395391962
H  H40  1  0.56870000  0.93540000  0.07150000  1.0 0.1395391962
H  H41  1  0.63330000  0.13610000  0.06460000  1.0 0.1395391962
H  H42  1  0.92850000  0.86390000  0.49720000  1.0 0.1395391962
H  H43  1  0.36670000  0.43130000  0.50280000  1.0 0.1395391962
H  H44  1  0.07150000  0.56870000  0.93540000  1.0 0.1395391962
H  H45  1  0.44150000  0.93990000  0.37140000  1.0 0.1483874914
H  H46  1  0.56850000  0.07010000  0.62860000  1.0 0.1483874914
H  H47  1  0.43150000  0.06010000  0.50160000  1.0 0.1483874914
H  H48  1  0.55850000  0.92990000  0.49840000  1.0 0.1483874914
H  H49  1  0.37140000  0.44150000  0.93990000  1.0 0.1483874914
H  H50  1  0.62860000  0.56850000  0.07010000  1.0 0.1483874914
H  H51  1  0.50160000  0.43150000  0.06010000  1.0 0.1483874914
H  H52  1  0.49840000  0.55850000  0.92990000  1.0 0.1483874914
H  H53  1  0.93990000  0.37140000  0.44150000  1.0 0.1483874914
H  H54  1  0.07010000  0.62860000  0.56850000  1.0 0.1483874914
H  H55  1  0.06010000  0.50160000  0.43150000  1.0 0.1483874914
H  H56  1  0.92990000  0.49840000  0.55850000  1.0 0.1483874914
H  H57  1  0.38760000  0.94420000  0.43160000  1.0 0.1483874914
H  H58  1  0.51260000  0.95600000  0.56840000  1.0 0.1483874914
H  H59  1  0.48740000  0.05580000  0.44340000  1.0 0.1483874914
H  H60  1  0.61240000  0.04400000  0.55660000  1.0 0.1483874914
H  H61  1  0.43160000  0.38760000  0.94420000  1.0 0.1483874914
H  H62  1  0.56840000  0.51260000  0.95600000  1.0 0.1483874914
H  H63  1  0.44340000  0.48740000  0.05580000  1.0 0.1483874914
H  H64  1  0.55660000  0.61240000  0.04400000  1.0 0.1483874914
H  H65  1  0.94420000  0.43160000  0.38760000  1.0 0.1483874914
H  H66  1  0.95600000  0.56840000  0.51260000  1.0 0.1483874914
H  H67  1  0.05580000  0.44340000  0.48740000  1.0 0.1483874914
H  H68  1  0.04400000  0.55660000  0.61240000  1.0 0.1483874914
H  H69  1  0.87010000  0.31050000  0.76300000  1.0 0.1483874914
H  H70  1  0.54750000  0.10710000  0.23700000  1.0 0.1483874914
H  H71  1  0.45250000  0.68950000  0.55960000  1.0 0.1483874914
H  H72  1  0.12990000  0.89290000  0.44040000  1.0 0.1483874914
H  H73  1  0.76300000  0.87010000  0.31050000  1.0 0.1483874914
H  H74  1  0.23700000  0.54750000  0.10710000  1.0 0.1483874914
H  H75  1  0.55960000  0.45250000  0.68950000  1.0 0.1483874914
H  H76  1  0.44040000  0.12990000  0.89290000  1.0 0.1483874914
H  H77  1  0.31050000  0.76300000  0.87010000  1.0 0.1483874914
H  H78  1  0.10710000  0.23700000  0.54750000  1.0 0.1483874914
H  H79  1  0.68950000  0.55960000  0.45250000  1.0 0.1483874914
H  H80  1  0.89290000  0.44040000  0.12990000  1.0 0.1483874914
H  H81  1  0.93550000  0.40290000  0.86660000  1.0 0.1395391962
H  H82  1  0.53630000  0.06890000  0.13340000  1.0 0.1395391962
H  H83  1  0.46370000  0.59710000  0.53260000  1.0 0.1395391962
H  H84  1  0.06450000  0.93110000  0.46740000  1.0 0.1395391962
H  H85  1  0.86660000  0.93550000  0.40290000  1.0 0.1395391962
H  H86  1  0.13340000  0.53630000  0.06890000  1.0 0.1395391962
H  H87  1  0.53260000  0.46370000  0.59710000  1.0 0.1395391962
H  H88  1  0.46740000  0.06450000  0.93110000  1.0 0.1395391962
H  H89  1  0.40290000  0.86660000  0.93550000  1.0 0.1395391962
H  H90  1  0.06890000  0.13340000  0.53630000  1.0 0.1395391962
H  H91  1  0.59710000  0.53260000  0.46370000  1.0 0.1395391962
H  H92  1  0.93110000  0.46740000  0.06450000  1.0 0.1395391962
H  H93  1  0.15770000  0.75470000  0.81940000  1.0 0.163023823
H  H94  1  0.93530000  0.33830000  0.18060000  1.0 0.163023823
H  H95  1  0.06470000  0.24530000  0.40300000  1.0 0.163023823
H  H96  1  0.84230000  0.66170000  0.59700000  1.0 0.163023823
H  H97  1  0.81940000  0.15770000  0.75470000  1.0 0.163023823
H  H98  1  0.18060000  0.93530000  0.33830000  1.0 0.163023823
H  H99  1  0.40300000  0.06470000  0.24530000  1.0 0.163023823
H  H100  1  0.59700000  0.84230000  0.66170000  1.0 0.163023823
H  H101  1  0.75470000  0.81940000  0.15770000  1.0 0.163023823
H  H102  1  0.33830000  0.18060000  0.93530000  1.0 0.163023823
H  H103  1  0.24530000  0.40300000  0.06470000  1.0 0.163023823
H  H104  1  0.66170000  0.59700000  0.84230000  1.0 0.163023823
C  C1  1  0.10800000  0.71540000  0.85360000  1.0 -0.1638724704
C  C2  1  0.86180000  0.25440000  0.14640000  1.0 -0.1638724704
C  C3  1  0.13820000  0.28460000  0.39260000  1.0 -0.1638724704
C  C4  1  0.89200000  0.74560000  0.60740000  1.0 -0.1638724704
C  C5  1  0.85360000  0.10800000  0.71540000  1.0 -0.1638724704
C  C6  1  0.14640000  0.86180000  0.25440000  1.0 -0.1638724704
C  C7  1  0.39260000  0.13820000  0.28460000  1.0 -0.1638724704
C  C8  1  0.60740000  0.89200000  0.74560000  1.0 -0.1638724704
C  C9  1  0.71540000  0.85360000  0.10800000  1.0 -0.1638724704
C  C10  1  0.25440000  0.14640000  0.86180000  1.0 -0.1638724704
C  C11  1  0.28460000  0.39260000  0.13820000  1.0 -0.1638724704
C  C12  1  0.74560000  0.60740000  0.89200000  1.0 -0.1638724704
C  C13  1  0.11110000  0.67920000  0.23190000  1.0 -0.1638724704
C  C14  1  0.44730000  0.87920000  0.76810000  1.0 -0.1638724704
C  C15  1  0.55270000  0.32080000  0.43190000  1.0 -0.1638724704
C  C16  1  0.88890000  0.12080000  0.56810000  1.0 -0.1638724704
C  C17  1  0.23190000  0.11110000  0.67920000  1.0 -0.1638724704
C  C18  1  0.76810000  0.44730000  0.87920000  1.0 -0.1638724704
C  C19  1  0.43190000  0.55270000  0.32080000  1.0 -0.1638724704
C  C20  1  0.56810000  0.88890000  0.12080000  1.0 -0.1638724704
C  C21  1  0.67920000  0.23190000  0.11110000  1.0 -0.1638724704
C  C22  1  0.87920000  0.76810000  0.44730000  1.0 -0.1638724704
C  C23  1  0.32080000  0.43190000  0.55270000  1.0 -0.1638724704
C  C24  1  0.12080000  0.56810000  0.88890000  1.0 -0.1638724704
C  C25  1  0.08240000  0.63190000  0.17150000  1.0 -0.1711382723
C  C26  1  0.46040000  0.91090000  0.82850000  1.0 -0.1711382723
C  C27  1  0.53960000  0.36810000  0.45050000  1.0 -0.1711382723
C  C28  1  0.91760000  0.08910000  0.54950000  1.0 -0.1711382723
C  C29  1  0.17150000  0.08240000  0.63190000  1.0 -0.1711382723
C  C30  1  0.82850000  0.46040000  0.91090000  1.0 -0.1711382723
C  C31  1  0.45050000  0.53960000  0.36810000  1.0 -0.1711382723
C  C32  1  0.54950000  0.91760000  0.08910000  1.0 -0.1711382723
C  C33  1  0.63190000  0.17150000  0.08240000  1.0 -0.1711382723
C  C34  1  0.91090000  0.82850000  0.46040000  1.0 -0.1711382723
C  C35  1  0.36810000  0.45050000  0.53960000  1.0 -0.1711382723
C  C36  1  0.08910000  0.54950000  0.91760000  1.0 -0.1711382723
C  C37  1  0.06230000  0.52090000  0.12900000  1.0 0.5608793172
C  C38  1  0.39190000  0.93330000  0.87100000  1.0 0.5608793172
C  C39  1  0.60810000  0.47910000  0.54140000  1.0 0.5608793172
C  C40  1  0.93770000  0.06670000  0.45860000  1.0 0.5608793172
C  C41  1  0.12900000  0.06230000  0.52090000  1.0 0.5608793172
C  C42  1  0.87100000  0.39190000  0.93330000  1.0 0.5608793172
C  C43  1  0.54140000  0.60810000  0.47910000  1.0 0.5608793172
C  C44  1  0.45860000  0.93770000  0.06670000  1.0 0.5608793172
C  C45  1  0.52090000  0.12900000  0.06230000  1.0 0.5608793172
C  C46  1  0.93330000  0.87100000  0.39190000  1.0 0.5608793172
C  C47  1  0.47910000  0.54140000  0.60810000  1.0 0.5608793172
C  C48  1  0.06670000  0.45860000  0.93770000  1.0 0.5608793172
C  C49  1  0.13150000  0.65740000  0.27010000  1.0 0.0878884582
C  C50  1  0.38730000  0.86140000  0.72990000  1.0 0.0878884582
C  C51  1  0.61270000  0.34260000  0.47410000  1.0 0.0878884582
C  C52  1  0.86850000  0.13860000  0.52590000  1.0 0.0878884582
C  C53  1  0.27010000  0.13150000  0.65740000  1.0 0.0878884582
C  C54  1  0.72990000  0.38730000  0.86140000  1.0 0.0878884582
C  C55  1  0.47410000  0.61270000  0.34260000  1.0 0.0878884582
C  C56  1  0.52590000  0.86850000  0.13860000  1.0 0.0878884582
C  C57  1  0.65740000  0.27010000  0.13150000  1.0 0.0878884582
C  C58  1  0.86140000  0.72990000  0.38730000  1.0 0.0878884582
C  C59  1  0.34260000  0.47410000  0.61270000  1.0 0.0878884582
C  C60  1  0.13860000  0.52590000  0.86850000  1.0 0.0878884582
C  C61  1  0.90740000  0.44760000  0.82520000  1.0 0.0878884582
C  C62  1  0.62240000  0.08220000  0.17480000  1.0 0.0878884582
C  C63  1  0.37760000  0.55240000  0.45980000  1.0 0.0878884582
C  C64  1  0.09260000  0.91780000  0.54020000  1.0 0.0878884582
C  C65  1  0.82520000  0.90740000  0.44760000  1.0 0.0878884582
C  C66  1  0.17480000  0.62240000  0.08220000  1.0 0.0878884582
C  C67  1  0.45980000  0.37760000  0.55240000  1.0 0.0878884582
C  C68  1  0.54020000  0.09260000  0.91780000  1.0 0.0878884582
C  C69  1  0.44760000  0.82520000  0.90740000  1.0 0.0878884582
C  C70  1  0.08220000  0.17480000  0.62240000  1.0 0.0878884582
C  C71  1  0.55240000  0.45980000  0.37760000  1.0 0.0878884582
C  C72  1  0.91780000  0.54020000  0.09260000  1.0 0.0878884582
C  C73  1  0.08620000  0.58350000  0.17530000  1.0 0.0624261285
C  C74  1  0.40820000  0.91090000  0.82470000  1.0 0.0624261285
C  C75  1  0.59180000  0.41650000  0.50270000  1.0 0.0624261285
C  C76  1  0.91380000  0.08910000  0.49730000  1.0 0.0624261285
C  C77  1  0.17530000  0.08620000  0.58350000  1.0 0.0624261285
C  C78  1  0.82470000  0.40820000  0.91090000  1.0 0.0624261285
C  C79  1  0.50270000  0.59180000  0.41650000  1.0 0.0624261285
C  C80  1  0.49730000  0.91380000  0.08910000  1.0 0.0624261285
C  C81  1  0.58350000  0.17530000  0.08620000  1.0 0.0624261285
C  C82  1  0.91090000  0.82470000  0.40820000  1.0 0.0624261285
C  C83  1  0.41650000  0.50270000  0.59180000  1.0 0.0624261285
C  C84  1  0.08910000  0.49730000  0.91380000  1.0 0.0624261285
C  C85  1  0.16270000  0.68310000  0.33640000  1.0 0.5701619782
C  C86  1  0.34670000  0.82630000  0.66360000  1.0 0.5701619782
C  C87  1  0.65330000  0.31690000  0.47960000  1.0 0.5701619782
C  C88  1  0.83730000  0.17370000  0.52040000  1.0 0.5701619782
C  C89  1  0.33640000  0.16270000  0.68310000  1.0 0.5701619782
C  C90  1  0.66360000  0.34670000  0.82630000  1.0 0.5701619782
C  C91  1  0.47960000  0.65330000  0.31690000  1.0 0.5701619782
C  C92  1  0.52040000  0.83730000  0.17370000  1.0 0.5701619782
C  C93  1  0.68310000  0.33640000  0.16270000  1.0 0.5701619782
C  C94  1  0.82630000  0.66360000  0.34670000  1.0 0.5701619782
C  C95  1  0.31690000  0.47960000  0.65330000  1.0 0.5701619782
C  C96  1  0.17370000  0.52040000  0.83730000  1.0 0.5701619782
C  C97  1  0.93600000  0.51370000  0.87110000  1.0 0.5701619782
C  C98  1  0.64260000  0.06490000  0.12890000  1.0 0.5701619782
C  C99  1  0.35740000  0.48630000  0.42230000  1.0 0.5701619782
C  C100  1  0.06400000  0.93510000  0.57770000  1.0 0.5701619782
C  C101  1  0.87110000  0.93600000  0.51370000  1.0 0.5701619782
C  C102  1  0.12890000  0.64260000  0.06490000  1.0 0.5701619782
C  C103  1  0.42230000  0.35740000  0.48630000  1.0 0.5701619782
C  C104  1  0.57770000  0.06400000  0.93510000  1.0 0.5701619782
C  C105  1  0.51370000  0.87110000  0.93600000  1.0 0.5701619782
C  C106  1  0.06490000  0.12890000  0.64260000  1.0 0.5701619782
C  C107  1  0.48630000  0.42230000  0.35740000  1.0 0.5701619782
C  C108  1  0.93510000  0.57770000  0.06400000  1.0 0.5701619782
C  C109  1  0.36370000  0.85760000  0.40310000  1.0 0.1010821428
C  C110  1  0.45450000  0.96060000  0.59690000  1.0 0.1010821428
C  C111  1  0.54550000  0.14240000  0.50610000  1.0 0.1010821428
C  C112  1  0.63630000  0.03940000  0.49390000  1.0 0.1010821428
C  C113  1  0.40310000  0.36370000  0.85760000  1.0 0.1010821428
C  C114  1  0.59690000  0.45450000  0.96060000  1.0 0.1010821428
C  C115  1  0.50610000  0.54550000  0.14240000  1.0 0.1010821428
C  C116  1  0.49390000  0.63630000  0.03940000  1.0 0.1010821428
C  C117  1  0.85760000  0.40310000  0.36370000  1.0 0.1010821428
C  C118  1  0.96060000  0.59690000  0.45450000  1.0 0.1010821428
C  C119  1  0.14240000  0.50610000  0.54550000  1.0 0.1010821428
C  C120  1  0.03940000  0.49390000  0.63630000  1.0 0.1010821428
C  C121  1  0.41970000  0.90770000  0.37540000  1.0 -0.1711382723
C  C122  1  0.53230000  0.04430000  0.62460000  1.0 -0.1711382723
C  C123  1  0.46770000  0.09230000  0.51200000  1.0 -0.1711382723
C  C124  1  0.58030000  0.95570000  0.48800000  1.0 -0.1711382723
C  C125  1  0.37540000  0.41970000  0.90770000  1.0 -0.1711382723
C  C126  1  0.62460000  0.53230000  0.04430000  1.0 -0.1711382723
C  C127  1  0.51200000  0.46770000  0.09230000  1.0 -0.1755945476
C  C128  1  0.48800000  0.58030000  0.95570000  1.0 -0.1755945476
C  C129  1  0.90770000  0.37540000  0.41970000  1.0 -0.1755945476
C  C130  1  0.04430000  0.62460000  0.53230000  1.0 -0.1755945476
C  C131  1  0.09230000  0.51200000  0.46770000  1.0 -0.1711382723
C  C132  1  0.95570000  0.48800000  0.58030000  1.0 -0.1711382723
C  C133  1  0.41270000  0.85050000  0.34960000  1.0 0.0878884582
C  C134  1  0.50090000  0.06310000  0.65040000  1.0 0.0878884582
C  C135  1  0.49910000  0.14950000  0.56220000  1.0 0.0878884582
C  C136  1  0.58730000  0.93690000  0.43780000  1.0 0.0878884582
C  C137  1  0.34960000  0.41270000  0.85050000  1.0 0.0878884582
C  C138  1  0.65040000  0.50090000  0.06310000  1.0 0.0878884582
C  C139  1  0.56220000  0.49910000  0.14950000  1.0 0.0878884582
C  C140  1  0.43780000  0.58730000  0.93690000  1.0 0.0878884582
C  C141  1  0.85050000  0.34960000  0.41270000  1.0 0.0878884582
C  C142  1  0.06310000  0.65040000  0.50090000  1.0 0.0878884582
C  C143  1  0.14950000  0.56220000  0.49910000  1.0 0.0878884582
C  C144  1  0.93690000  0.43780000  0.58730000  1.0 0.0878884582
C  C145  1  0.32310000  0.82250000  0.42220000  1.0 0.5393730822
C  C146  1  0.40030000  0.90090000  0.57780000  1.0 0.5393730822
C  C147  1  0.59970000  0.17750000  0.50060000  1.0 0.5393730822
C  C148  1  0.67690000  0.09910000  0.49940000  1.0 0.5393730822
C  C149  1  0.42220000  0.32310000  0.82250000  1.0 0.5393730822
C  C150  1  0.57780000  0.40030000  0.90090000  1.0 0.5393730822
C  C151  1  0.50060000  0.59970000  0.17750000  1.0 0.5393730822
C  C152  1  0.49940000  0.67690000  0.09910000  1.0 0.5393730822
C  C153  1  0.82250000  0.42220000  0.32310000  1.0 0.5393730822
C  C154  1  0.90090000  0.57780000  0.40030000  1.0 0.5393730822
C  C155  1  0.17750000  0.50060000  0.59970000  1.0 0.5393730822
C  C156  1  0.09910000  0.49940000  0.67690000  1.0 0.5393730822
C  C157  1  0.81400000  0.33300000  0.66460000  1.0 0.579267509
C  C158  1  0.66840000  0.14940000  0.33540000  1.0 0.579267509
C  C159  1  0.33160000  0.66700000  0.48100000  1.0 0.579267509
C  C160  1  0.18600000  0.85060000  0.51900000  1.0 0.579267509
C  C161  1  0.66460000  0.81400000  0.33300000  1.0 0.579267509
C  C162  1  0.33540000  0.66840000  0.14940000  1.0 0.579267509
C  C163  1  0.48100000  0.33160000  0.66700000  1.0 0.579267509
C  C164  1  0.51900000  0.18600000  0.85060000  1.0 0.579267509
C  C165  1  0.33300000  0.66460000  0.81400000  1.0 0.579267509
C  C166  1  0.14940000  0.33540000  0.66840000  1.0 0.579267509
C  C167  1  0.66700000  0.48100000  0.33160000  1.0 0.579267509
C  C168  1  0.85060000  0.51900000  0.18600000  1.0 0.579267509
C  C169  1  0.38910000  0.91030000  0.40920000  1.0 -0.1711382723
C  C170  1  0.50110000  0.97990000  0.59080000  1.0 -0.1711382723
C  C171  1  0.49890000  0.08970000  0.47880000  1.0 -0.1711382723
C  C172  1  0.61090000  0.02010000  0.52120000  1.0 -0.1711382723
C  C173  1  0.40920000  0.38910000  0.91030000  1.0 -0.1711382723
C  C174  1  0.59080000  0.50110000  0.97990000  1.0 -0.1711382723
C  C175  1  0.47880000  0.49890000  0.08970000  1.0 -0.1711382723
C  C176  1  0.52120000  0.61090000  0.02010000  1.0 -0.1711382723
C  C177  1  0.91030000  0.40920000  0.38910000  1.0 -0.1711382723
C  C178  1  0.97990000  0.59080000  0.50110000  1.0 -0.1711382723
C  C179  1  0.08970000  0.47880000  0.49890000  1.0 -0.1711382723
C  C180  1  0.02010000  0.52120000  0.61090000  1.0 -0.1711382723
C  C181  1  0.42398000  0.81180000  0.30658000  1.0 0.5096901479
C  C182  1  0.50522000  0.11740000  0.69342000  1.0 0.5096901479
C  C183  1  0.49478000  0.18820000  0.61218000  1.0 0.5096901479
C  C184  1  0.57602000  0.88260000  0.38782000  1.0 0.5096901479
C  C185  1  0.30658000  0.42398000  0.81180000  1.0 0.5096901479
C  C186  1  0.69342000  0.50522000  0.11740000  1.0 0.5096901479
C  C187  1  0.61218000  0.49478000  0.18820000  1.0 0.5096901479
C  C188  1  0.38782000  0.57602000  0.88260000  1.0 0.5096901479
C  C189  1  0.81180000  0.30658000  0.42398000  1.0 0.5096901479
C  C190  1  0.11740000  0.69342000  0.50522000  1.0 0.5096901479
C  C191  1  0.18820000  0.61218000  0.49478000  1.0 0.5096901479
C  C192  1  0.88260000  0.38782000  0.57602000  1.0 0.5096901479
C  C193  1  0.87640000  0.34950000  0.77250000  1.0 -0.1711382723
C  C194  1  0.57700000  0.10390000  0.22750000  1.0 -0.1638724704
C  C195  1  0.42300000  0.65050000  0.52690000  1.0 -0.1711382723
C  C196  1  0.12360000  0.89610000  0.47310000  1.0 -0.1711382723
C  C197  1  0.77250000  0.87640000  0.34950000  1.0 -0.1711382723
C  C198  1  0.22750000  0.57700000  0.10390000  1.0 -0.1638724704
C  C199  1  0.52690000  0.42300000  0.65050000  1.0 -0.1711382723
C  C200  1  0.47310000  0.12360000  0.89610000  1.0 -0.1711382723
C  C201  1  0.34950000  0.77250000  0.87640000  1.0 -0.1638724704
C  C202  1  0.10390000  0.22750000  0.57700000  1.0 -0.1711382723
C  C203  1  0.65050000  0.52690000  0.42300000  1.0 -0.1638724704
C  C204  1  0.89610000  0.47310000  0.12360000  1.0 -0.1711382723
C  C205  1  0.91240000  0.40110000  0.83070000  1.0 -0.1886773261
C  C206  1  0.57040000  0.08170000  0.16930000  1.0 -0.1886773261
C  C207  1  0.42960000  0.59890000  0.51130000  1.0 -0.1886773261
C  C208  1  0.08760000  0.91830000  0.48870000  1.0 -0.1886773261
C  C209  1  0.83070000  0.91240000  0.40110000  1.0 -0.1886773261
C  C210  1  0.16930000  0.57040000  0.08170000  1.0 -0.1886773261
C  C211  1  0.51130000  0.42960000  0.59890000  1.0 -0.1886773261
C  C212  1  0.48870000  0.08760000  0.91830000  1.0 -0.1886773261
C  C213  1  0.40110000  0.83070000  0.91240000  1.0 -0.1886773261
C  C214  1  0.08170000  0.16930000  0.57040000  1.0 -0.1886773261
C  C215  1  0.59890000  0.51130000  0.42960000  1.0 -0.1886773261
C  C216  1  0.91830000  0.48870000  0.08760000  1.0 -0.1886773261
C  C217  1  0.85220000  0.36650000  0.73190000  1.0 0.0878884582
C  C218  1  0.63460000  0.12030000  0.26810000  1.0 0.0878884582
C  C219  1  0.36540000  0.63350000  0.48570000  1.0 0.0878884582
C  C220  1  0.14780000  0.87970000  0.51430000  1.0 0.0878884582
C  C221  1  0.73190000  0.85220000  0.36650000  1.0 0.0878884582
C  C222  1  0.26810000  0.63460000  0.12030000  1.0 0.0878884582
C  C223  1  0.48570000  0.36540000  0.63350000  1.0 0.0878884582
C  C224  1  0.51430000  0.14780000  0.87970000  1.0 0.0878884582
C  C225  1  0.36650000  0.73190000  0.85220000  1.0 0.0878884582
C  C226  1  0.12030000  0.26810000  0.63460000  1.0 0.0878884582
C  C227  1  0.63350000  0.48570000  0.36540000  1.0 0.0878884582
C  C228  1  0.87970000  0.51430000  0.14780000  1.0 0.0878884582
C  C229  1  0.08770000  0.70900000  0.94170000  1.0 0.5608793172
C  C230  1  0.76730000  0.14600000  0.05830000  1.0 0.5608793172
C  C231  1  0.23270000  0.29100000  0.37870000  1.0 0.5608793172
C  C232  1  0.91230000  0.85400000  0.62130000  1.0 0.5608793172
C  C233  1  0.94170000  0.08770000  0.70900000  1.0 0.5608793172
C  C234  1  0.05830000  0.76730000  0.14600000  1.0 0.5608793172
C  C235  1  0.37870000  0.23270000  0.29100000  1.0 0.5608793172
C  C236  1  0.62130000  0.91230000  0.85400000  1.0 0.5608793172
C  C237  1  0.70900000  0.94170000  0.08770000  1.0 0.5608793172
C  C238  1  0.14600000  0.05830000  0.76730000  1.0 0.5608793172
C  C239  1  0.29100000  0.37870000  0.23270000  1.0 0.5608793172
C  C240  1  0.85400000  0.62130000  0.91230000  1.0 0.5608793172
C  C241  1  0.12170000  0.73500000  0.91310000  1.0 0.1010821428
C  C242  1  0.82190000  0.20860000  0.08690000  1.0 0.1010821428
C  C243  1  0.17810000  0.26500000  0.38670000  1.0 0.1010821428
C  C244  1  0.87830000  0.79140000  0.61330000  1.0 0.1010821428
C  C245  1  0.91310000  0.12170000  0.73500000  1.0 0.1010821428
C  C246  1  0.08690000  0.82190000  0.20860000  1.0 0.1010821428
C  C247  1  0.38670000  0.17810000  0.26500000  1.0 0.1010821428
C  C248  1  0.61330000  0.87830000  0.79140000  1.0 0.1010821428
C  C249  1  0.73500000  0.91310000  0.12170000  1.0 0.1010821428
C  C250  1  0.20860000  0.08690000  0.82190000  1.0 0.1010821428
C  C251  1  0.26500000  0.38670000  0.17810000  1.0 0.1010821428
C  C252  1  0.79140000  0.61330000  0.87830000  1.0 0.1010821428
C  C253  1  0.15520000  0.75660000  0.85360000  1.0 -0.1755945476
C  C254  1  0.90300000  0.30160000  0.14640000  1.0 -0.1711382723
C  C255  1  0.09700000  0.24340000  0.39860000  1.0 -0.1711382723
C  C256  1  0.84480000  0.69840000  0.60140000  1.0 -0.1711382723
C  C257  1  0.85360000  0.15520000  0.75660000  1.0 -0.1711382723
C  C258  1  0.14640000  0.90300000  0.30160000  1.0 -0.1755945476
C  C259  1  0.39860000  0.09700000  0.24340000  1.0 -0.1711382723
C  C260  1  0.60140000  0.84480000  0.69840000  1.0 -0.1711382723
C  C261  1  0.75660000  0.85360000  0.15520000  1.0 -0.1711382723
C  C262  1  0.30160000  0.14640000  0.90300000  1.0 -0.1711382723
C  C263  1  0.24340000  0.39860000  0.09700000  1.0 -0.1755945476
C  C264  1  0.69840000  0.60140000  0.84480000  1.0 -0.1711382723
C  C265  1  0.19720000  0.80060000  0.91260000  1.0 0.1010821428
C  C266  1  0.88800000  0.28460000  0.08740000  1.0 0.1010821428
C  C267  1  0.11200000  0.19940000  0.39660000  1.0 0.1010821428
C  C268  1  0.80280000  0.71540000  0.60340000  1.0 0.1010821428
C  C269  1  0.91260000  0.19720000  0.80060000  1.0 0.1010821428
C  C270  1  0.08740000  0.88800000  0.28460000  1.0 0.1010821428
C  C271  1  0.39660000  0.11200000  0.19940000  1.0 0.1010821428
C  C272  1  0.60340000  0.80280000  0.71540000  1.0 0.1010821428
C  C273  1  0.80060000  0.91260000  0.19720000  1.0 0.1010821428
C  C274  1  0.28460000  0.08740000  0.88800000  1.0 0.1010821428
C  C275  1  0.19940000  0.39660000  0.11200000  1.0 0.1010821428
C  C276  1  0.71540000  0.60340000  0.80280000  1.0 0.1010821428
C  C277  1  0.25860000  0.85770000  0.94250000  1.0 0.5608793172
C  C278  1  0.91520000  0.31610000  0.05750000  1.0 0.5608793172
C  C279  1  0.08480000  0.14230000  0.40090000  1.0 0.5608793172
C  C280  1  0.74140000  0.68390000  0.59910000  1.0 0.5608793172
C  C281  1  0.94250000  0.25860000  0.85770000  1.0 0.5608793172
C  C282  1  0.05750000  0.91520000  0.31610000  1.0 0.5608793172
C  C283  1  0.40090000  0.08480000  0.14230000  1.0 0.5608793172
C  C284  1  0.59910000  0.74140000  0.68390000  1.0 0.5608793172
C  C285  1  0.85770000  0.94250000  0.25860000  1.0 0.5608793172
C  C286  1  0.31610000  0.05750000  0.91520000  1.0 0.5608793172
C  C287  1  0.14230000  0.40090000  0.08480000  1.0 0.5608793172
C  C288  1  0.68390000  0.59910000  0.74140000  1.0 0.5608793172
O  O1  1  0.04190000  0.66220000  0.90730000  1.0 -0.4489186061
O  O2  1  0.75490000  0.13460000  0.09270000  1.0 -0.4489186061
O  O3  1  0.24510000  0.33780000  0.37970000  1.0 -0.4489186061
O  O4  1  0.95810000  0.86540000  0.62030000  1.0 -0.4489186061
O  O5  1  0.90730000  0.04190000  0.66220000  1.0 -0.4489186061
O  O6  1  0.09270000  0.75490000  0.13460000  1.0 -0.4489186061
O  O7  1  0.37970000  0.24510000  0.33780000  1.0 -0.4489186061
O  O8  1  0.62030000  0.95810000  0.86540000  1.0 -0.4489186061
O  O9  1  0.66220000  0.90730000  0.04190000  1.0 -0.4489186061
O  O10  1  0.13460000  0.09270000  0.75490000  1.0 -0.4489186061
O  O11  1  0.33780000  0.37970000  0.24510000  1.0 -0.4489186061
O  O12  1  0.86540000  0.62030000  0.95810000  1.0 -0.4489186061
O  O13  1  0.11250000  0.74320000  0.99490000  1.0 -0.4372915579
O  O14  1  0.74830000  0.11760000  0.00510000  1.0 -0.4372915579
O  O15  1  0.25170000  0.25680000  0.36930000  1.0 -0.4372915579
O  O16  1  0.88750000  0.88240000  0.63070000  1.0 -0.4372915579
O  O17  1  0.99490000  0.11250000  0.74320000  1.0 -0.4372915579
O  O18  1  0.00510000  0.74830000  0.11760000  1.0 -0.4372915579
O  O19  1  0.36930000  0.25170000  0.25680000  1.0 -0.4372915579
O  O20  1  0.63070000  0.88750000  0.88240000  1.0 -0.4372915579
O  O21  1  0.74320000  0.99490000  0.11250000  1.0 -0.4372915579
O  O22  1  0.11760000  0.00510000  0.74830000  1.0 -0.4372915579
O  O23  1  0.25680000  0.36930000  0.25170000  1.0 -0.4372915579
O  O24  1  0.88240000  0.63070000  0.88750000  1.0 -0.4372915579
O  O25  1  0.17503000  0.73656000  0.36627000  1.0 -0.490506877
O  O26  1  0.37029000  0.80876000  0.63373000  1.0 -0.490506877
O  O27  1  0.62971000  0.26344000  0.43847000  1.0 -0.490506877
O  O28  1  0.82497000  0.19124000  0.56153000  1.0 -0.490506877
O  O29  1  0.36627000  0.17503000  0.73656000  1.0 -0.490506877
O  O30  1  0.63373000  0.37029000  0.80876000  1.0 -0.490506877
O  O31  1  0.43847000  0.62971000  0.26344000  1.0 -0.490506877
O  O32  1  0.56153000  0.82497000  0.19124000  1.0 -0.490506877
O  O33  1  0.73656000  0.36627000  0.17503000  1.0 -0.490506877
O  O34  1  0.80876000  0.63373000  0.37029000  1.0 -0.490506877
O  O35  1  0.26344000  0.43847000  0.62971000  1.0 -0.490506877
O  O36  1  0.19124000  0.56153000  0.82497000  1.0 -0.490506877
O  O37  1  0.00000000  0.65958000  0.00000000  1.0 -0.8191219148
O  O38  1  0.65958000  0.00000000  0.00000000  1.0 -0.8191219148
O  O39  1  0.34042000  0.34042000  0.34042000  1.0 -0.8191219148
O  O40  1  0.00000000  0.00000000  0.65958000  1.0 -0.8191219148
O  O41  1  0.06794000  0.48566000  0.14702000  1.0 -0.4579196128
O  O42  1  0.33864000  0.92092000  0.85298000  1.0 -0.4579196128
O  O43  1  0.66136000  0.51434000  0.58228000  1.0 -0.4579196128
O  O44  1  0.93206000  0.07908000  0.41772000  1.0 -0.4579196128
O  O45  1  0.14702000  0.06794000  0.48566000  1.0 -0.4579196128
O  O46  1  0.85298000  0.33864000  0.92092000  1.0 -0.4579196128
O  O47  1  0.58228000  0.66136000  0.51434000  1.0 -0.4579196128
O  O48  1  0.41772000  0.93206000  0.07908000  1.0 -0.4579196128
O  O49  1  0.48566000  0.14702000  0.06794000  1.0 -0.4579196128
O  O50  1  0.92092000  0.85298000  0.33864000  1.0 -0.4579196128
O  O51  1  0.51434000  0.58228000  0.66136000  1.0 -0.4579196128
O  O52  1  0.07908000  0.41772000  0.93206000  1.0 -0.4579196128
O  O53  1  0.79752000  0.35811000  0.63743000  1.0 -0.468859946
O  O54  1  0.72068000  0.16009000  0.36257000  1.0 -0.468859946
O  O55  1  0.27932000  0.64189000  0.43941000  1.0 -0.468859946
O  O56  1  0.20248000  0.83991000  0.56059000  1.0 -0.468859946
O  O57  1  0.63743000  0.79752000  0.35811000  1.0 -0.468859946
O  O58  1  0.36257000  0.72068000  0.16009000  1.0 -0.468859946
O  O59  1  0.43941000  0.27932000  0.64189000  1.0 -0.468859946
O  O60  1  0.56059000  0.20248000  0.83991000  1.0 -0.468859946
O  O61  1  0.35811000  0.63743000  0.79752000  1.0 -0.468859946
O  O62  1  0.16009000  0.36257000  0.72068000  1.0 -0.468859946
O  O63  1  0.64189000  0.43941000  0.27932000  1.0 -0.468859946
O  O64  1  0.83991000  0.56059000  0.20248000  1.0 -0.468859946
O  O65  1  0.92852000  0.54856000  0.85106000  1.0 -0.490506877
O  O66  1  0.69750000  0.07746000  0.14894000  1.0 -0.490506877
O  O67  1  0.30250000  0.45144000  0.37996000  1.0 -0.490506877
O  O68  1  0.07148000  0.92254000  0.62004000  1.0 -0.490506877
O  O69  1  0.85106000  0.92852000  0.54856000  1.0 -0.490506877
O  O70  1  0.14894000  0.69750000  0.07746000  1.0 -0.490506877
O  O71  1  0.37996000  0.30250000  0.45144000  1.0 -0.490506877
O  O72  1  0.62004000  0.07148000  0.92254000  1.0 -0.490506877
O  O73  1  0.54856000  0.85106000  0.92852000  1.0 -0.490506877
O  O74  1  0.07746000  0.14894000  0.69750000  1.0 -0.490506877
O  O75  1  0.45144000  0.37996000  0.30250000  1.0 -0.490506877
O  O76  1  0.92254000  0.62004000  0.07148000  1.0 -0.490506877
O  O77  1  0.03675000  0.50646000  0.07397000  1.0 -0.5638319083
O  O78  1  0.43249000  0.96278000  0.92603000  1.0 -0.5638319083
O  O79  1  0.56751000  0.49354000  0.53029000  1.0 -0.5638319083
O  O80  1  0.96325000  0.03722000  0.46971000  1.0 -0.5638319083
O  O81  1  0.07397000  0.03675000  0.50646000  1.0 -0.5638319083
O  O82  1  0.92603000  0.43249000  0.96278000  1.0 -0.5638319083
O  O83  1  0.53029000  0.56751000  0.49354000  1.0 -0.5638319083
O  O84  1  0.46971000  0.96325000  0.03722000  1.0 -0.5638319083
O  O85  1  0.50646000  0.07397000  0.03675000  1.0 -0.5638319083
O  O86  1  0.96278000  0.92603000  0.43249000  1.0 -0.5638319083
O  O87  1  0.49354000  0.53029000  0.56751000  1.0 -0.5638319083
O  O88  1  0.03722000  0.46971000  0.96325000  1.0 -0.5638319083
O  O89  1  0.96407000  0.52969000  0.92452000  1.0 -0.5173805284
O  O90  1  0.60517000  0.03955000  0.07548000  1.0 -0.5173805284
O  O91  1  0.39483000  0.47031000  0.43438000  1.0 -0.5173805284
O  O92  1  0.03593000  0.96045000  0.56562000  1.0 -0.5173805284
O  O93  1  0.92452000  0.96407000  0.52969000  1.0 -0.5173805284
O  O94  1  0.07548000  0.60517000  0.03955000  1.0 -0.5173805284
O  O95  1  0.43438000  0.39483000  0.47031000  1.0 -0.5173805284
O  O96  1  0.56562000  0.03593000  0.96045000  1.0 -0.5173805284
O  O97  1  0.52969000  0.92452000  0.96407000  1.0 -0.5173805284
O  O98  1  0.03955000  0.07548000  0.60517000  1.0 -0.5173805284
O  O99  1  0.47031000  0.43438000  0.39483000  1.0 -0.5173805284
O  O100  1  0.96045000  0.56562000  0.03593000  1.0 -0.5173805284
O  O101  1  0.17894000  0.65183000  0.35591000  1.0 -0.4800925493
O  O102  1  0.29592000  0.82303000  0.64409000  1.0 -0.4800925493
O  O103  1  0.70408000  0.34817000  0.52711000  1.0 -0.4800925493
O  O104  1  0.82106000  0.17697000  0.47289000  1.0 -0.4800925493
O  O105  1  0.35591000  0.17894000  0.65183000  1.0 -0.4800925493
O  O106  1  0.64409000  0.29592000  0.82303000  1.0 -0.4800925493
O  O107  1  0.52711000  0.70408000  0.34817000  1.0 -0.4800925493
O  O108  1  0.47289000  0.82106000  0.17697000  1.0 -0.4800925493
O  O109  1  0.65183000  0.35591000  0.17894000  1.0 -0.4800925493
O  O110  1  0.82303000  0.64409000  0.29592000  1.0 -0.4800925493
O  O111  1  0.34817000  0.52711000  0.70408000  1.0 -0.4800925493
O  O112  1  0.17697000  0.47289000  0.82106000  1.0 -0.4800925493
O  O113  1  0.11425000  0.59703000  0.23498000  1.0 -0.0761125538
O  O114  1  0.36205000  0.87927000  0.76502000  1.0 -0.0761125538
O  O115  1  0.63795000  0.40297000  0.51722000  1.0 -0.0761125538
O  O116  1  0.88575000  0.12073000  0.48278000  1.0 -0.0761125538
O  O117  1  0.23498000  0.11425000  0.59703000  1.0 -0.0761125538
O  O118  1  0.76502000  0.36205000  0.87927000  1.0 -0.0761125538
O  O119  1  0.51722000  0.63795000  0.40297000  1.0 -0.0761125538
O  O120  1  0.48278000  0.88575000  0.12073000  1.0 -0.0761125538
O  O121  1  0.59703000  0.23498000  0.11425000  1.0 -0.0761125538
O  O122  1  0.87927000  0.76502000  0.36205000  1.0 -0.0761125538
O  O123  1  0.40297000  0.51722000  0.63795000  1.0 -0.0761125538
O  O124  1  0.12073000  0.48278000  0.88575000  1.0 -0.0761125538
O  O125  1  0.80179000  0.27855000  0.64226000  1.0 -0.4978580403
O  O126  1  0.63629000  0.15953000  0.35774000  1.0 -0.4978580403
O  O127  1  0.36371000  0.72145000  0.52324000  1.0 -0.4978580403
O  O128  1  0.19821000  0.84047000  0.47676000  1.0 -0.4978580403
O  O129  1  0.64226000  0.80179000  0.27855000  1.0 -0.4978580403
O  O130  1  0.35774000  0.63629000  0.15953000  1.0 -0.4978580403
O  O131  1  0.52324000  0.36371000  0.72145000  1.0 -0.4978580403
O  O132  1  0.47676000  0.19821000  0.84047000  1.0 -0.4978580403
O  O133  1  0.27855000  0.64226000  0.80179000  1.0 -0.4978580403
O  O134  1  0.15953000  0.35774000  0.63629000  1.0 -0.4978580403
O  O135  1  0.72145000  0.52324000  0.36371000  1.0 -0.4978580403
O  O136  1  0.84047000  0.47676000  0.19821000  1.0 -0.4978580403
O  O137  1  0.31057000  0.77265000  0.41168000  1.0 -0.402487837
O  O138  1  0.36097000  0.89889000  0.58832000  1.0 -0.402487837
O  O139  1  0.63903000  0.22735000  0.53792000  1.0 -0.402487837
O  O140  1  0.68943000  0.10111000  0.46208000  1.0 -0.402487837
O  O141  1  0.41168000  0.31057000  0.77265000  1.0 -0.402487837
O  O142  1  0.58832000  0.36097000  0.89889000  1.0 -0.402487837
O  O143  1  0.53792000  0.63903000  0.22735000  1.0 -0.402487837
O  O144  1  0.46208000  0.68943000  0.10111000  1.0 -0.402487837
O  O145  1  0.77265000  0.41168000  0.31057000  1.0 -0.402487837
O  O146  1  0.89889000  0.58832000  0.36097000  1.0 -0.402487837
O  O147  1  0.22735000  0.53792000  0.63903000  1.0 -0.402487837
O  O148  1  0.10111000  0.46208000  0.68943000  1.0 -0.402487837
O  O149  1  0.00000000  0.37710000  0.00000000  1.0 -0.8802979467
O  O150  1  0.37710000  0.00000000  0.00000000  1.0 -0.8802979467
O  O151  1  0.62290000  0.62290000  0.62290000  1.0 -0.8802979467
O  O152  1  0.00000000  0.00000000  0.37710000  1.0 -0.8802979467
O  O153  1  0.30176000  0.85459000  0.44845000  1.0 -0.5299479343
O  O154  1  0.40614000  0.85331000  0.55155000  1.0 -0.5299479343
O  O155  1  0.59386000  0.14541000  0.44717000  1.0 -0.5299479343
O  O156  1  0.69824000  0.14669000  0.55283000  1.0 -0.5299479343
O  O157  1  0.44845000  0.30176000  0.85459000  1.0 -0.5299479343
O  O158  1  0.55155000  0.40614000  0.85331000  1.0 -0.5299479343
O  O159  1  0.44717000  0.59386000  0.14541000  1.0 -0.5299479343
O  O160  1  0.55283000  0.69824000  0.14669000  1.0 -0.5299479343
O  O161  1  0.85459000  0.44845000  0.30176000  1.0 -0.5299479343
O  O162  1  0.85331000  0.55155000  0.40614000  1.0 -0.5299479343
O  O163  1  0.14541000  0.44717000  0.59386000  1.0 -0.5299479343
O  O164  1  0.14669000  0.55283000  0.69824000  1.0 -0.5299479343
O  O165  1  0.37611000  0.81728000  0.36687000  1.0 -0.0880020738
O  O166  1  0.45041000  0.00924000  0.63313000  1.0 -0.0880020738
O  O167  1  0.54959000  0.18272000  0.55883000  1.0 -0.0880020738
O  O168  1  0.62389000  0.99076000  0.44117000  1.0 -0.0880020738
O  O169  1  0.36687000  0.37611000  0.81728000  1.0 -0.0880020738
O  O170  1  0.63313000  0.45041000  0.00924000  1.0 -0.0880020738
O  O171  1  0.55883000  0.54959000  0.18272000  1.0 -0.0880020738
O  O172  1  0.44117000  0.62389000  0.99076000  1.0 -0.0880020738
O  O173  1  0.81728000  0.36687000  0.37611000  1.0 -0.0880020738
O  O174  1  0.00924000  0.63313000  0.45041000  1.0 -0.0880020738
O  O175  1  0.18272000  0.55883000  0.54959000  1.0 -0.0880020738
O  O176  1  0.99076000  0.44117000  0.62389000  1.0 -0.0880020738
O  O177  1  0.41107000  0.76158000  0.29573000  1.0 -0.4204072558
O  O178  1  0.46585000  0.11534000  0.70427000  1.0 -0.4204072558
O  O179  1  0.53415000  0.23842000  0.64949000  1.0 -0.4204072558
O  O180  1  0.58893000  0.88466000  0.35051000  1.0 -0.4204072558
O  O181  1  0.29573000  0.41107000  0.76158000  1.0 -0.4204072558
O  O182  1  0.70427000  0.46585000  0.11534000  1.0 -0.4204072558
O  O183  1  0.64949000  0.53415000  0.23842000  1.0 -0.4204072558
O  O184  1  0.35051000  0.58893000  0.88466000  1.0 -0.4204072558
O  O185  1  0.76158000  0.29573000  0.41107000  1.0 -0.4204072558
O  O186  1  0.11534000  0.70427000  0.46585000  1.0 -0.4204072558
O  O187  1  0.23842000  0.64949000  0.53415000  1.0 -0.4204072558
O  O188  1  0.88466000  0.35051000  0.58893000  1.0 -0.4204072558
O  O189  1  0.87185000  0.42958000  0.76409000  1.0 -0.0880020738
O  O190  1  0.66549000  0.10776000  0.23591000  1.0 -0.0880020738
O  O191  1  0.33451000  0.57042000  0.44227000  1.0 -0.0880020738
O  O192  1  0.12815000  0.89224000  0.55773000  1.0 -0.0880020738
O  O193  1  0.76409000  0.87185000  0.42958000  1.0 -0.0880020738
O  O194  1  0.23591000  0.66549000  0.10776000  1.0 -0.0880020738
O  O195  1  0.44227000  0.33451000  0.57042000  1.0 -0.0880020738
O  O196  1  0.55773000  0.12815000  0.89224000  1.0 -0.0880020738
O  O197  1  0.42958000  0.76409000  0.87185000  1.0 -0.0880020738
O  O198  1  0.10776000  0.23591000  0.66549000  1.0 -0.0880020738
O  O199  1  0.57042000  0.44227000  0.33451000  1.0 -0.0880020738
O  O200  1  0.89224000  0.55773000  0.12815000  1.0 -0.0880020738
O  O201  1  0.44927000  0.84207000  0.28426000  1.0 -0.5086755532
O  O202  1  0.55781000  0.16501000  0.71574000  1.0 -0.5086755532
O  O203  1  0.44219000  0.15793000  0.60720000  1.0 -0.5086755532
O  O204  1  0.55073000  0.83499000  0.39280000  1.0 -0.5086755532
O  O205  1  0.28426000  0.44927000  0.84207000  1.0 -0.5086755532
O  O206  1  0.71574000  0.55781000  0.16501000  1.0 -0.5086755532
O  O207  1  0.60720000  0.44219000  0.15793000  1.0 -0.5086755532
O  O208  1  0.39280000  0.55073000  0.83499000  1.0 -0.5086755532
O  O209  1  0.84207000  0.28426000  0.44927000  1.0 -0.5086755532
O  O210  1  0.16501000  0.71574000  0.55781000  1.0 -0.5086755532
O  O211  1  0.15793000  0.60720000  0.44219000  1.0 -0.5086755532
O  O212  1  0.83499000  0.39280000  0.55073000  1.0 -0.5086755532
O  O213  1  0.25657000  0.75657000  0.50000000  1.0 -0.9279610095
O  O214  1  0.74343000  0.24343000  0.50000000  1.0 -0.9279610095
O  O215  1  0.50000000  0.25657000  0.75657000  1.0 -0.9279610095
O  O216  1  0.50000000  0.74343000  0.24343000  1.0 -0.9279610095
O  O217  1  0.75657000  0.50000000  0.25657000  1.0 -0.9279610095
O  O218  1  0.24343000  0.50000000  0.74343000  1.0 -0.9279610095
O  O219  1  0.17630000  0.78700000  0.94810000  1.0 -0.0680522437
O  O220  1  0.83890000  0.22820000  0.05190000  1.0 -0.0680522437
O  O221  1  0.16110000  0.21300000  0.38930000  1.0 -0.0680522437
O  O222  1  0.82370000  0.77180000  0.61070000  1.0 -0.0680522437
O  O223  1  0.94810000  0.17630000  0.78700000  1.0 -0.0680522437
O  O224  1  0.05190000  0.83890000  0.22820000  1.0 -0.0680522437
O  O225  1  0.38930000  0.16110000  0.21300000  1.0 -0.0680522437
O  O226  1  0.61070000  0.82370000  0.77180000  1.0 -0.0680522437
O  O227  1  0.78700000  0.94810000  0.17630000  1.0 -0.0680522437
O  O228  1  0.22820000  0.05190000  0.83890000  1.0 -0.0680522437
O  O229  1  0.21300000  0.38930000  0.16110000  1.0 -0.0680522437
O  O230  1  0.77180000  0.61070000  0.82370000  1.0 -0.0680522437
O  O231  1  0.28430000  0.88690000  0.99700000  1.0 -0.4800925493
O  O232  1  0.88990000  0.28730000  0.00300000  1.0 -0.4800925493
O  O233  1  0.11010000  0.11310000  0.39740000  1.0 -0.4800925493
O  O234  1  0.71570000  0.71270000  0.60260000  1.0 -0.4800925493
O  O235  1  0.99700000  0.28430000  0.88690000  1.0 -0.4800925493
O  O236  1  0.00300000  0.88990000  0.28730000  1.0 -0.4800925493
O  O237  1  0.39740000  0.11010000  0.11310000  1.0 -0.4800925493
O  O238  1  0.60260000  0.71570000  0.71270000  1.0 -0.4800925493
O  O239  1  0.88690000  0.99700000  0.28430000  1.0 -0.4800925493
O  O240  1  0.28730000  0.00300000  0.88990000  1.0 -0.4800925493
O  O241  1  0.11310000  0.39740000  0.11010000  1.0 -0.4800925493
O  O242  1  0.71270000  0.60260000  0.71570000  1.0 -0.4800925493
O  O243  1  0.27150000  0.86540000  0.90570000  1.0 -0.490506877
O  O244  1  0.95970000  0.36580000  0.09430000  1.0 -0.490506877
O  O245  1  0.04030000  0.13460000  0.40610000  1.0 -0.490506877
O  O246  1  0.72850000  0.63420000  0.59390000  1.0 -0.490506877
O  O247  1  0.90570000  0.27150000  0.86540000  1.0 -0.490506877
O  O248  1  0.09430000  0.95970000  0.36580000  1.0 -0.490506877
O  O249  1  0.40610000  0.04030000  0.13460000  1.0 -0.490506877
O  O250  1  0.59390000  0.72850000  0.63420000  1.0 -0.490506877
O  O251  1  0.86540000  0.90570000  0.27150000  1.0 -0.490506877
O  O252  1  0.36580000  0.09430000  0.95970000  1.0 -0.490506877
O  O253  1  0.13460000  0.40610000  0.04030000  1.0 -0.490506877
O  O254  1  0.63420000  0.59390000  0.72850000  1.0 -0.490506877
O  O255  1  0.97990000  0.72510000  0.93240000  1.0 -0.3684111017
O  O256  1  0.79270000  0.04750000  0.06760000  1.0 -0.3638044871
O  O257  1  0.20730000  0.27490000  0.25480000  1.0 -0.3684111017
O  O258  1  0.02010000  0.95250000  0.74520000  1.0 -0.3684111017
O  O259  1  0.93240000  0.97990000  0.72510000  1.0 -0.3684111017
O  O260  1  0.06760000  0.79270000  0.04750000  1.0 -0.3684111017
O  O261  1  0.25480000  0.20730000  0.27490000  1.0 -0.3684111017
O  O262  1  0.74520000  0.02010000  0.95250000  1.0 -0.3684111017
O  O263  1  0.72510000  0.93240000  0.97990000  1.0 -0.3684111017
O  O264  1  0.04750000  0.06760000  0.79270000  1.0 -0.3684111017
O  O265  1  0.27490000  0.25480000  0.20730000  1.0 -0.3638044871
O  O266  1  0.95250000  0.74520000  0.02010000  1.0 -0.3638044871
