# DDEC6 charges by PACMAN v1.1 (https://github.com/mtap-research/PACMAN-charge/)
data_YELYOE_FSR_pacman
_symmetry_space_group_name_H-M   'P 1'
_cell_length_a   14.26800000
_cell_length_b   15.72100000
_cell_length_c   16.01700000
_cell_angle_alpha   90.00000000
_cell_angle_beta   90.00000000
_cell_angle_gamma   90.00000000
_symmetry_Int_Tables_number   1
_chemical_formula_structural   Cd5H4C20(N4O9)2
_chemical_formula_sum   'Cd20 H16 C80 N32 O72'
_cell_volume   3592.72887088
_cell_formula_units_Z   4
loop_
 _symmetry_equiv_pos_site_id
 _symmetry_equiv_pos_as_xyz
  1  'x, y, z'
loop_
 _atom_site_type_symbol
 _atom_site_label
 _atom_site_symmetry_multiplicity
 _atom_site_fract_x
 _atom_site_fract_y
 _atom_site_fract_z
 _atom_site_occupancy
 _atom_site_charge
Cd  Cd1  1  0.87482000  0.98069000  0.45636000  1.0 0.9353472406
Cd  Cd2  1  0.62518000  0.48069000  0.54364000  1.0 0.9353472406
Cd  Cd3  1  0.12518000  0.01931000  0.95636000  1.0 0.9353472406
Cd  Cd4  1  0.37482000  0.51931000  0.04364000  1.0 0.9353472406
Cd  Cd5  1  0.12518000  0.01931000  0.54364000  1.0 0.9353472406
Cd  Cd6  1  0.37482000  0.51931000  0.45636000  1.0 0.9353472406
Cd  Cd7  1  0.87482000  0.98069000  0.04364000  1.0 0.9353472406
Cd  Cd8  1  0.62518000  0.48069000  0.95636000  1.0 0.9353472406
Cd  Cd9  1  0.60584000  0.06515000  0.45913000  1.0 0.9504193404
Cd  Cd10  1  0.89416000  0.56515000  0.54087000  1.0 0.9504193404
Cd  Cd11  1  0.39416000  0.93485000  0.95913000  1.0 0.9504193404
Cd  Cd12  1  0.10584000  0.43485000  0.04087000  1.0 0.9504193404
Cd  Cd13  1  0.39416000  0.93485000  0.54087000  1.0 0.9504193404
Cd  Cd14  1  0.10584000  0.43485000  0.45913000  1.0 0.9504193404
Cd  Cd15  1  0.60584000  0.06515000  0.04087000  1.0 0.9504193404
Cd  Cd16  1  0.89416000  0.56515000  0.95913000  1.0 0.9504193404
Cd  Cd17  1  0.26358000  0.96315000  0.25000000  1.0 1.1403315776
Cd  Cd18  1  0.23642000  0.46315000  0.75000000  1.0 1.1403315776
Cd  Cd19  1  0.73642000  0.03685000  0.75000000  1.0 1.1474647039
Cd  Cd20  1  0.76358000  0.53685000  0.25000000  1.0 1.1403315776
H  H1  1  0.97310000  0.77700000  0.48370000  1.0 0.1178867632
H  H2  1  0.52690000  0.27700000  0.51630000  1.0 0.1178867632
H  H3  1  0.02690000  0.22300000  0.98370000  1.0 0.1178867632
H  H4  1  0.47310000  0.72300000  0.01630000  1.0 0.1178867632
H  H5  1  0.02690000  0.22300000  0.51630000  1.0 0.1178867632
H  H6  1  0.47310000  0.72300000  0.48370000  1.0 0.1178867632
H  H7  1  0.97310000  0.77700000  0.01630000  1.0 0.1178867632
H  H8  1  0.52690000  0.27700000  0.98370000  1.0 0.1178867632
H  H9  1  0.67560000  0.11450000  0.25000000  1.0 0.1098984854
H  H10  1  0.82440000  0.61450000  0.75000000  1.0 0.1098984854
H  H11  1  0.32440000  0.88550000  0.75000000  1.0 0.1098984854
H  H12  1  0.17560000  0.38550000  0.25000000  1.0 0.1098984854
H  H13  1  0.79480000  0.98120000  0.25000000  1.0 0.1098984854
H  H14  1  0.70520000  0.48120000  0.75000000  1.0 0.1098984854
H  H15  1  0.20520000  0.01880000  0.75000000  1.0 0.1098984854
H  H16  1  0.29480000  0.51880000  0.25000000  1.0 0.1098984854
C  C1  1  0.90950000  0.77580000  0.49610000  1.0 0.2094180027
C  C2  1  0.59050000  0.27580000  0.50390000  1.0 0.2094180027
C  C3  1  0.09050000  0.22420000  0.99610000  1.0 0.2094180027
C  C4  1  0.40950000  0.72420000  0.00390000  1.0 0.2094180027
C  C5  1  0.09050000  0.22420000  0.50390000  1.0 0.2094180027
C  C6  1  0.40950000  0.72420000  0.49610000  1.0 0.2094180027
C  C7  1  0.90950000  0.77580000  0.00390000  1.0 0.2094180027
C  C8  1  0.59050000  0.27580000  0.99610000  1.0 0.2094180027
C  C9  1  0.76750000  0.81640000  0.51480000  1.0 0.0088696253
C  C10  1  0.73250000  0.31640000  0.48520000  1.0 0.0088696253
C  C11  1  0.23250000  0.18360000  0.01480000  1.0 0.0088696253
C  C12  1  0.26750000  0.68360000  0.98520000  1.0 0.0088696253
C  C13  1  0.23250000  0.18360000  0.48520000  1.0 0.0088696253
C  C14  1  0.26750000  0.68360000  0.51480000  1.0 0.0088696253
C  C15  1  0.76750000  0.81640000  0.98520000  1.0 0.0088696253
C  C16  1  0.73250000  0.31640000  0.01480000  1.0 0.0088696253
C  C17  1  0.77360000  0.73050000  0.53380000  1.0 0.0088696253
C  C18  1  0.72640000  0.23050000  0.46620000  1.0 0.0088696253
C  C19  1  0.22640000  0.26950000  0.03380000  1.0 0.0088696253
C  C20  1  0.27360000  0.76950000  0.96620000  1.0 0.0088696253
C  C21  1  0.22640000  0.26950000  0.46620000  1.0 0.0088696253
C  C22  1  0.27360000  0.76950000  0.53380000  1.0 0.0088696253
C  C23  1  0.77360000  0.73050000  0.96620000  1.0 0.0088696253
C  C24  1  0.72640000  0.23050000  0.03380000  1.0 0.0088696253
C  C25  1  0.68780000  0.87560000  0.51550000  1.0 0.5694234456
C  C26  1  0.81220000  0.37560000  0.48450000  1.0 0.5694234456
C  C27  1  0.31220000  0.12440000  0.01550000  1.0 0.5694234456
C  C28  1  0.18780000  0.62440000  0.98450000  1.0 0.5694234456
C  C29  1  0.31220000  0.12440000  0.48450000  1.0 0.5694234456
C  C30  1  0.18780000  0.62440000  0.51550000  1.0 0.5694234456
C  C31  1  0.68780000  0.87560000  0.98450000  1.0 0.5694234456
C  C32  1  0.81220000  0.37560000  0.01550000  1.0 0.5694234456
C  C33  1  0.70130000  0.66800000  0.55750000  1.0 0.551831212
C  C34  1  0.79870000  0.16800000  0.44250000  1.0 0.551831212
C  C35  1  0.29870000  0.33200000  0.05750000  1.0 0.551831212
C  C36  1  0.20130000  0.83200000  0.94250000  1.0 0.551831212
C  C37  1  0.29870000  0.33200000  0.44250000  1.0 0.551831212
C  C38  1  0.20130000  0.83200000  0.55750000  1.0 0.551831212
C  C39  1  0.70130000  0.66800000  0.94250000  1.0 0.551831212
C  C40  1  0.79870000  0.16800000  0.05750000  1.0 0.551831212
C  C41  1  0.62310000  0.07940000  0.25000000  1.0 0.1845361406
C  C42  1  0.87690000  0.57940000  0.75000000  1.0 0.1854413961
C  C43  1  0.37690000  0.92060000  0.75000000  1.0 0.1854413961
C  C44  1  0.12310000  0.42060000  0.25000000  1.0 0.1854413961
C  C45  1  0.50830000  0.00380000  0.29350000  1.0 0.0088696253
C  C46  1  0.99170000  0.50380000  0.70650000  1.0 0.0088696253
C  C47  1  0.49170000  0.99620000  0.79350000  1.0 0.0088696253
C  C48  1  0.00830000  0.49620000  0.20650000  1.0 0.0088696253
C  C49  1  0.49170000  0.99620000  0.70650000  1.0 0.0088696253
C  C50  1  0.00830000  0.49620000  0.29350000  1.0 0.0088696253
C  C51  1  0.50830000  0.00380000  0.20650000  1.0 0.0088696253
C  C52  1  0.99170000  0.50380000  0.79350000  1.0 0.0088696253
C  C53  1  0.44860000  0.96100000  0.35750000  1.0 0.5694234456
C  C54  1  0.05140000  0.46100000  0.64250000  1.0 0.5750789756
C  C55  1  0.55140000  0.03900000  0.85750000  1.0 0.5694234456
C  C56  1  0.94860000  0.53900000  0.14250000  1.0 0.5750789756
C  C57  1  0.55140000  0.03900000  0.64250000  1.0 0.5694234456
C  C58  1  0.94860000  0.53900000  0.35750000  1.0 0.5750789756
C  C59  1  0.44860000  0.96100000  0.14250000  1.0 0.5694234456
C  C60  1  0.05140000  0.46100000  0.85750000  1.0 0.5694234456
C  C61  1  0.00060000  0.97830000  0.29370000  1.0 0.0023390993
C  C62  1  0.49940000  0.47830000  0.70630000  1.0 0.0023390993
C  C63  1  0.99940000  0.02170000  0.79370000  1.0 0.0023390993
C  C64  1  0.50060000  0.52170000  0.20630000  1.0 0.0023390993
C  C65  1  0.99940000  0.02170000  0.70630000  1.0 0.0023390993
C  C66  1  0.50060000  0.52170000  0.29370000  1.0 0.0023390993
C  C67  1  0.00060000  0.97830000  0.20630000  1.0 0.0023390993
C  C68  1  0.49940000  0.47830000  0.79370000  1.0 0.0023390993
C  C69  1  0.86000000  0.97950000  0.25000000  1.0 0.1975690762
C  C70  1  0.64000000  0.47950000  0.75000000  1.0 0.1975690762
C  C71  1  0.14000000  0.02050000  0.75000000  1.0 0.1975690762
C  C72  1  0.36000000  0.52050000  0.25000000  1.0 0.1975690762
C  C73  1  0.07470000  0.97920000  0.35930000  1.0 0.5694234456
C  C74  1  0.42530000  0.47920000  0.64070000  1.0 0.5694234456
C  C75  1  0.92530000  0.02080000  0.85930000  1.0 0.5694234456
C  C76  1  0.57470000  0.52080000  0.14070000  1.0 0.5694234456
C  C77  1  0.92530000  0.02080000  0.64070000  1.0 0.5694234456
C  C78  1  0.57470000  0.52080000  0.35930000  1.0 0.5694234456
C  C79  1  0.07470000  0.97920000  0.14070000  1.0 0.5694234456
C  C80  1  0.42530000  0.47920000  0.85930000  1.0 0.5694234456
N  N1  1  0.86390000  0.70510000  0.52070000  1.0 -0.3496983918
N  N2  1  0.63610000  0.20510000  0.47930000  1.0 -0.3496983918
N  N3  1  0.13610000  0.29490000  0.02070000  1.0 -0.3496983918
N  N4  1  0.36390000  0.79490000  0.97930000  1.0 -0.3496983918
N  N5  1  0.13610000  0.29490000  0.47930000  1.0 -0.3496983918
N  N6  1  0.36390000  0.79490000  0.52070000  1.0 -0.3496983918
N  N7  1  0.86390000  0.70510000  0.97930000  1.0 -0.3496983918
N  N8  1  0.63610000  0.20510000  0.02070000  1.0 -0.3496983918
N  N9  1  0.85430000  0.84420000  0.49150000  1.0 -0.3496983918
N  N10  1  0.64570000  0.34420000  0.50850000  1.0 -0.3496983918
N  N11  1  0.14570000  0.15580000  0.99150000  1.0 -0.3496983918
N  N12  1  0.35430000  0.65580000  0.00850000  1.0 -0.3553415274
N  N13  1  0.14570000  0.15580000  0.50850000  1.0 -0.3496983918
N  N14  1  0.35430000  0.65580000  0.49150000  1.0 -0.3496983918
N  N15  1  0.85430000  0.84420000  0.00850000  1.0 -0.3496983918
N  N16  1  0.64570000  0.34420000  0.99150000  1.0 -0.3553415274
N  N17  1  0.90960000  0.97820000  0.31960000  1.0 -0.3281936979
N  N18  1  0.59040000  0.47820000  0.68040000  1.0 -0.3281936979
N  N19  1  0.09040000  0.02180000  0.81960000  1.0 -0.3281936979
N  N20  1  0.40960000  0.52180000  0.18040000  1.0 -0.3281936979
N  N21  1  0.09040000  0.02180000  0.68040000  1.0 -0.3281936979
N  N22  1  0.40960000  0.52180000  0.31960000  1.0 -0.3281936979
N  N23  1  0.90960000  0.97820000  0.18040000  1.0 -0.3281936979
N  N24  1  0.59040000  0.47820000  0.81960000  1.0 -0.3281936979
N  N25  1  0.58240000  0.05220000  0.32020000  1.0 -0.3410698025
N  N26  1  0.91760000  0.55220000  0.67980000  1.0 -0.3410698025
N  N27  1  0.41760000  0.94780000  0.82020000  1.0 -0.3410698025
N  N28  1  0.08240000  0.44780000  0.17980000  1.0 -0.3410698025
N  N29  1  0.41760000  0.94780000  0.67980000  1.0 -0.3410698025
N  N30  1  0.08240000  0.44780000  0.32020000  1.0 -0.3410698025
N  N31  1  0.58240000  0.05220000  0.17980000  1.0 -0.3410698025
N  N32  1  0.91760000  0.55220000  0.82020000  1.0 -0.3410698025
O  O1  1  0.72550000  0.59290000  0.56320000  1.0 -0.5281672588
O  O2  1  0.77450000  0.09290000  0.43680000  1.0 -0.5281672588
O  O3  1  0.27450000  0.40710000  0.06320000  1.0 -0.5281672588
O  O4  1  0.22550000  0.90710000  0.93680000  1.0 -0.5281672588
O  O5  1  0.27450000  0.40710000  0.43680000  1.0 -0.5281672588
O  O6  1  0.22550000  0.90710000  0.56320000  1.0 -0.5281672588
O  O7  1  0.72550000  0.59290000  0.93680000  1.0 -0.5281672588
O  O8  1  0.77450000  0.09290000  0.06320000  1.0 -0.5281672588
O  O9  1  0.61840000  0.69430000  0.56910000  1.0 -0.4386561665
O  O10  1  0.88160000  0.19430000  0.43090000  1.0 -0.4386561665
O  O11  1  0.38160000  0.30570000  0.06910000  1.0 -0.4386561665
O  O12  1  0.11840000  0.80570000  0.93090000  1.0 -0.4386561665
O  O13  1  0.38160000  0.30570000  0.43090000  1.0 -0.4386561665
O  O14  1  0.11840000  0.80570000  0.56910000  1.0 -0.4386561665
O  O15  1  0.61840000  0.69430000  0.93090000  1.0 -0.4386561665
O  O16  1  0.88160000  0.19430000  0.06910000  1.0 -0.4386561665
O  O17  1  0.60790000  0.84930000  0.54360000  1.0 -0.4466947289
O  O18  1  0.89210000  0.34930000  0.45640000  1.0 -0.4466947289
O  O19  1  0.39210000  0.15070000  0.04360000  1.0 -0.4386561665
O  O20  1  0.10790000  0.65070000  0.95640000  1.0 -0.4466947289
O  O21  1  0.39210000  0.15070000  0.45640000  1.0 -0.4466947289
O  O22  1  0.10790000  0.65070000  0.54360000  1.0 -0.4466947289
O  O23  1  0.60790000  0.84930000  0.95640000  1.0 -0.4466947289
O  O24  1  0.89210000  0.34930000  0.04360000  1.0 -0.4466947289
O  O25  1  0.70130000  0.94810000  0.48870000  1.0 -0.5281672588
O  O26  1  0.79870000  0.44810000  0.51130000  1.0 -0.5281672588
O  O27  1  0.29870000  0.05190000  0.98870000  1.0 -0.5281672588
O  O28  1  0.20130000  0.55190000  0.01130000  1.0 -0.5281672588
O  O29  1  0.29870000  0.05190000  0.51130000  1.0 -0.5281672588
O  O30  1  0.20130000  0.55190000  0.48870000  1.0 -0.5281672588
O  O31  1  0.70130000  0.94810000  0.01130000  1.0 -0.5281672588
O  O32  1  0.79870000  0.44810000  0.98870000  1.0 -0.5281672588
O  O33  1  0.15800000  0.99140000  0.34440000  1.0 -0.5281672588
O  O34  1  0.34200000  0.49140000  0.65560000  1.0 -0.5281672588
O  O35  1  0.84200000  0.00860000  0.84440000  1.0 -0.5281672588
O  O36  1  0.65800000  0.50860000  0.15560000  1.0 -0.5281672588
O  O37  1  0.84200000  0.00860000  0.65560000  1.0 -0.5281672588
O  O38  1  0.65800000  0.50860000  0.34440000  1.0 -0.5281672588
O  O39  1  0.15800000  0.99140000  0.15560000  1.0 -0.5281672588
O  O40  1  0.34200000  0.49140000  0.84440000  1.0 -0.5281672588
O  O41  1  0.04470000  0.97080000  0.43290000  1.0 -0.5142918116
O  O42  1  0.45530000  0.47080000  0.56710000  1.0 -0.5142918116
O  O43  1  0.95530000  0.02920000  0.93290000  1.0 -0.5142918116
O  O44  1  0.54470000  0.52920000  0.06710000  1.0 -0.5142918116
O  O45  1  0.95530000  0.02920000  0.56710000  1.0 -0.5142918116
O  O46  1  0.54470000  0.52920000  0.43290000  1.0 -0.5142918116
O  O47  1  0.04470000  0.97080000  0.06710000  1.0 -0.5142918116
O  O48  1  0.45530000  0.47080000  0.93290000  1.0 -0.5142918116
O  O49  1  0.48440000  0.96000000  0.42910000  1.0 -0.4910141377
O  O50  1  0.01560000  0.46000000  0.57090000  1.0 -0.4910141377
O  O51  1  0.51560000  0.04000000  0.92910000  1.0 -0.4910141377
O  O52  1  0.98440000  0.54000000  0.07090000  1.0 -0.4910141377
O  O53  1  0.51560000  0.04000000  0.57090000  1.0 -0.4910141377
O  O54  1  0.98440000  0.54000000  0.42910000  1.0 -0.4910141377
O  O55  1  0.48440000  0.96000000  0.07090000  1.0 -0.4910141377
O  O56  1  0.01560000  0.46000000  0.92910000  1.0 -0.4910141377
O  O57  1  0.37130000  0.93000000  0.34270000  1.0 -0.5365066117
O  O58  1  0.12870000  0.43000000  0.65730000  1.0 -0.5365066117
O  O59  1  0.62870000  0.07000000  0.84270000  1.0 -0.5365066117
O  O60  1  0.87130000  0.57000000  0.15730000  1.0 -0.5365066117
O  O61  1  0.62870000  0.07000000  0.65730000  1.0 -0.5365066117
O  O62  1  0.87130000  0.57000000  0.34270000  1.0 -0.5365066117
O  O63  1  0.37130000  0.93000000  0.15730000  1.0 -0.5365066117
O  O64  1  0.12870000  0.43000000  0.84270000  1.0 -0.5365066117
O  O65  1  0.31380000  0.10370000  0.25000000  1.0 -0.0169664545
O  O66  1  0.18620000  0.60370000  0.75000000  1.0 -0.0169664545
O  O67  1  0.68620000  0.89630000  0.75000000  1.0 -0.0169664545
O  O68  1  0.81380000  0.39630000  0.25000000  1.0 -0.0169664545
O  O69  1  0.19900000  0.80200000  0.25000000  1.0 0.0269391007
O  O70  1  0.30100000  0.30200000  0.75000000  1.0 0.0269391007
O  O71  1  0.80100000  0.19800000  0.75000000  1.0 0.023560974
O  O72  1  0.69900000  0.69800000  0.25000000  1.0 0.023560974
