# DDEC6 charges by PACMAN v1.1 (https://github.com/mtap-research/PACMAN-charge/)
data_YEMFOM_ASR_pacman
_symmetry_space_group_name_H-M   'P 1'
_cell_length_a   8.58320000
_cell_length_b   8.58320000
_cell_length_c   52.61000000
_cell_angle_alpha   90.00000000
_cell_angle_beta   90.00000000
_cell_angle_gamma   120.00000000
_symmetry_Int_Tables_number   1
_chemical_formula_structural   Zn9P12H11O48
_chemical_formula_sum   'Zn18 P24 H22 O96'
_cell_volume   3356.58305701
_cell_formula_units_Z   2
loop_
 _symmetry_equiv_pos_site_id
 _symmetry_equiv_pos_as_xyz
  1  'x, y, z'
loop_
 _atom_site_type_symbol
 _atom_site_label
 _atom_site_symmetry_multiplicity
 _atom_site_fract_x
 _atom_site_fract_y
 _atom_site_fract_z
 _atom_site_occupancy
 _atom_site_charge
Zn  Zn1  1  0.72969000  0.00000000  0.00000000  1.0 1.109763456
Zn  Zn2  1  0.00000000  0.72969000  0.66666667  1.0 1.109763456
Zn  Zn3  1  0.27031000  0.27031000  0.33333333  1.0 1.109763456
Zn  Zn4  1  0.27031000  0.00000000  0.50000000  1.0 1.109763456
Zn  Zn5  1  0.00000000  0.27031000  0.16667000  1.0 1.109763456
Zn  Zn6  1  0.72969000  0.72969000  0.83333000  1.0 1.109763456
Zn  Zn7  1  0.96943000  0.70358000  0.00999000  1.0 1.109763456
Zn  Zn8  1  0.29642000  0.26585000  0.67666000  1.0 1.1200730746
Zn  Zn9  1  0.73415000  0.03057000  0.34332000  1.0 1.1300790521
Zn  Zn10  1  0.03057000  0.29642000  0.50999000  1.0 1.1200730746
Zn  Zn11  1  0.70358000  0.73415000  0.17666000  1.0 1.1200730746
Zn  Zn12  1  0.26585000  0.96943000  0.84332000  1.0 1.1200730746
Zn  Zn13  1  0.70358000  0.96943000  0.65668000  1.0 1.1200730746
Zn  Zn14  1  0.26585000  0.29642000  0.99001000  1.0 1.1200730746
Zn  Zn15  1  0.03057000  0.73415000  0.32334000  1.0 1.1300790521
Zn  Zn16  1  0.29642000  0.03057000  0.15668000  1.0 1.1200730746
Zn  Zn17  1  0.73415000  0.70358000  0.49001000  1.0 1.1200730746
Zn  Zn18  1  0.96943000  0.26585000  0.82334000  1.0 1.1200730746
P  P1  1  0.98500000  0.94560000  0.96105000  1.0 1.4877624921
P  P2  1  0.05440000  0.03940000  0.62772000  1.0 1.4877624921
P  P3  1  0.96060000  0.01500000  0.29438000  1.0 1.4705442401
P  P4  1  0.01500000  0.05440000  0.46105000  1.0 1.4782749148
P  P5  1  0.94560000  0.96060000  0.12772000  1.0 1.4782749148
P  P6  1  0.03940000  0.98500000  0.79438000  1.0 1.4877624921
P  P7  1  0.94560000  0.98500000  0.70562000  1.0 1.4877624921
P  P8  1  0.03940000  0.05440000  0.03895000  1.0 1.4877624921
P  P9  1  0.01500000  0.96060000  0.37228000  1.0 1.4782749148
P  P10  1  0.05440000  0.01500000  0.20562000  1.0 1.4782749148
P  P11  1  0.96060000  0.94560000  0.53895000  1.0 1.4782749148
P  P12  1  0.98500000  0.03940000  0.87228000  1.0 1.4877624921
P  P13  1  0.63180000  0.30450000  0.00363000  1.0 1.5304259814
P  P14  1  0.69550000  0.32730000  0.67030000  1.0 1.5304259814
P  P15  1  0.67270000  0.36820000  0.33696000  1.0 1.5304259814
P  P16  1  0.36820000  0.69550000  0.50363000  1.0 1.5304259814
P  P17  1  0.30450000  0.67270000  0.17030000  1.0 1.5304259814
P  P18  1  0.32730000  0.63180000  0.83696000  1.0 1.5304259814
P  P19  1  0.30450000  0.63180000  0.66304000  1.0 1.5304259814
P  P20  1  0.32730000  0.69550000  0.99637000  1.0 1.5304259814
P  P21  1  0.36820000  0.67270000  0.32970000  1.0 1.5304259814
P  P22  1  0.69550000  0.36820000  0.16304000  1.0 1.5246255608
P  P23  1  0.67270000  0.30450000  0.49637000  1.0 1.5304259814
P  P24  1  0.63180000  0.32730000  0.82970000  1.0 1.5304259814
H  H1  1  0.96900000  0.98400000  0.91670000  1.0 0.5259250911
H  H2  1  0.01600000  0.98500000  0.58337000  1.0 0.5259250911
H  H3  1  0.01500000  0.03100000  0.25003000  1.0 0.4994518074
H  H4  1  0.03100000  0.01600000  0.41670000  1.0 0.4994518074
H  H5  1  0.98400000  0.01500000  0.08337000  1.0 0.5228723498
H  H6  1  0.98500000  0.96900000  0.75003000  1.0 0.5228723498
H  H7  1  0.98400000  0.96900000  0.74997000  1.0 0.5228723498
H  H8  1  0.98500000  0.01600000  0.08330000  1.0 0.5228723498
H  H9  1  0.01500000  0.98400000  0.58330000  1.0 0.5259250911
H  H10  1  0.96900000  0.98500000  0.91663000  1.0 0.5259250911
H  H11  1  0.39600000  0.15500000  0.02370000  1.0 0.4238264109
H  H12  1  0.84500000  0.24100000  0.69037000  1.0 0.4238264109
H  H13  1  0.75900000  0.60400000  0.35703000  1.0 0.4254674228
H  H14  1  0.60400000  0.84500000  0.52370000  1.0 0.4238264109
H  H15  1  0.15500000  0.75900000  0.19037000  1.0 0.4254674228
H  H16  1  0.24100000  0.39600000  0.85703000  1.0 0.4238264109
H  H17  1  0.15500000  0.39600000  0.64297000  1.0 0.4238264109
H  H18  1  0.24100000  0.84500000  0.97630000  1.0 0.4238264109
H  H19  1  0.60400000  0.75900000  0.30963000  1.0 0.4254674228
H  H20  1  0.84500000  0.60400000  0.14297000  1.0 0.4238264109
H  H21  1  0.75900000  0.15500000  0.47630000  1.0 0.4238264109
H  H22  1  0.39600000  0.24100000  0.80963000  1.0 0.4238264109
O  O1  1  0.96420000  0.87980000  0.93314000  1.0 -0.6405675871
O  O2  1  0.12020000  0.08440000  0.59981000  1.0 -0.6405675871
O  O3  1  0.91560000  0.03580000  0.26647000  1.0 -0.6039945273
O  O4  1  0.03580000  0.12020000  0.43314000  1.0 -0.6056631593
O  O5  1  0.87980000  0.91560000  0.09981000  1.0 -0.6405675871
O  O6  1  0.08440000  0.96420000  0.76647000  1.0 -0.6405675871
O  O7  1  0.87980000  0.96420000  0.73353000  1.0 -0.6405675871
O  O8  1  0.08440000  0.12020000  0.06686000  1.0 -0.6405675871
O  O9  1  0.03580000  0.91560000  0.40019000  1.0 -0.6056631593
O  O10  1  0.12020000  0.03580000  0.23353000  1.0 -0.6056631593
O  O11  1  0.91560000  0.87980000  0.56686000  1.0 -0.6405675871
O  O12  1  0.96420000  0.08440000  0.90019000  1.0 -0.6405675871
O  O13  1  0.81630000  0.94040000  0.96952000  1.0 -0.7185970308
O  O14  1  0.05960000  0.87590000  0.63619000  1.0 -0.7185970308
O  O15  1  0.12410000  0.18370000  0.30285000  1.0 -0.7296137727
O  O16  1  0.18370000  0.05960000  0.46952000  1.0 -0.7296137727
O  O17  1  0.94040000  0.12410000  0.13619000  1.0 -0.7185970308
O  O18  1  0.87590000  0.81630000  0.80285000  1.0 -0.7185970308
O  O19  1  0.94040000  0.81630000  0.69715000  1.0 -0.7185970308
O  O20  1  0.87590000  0.05960000  0.03048000  1.0 -0.7185970308
O  O21  1  0.18370000  0.12410000  0.36381000  1.0 -0.7296137727
O  O22  1  0.05960000  0.18370000  0.19715000  1.0 -0.7296137727
O  O23  1  0.12410000  0.94040000  0.53048000  1.0 -0.7185970308
O  O24  1  0.81630000  0.87590000  0.86381000  1.0 -0.7185970308
O  O25  1  0.76460000  0.47470000  0.01719000  1.0 -0.7109851655
O  O26  1  0.52530000  0.28990000  0.68386000  1.0 -0.7109851655
O  O27  1  0.71010000  0.23540000  0.35052000  1.0 -0.7109851655
O  O28  1  0.23540000  0.52530000  0.51719000  1.0 -0.7109851655
O  O29  1  0.47470000  0.71010000  0.18386000  1.0 -0.7109851655
O  O30  1  0.28990000  0.76460000  0.85052000  1.0 -0.7109851655
O  O31  1  0.47470000  0.76460000  0.64948000  1.0 -0.7109851655
O  O32  1  0.28990000  0.52530000  0.98281000  1.0 -0.7109851655
O  O33  1  0.23540000  0.71010000  0.31614000  1.0 -0.7109851655
O  O34  1  0.52530000  0.23540000  0.14948000  1.0 -0.7109851655
O  O35  1  0.71010000  0.47470000  0.48281000  1.0 -0.7109851655
O  O36  1  0.76460000  0.28990000  0.81614000  1.0 -0.7109851655
O  O37  1  0.50750000  0.16710000  0.02531000  1.0 -0.580296406
O  O38  1  0.83290000  0.34040000  0.69198000  1.0 -0.580296406
O  O39  1  0.65960000  0.49250000  0.35864000  1.0 -0.5729344277
O  O40  1  0.49250000  0.83290000  0.52531000  1.0 -0.580296406
O  O41  1  0.16710000  0.65960000  0.19198000  1.0 -0.5729344277
O  O42  1  0.34040000  0.50750000  0.85864000  1.0 -0.580296406
O  O43  1  0.16710000  0.50750000  0.64136000  1.0 -0.580296406
O  O44  1  0.34040000  0.83290000  0.97469000  1.0 -0.580296406
O  O45  1  0.49250000  0.65960000  0.30802000  1.0 -0.5729344277
O  O46  1  0.83290000  0.49250000  0.14136000  1.0 -0.580296406
O  O47  1  0.65960000  0.16710000  0.47469000  1.0 -0.5729344277
O  O48  1  0.50750000  0.34040000  0.80802000  1.0 -0.580296406
O  O49  1  0.51080000  0.33470000  0.98548000  1.0 -0.7185970308
O  O50  1  0.66530000  0.17610000  0.65215000  1.0 -0.7109851655
O  O51  1  0.82390000  0.48920000  0.31881000  1.0 -0.7109851655
O  O52  1  0.48920000  0.66530000  0.48548000  1.0 -0.7185970308
O  O53  1  0.33470000  0.82390000  0.15215000  1.0 -0.7109851655
O  O54  1  0.17610000  0.51080000  0.81881000  1.0 -0.7185970308
O  O55  1  0.33470000  0.51080000  0.68119000  1.0 -0.7109851655
O  O56  1  0.17610000  0.66530000  0.01452000  1.0 -0.7109851655
O  O57  1  0.48920000  0.82390000  0.34785000  1.0 -0.7109851655
O  O58  1  0.66530000  0.48920000  0.18119000  1.0 -0.7185970308
O  O59  1  0.82390000  0.33470000  0.51452000  1.0 -0.7109851655
O  O60  1  0.51080000  0.17610000  0.84785000  1.0 -0.7109851655
O  O61  1  0.72330000  0.21730000  0.98964000  1.0 -0.7185970308
O  O62  1  0.78270000  0.50600000  0.65631000  1.0 -0.7185970308
O  O63  1  0.49400000  0.27670000  0.32297000  1.0 -0.7185970308
O  O64  1  0.27670000  0.78270000  0.48964000  1.0 -0.7185970308
O  O65  1  0.21730000  0.49400000  0.15631000  1.0 -0.7109851655
O  O66  1  0.50600000  0.72330000  0.82297000  1.0 -0.7185970308
O  O67  1  0.21730000  0.72330000  0.67703000  1.0 -0.7185970308
O  O68  1  0.50600000  0.78270000  0.01036000  1.0 -0.7185970308
O  O69  1  0.27670000  0.49400000  0.34369000  1.0 -0.7185970308
O  O70  1  0.78270000  0.27670000  0.17703000  1.0 -0.7185970308
O  O71  1  0.49400000  0.21730000  0.51036000  1.0 -0.7185970308
O  O72  1  0.72330000  0.50600000  0.84369000  1.0 -0.7185970308
O  O73  1  0.14900000  0.13620000  0.96213000  1.0 -0.7296137727
O  O74  1  0.86380000  0.01280000  0.62880000  1.0 -0.7296137727
O  O75  1  0.98720000  0.85100000  0.29546000  1.0 -0.737211266
O  O76  1  0.85100000  0.86380000  0.46213000  1.0 -0.737211266
O  O77  1  0.13620000  0.98720000  0.12880000  1.0 -0.7296137727
O  O78  1  0.01280000  0.14900000  0.79546000  1.0 -0.7296137727
O  O79  1  0.13620000  0.14900000  0.70454000  1.0 -0.7296137727
O  O80  1  0.01280000  0.86380000  0.03787000  1.0 -0.7296137727
O  O81  1  0.85100000  0.98720000  0.37120000  1.0 -0.737211266
O  O82  1  0.86380000  0.85100000  0.20454000  1.0 -0.737211266
O  O83  1  0.98720000  0.13620000  0.53787000  1.0 -0.7296137727
O  O84  1  0.14900000  0.01280000  0.87120000  1.0 -0.7296137727
O  O85  1  0.01800000  0.81400000  0.97651000  1.0 -0.737211266
O  O86  1  0.18600000  0.20400000  0.64318000  1.0 -0.7296137727
O  O87  1  0.79600000  0.98200000  0.30984000  1.0 -0.7570329694
O  O88  1  0.98200000  0.18600000  0.47651000  1.0 -0.7515365866
O  O89  1  0.81400000  0.79600000  0.14318000  1.0 -0.737211266
O  O90  1  0.20400000  0.01800000  0.80984000  1.0 -0.7296137727
O  O91  1  0.81400000  0.01800000  0.69016000  1.0 -0.737211266
O  O92  1  0.20400000  0.18600000  0.02349000  1.0 -0.737211266
O  O93  1  0.98200000  0.79600000  0.35682000  1.0 -0.7570329694
O  O94  1  0.18600000  0.98200000  0.19016000  1.0 -0.7515365866
O  O95  1  0.79600000  0.81400000  0.52349000  1.0 -0.737211266
O  O96  1  0.01800000  0.20400000  0.85682000  1.0 -0.737211266
