# DDEC6 charges by PACMAN v1.1 (https://github.com/mtap-research/PACMAN-charge/)
data_YENLUA_ASR_pacman
_symmetry_space_group_name_H-M   'P 1'
_cell_length_a   36.33200000
_cell_length_b   36.33200000
_cell_length_c   15.20800000
_cell_angle_alpha   90.00000000
_cell_angle_beta   90.00000000
_cell_angle_gamma   90.00000000
_symmetry_Int_Tables_number   1
_chemical_formula_structural   Na3Mn2Cu3H39C39N6O25
_chemical_formula_sum   'Na24 Mn16 Cu24 H312 C312 N48 O200'
_cell_volume   20074.77631859
_cell_formula_units_Z   8
loop_
 _symmetry_equiv_pos_site_id
 _symmetry_equiv_pos_as_xyz
  1  'x, y, z'
loop_
 _atom_site_type_symbol
 _atom_site_label
 _atom_site_symmetry_multiplicity
 _atom_site_fract_x
 _atom_site_fract_y
 _atom_site_fract_z
 _atom_site_occupancy
 _atom_site_charge
Na  Na1  1  0.27250000  0.27250000  0.43010000  1.0 0.3484327556
Na  Na2  1  0.27250000  0.27250000  0.56990000  1.0 0.3484327556
Na  Na3  1  0.72750000  0.27250000  0.43010000  1.0 0.3484327556
Na  Na4  1  0.27250000  0.72750000  0.43010000  1.0 0.3484327556
Na  Na5  1  0.72750000  0.27250000  0.56990000  1.0 0.3484327556
Na  Na6  1  0.72750000  0.72750000  0.43010000  1.0 0.3484327556
Na  Na7  1  0.27250000  0.72750000  0.56990000  1.0 0.3484327556
Na  Na8  1  0.72750000  0.72750000  0.56990000  1.0 0.3484327556
Na  Na9  1  0.50000000  0.19240000  0.06480000  1.0 0.5494044543
Na  Na10  1  0.19240000  0.50000000  0.93520000  1.0 0.5443919251
Na  Na11  1  0.80760000  0.50000000  0.06480000  1.0 0.5494044543
Na  Na12  1  0.19240000  0.50000000  0.06480000  1.0 0.5494044543
Na  Na13  1  0.50000000  0.19240000  0.93520000  1.0 0.5494044543
Na  Na14  1  0.50000000  0.80760000  0.06480000  1.0 0.5494044543
Na  Na15  1  0.50000000  0.80760000  0.93520000  1.0 0.5494044543
Na  Na16  1  0.80760000  0.50000000  0.93520000  1.0 0.5494044543
Na  Na17  1  0.36460000  0.00000000  0.06200000  1.0 0.9342206964
Na  Na18  1  0.00000000  0.36460000  0.93800000  1.0 0.9342206964
Na  Na19  1  0.00000000  0.36460000  0.06200000  1.0 0.9342206964
Na  Na20  1  0.00000000  0.63540000  0.06200000  1.0 0.9342206964
Na  Na21  1  0.63540000  0.00000000  0.93800000  1.0 0.9342206964
Na  Na22  1  0.63540000  0.00000000  0.06200000  1.0 0.9342206964
Na  Na23  1  0.36460000  0.00000000  0.93800000  1.0 0.9342206964
Na  Na24  1  0.00000000  0.63540000  0.93800000  1.0 0.9342206964
Mn  Mn1  1  0.35212000  0.14727000  0.24824000  1.0 1.0102351705
Mn  Mn2  1  0.14727000  0.35212000  0.75176000  1.0 1.0102351705
Mn  Mn3  1  0.85273000  0.35212000  0.24824000  1.0 1.0102351705
Mn  Mn4  1  0.14727000  0.64788000  0.24824000  1.0 1.0102351705
Mn  Mn5  1  0.64788000  0.14727000  0.75176000  1.0 1.0102351705
Mn  Mn6  1  0.64788000  0.85273000  0.24824000  1.0 1.0102351705
Mn  Mn7  1  0.35212000  0.85273000  0.75176000  1.0 1.0102351705
Mn  Mn8  1  0.85273000  0.64788000  0.75176000  1.0 1.0102351705
Mn  Mn9  1  0.64788000  0.85273000  0.75176000  1.0 1.0102351705
Mn  Mn10  1  0.85273000  0.64788000  0.24824000  1.0 1.0102351705
Mn  Mn11  1  0.14727000  0.64788000  0.75176000  1.0 1.0102351705
Mn  Mn12  1  0.85273000  0.35212000  0.75176000  1.0 1.0102351705
Mn  Mn13  1  0.35212000  0.85273000  0.24824000  1.0 1.0102351705
Mn  Mn14  1  0.35212000  0.14727000  0.75176000  1.0 1.0102351705
Mn  Mn15  1  0.64788000  0.14727000  0.24824000  1.0 1.0102351705
Mn  Mn16  1  0.14727000  0.35212000  0.24824000  1.0 1.0102351705
Cu  Cu1  1  0.33259000  0.00000000  0.27366000  1.0 0.5614282438
Cu  Cu2  1  0.00000000  0.33259000  0.72634000  1.0 0.5614282438
Cu  Cu3  1  0.00000000  0.33259000  0.27366000  1.0 0.5614282438
Cu  Cu4  1  0.00000000  0.66741000  0.27366000  1.0 0.5614282438
Cu  Cu5  1  0.66741000  0.00000000  0.72634000  1.0 0.5614282438
Cu  Cu6  1  0.66741000  0.00000000  0.27366000  1.0 0.5614282438
Cu  Cu7  1  0.33259000  0.00000000  0.72634000  1.0 0.5614282438
Cu  Cu8  1  0.00000000  0.66741000  0.72634000  1.0 0.5614282438
Cu  Cu9  1  0.50000000  0.15185000  0.26938000  1.0 0.6370780417
Cu  Cu10  1  0.15185000  0.50000000  0.73062000  1.0 0.6370780417
Cu  Cu11  1  0.84815000  0.50000000  0.26938000  1.0 0.6370780417
Cu  Cu12  1  0.15185000  0.50000000  0.26938000  1.0 0.6370780417
Cu  Cu13  1  0.50000000  0.15185000  0.73062000  1.0 0.6370780417
Cu  Cu14  1  0.50000000  0.84815000  0.26938000  1.0 0.6370780417
Cu  Cu15  1  0.50000000  0.84815000  0.73062000  1.0 0.6370780417
Cu  Cu16  1  0.84815000  0.50000000  0.73062000  1.0 0.6370780417
Cu  Cu17  1  0.24230000  0.24230000  0.23092000  1.0 0.5305868635
Cu  Cu18  1  0.24230000  0.24230000  0.76908000  1.0 0.5305868635
Cu  Cu19  1  0.75770000  0.24230000  0.23092000  1.0 0.5305868635
Cu  Cu20  1  0.24230000  0.75770000  0.23092000  1.0 0.5305868635
Cu  Cu21  1  0.75770000  0.24230000  0.76908000  1.0 0.5305868635
Cu  Cu22  1  0.75770000  0.75770000  0.23092000  1.0 0.5305868635
Cu  Cu23  1  0.24230000  0.75770000  0.76908000  1.0 0.5305868635
Cu  Cu24  1  0.75770000  0.75770000  0.76908000  1.0 0.5305868635
H  H1  1  0.21450000  0.05350000  0.50000000  1.0 0.1298931116
H  H2  1  0.05350000  0.21450000  0.50000000  1.0 0.1298931116
H  H3  1  0.94650000  0.21450000  0.50000000  1.0 0.1298931116
H  H4  1  0.05350000  0.78550000  0.50000000  1.0 0.1298931116
H  H5  1  0.78550000  0.05350000  0.50000000  1.0 0.1298931116
H  H6  1  0.78550000  0.94650000  0.50000000  1.0 0.1298931116
H  H7  1  0.21450000  0.94650000  0.50000000  1.0 0.1298931116
H  H8  1  0.94650000  0.78550000  0.50000000  1.0 0.1298931116
H  H9  1  0.19360000  0.12430000  0.00000000  1.0 0.1179561668
H  H10  1  0.12430000  0.19360000  0.00000000  1.0 0.1179561668
H  H11  1  0.87570000  0.19360000  0.00000000  1.0 0.1179561668
H  H12  1  0.12430000  0.80640000  0.00000000  1.0 0.1179561668
H  H13  1  0.80640000  0.12430000  0.00000000  1.0 0.1179561668
H  H14  1  0.80640000  0.87570000  0.00000000  1.0 0.1179561668
H  H15  1  0.19360000  0.87570000  0.00000000  1.0 0.1179561668
H  H16  1  0.87570000  0.80640000  0.00000000  1.0 0.1179561668
H  H17  1  0.45050000  0.07380000  0.28650000  1.0 0.1298931116
H  H18  1  0.07380000  0.45050000  0.71350000  1.0 0.1298931116
H  H19  1  0.92620000  0.45050000  0.28650000  1.0 0.1298931116
H  H20  1  0.07380000  0.54950000  0.28650000  1.0 0.1298931116
H  H21  1  0.54950000  0.07380000  0.71350000  1.0 0.1298931116
H  H22  1  0.54950000  0.92620000  0.28650000  1.0 0.1298931116
H  H23  1  0.45050000  0.92620000  0.71350000  1.0 0.1298931116
H  H24  1  0.92620000  0.54950000  0.71350000  1.0 0.1298931116
H  H25  1  0.54950000  0.92620000  0.71350000  1.0 0.1298931116
H  H26  1  0.92620000  0.54950000  0.28650000  1.0 0.1298931116
H  H27  1  0.07380000  0.54950000  0.71350000  1.0 0.1298931116
H  H28  1  0.92620000  0.45050000  0.71350000  1.0 0.1298931116
H  H29  1  0.45050000  0.92620000  0.28650000  1.0 0.1298931116
H  H30  1  0.45050000  0.07380000  0.71350000  1.0 0.1298931116
H  H31  1  0.54950000  0.07380000  0.28650000  1.0 0.1298931116
H  H32  1  0.07380000  0.45050000  0.28650000  1.0 0.1298931116
H  H33  1  0.46870000  0.03930000  0.33090000  1.0 0.1179561668
H  H34  1  0.03930000  0.46870000  0.66910000  1.0 0.1179561668
H  H35  1  0.96070000  0.46870000  0.33090000  1.0 0.1179561668
H  H36  1  0.03930000  0.53130000  0.33090000  1.0 0.1179561668
H  H37  1  0.53130000  0.03930000  0.66910000  1.0 0.1179561668
H  H38  1  0.53130000  0.96070000  0.33090000  1.0 0.1179561668
H  H39  1  0.46870000  0.96070000  0.66910000  1.0 0.1179561668
H  H40  1  0.96070000  0.53130000  0.66910000  1.0 0.1179561668
H  H41  1  0.53130000  0.96070000  0.66910000  1.0 0.1179561668
H  H42  1  0.96070000  0.53130000  0.33090000  1.0 0.1179561668
H  H43  1  0.03930000  0.53130000  0.66910000  1.0 0.1179561668
H  H44  1  0.96070000  0.46870000  0.66910000  1.0 0.1179561668
H  H45  1  0.46870000  0.96070000  0.33090000  1.0 0.1179561668
H  H46  1  0.46870000  0.03930000  0.66910000  1.0 0.1179561668
H  H47  1  0.53130000  0.03930000  0.33090000  1.0 0.1179561668
H  H48  1  0.03930000  0.46870000  0.33090000  1.0 0.1179561668
H  H49  1  0.42590000  0.04460000  0.33460000  1.0 0.1298931116
H  H50  1  0.04460000  0.42590000  0.66540000  1.0 0.1298931116
H  H51  1  0.95540000  0.42590000  0.33460000  1.0 0.1298931116
H  H52  1  0.04460000  0.57410000  0.33460000  1.0 0.1298931116
H  H53  1  0.57410000  0.04460000  0.66540000  1.0 0.1298931116
H  H54  1  0.57410000  0.95540000  0.33460000  1.0 0.1298931116
H  H55  1  0.42590000  0.95540000  0.66540000  1.0 0.1298931116
H  H56  1  0.95540000  0.57410000  0.66540000  1.0 0.1298931116
H  H57  1  0.57410000  0.95540000  0.66540000  1.0 0.1298931116
H  H58  1  0.95540000  0.57410000  0.33460000  1.0 0.1298931116
H  H59  1  0.04460000  0.57410000  0.66540000  1.0 0.1298931116
H  H60  1  0.95540000  0.42590000  0.66540000  1.0 0.1298931116
H  H61  1  0.42590000  0.95540000  0.33460000  1.0 0.1298931116
H  H62  1  0.42590000  0.04460000  0.66540000  1.0 0.1298931116
H  H63  1  0.57410000  0.04460000  0.33460000  1.0 0.1298931116
H  H64  1  0.04460000  0.42590000  0.33460000  1.0 0.1298931116
H  H65  1  0.44910000  0.03440000  0.50000000  1.0 0.1179561668
H  H66  1  0.03440000  0.44910000  0.50000000  1.0 0.1179561668
H  H67  1  0.96560000  0.44910000  0.50000000  1.0 0.1179561668
H  H68  1  0.03440000  0.55090000  0.50000000  1.0 0.1179561668
H  H69  1  0.55090000  0.03440000  0.50000000  1.0 0.1179561668
H  H70  1  0.55090000  0.96560000  0.50000000  1.0 0.1179561668
H  H71  1  0.44910000  0.96560000  0.50000000  1.0 0.1179561668
H  H72  1  0.96560000  0.55090000  0.50000000  1.0 0.1179561668
H  H73  1  0.25440000  0.05070000  0.28670000  1.0 0.1298931116
H  H74  1  0.05070000  0.25440000  0.71330000  1.0 0.1298931116
H  H75  1  0.94930000  0.25440000  0.28670000  1.0 0.1298931116
H  H76  1  0.05070000  0.74560000  0.28670000  1.0 0.1298931116
H  H77  1  0.74560000  0.05070000  0.71330000  1.0 0.1298931116
H  H78  1  0.74560000  0.94930000  0.28670000  1.0 0.1298931116
H  H79  1  0.25440000  0.94930000  0.71330000  1.0 0.1298931116
H  H80  1  0.94930000  0.74560000  0.71330000  1.0 0.1298931116
H  H81  1  0.74560000  0.94930000  0.71330000  1.0 0.1298931116
H  H82  1  0.94930000  0.74560000  0.28670000  1.0 0.1298931116
H  H83  1  0.05070000  0.74560000  0.71330000  1.0 0.1298931116
H  H84  1  0.94930000  0.25440000  0.71330000  1.0 0.1298931116
H  H85  1  0.25440000  0.94930000  0.28670000  1.0 0.1298931116
H  H86  1  0.25440000  0.05070000  0.71330000  1.0 0.1298931116
H  H87  1  0.74560000  0.05070000  0.28670000  1.0 0.1298931116
H  H88  1  0.05070000  0.25440000  0.28670000  1.0 0.1298931116
H  H89  1  0.21990000  0.03210000  0.32990000  1.0 0.1126498611
H  H90  1  0.03210000  0.21990000  0.67010000  1.0 0.1126498611
H  H91  1  0.96790000  0.21990000  0.32990000  1.0 0.1126498611
H  H92  1  0.03210000  0.78010000  0.32990000  1.0 0.1126498611
H  H93  1  0.78010000  0.03210000  0.67010000  1.0 0.1126498611
H  H94  1  0.78010000  0.96790000  0.32990000  1.0 0.1126498611
H  H95  1  0.21990000  0.96790000  0.67010000  1.0 0.1126498611
H  H96  1  0.96790000  0.78010000  0.67010000  1.0 0.1126498611
H  H97  1  0.78010000  0.96790000  0.67010000  1.0 0.1126498611
H  H98  1  0.96790000  0.78010000  0.32990000  1.0 0.1126498611
H  H99  1  0.03210000  0.78010000  0.67010000  1.0 0.1126498611
H  H100  1  0.96790000  0.21990000  0.67010000  1.0 0.1179561668
H  H101  1  0.21990000  0.96790000  0.32990000  1.0 0.1126498611
H  H102  1  0.21990000  0.03210000  0.67010000  1.0 0.1126498611
H  H103  1  0.78010000  0.03210000  0.32990000  1.0 0.1126498611
H  H104  1  0.03210000  0.21990000  0.32990000  1.0 0.1126498611
H  H105  1  0.22500000  0.07490000  0.33510000  1.0 0.1298931116
H  H106  1  0.07490000  0.22500000  0.66490000  1.0 0.1298931116
H  H107  1  0.92510000  0.22500000  0.33510000  1.0 0.1298931116
H  H108  1  0.07490000  0.77500000  0.33510000  1.0 0.1298931116
H  H109  1  0.77500000  0.07490000  0.66490000  1.0 0.1298931116
H  H110  1  0.77500000  0.92510000  0.33510000  1.0 0.1298931116
H  H111  1  0.22500000  0.92510000  0.66490000  1.0 0.1298931116
H  H112  1  0.92510000  0.77500000  0.66490000  1.0 0.1298931116
H  H113  1  0.77500000  0.92510000  0.66490000  1.0 0.1298931116
H  H114  1  0.92510000  0.77500000  0.33510000  1.0 0.1298931116
H  H115  1  0.07490000  0.77500000  0.66490000  1.0 0.1298931116
H  H116  1  0.92510000  0.22500000  0.66490000  1.0 0.1298931116
H  H117  1  0.22500000  0.92510000  0.33510000  1.0 0.1298931116
H  H118  1  0.22500000  0.07490000  0.66490000  1.0 0.1298931116
H  H119  1  0.77500000  0.07490000  0.33510000  1.0 0.1298931116
H  H120  1  0.07490000  0.22500000  0.33510000  1.0 0.1298931116
H  H121  1  0.19410000  0.12100000  0.14890000  1.0 0.1031113589
H  H122  1  0.12100000  0.19410000  0.85110000  1.0 0.1031113589
H  H123  1  0.87900000  0.19410000  0.14890000  1.0 0.1031113589
H  H124  1  0.12100000  0.80590000  0.14890000  1.0 0.1031113589
H  H125  1  0.80590000  0.12100000  0.85110000  1.0 0.1031113589
H  H126  1  0.80590000  0.87900000  0.14890000  1.0 0.1031113589
H  H127  1  0.19410000  0.87900000  0.85110000  1.0 0.1031113589
H  H128  1  0.87900000  0.80590000  0.85110000  1.0 0.1031113589
H  H129  1  0.80590000  0.87900000  0.85110000  1.0 0.1031113589
H  H130  1  0.87900000  0.80590000  0.14890000  1.0 0.1031113589
H  H131  1  0.12100000  0.80590000  0.85110000  1.0 0.1031113589
H  H132  1  0.87900000  0.19410000  0.85110000  1.0 0.1031113589
H  H133  1  0.19410000  0.87900000  0.14890000  1.0 0.1031113589
H  H134  1  0.19410000  0.12100000  0.85110000  1.0 0.1031113589
H  H135  1  0.80590000  0.12100000  0.14890000  1.0 0.1031113589
H  H136  1  0.12100000  0.19410000  0.14890000  1.0 0.1031113589
H  H137  1  0.22840000  0.13400000  0.20300000  1.0 0.1298931116
H  H138  1  0.13400000  0.22840000  0.79700000  1.0 0.1298931116
H  H139  1  0.86600000  0.22840000  0.20300000  1.0 0.1298931116
H  H140  1  0.13400000  0.77160000  0.20300000  1.0 0.1298931116
H  H141  1  0.77160000  0.13400000  0.79700000  1.0 0.1298931116
H  H142  1  0.77160000  0.86600000  0.20300000  1.0 0.1298931116
H  H143  1  0.22840000  0.86600000  0.79700000  1.0 0.1298931116
H  H144  1  0.86600000  0.77160000  0.79700000  1.0 0.1298931116
H  H145  1  0.77160000  0.86600000  0.79700000  1.0 0.1298931116
H  H146  1  0.86600000  0.77160000  0.20300000  1.0 0.1298931116
H  H147  1  0.13400000  0.77160000  0.79700000  1.0 0.1298931116
H  H148  1  0.86600000  0.22840000  0.79700000  1.0 0.1298931116
H  H149  1  0.22840000  0.86600000  0.20300000  1.0 0.1298931116
H  H150  1  0.22840000  0.13400000  0.79700000  1.0 0.1298931116
H  H151  1  0.77160000  0.13400000  0.20300000  1.0 0.1298931116
H  H152  1  0.13400000  0.22840000  0.20300000  1.0 0.1298931116
H  H153  1  0.19460000  0.16030000  0.19100000  1.0 0.1126498611
H  H154  1  0.16030000  0.19460000  0.80900000  1.0 0.1126498611
H  H155  1  0.83970000  0.19460000  0.19100000  1.0 0.1126498611
H  H156  1  0.16030000  0.80540000  0.19100000  1.0 0.1126498611
H  H157  1  0.80540000  0.16030000  0.80900000  1.0 0.1126498611
H  H158  1  0.80540000  0.83970000  0.19100000  1.0 0.1126498611
H  H159  1  0.19460000  0.83970000  0.80900000  1.0 0.1126498611
H  H160  1  0.83970000  0.80540000  0.80900000  1.0 0.1126498611
H  H161  1  0.80540000  0.83970000  0.80900000  1.0 0.1126498611
H  H162  1  0.83970000  0.80540000  0.19100000  1.0 0.1126498611
H  H163  1  0.16030000  0.80540000  0.80900000  1.0 0.1126498611
H  H164  1  0.83970000  0.19460000  0.80900000  1.0 0.1126498611
H  H165  1  0.19460000  0.83970000  0.19100000  1.0 0.1126498611
H  H166  1  0.19460000  0.16030000  0.80900000  1.0 0.1126498611
H  H167  1  0.80540000  0.16030000  0.19100000  1.0 0.1126498611
H  H168  1  0.16030000  0.19460000  0.19100000  1.0 0.1126498611
H  H169  1  0.45560000  0.18710000  0.55940000  1.0 0.0294372277
H  H170  1  0.18710000  0.45560000  0.44060000  1.0 0.0294372277
H  H171  1  0.81290000  0.45560000  0.55940000  1.0 0.0294372277
H  H172  1  0.18710000  0.54440000  0.55940000  1.0 0.0294372277
H  H173  1  0.54440000  0.18710000  0.44060000  1.0 0.0294372277
H  H174  1  0.54440000  0.81290000  0.55940000  1.0 0.0294372277
H  H175  1  0.45560000  0.81290000  0.44060000  1.0 0.0294372277
H  H176  1  0.81290000  0.54440000  0.44060000  1.0 0.0294372277
H  H177  1  0.54440000  0.81290000  0.44060000  1.0 0.0294372277
H  H178  1  0.81290000  0.54440000  0.55940000  1.0 0.0294372277
H  H179  1  0.18710000  0.54440000  0.44060000  1.0 0.0294372277
H  H180  1  0.81290000  0.45560000  0.44060000  1.0 0.0294372277
H  H181  1  0.45560000  0.81290000  0.55940000  1.0 0.0294372277
H  H182  1  0.45560000  0.18710000  0.44060000  1.0 0.0294372277
H  H183  1  0.54440000  0.18710000  0.55940000  1.0 0.0294372277
H  H184  1  0.18710000  0.45560000  0.55940000  1.0 0.0294372277
H  H185  1  0.47460000  0.18780000  0.46680000  1.0 0.0390645055
H  H186  1  0.18780000  0.47460000  0.53320000  1.0 0.0294372277
H  H187  1  0.81220000  0.47460000  0.46680000  1.0 0.0390645055
H  H188  1  0.18780000  0.52540000  0.46680000  1.0 0.0390645055
H  H189  1  0.52540000  0.18780000  0.53320000  1.0 0.0294372277
H  H190  1  0.52540000  0.81220000  0.46680000  1.0 0.0390645055
H  H191  1  0.47460000  0.81220000  0.53320000  1.0 0.0294372277
H  H192  1  0.81220000  0.52540000  0.53320000  1.0 0.0294372277
H  H193  1  0.52540000  0.81220000  0.53320000  1.0 0.0294372277
H  H194  1  0.81220000  0.52540000  0.46680000  1.0 0.0390645055
H  H195  1  0.18780000  0.52540000  0.53320000  1.0 0.0294372277
H  H196  1  0.81220000  0.47460000  0.53320000  1.0 0.0294372277
H  H197  1  0.47460000  0.81220000  0.46680000  1.0 0.0390645055
H  H198  1  0.47460000  0.18780000  0.53320000  1.0 0.0294372277
H  H199  1  0.52540000  0.18780000  0.46680000  1.0 0.0390645055
H  H200  1  0.18780000  0.47460000  0.46680000  1.0 0.0390645055
H  H201  1  0.43160000  0.18630000  0.47380000  1.0 0.0542236159
H  H202  1  0.18630000  0.43160000  0.52620000  1.0 0.0542236159
H  H203  1  0.81370000  0.43160000  0.47380000  1.0 0.0542236159
H  H204  1  0.18630000  0.56840000  0.47380000  1.0 0.0542236159
H  H205  1  0.56840000  0.18630000  0.52620000  1.0 0.0542236159
H  H206  1  0.56840000  0.81370000  0.47380000  1.0 0.063037508
H  H207  1  0.43160000  0.81370000  0.52620000  1.0 0.0542236159
H  H208  1  0.81370000  0.56840000  0.52620000  1.0 0.0542236159
H  H209  1  0.56840000  0.81370000  0.52620000  1.0 0.063037508
H  H210  1  0.81370000  0.56840000  0.47380000  1.0 0.0542236159
H  H211  1  0.18630000  0.56840000  0.52620000  1.0 0.0542236159
H  H212  1  0.81370000  0.43160000  0.52620000  1.0 0.0542236159
H  H213  1  0.43160000  0.81370000  0.47380000  1.0 0.0542236159
H  H214  1  0.43160000  0.18630000  0.52620000  1.0 0.0542236159
H  H215  1  0.56840000  0.18630000  0.47380000  1.0 0.0542236159
H  H216  1  0.18630000  0.43160000  0.47380000  1.0 0.0542236159
H  H217  1  0.29790000  0.23500000  0.05950000  1.0 0.0390645055
H  H218  1  0.23500000  0.29790000  0.94050000  1.0 0.0390645055
H  H219  1  0.76500000  0.29790000  0.05950000  1.0 0.0390645055
H  H220  1  0.23500000  0.70210000  0.05950000  1.0 0.0390645055
H  H221  1  0.70210000  0.23500000  0.94050000  1.0 0.0390645055
H  H222  1  0.70210000  0.76500000  0.05950000  1.0 0.0390645055
H  H223  1  0.29790000  0.76500000  0.94050000  1.0 0.0390645055
H  H224  1  0.76500000  0.70210000  0.94050000  1.0 0.0390645055
H  H225  1  0.70210000  0.76500000  0.94050000  1.0 0.0390645055
H  H226  1  0.76500000  0.70210000  0.05950000  1.0 0.0390645055
H  H227  1  0.23500000  0.70210000  0.94050000  1.0 0.0390645055
H  H228  1  0.76500000  0.29790000  0.94050000  1.0 0.0390645055
H  H229  1  0.29790000  0.76500000  0.05950000  1.0 0.0390645055
H  H230  1  0.29790000  0.23500000  0.94050000  1.0 0.0390645055
H  H231  1  0.70210000  0.23500000  0.05950000  1.0 0.0390645055
H  H232  1  0.23500000  0.29790000  0.05950000  1.0 0.0390645055
H  H233  1  0.31370000  0.21900000  0.97160000  1.0 0.0542236159
H  H234  1  0.21900000  0.31370000  0.02840000  1.0 0.0542236159
H  H235  1  0.78100000  0.31370000  0.97160000  1.0 0.0542236159
H  H236  1  0.21900000  0.68630000  0.97160000  1.0 0.0542236159
H  H237  1  0.68630000  0.21900000  0.02840000  1.0 0.0542236159
H  H238  1  0.68630000  0.78100000  0.97160000  1.0 0.0542236159
H  H239  1  0.31370000  0.78100000  0.02840000  1.0 0.0542236159
H  H240  1  0.78100000  0.68630000  0.02840000  1.0 0.0542236159
H  H241  1  0.68630000  0.78100000  0.02840000  1.0 0.0542236159
H  H242  1  0.78100000  0.68630000  0.97160000  1.0 0.0542236159
H  H243  1  0.21900000  0.68630000  0.02840000  1.0 0.0542236159
H  H244  1  0.78100000  0.31370000  0.02840000  1.0 0.0542236159
H  H245  1  0.31370000  0.78100000  0.97160000  1.0 0.0542236159
H  H246  1  0.31370000  0.21900000  0.02840000  1.0 0.0542236159
H  H247  1  0.68630000  0.21900000  0.97160000  1.0 0.0542236159
H  H248  1  0.21900000  0.31370000  0.97160000  1.0 0.0542236159
H  H249  1  0.28340000  0.24970000  0.96890000  1.0 0.0390645055
H  H250  1  0.24970000  0.28340000  0.03110000  1.0 0.0390645055
H  H251  1  0.75030000  0.28340000  0.96890000  1.0 0.0390645055
H  H252  1  0.24970000  0.71660000  0.96890000  1.0 0.0390645055
H  H253  1  0.71660000  0.24970000  0.03110000  1.0 0.0390645055
H  H254  1  0.71660000  0.75030000  0.96890000  1.0 0.0390645055
H  H255  1  0.28340000  0.75030000  0.03110000  1.0 0.0390645055
H  H256  1  0.75030000  0.71660000  0.03110000  1.0 0.0390645055
H  H257  1  0.71660000  0.75030000  0.03110000  1.0 0.0390645055
H  H258  1  0.75030000  0.71660000  0.96890000  1.0 0.0390645055
H  H259  1  0.24970000  0.71660000  0.03110000  1.0 0.0390645055
H  H260  1  0.75030000  0.28340000  0.03110000  1.0 0.0390645055
H  H261  1  0.28340000  0.75030000  0.96890000  1.0 0.0390645055
H  H262  1  0.28340000  0.24970000  0.03110000  1.0 0.0390645055
H  H263  1  0.71660000  0.24970000  0.96890000  1.0 0.0390645055
H  H264  1  0.24970000  0.28340000  0.96890000  1.0 0.0390645055
H  H265  1  0.36740000  0.04660000  0.55950000  1.0 0.0676337399
H  H266  1  0.04660000  0.36740000  0.44050000  1.0 0.0676337399
H  H267  1  0.95340000  0.36740000  0.55950000  1.0 0.0676337399
H  H268  1  0.04660000  0.63260000  0.55950000  1.0 0.0676337399
H  H269  1  0.63260000  0.04660000  0.44050000  1.0 0.0676337399
H  H270  1  0.63260000  0.95340000  0.55950000  1.0 0.0676337399
H  H271  1  0.36740000  0.95340000  0.44050000  1.0 0.0676337399
H  H272  1  0.95340000  0.63260000  0.44050000  1.0 0.0676337399
H  H273  1  0.63260000  0.95340000  0.44050000  1.0 0.0676337399
H  H274  1  0.95340000  0.63260000  0.55950000  1.0 0.0676337399
H  H275  1  0.04660000  0.63260000  0.44050000  1.0 0.0676337399
H  H276  1  0.95340000  0.36740000  0.44050000  1.0 0.0676337399
H  H277  1  0.36740000  0.95340000  0.55950000  1.0 0.0676337399
H  H278  1  0.36740000  0.04660000  0.44050000  1.0 0.0676337399
H  H279  1  0.63260000  0.04660000  0.55950000  1.0 0.0676337399
H  H280  1  0.04660000  0.36740000  0.55950000  1.0 0.0676337399
H  H281  1  0.36730000  0.02480000  0.47060000  1.0 0.063037508
H  H282  1  0.02480000  0.36730000  0.52940000  1.0 0.063037508
H  H283  1  0.97520000  0.36730000  0.47060000  1.0 0.063037508
H  H284  1  0.02480000  0.63270000  0.47060000  1.0 0.063037508
H  H285  1  0.63270000  0.02480000  0.52940000  1.0 0.063037508
H  H286  1  0.63270000  0.97520000  0.47060000  1.0 0.063037508
H  H287  1  0.36730000  0.97520000  0.52940000  1.0 0.063037508
H  H288  1  0.97520000  0.63270000  0.52940000  1.0 0.063037508
H  H289  1  0.63270000  0.97520000  0.52940000  1.0 0.063037508
H  H290  1  0.97520000  0.63270000  0.47060000  1.0 0.063037508
H  H291  1  0.02480000  0.63270000  0.52940000  1.0 0.063037508
H  H292  1  0.97520000  0.36730000  0.52940000  1.0 0.063037508
H  H293  1  0.36730000  0.97520000  0.47060000  1.0 0.063037508
H  H294  1  0.36730000  0.02480000  0.52940000  1.0 0.063037508
H  H295  1  0.63270000  0.02480000  0.47060000  1.0 0.063037508
H  H296  1  0.02480000  0.36730000  0.47060000  1.0 0.063037508
H  H297  1  0.36740000  0.06790000  0.46990000  1.0 0.0931764194
H  H298  1  0.06790000  0.36740000  0.53010000  1.0 0.0931764194
H  H299  1  0.93210000  0.36740000  0.46990000  1.0 0.0931764194
H  H300  1  0.06790000  0.63260000  0.46990000  1.0 0.0931764194
H  H301  1  0.63260000  0.06790000  0.53010000  1.0 0.0931764194
H  H302  1  0.63260000  0.93210000  0.46990000  1.0 0.0931764194
H  H303  1  0.36740000  0.93210000  0.53010000  1.0 0.0931764194
H  H304  1  0.93210000  0.63260000  0.53010000  1.0 0.0931764194
H  H305  1  0.63260000  0.93210000  0.53010000  1.0 0.0931764194
H  H306  1  0.93210000  0.63260000  0.46990000  1.0 0.0931764194
H  H307  1  0.06790000  0.63260000  0.53010000  1.0 0.0931764194
H  H308  1  0.93210000  0.36740000  0.53010000  1.0 0.0931764194
H  H309  1  0.36740000  0.93210000  0.46990000  1.0 0.0931764194
H  H310  1  0.36740000  0.06790000  0.53010000  1.0 0.0931764194
H  H311  1  0.63260000  0.06790000  0.46990000  1.0 0.0931764194
H  H312  1  0.06790000  0.36740000  0.46990000  1.0 0.0931764194
C  C1  1  0.35210000  0.06980000  0.22260000  1.0 0.4607665041
C  C2  1  0.06980000  0.35210000  0.77740000  1.0 0.4607665041
C  C3  1  0.93020000  0.35210000  0.22260000  1.0 0.4607665041
C  C4  1  0.06980000  0.64790000  0.22260000  1.0 0.4607665041
C  C5  1  0.64790000  0.06980000  0.77740000  1.0 0.4607665041
C  C6  1  0.64790000  0.93020000  0.22260000  1.0 0.4607665041
C  C7  1  0.35210000  0.93020000  0.77740000  1.0 0.4607665041
C  C8  1  0.93020000  0.64790000  0.77740000  1.0 0.4607665041
C  C9  1  0.64790000  0.93020000  0.77740000  1.0 0.4607665041
C  C10  1  0.93020000  0.64790000  0.22260000  1.0 0.4607665041
C  C11  1  0.06980000  0.64790000  0.77740000  1.0 0.4607665041
C  C12  1  0.93020000  0.35210000  0.77740000  1.0 0.4607665041
C  C13  1  0.35210000  0.93020000  0.22260000  1.0 0.4607665041
C  C14  1  0.35210000  0.06980000  0.77740000  1.0 0.4607665041
C  C15  1  0.64790000  0.06980000  0.22260000  1.0 0.4607665041
C  C16  1  0.06980000  0.35210000  0.22260000  1.0 0.4607665041
C  C17  1  0.32680000  0.07370000  0.30160000  1.0 0.3155607531
C  C18  1  0.07370000  0.32680000  0.69840000  1.0 0.3155607531
C  C19  1  0.92630000  0.32680000  0.30160000  1.0 0.3155607531
C  C20  1  0.07370000  0.67320000  0.30160000  1.0 0.3155607531
C  C21  1  0.67320000  0.07370000  0.69840000  1.0 0.3155607531
C  C22  1  0.67320000  0.92630000  0.30160000  1.0 0.3155607531
C  C23  1  0.32680000  0.92630000  0.69840000  1.0 0.3155607531
C  C24  1  0.92630000  0.67320000  0.69840000  1.0 0.3155607531
C  C25  1  0.67320000  0.92630000  0.69840000  1.0 0.3155607531
C  C26  1  0.92630000  0.67320000  0.30160000  1.0 0.3155607531
C  C27  1  0.07370000  0.67320000  0.69840000  1.0 0.3155607531
C  C28  1  0.92630000  0.32680000  0.69840000  1.0 0.3155607531
C  C29  1  0.32680000  0.92630000  0.30160000  1.0 0.3155607531
C  C30  1  0.32680000  0.07370000  0.69840000  1.0 0.3155607531
C  C31  1  0.67320000  0.07370000  0.30160000  1.0 0.3155607531
C  C32  1  0.07370000  0.32680000  0.30160000  1.0 0.3155607531
C  C33  1  0.42570000  0.14570000  0.30380000  1.0 0.3381456682
C  C34  1  0.14570000  0.42570000  0.69620000  1.0 0.3381456682
C  C35  1  0.85430000  0.42570000  0.30380000  1.0 0.3381456682
C  C36  1  0.14570000  0.57430000  0.30380000  1.0 0.3381456682
C  C37  1  0.57430000  0.14570000  0.69620000  1.0 0.3381456682
C  C38  1  0.57430000  0.85430000  0.30380000  1.0 0.3381456682
C  C39  1  0.42570000  0.85430000  0.69620000  1.0 0.3381456682
C  C40  1  0.85430000  0.57430000  0.69620000  1.0 0.3381456682
C  C41  1  0.57430000  0.85430000  0.69620000  1.0 0.3381456682
C  C42  1  0.85430000  0.57430000  0.30380000  1.0 0.3381456682
C  C43  1  0.14570000  0.57430000  0.69620000  1.0 0.3381456682
C  C44  1  0.85430000  0.42570000  0.69620000  1.0 0.3381456682
C  C45  1  0.42570000  0.85430000  0.30380000  1.0 0.3381456682
C  C46  1  0.42570000  0.14570000  0.69620000  1.0 0.3381456682
C  C47  1  0.57430000  0.14570000  0.30380000  1.0 0.3381456682
C  C48  1  0.14570000  0.42570000  0.30380000  1.0 0.3381456682
C  C49  1  0.43050000  0.16320000  0.21350000  1.0 0.4607665041
C  C50  1  0.16320000  0.43050000  0.78650000  1.0 0.4607665041
C  C51  1  0.83680000  0.43050000  0.21350000  1.0 0.4607665041
C  C52  1  0.16320000  0.56950000  0.21350000  1.0 0.4607665041
C  C53  1  0.56950000  0.16320000  0.78650000  1.0 0.4607665041
C  C54  1  0.56950000  0.83680000  0.21350000  1.0 0.4607665041
C  C55  1  0.43050000  0.83680000  0.78650000  1.0 0.4607665041
C  C56  1  0.83680000  0.56950000  0.78650000  1.0 0.4607665041
C  C57  1  0.56950000  0.83680000  0.78650000  1.0 0.4607665041
C  C58  1  0.83680000  0.56950000  0.21350000  1.0 0.4607665041
C  C59  1  0.16320000  0.56950000  0.78650000  1.0 0.4607665041
C  C60  1  0.83680000  0.43050000  0.78650000  1.0 0.4607665041
C  C61  1  0.43050000  0.83680000  0.21350000  1.0 0.4607665041
C  C62  1  0.43050000  0.16320000  0.78650000  1.0 0.4607665041
C  C63  1  0.56950000  0.16320000  0.21350000  1.0 0.4607665041
C  C64  1  0.16320000  0.43050000  0.21350000  1.0 0.4607665041
C  C65  1  0.30490000  0.20600000  0.27970000  1.0 0.4607665041
C  C66  1  0.20600000  0.30490000  0.72030000  1.0 0.4607665041
C  C67  1  0.79400000  0.30490000  0.27970000  1.0 0.4607665041
C  C68  1  0.20600000  0.69510000  0.27970000  1.0 0.4607665041
C  C69  1  0.69510000  0.20600000  0.72030000  1.0 0.4607665041
C  C70  1  0.69510000  0.79400000  0.27970000  1.0 0.4607665041
C  C71  1  0.30490000  0.79400000  0.72030000  1.0 0.4607665041
C  C72  1  0.79400000  0.69510000  0.72030000  1.0 0.4607665041
C  C73  1  0.69510000  0.79400000  0.72030000  1.0 0.4607665041
C  C74  1  0.79400000  0.69510000  0.27970000  1.0 0.4607665041
C  C75  1  0.20600000  0.69510000  0.72030000  1.0 0.4607665041
C  C76  1  0.79400000  0.30490000  0.72030000  1.0 0.4607665041
C  C77  1  0.30490000  0.79400000  0.27970000  1.0 0.4607665041
C  C78  1  0.30490000  0.20600000  0.72030000  1.0 0.4607665041
C  C79  1  0.69510000  0.20600000  0.27970000  1.0 0.4607665041
C  C80  1  0.20600000  0.30490000  0.27970000  1.0 0.4607665041
C  C81  1  0.29170000  0.18760000  0.19230000  1.0 0.3274402121
C  C82  1  0.18760000  0.29170000  0.80770000  1.0 0.3274402121
C  C83  1  0.81240000  0.29170000  0.19230000  1.0 0.3274402121
C  C84  1  0.18760000  0.70830000  0.19230000  1.0 0.3274402121
C  C85  1  0.70830000  0.18760000  0.80770000  1.0 0.3274402121
C  C86  1  0.70830000  0.81240000  0.19230000  1.0 0.3274402121
C  C87  1  0.29170000  0.81240000  0.80770000  1.0 0.3274402121
C  C88  1  0.81240000  0.70830000  0.80770000  1.0 0.3274402121
C  C89  1  0.70830000  0.81240000  0.80770000  1.0 0.3274402121
C  C90  1  0.81240000  0.70830000  0.19230000  1.0 0.3274402121
C  C91  1  0.18760000  0.70830000  0.80770000  1.0 0.3274402121
C  C92  1  0.81240000  0.29170000  0.80770000  1.0 0.3274402121
C  C93  1  0.29170000  0.81240000  0.19230000  1.0 0.3274402121
C  C94  1  0.29170000  0.18760000  0.80770000  1.0 0.3274402121
C  C95  1  0.70830000  0.18760000  0.19230000  1.0 0.3274402121
C  C96  1  0.18760000  0.29170000  0.19230000  1.0 0.3274402121
C  C97  1  0.29730000  0.04560000  0.42180000  1.0 0.0676337399
C  C98  1  0.04560000  0.29730000  0.57820000  1.0 0.0676337399
C  C99  1  0.95440000  0.29730000  0.42180000  1.0 0.0810669537
C  C100  1  0.04560000  0.70270000  0.42180000  1.0 0.0676337399
C  C101  1  0.70270000  0.04560000  0.57820000  1.0 0.0810669537
C  C102  1  0.70270000  0.95440000  0.42180000  1.0 0.0810669537
C  C103  1  0.29730000  0.95440000  0.57820000  1.0 0.0810669537
C  C104  1  0.95440000  0.70270000  0.57820000  1.0 0.0810669537
C  C105  1  0.70270000  0.95440000  0.57820000  1.0 0.0810669537
C  C106  1  0.95440000  0.70270000  0.42180000  1.0 0.0810669537
C  C107  1  0.04560000  0.70270000  0.57820000  1.0 0.0676337399
C  C108  1  0.95440000  0.29730000  0.57820000  1.0 0.0810669537
C  C109  1  0.29730000  0.95440000  0.42180000  1.0 0.0810669537
C  C110  1  0.29730000  0.04560000  0.57820000  1.0 0.0676337399
C  C111  1  0.70270000  0.04560000  0.42180000  1.0 0.0810669537
C  C112  1  0.04560000  0.29730000  0.42180000  1.0 0.0676337399
C  C113  1  0.31680000  0.04660000  0.50000000  1.0 -0.0553389615
C  C114  1  0.04660000  0.31680000  0.50000000  1.0 -0.0553389615
C  C115  1  0.95340000  0.31680000  0.50000000  1.0 -0.0499942204
C  C116  1  0.04660000  0.68320000  0.50000000  1.0 -0.0553389615
C  C117  1  0.68320000  0.04660000  0.50000000  1.0 -0.0499942204
C  C118  1  0.68320000  0.95340000  0.50000000  1.0 -0.0499942204
C  C119  1  0.31680000  0.95340000  0.50000000  1.0 -0.0553389615
C  C120  1  0.95340000  0.68320000  0.50000000  1.0 -0.0499942204
C  C121  1  0.25850000  0.04730000  0.42010000  1.0 0.0810669537
C  C122  1  0.04730000  0.25850000  0.57990000  1.0 0.0810669537
C  C123  1  0.95270000  0.25850000  0.42010000  1.0 0.0810669537
C  C124  1  0.04730000  0.74150000  0.42010000  1.0 0.0810669537
C  C125  1  0.74150000  0.04730000  0.57990000  1.0 0.0810669537
C  C126  1  0.74150000  0.95270000  0.42010000  1.0 0.0810669537
C  C127  1  0.25850000  0.95270000  0.57990000  1.0 0.0810669537
C  C128  1  0.95270000  0.74150000  0.57990000  1.0 0.0810669537
C  C129  1  0.74150000  0.95270000  0.57990000  1.0 0.0810669537
C  C130  1  0.95270000  0.74150000  0.42010000  1.0 0.0810669537
C  C131  1  0.04730000  0.74150000  0.57990000  1.0 0.0810669537
C  C132  1  0.95270000  0.25850000  0.57990000  1.0 0.0810669537
C  C133  1  0.25850000  0.95270000  0.42010000  1.0 0.0810669537
C  C134  1  0.25850000  0.04730000  0.57990000  1.0 0.0810669537
C  C135  1  0.74150000  0.04730000  0.42010000  1.0 0.0810669537
C  C136  1  0.04730000  0.25850000  0.42010000  1.0 0.0810669537
C  C137  1  0.23990000  0.05000000  0.50000000  1.0 -0.2550612887
C  C138  1  0.05000000  0.23990000  0.50000000  1.0 -0.2550612887
C  C139  1  0.95000000  0.23990000  0.50000000  1.0 -0.2519541348
C  C140  1  0.05000000  0.76010000  0.50000000  1.0 -0.2519541348
C  C141  1  0.76010000  0.05000000  0.50000000  1.0 -0.2519541348
C  C142  1  0.76010000  0.95000000  0.50000000  1.0 -0.2519541348
C  C143  1  0.23990000  0.95000000  0.50000000  1.0 -0.2519541348
C  C144  1  0.95000000  0.76010000  0.50000000  1.0 -0.2519541348
C  C145  1  0.45460000  0.11610000  0.42240000  1.0 0.0810669537
C  C146  1  0.11610000  0.45460000  0.57760000  1.0 0.0810669537
C  C147  1  0.88390000  0.45460000  0.42240000  1.0 0.0810669537
C  C148  1  0.11610000  0.54540000  0.42240000  1.0 0.0810669537
C  C149  1  0.54540000  0.11610000  0.57760000  1.0 0.0810669537
C  C150  1  0.54540000  0.88390000  0.42240000  1.0 0.0810669537
C  C151  1  0.45460000  0.88390000  0.57760000  1.0 0.0810669537
C  C152  1  0.88390000  0.54540000  0.57760000  1.0 0.0810669537
C  C153  1  0.54540000  0.88390000  0.57760000  1.0 0.0810669537
C  C154  1  0.88390000  0.54540000  0.42240000  1.0 0.0810669537
C  C155  1  0.11610000  0.54540000  0.57760000  1.0 0.0810669537
C  C156  1  0.88390000  0.45460000  0.57760000  1.0 0.0810669537
C  C157  1  0.45460000  0.88390000  0.42240000  1.0 0.0810669537
C  C158  1  0.45460000  0.11610000  0.57760000  1.0 0.0810669537
C  C159  1  0.54540000  0.11610000  0.42240000  1.0 0.0810669537
C  C160  1  0.11610000  0.45460000  0.42240000  1.0 0.0810669537
C  C161  1  0.45560000  0.13730000  0.50000000  1.0 -0.0256888107
C  C162  1  0.13730000  0.45560000  0.50000000  1.0 -0.0256888107
C  C163  1  0.86270000  0.45560000  0.50000000  1.0 -0.0256888107
C  C164  1  0.13730000  0.54440000  0.50000000  1.0 -0.0256888107
C  C165  1  0.54440000  0.13730000  0.50000000  1.0 -0.0256888107
C  C166  1  0.54440000  0.86270000  0.50000000  1.0 -0.0256888107
C  C167  1  0.45560000  0.86270000  0.50000000  1.0 -0.0256888107
C  C168  1  0.86270000  0.54440000  0.50000000  1.0 -0.0256888107
C  C169  1  0.45420000  0.17830000  0.50000000  1.0 -0.216249987
C  C170  1  0.17830000  0.45420000  0.50000000  1.0 -0.216249987
C  C171  1  0.82170000  0.45420000  0.50000000  1.0 -0.216249987
C  C172  1  0.17830000  0.54580000  0.50000000  1.0 -0.216249987
C  C173  1  0.54580000  0.17830000  0.50000000  1.0 -0.216249987
C  C174  1  0.54580000  0.82170000  0.50000000  1.0 -0.216249987
C  C175  1  0.45420000  0.82170000  0.50000000  1.0 -0.216249987
C  C176  1  0.82170000  0.54580000  0.50000000  1.0 -0.216249987
C  C177  1  0.24900000  0.18500000  0.07840000  1.0 0.0810669537
C  C178  1  0.18500000  0.24900000  0.92160000  1.0 0.0810669537
C  C179  1  0.81500000  0.24900000  0.07840000  1.0 0.0810669537
C  C180  1  0.18500000  0.75100000  0.07840000  1.0 0.0810669537
C  C181  1  0.75100000  0.18500000  0.92160000  1.0 0.0810669537
C  C182  1  0.75100000  0.81500000  0.07840000  1.0 0.0810669537
C  C183  1  0.24900000  0.81500000  0.92160000  1.0 0.0810669537
C  C184  1  0.81500000  0.75100000  0.92160000  1.0 0.0810669537
C  C185  1  0.75100000  0.81500000  0.92160000  1.0 0.0810669537
C  C186  1  0.81500000  0.75100000  0.07840000  1.0 0.0810669537
C  C187  1  0.18500000  0.75100000  0.92160000  1.0 0.0810669537
C  C188  1  0.81500000  0.24900000  0.92160000  1.0 0.0810669537
C  C189  1  0.24900000  0.81500000  0.07840000  1.0 0.0810669537
C  C190  1  0.24900000  0.18500000  0.92160000  1.0 0.0810669537
C  C191  1  0.75100000  0.18500000  0.07840000  1.0 0.0810669537
C  C192  1  0.18500000  0.24900000  0.07840000  1.0 0.0810669537
C  C193  1  0.26320000  0.19980000  0.00000000  1.0 -0.0499942204
C  C194  1  0.19980000  0.26320000  0.00000000  1.0 -0.0499942204
C  C195  1  0.80020000  0.26320000  0.00000000  1.0 -0.0499942204
C  C196  1  0.19980000  0.73680000  0.00000000  1.0 -0.0445583159
C  C197  1  0.73680000  0.19980000  0.00000000  1.0 -0.0499942204
C  C198  1  0.73680000  0.80020000  0.00000000  1.0 -0.0445583159
C  C199  1  0.26320000  0.80020000  0.00000000  1.0 -0.0445583159
C  C200  1  0.80020000  0.73680000  0.00000000  1.0 -0.0445583159
C  C201  1  0.29210000  0.22840000  0.00000000  1.0 -0.2519541348
C  C202  1  0.22840000  0.29210000  0.00000000  1.0 -0.2519541348
C  C203  1  0.77160000  0.29210000  0.00000000  1.0 -0.2519541348
C  C204  1  0.22840000  0.70790000  0.00000000  1.0 -0.2519541348
C  C205  1  0.70790000  0.22840000  0.00000000  1.0 -0.2519541348
C  C206  1  0.70790000  0.77160000  0.00000000  1.0 -0.2519541348
C  C207  1  0.29210000  0.77160000  0.00000000  1.0 -0.2519541348
C  C208  1  0.77160000  0.70790000  0.00000000  1.0 -0.2519541348
C  C209  1  0.22660000  0.15720000  0.07930000  1.0 0.0390645055
C  C210  1  0.15720000  0.22660000  0.92070000  1.0 0.0390645055
C  C211  1  0.84280000  0.22660000  0.07930000  1.0 0.0390645055
C  C212  1  0.15720000  0.77340000  0.07930000  1.0 0.0390645055
C  C213  1  0.77340000  0.15720000  0.92070000  1.0 0.0390645055
C  C214  1  0.77340000  0.84280000  0.07930000  1.0 0.0390645055
C  C215  1  0.22660000  0.84280000  0.92070000  1.0 0.0390645055
C  C216  1  0.84280000  0.77340000  0.92070000  1.0 0.0390645055
C  C217  1  0.77340000  0.84280000  0.92070000  1.0 0.0390645055
C  C218  1  0.84280000  0.77340000  0.07930000  1.0 0.0390645055
C  C219  1  0.15720000  0.77340000  0.92070000  1.0 0.0390645055
C  C220  1  0.84280000  0.22660000  0.92070000  1.0 0.0390645055
C  C221  1  0.22660000  0.84280000  0.07930000  1.0 0.0390645055
C  C222  1  0.22660000  0.15720000  0.92070000  1.0 0.0390645055
C  C223  1  0.77340000  0.15720000  0.07930000  1.0 0.0390645055
C  C224  1  0.15720000  0.22660000  0.07930000  1.0 0.0390645055
C  C225  1  0.21170000  0.14240000  0.00000000  1.0 -0.1319390213
C  C226  1  0.14240000  0.21170000  0.00000000  1.0 -0.1319390213
C  C227  1  0.85760000  0.21170000  0.00000000  1.0 -0.1319390213
C  C228  1  0.14240000  0.78830000  0.00000000  1.0 -0.1319390213
C  C229  1  0.78830000  0.14240000  0.00000000  1.0 -0.1319390213
C  C230  1  0.78830000  0.85760000  0.00000000  1.0 -0.1319390213
C  C231  1  0.21170000  0.85760000  0.00000000  1.0 -0.1319390213
C  C232  1  0.85760000  0.78830000  0.00000000  1.0 -0.1319390213
C  C233  1  0.45310000  0.07810000  0.41940000  1.0 0.0676337399
C  C234  1  0.07810000  0.45310000  0.58060000  1.0 0.0676337399
C  C235  1  0.92190000  0.45310000  0.41940000  1.0 0.0676337399
C  C236  1  0.07810000  0.54690000  0.41940000  1.0 0.0676337399
C  C237  1  0.54690000  0.07810000  0.58060000  1.0 0.0676337399
C  C238  1  0.54690000  0.92190000  0.41940000  1.0 0.0676337399
C  C239  1  0.45310000  0.92190000  0.58060000  1.0 0.0676337399
C  C240  1  0.92190000  0.54690000  0.58060000  1.0 0.0676337399
C  C241  1  0.54690000  0.92190000  0.58060000  1.0 0.0676337399
C  C242  1  0.92190000  0.54690000  0.41940000  1.0 0.0676337399
C  C243  1  0.07810000  0.54690000  0.58060000  1.0 0.0676337399
C  C244  1  0.92190000  0.45310000  0.58060000  1.0 0.0676337399
C  C245  1  0.45310000  0.92190000  0.41940000  1.0 0.0676337399
C  C246  1  0.45310000  0.07810000  0.58060000  1.0 0.0676337399
C  C247  1  0.54690000  0.07810000  0.41940000  1.0 0.0676337399
C  C248  1  0.07810000  0.45310000  0.41940000  1.0 0.0676337399
C  C249  1  0.44920000  0.05710000  0.33530000  1.0 -0.4267326244
C  C250  1  0.05710000  0.44920000  0.66470000  1.0 -0.4267326244
C  C251  1  0.94290000  0.44920000  0.33530000  1.0 -0.4267326244
C  C252  1  0.05710000  0.55080000  0.33530000  1.0 -0.4267326244
C  C253  1  0.55080000  0.05710000  0.66470000  1.0 -0.4267326244
C  C254  1  0.55080000  0.94290000  0.33530000  1.0 -0.4267326244
C  C255  1  0.44920000  0.94290000  0.66470000  1.0 -0.4267326244
C  C256  1  0.94290000  0.55080000  0.66470000  1.0 -0.4267326244
C  C257  1  0.55080000  0.94290000  0.66470000  1.0 -0.4267326244
C  C258  1  0.94290000  0.55080000  0.33530000  1.0 -0.4267326244
C  C259  1  0.05710000  0.55080000  0.66470000  1.0 -0.4267326244
C  C260  1  0.94290000  0.44920000  0.66470000  1.0 -0.4267326244
C  C261  1  0.44920000  0.94290000  0.33530000  1.0 -0.4267326244
C  C262  1  0.44920000  0.05710000  0.66470000  1.0 -0.4267326244
C  C263  1  0.55080000  0.05710000  0.33530000  1.0 -0.4267326244
C  C264  1  0.05710000  0.44920000  0.33530000  1.0 -0.4267326244
C  C265  1  0.45140000  0.05990000  0.50000000  1.0 -0.2280770107
C  C266  1  0.05990000  0.45140000  0.50000000  1.0 -0.2280770107
C  C267  1  0.94010000  0.45140000  0.50000000  1.0 -0.2280770107
C  C268  1  0.05990000  0.54860000  0.50000000  1.0 -0.2280770107
C  C269  1  0.54860000  0.05990000  0.50000000  1.0 -0.2280770107
C  C270  1  0.54860000  0.94010000  0.50000000  1.0 -0.2280770107
C  C271  1  0.45140000  0.94010000  0.50000000  1.0 -0.2280770107
C  C272  1  0.94010000  0.54860000  0.50000000  1.0 -0.2280770107
C  C273  1  0.35860000  0.04650000  0.50000000  1.0 -0.3319608396
C  C274  1  0.04650000  0.35860000  0.50000000  1.0 -0.3319608396
C  C275  1  0.95350000  0.35860000  0.50000000  1.0 -0.3319608396
C  C276  1  0.04650000  0.64140000  0.50000000  1.0 -0.3319608396
C  C277  1  0.64140000  0.04650000  0.50000000  1.0 -0.3319608396
C  C278  1  0.64140000  0.95350000  0.50000000  1.0 -0.3319608396
C  C279  1  0.35860000  0.95350000  0.50000000  1.0 -0.3319608396
C  C280  1  0.95350000  0.64140000  0.50000000  1.0 -0.3319608396
C  C281  1  0.23760000  0.05170000  0.33530000  1.0 -0.4187308179
C  C282  1  0.05170000  0.23760000  0.66470000  1.0 -0.4187308179
C  C283  1  0.94830000  0.23760000  0.33530000  1.0 -0.4187308179
C  C284  1  0.05170000  0.76240000  0.33530000  1.0 -0.4187308179
C  C285  1  0.76240000  0.05170000  0.66470000  1.0 -0.4187308179
C  C286  1  0.76240000  0.94830000  0.33530000  1.0 -0.4187308179
C  C287  1  0.23760000  0.94830000  0.66470000  1.0 -0.4187308179
C  C288  1  0.94830000  0.76240000  0.66470000  1.0 -0.4187308179
C  C289  1  0.76240000  0.94830000  0.66470000  1.0 -0.4187308179
C  C290  1  0.94830000  0.76240000  0.33530000  1.0 -0.4187308179
C  C291  1  0.05170000  0.76240000  0.66470000  1.0 -0.4187308179
C  C292  1  0.94830000  0.23760000  0.66470000  1.0 -0.4187308179
C  C293  1  0.23760000  0.94830000  0.33530000  1.0 -0.4187308179
C  C294  1  0.23760000  0.05170000  0.66470000  1.0 -0.4187308179
C  C295  1  0.76240000  0.05170000  0.33530000  1.0 -0.4187308179
C  C296  1  0.05170000  0.23760000  0.33530000  1.0 -0.4187308179
C  C297  1  0.20930000  0.14170000  0.16340000  1.0 -0.3926499051
C  C298  1  0.14170000  0.20930000  0.83660000  1.0 -0.3926499051
C  C299  1  0.85830000  0.20930000  0.16340000  1.0 -0.3926499051
C  C300  1  0.14170000  0.79070000  0.16340000  1.0 -0.3926499051
C  C301  1  0.79070000  0.14170000  0.83660000  1.0 -0.3926499051
C  C302  1  0.79070000  0.85830000  0.16340000  1.0 -0.3926499051
C  C303  1  0.20930000  0.85830000  0.83660000  1.0 -0.3926499051
C  C304  1  0.85830000  0.79070000  0.83660000  1.0 -0.3926499051
C  C305  1  0.79070000  0.85830000  0.83660000  1.0 -0.3926499051
C  C306  1  0.85830000  0.79070000  0.16340000  1.0 -0.3926499051
C  C307  1  0.14170000  0.79070000  0.83660000  1.0 -0.3926499051
C  C308  1  0.85830000  0.20930000  0.83660000  1.0 -0.3926499051
C  C309  1  0.20930000  0.85830000  0.16340000  1.0 -0.3926499051
C  C310  1  0.20930000  0.14170000  0.83660000  1.0 -0.3926499051
C  C311  1  0.79070000  0.14170000  0.16340000  1.0 -0.3926499051
C  C312  1  0.14170000  0.20930000  0.16340000  1.0 -0.3926499051
N  N1  1  0.31680000  0.04470000  0.34140000  1.0 -0.3926499051
N  N2  1  0.04470000  0.31680000  0.65860000  1.0 -0.3926499051
N  N3  1  0.95530000  0.31680000  0.34140000  1.0 -0.3926499051
N  N4  1  0.04470000  0.68320000  0.34140000  1.0 -0.3926499051
N  N5  1  0.68320000  0.04470000  0.65860000  1.0 -0.3926499051
N  N6  1  0.68320000  0.95530000  0.34140000  1.0 -0.3926499051
N  N7  1  0.31680000  0.95530000  0.65860000  1.0 -0.3926499051
N  N8  1  0.95530000  0.68320000  0.65860000  1.0 -0.3926499051
N  N9  1  0.68320000  0.95530000  0.65860000  1.0 -0.3926499051
N  N10  1  0.95530000  0.68320000  0.34140000  1.0 -0.3926499051
N  N11  1  0.04470000  0.68320000  0.65860000  1.0 -0.3926499051
N  N12  1  0.95530000  0.31680000  0.65860000  1.0 -0.3926499051
N  N13  1  0.31680000  0.95530000  0.34140000  1.0 -0.3926499051
N  N14  1  0.31680000  0.04470000  0.65860000  1.0 -0.3926499051
N  N15  1  0.68320000  0.04470000  0.34140000  1.0 -0.3926499051
N  N16  1  0.04470000  0.31680000  0.34140000  1.0 -0.3926499051
N  N17  1  0.45720000  0.13700000  0.33930000  1.0 -0.4267326244
N  N18  1  0.13700000  0.45720000  0.66070000  1.0 -0.4267326244
N  N19  1  0.86300000  0.45720000  0.33930000  1.0 -0.4267326244
N  N20  1  0.13700000  0.54280000  0.33930000  1.0 -0.4267326244
N  N21  1  0.54280000  0.13700000  0.66070000  1.0 -0.4267326244
N  N22  1  0.54280000  0.86300000  0.33930000  1.0 -0.4267326244
N  N23  1  0.45720000  0.86300000  0.66070000  1.0 -0.4267326244
N  N24  1  0.86300000  0.54280000  0.66070000  1.0 -0.4267326244
N  N25  1  0.54280000  0.86300000  0.66070000  1.0 -0.4267326244
N  N26  1  0.86300000  0.54280000  0.33930000  1.0 -0.4187308179
N  N27  1  0.13700000  0.54280000  0.66070000  1.0 -0.4267326244
N  N28  1  0.86300000  0.45720000  0.66070000  1.0 -0.4267326244
N  N29  1  0.45720000  0.86300000  0.33930000  1.0 -0.4267326244
N  N30  1  0.45720000  0.13700000  0.66070000  1.0 -0.4267326244
N  N31  1  0.54280000  0.13700000  0.33930000  1.0 -0.4267326244
N  N32  1  0.13700000  0.45720000  0.33930000  1.0 -0.4267326244
N  N33  1  0.26273000  0.20110000  0.16010000  1.0 -0.4017528232
N  N34  1  0.20110000  0.26273000  0.83990000  1.0 -0.4017528232
N  N35  1  0.79890000  0.26273000  0.16010000  1.0 -0.4017528232
N  N36  1  0.20110000  0.73727000  0.16010000  1.0 -0.4017528232
N  N37  1  0.73727000  0.20110000  0.83990000  1.0 -0.4017528232
N  N38  1  0.73727000  0.79890000  0.16010000  1.0 -0.4017528232
N  N39  1  0.26273000  0.79890000  0.83990000  1.0 -0.4017528232
N  N40  1  0.79890000  0.73727000  0.83990000  1.0 -0.4017528232
N  N41  1  0.73727000  0.79890000  0.83990000  1.0 -0.4017528232
N  N42  1  0.79890000  0.73727000  0.16010000  1.0 -0.4017528232
N  N43  1  0.20110000  0.73727000  0.83990000  1.0 -0.4017528232
N  N44  1  0.79890000  0.26273000  0.83990000  1.0 -0.4017528232
N  N45  1  0.26273000  0.79890000  0.16010000  1.0 -0.4017528232
N  N46  1  0.26273000  0.20110000  0.83990000  1.0 -0.4017528232
N  N47  1  0.73727000  0.20110000  0.16010000  1.0 -0.4017528232
N  N48  1  0.20110000  0.26273000  0.16010000  1.0 -0.4017528232
O  O1  1  0.35770000  0.03610000  0.19970000  1.0 -0.4696742644
O  O2  1  0.03610000  0.35770000  0.80030000  1.0 -0.4696742644
O  O3  1  0.96390000  0.35770000  0.19970000  1.0 -0.4696742644
O  O4  1  0.03610000  0.64230000  0.19970000  1.0 -0.4696742644
O  O5  1  0.64230000  0.03610000  0.80030000  1.0 -0.4696742644
O  O6  1  0.64230000  0.96390000  0.19970000  1.0 -0.4696742644
O  O7  1  0.35770000  0.96390000  0.80030000  1.0 -0.4696742644
O  O8  1  0.96390000  0.64230000  0.80030000  1.0 -0.4696742644
O  O9  1  0.64230000  0.96390000  0.80030000  1.0 -0.4696742644
O  O10  1  0.96390000  0.64230000  0.19970000  1.0 -0.4696742644
O  O11  1  0.03610000  0.64230000  0.80030000  1.0 -0.4696742644
O  O12  1  0.96390000  0.35770000  0.80030000  1.0 -0.4696742644
O  O13  1  0.35770000  0.96390000  0.19970000  1.0 -0.4696742644
O  O14  1  0.35770000  0.03610000  0.80030000  1.0 -0.4696742644
O  O15  1  0.64230000  0.03610000  0.19970000  1.0 -0.4696742644
O  O16  1  0.03610000  0.35770000  0.19970000  1.0 -0.4696742644
O  O17  1  0.36318000  0.09710000  0.18280000  1.0 -0.3926499051
O  O18  1  0.09710000  0.36318000  0.81720000  1.0 -0.3926499051
O  O19  1  0.90290000  0.36318000  0.18280000  1.0 -0.4017528232
O  O20  1  0.09710000  0.63682000  0.18280000  1.0 -0.4017528232
O  O21  1  0.63682000  0.09710000  0.81720000  1.0 -0.3926499051
O  O22  1  0.63682000  0.90290000  0.18280000  1.0 -0.4017528232
O  O23  1  0.36318000  0.90290000  0.81720000  1.0 -0.3926499051
O  O24  1  0.90290000  0.63682000  0.81720000  1.0 -0.3926499051
O  O25  1  0.63682000  0.90290000  0.81720000  1.0 -0.3926499051
O  O26  1  0.90290000  0.63682000  0.18280000  1.0 -0.4017528232
O  O27  1  0.09710000  0.63682000  0.81720000  1.0 -0.3926499051
O  O28  1  0.90290000  0.36318000  0.81720000  1.0 -0.3926499051
O  O29  1  0.36318000  0.90290000  0.18280000  1.0 -0.4017528232
O  O30  1  0.36318000  0.09710000  0.81720000  1.0 -0.3926499051
O  O31  1  0.63682000  0.09710000  0.18280000  1.0 -0.3926499051
O  O32  1  0.09710000  0.36318000  0.18280000  1.0 -0.3926499051
O  O33  1  0.31900000  0.10720000  0.32460000  1.0 -0.4580923978
O  O34  1  0.10720000  0.31900000  0.67540000  1.0 -0.4580923978
O  O35  1  0.89280000  0.31900000  0.32460000  1.0 -0.4580923978
O  O36  1  0.10720000  0.68100000  0.32460000  1.0 -0.4580923978
O  O37  1  0.68100000  0.10720000  0.67540000  1.0 -0.4580923978
O  O38  1  0.68100000  0.89280000  0.32460000  1.0 -0.4580923978
O  O39  1  0.31900000  0.89280000  0.67540000  1.0 -0.4580923978
O  O40  1  0.89280000  0.68100000  0.67540000  1.0 -0.4580923978
O  O41  1  0.68100000  0.89280000  0.67540000  1.0 -0.4580923978
O  O42  1  0.89280000  0.68100000  0.32460000  1.0 -0.4580923978
O  O43  1  0.10720000  0.68100000  0.67540000  1.0 -0.4580923978
O  O44  1  0.89280000  0.31900000  0.67540000  1.0 -0.4580923978
O  O45  1  0.31900000  0.89280000  0.32460000  1.0 -0.4580923978
O  O46  1  0.31900000  0.10720000  0.67540000  1.0 -0.4580923978
O  O47  1  0.68100000  0.10720000  0.32460000  1.0 -0.4580923978
O  O48  1  0.10720000  0.31900000  0.32460000  1.0 -0.4580923978
O  O49  1  0.46230000  0.17110000  0.18930000  1.0 -0.4752043238
O  O50  1  0.17110000  0.46230000  0.81070000  1.0 -0.4752043238
O  O51  1  0.82890000  0.46230000  0.18930000  1.0 -0.4752043238
O  O52  1  0.17110000  0.53770000  0.18930000  1.0 -0.4752043238
O  O53  1  0.53770000  0.17110000  0.81070000  1.0 -0.4752043238
O  O54  1  0.53770000  0.82890000  0.18930000  1.0 -0.4752043238
O  O55  1  0.46230000  0.82890000  0.81070000  1.0 -0.4752043238
O  O56  1  0.82890000  0.53770000  0.81070000  1.0 -0.4752043238
O  O57  1  0.53770000  0.82890000  0.81070000  1.0 -0.4752043238
O  O58  1  0.82890000  0.53770000  0.18930000  1.0 -0.4752043238
O  O59  1  0.17110000  0.53770000  0.81070000  1.0 -0.4752043238
O  O60  1  0.82890000  0.46230000  0.81070000  1.0 -0.4752043238
O  O61  1  0.46230000  0.82890000  0.18930000  1.0 -0.4752043238
O  O62  1  0.46230000  0.17110000  0.81070000  1.0 -0.4752043238
O  O63  1  0.53770000  0.17110000  0.18930000  1.0 -0.4752043238
O  O64  1  0.17110000  0.46230000  0.18930000  1.0 -0.4752043238
O  O65  1  0.40002000  0.17300000  0.17570000  1.0 -0.4580923978
O  O66  1  0.17300000  0.40002000  0.82430000  1.0 -0.4580923978
O  O67  1  0.82700000  0.40002000  0.17570000  1.0 -0.4580923978
O  O68  1  0.17300000  0.59998000  0.17570000  1.0 -0.4580923978
O  O69  1  0.59998000  0.17300000  0.82430000  1.0 -0.4580923978
O  O70  1  0.59998000  0.82700000  0.17570000  1.0 -0.4580923978
O  O71  1  0.40002000  0.82700000  0.82430000  1.0 -0.4580923978
O  O72  1  0.82700000  0.59998000  0.82430000  1.0 -0.4580923978
O  O73  1  0.59998000  0.82700000  0.82430000  1.0 -0.4580923978
O  O74  1  0.82700000  0.59998000  0.17570000  1.0 -0.4580923978
O  O75  1  0.17300000  0.59998000  0.82430000  1.0 -0.4580923978
O  O76  1  0.82700000  0.40002000  0.82430000  1.0 -0.4580923978
O  O77  1  0.40002000  0.82700000  0.17570000  1.0 -0.4580923978
O  O78  1  0.40002000  0.17300000  0.82430000  1.0 -0.4580923978
O  O79  1  0.59998000  0.17300000  0.17570000  1.0 -0.4580923978
O  O80  1  0.17300000  0.40002000  0.17570000  1.0 -0.4580923978
O  O81  1  0.39470000  0.14020000  0.33240000  1.0 -0.4389050057
O  O82  1  0.14020000  0.39470000  0.66760000  1.0 -0.4389050057
O  O83  1  0.85980000  0.39470000  0.33240000  1.0 -0.4389050057
O  O84  1  0.14020000  0.60530000  0.33240000  1.0 -0.4389050057
O  O85  1  0.60530000  0.14020000  0.66760000  1.0 -0.4389050057
O  O86  1  0.60530000  0.85980000  0.33240000  1.0 -0.4267326244
O  O87  1  0.39470000  0.85980000  0.66760000  1.0 -0.4267326244
O  O88  1  0.85980000  0.60530000  0.66760000  1.0 -0.4389050057
O  O89  1  0.60530000  0.85980000  0.66760000  1.0 -0.4267326244
O  O90  1  0.85980000  0.60530000  0.33240000  1.0 -0.4389050057
O  O91  1  0.14020000  0.60530000  0.66760000  1.0 -0.4267326244
O  O92  1  0.85980000  0.39470000  0.66760000  1.0 -0.4389050057
O  O93  1  0.39470000  0.85980000  0.33240000  1.0 -0.4389050057
O  O94  1  0.39470000  0.14020000  0.66760000  1.0 -0.4389050057
O  O95  1  0.60530000  0.14020000  0.33240000  1.0 -0.4389050057
O  O96  1  0.14020000  0.39470000  0.33240000  1.0 -0.4389050057
O  O97  1  0.31152000  0.16130000  0.16390000  1.0 -0.4389050057
O  O98  1  0.16130000  0.31152000  0.83610000  1.0 -0.4389050057
O  O99  1  0.83870000  0.31152000  0.16390000  1.0 -0.4389050057
O  O100  1  0.16130000  0.68848000  0.16390000  1.0 -0.4389050057
O  O101  1  0.68848000  0.16130000  0.83610000  1.0 -0.4389050057
O  O102  1  0.68848000  0.83870000  0.16390000  1.0 -0.4389050057
O  O103  1  0.31152000  0.83870000  0.83610000  1.0 -0.4389050057
O  O104  1  0.83870000  0.68848000  0.83610000  1.0 -0.4389050057
O  O105  1  0.68848000  0.83870000  0.83610000  1.0 -0.4389050057
O  O106  1  0.83870000  0.68848000  0.16390000  1.0 -0.4389050057
O  O107  1  0.16130000  0.68848000  0.83610000  1.0 -0.4389050057
O  O108  1  0.83870000  0.31152000  0.83610000  1.0 -0.4389050057
O  O109  1  0.31152000  0.83870000  0.16390000  1.0 -0.4389050057
O  O110  1  0.31152000  0.16130000  0.83610000  1.0 -0.4389050057
O  O111  1  0.68848000  0.16130000  0.16390000  1.0 -0.4389050057
O  O112  1  0.16130000  0.31152000  0.16390000  1.0 -0.4389050057
O  O113  1  0.33314000  0.19320000  0.31500000  1.0 -0.4580923978
O  O114  1  0.19320000  0.33314000  0.68500000  1.0 -0.4580923978
O  O115  1  0.80680000  0.33314000  0.31500000  1.0 -0.4580923978
O  O116  1  0.19320000  0.66686000  0.31500000  1.0 -0.4580923978
O  O117  1  0.66686000  0.19320000  0.68500000  1.0 -0.4580923978
O  O118  1  0.66686000  0.80680000  0.31500000  1.0 -0.4580923978
O  O119  1  0.33314000  0.80680000  0.68500000  1.0 -0.4580923978
O  O120  1  0.80680000  0.66686000  0.68500000  1.0 -0.4580923978
O  O121  1  0.66686000  0.80680000  0.68500000  1.0 -0.4580923978
O  O122  1  0.80680000  0.66686000  0.31500000  1.0 -0.4580923978
O  O123  1  0.19320000  0.66686000  0.68500000  1.0 -0.4580923978
O  O124  1  0.80680000  0.33314000  0.68500000  1.0 -0.4580923978
O  O125  1  0.33314000  0.80680000  0.31500000  1.0 -0.4580923978
O  O126  1  0.33314000  0.19320000  0.68500000  1.0 -0.4580923978
O  O127  1  0.66686000  0.19320000  0.31500000  1.0 -0.4580923978
O  O128  1  0.19320000  0.33314000  0.31500000  1.0 -0.4580923978
O  O129  1  0.28504000  0.23110000  0.30890000  1.0 -0.4887375938
O  O130  1  0.23110000  0.28504000  0.69110000  1.0 -0.4887375938
O  O131  1  0.76890000  0.28504000  0.30890000  1.0 -0.4887375938
O  O132  1  0.23110000  0.71496000  0.30890000  1.0 -0.4887375938
O  O133  1  0.71496000  0.23110000  0.69110000  1.0 -0.4887375938
O  O134  1  0.71496000  0.76890000  0.30890000  1.0 -0.4887375938
O  O135  1  0.28504000  0.76890000  0.69110000  1.0 -0.4887375938
O  O136  1  0.76890000  0.71496000  0.69110000  1.0 -0.4887375938
O  O137  1  0.71496000  0.76890000  0.69110000  1.0 -0.4887375938
O  O138  1  0.76890000  0.71496000  0.30890000  1.0 -0.4887375938
O  O139  1  0.23110000  0.71496000  0.69110000  1.0 -0.4887375938
O  O140  1  0.76890000  0.28504000  0.69110000  1.0 -0.4887375938
O  O141  1  0.28504000  0.76890000  0.30890000  1.0 -0.4887375938
O  O142  1  0.28504000  0.23110000  0.69110000  1.0 -0.4887375938
O  O143  1  0.71496000  0.23110000  0.30890000  1.0 -0.4887375938
O  O144  1  0.23110000  0.28504000  0.30890000  1.0 -0.4887375938
O  O145  1  0.21350000  0.25200000  0.50000000  1.0 0.0133856103
O  O146  1  0.25200000  0.21350000  0.50000000  1.0 0.0133856103
O  O147  1  0.74800000  0.21350000  0.50000000  1.0 0.0133856103
O  O148  1  0.25200000  0.78650000  0.50000000  1.0 0.0133856103
O  O149  1  0.78650000  0.25200000  0.50000000  1.0 0.0133856103
O  O150  1  0.78650000  0.74800000  0.50000000  1.0 0.0133856103
O  O151  1  0.21350000  0.74800000  0.50000000  1.0 0.0133856103
O  O152  1  0.74800000  0.78650000  0.50000000  1.0 0.0133856103
O  O153  1  0.47270000  0.13050000  0.00000000  1.0 0.373216465
O  O154  1  0.13050000  0.47270000  0.00000000  1.0 0.373216465
O  O155  1  0.86950000  0.47270000  0.00000000  1.0 0.373216465
O  O156  1  0.13050000  0.52730000  0.00000000  1.0 0.373216465
O  O157  1  0.52730000  0.13050000  0.00000000  1.0 0.373216465
O  O158  1  0.52730000  0.86950000  0.00000000  1.0 0.3752590367
O  O159  1  0.47270000  0.86950000  0.00000000  1.0 0.373216465
O  O160  1  0.86950000  0.52730000  0.00000000  1.0 0.3752590367
O  O161  1  0.33900000  0.04780000  0.00000000  1.0 -0.7312678969
O  O162  1  0.04780000  0.33900000  0.00000000  1.0 -0.7312678969
O  O163  1  0.95220000  0.33900000  0.00000000  1.0 -0.7312678969
O  O164  1  0.04780000  0.66100000  0.00000000  1.0 -0.7312678969
O  O165  1  0.66100000  0.04780000  0.00000000  1.0 -0.7312678969
O  O166  1  0.66100000  0.95220000  0.00000000  1.0 -0.7312678969
O  O167  1  0.33900000  0.95220000  0.00000000  1.0 -0.7312678969
O  O168  1  0.95220000  0.66100000  0.00000000  1.0 -0.7312678969
O  O169  1  0.43680000  0.18790000  0.00000000  1.0 -0.0038964133
O  O170  1  0.18790000  0.43680000  0.00000000  1.0 0.0027567061
O  O171  1  0.81210000  0.43680000  0.00000000  1.0 -0.0038964133
O  O172  1  0.18790000  0.56320000  0.00000000  1.0 0.0027567061
O  O173  1  0.56320000  0.18790000  0.00000000  1.0 -0.0038964133
O  O174  1  0.56320000  0.81210000  0.00000000  1.0 0.0027567061
O  O175  1  0.43680000  0.81210000  0.00000000  1.0 0.0027567061
O  O176  1  0.81210000  0.56320000  0.00000000  1.0 -0.0038964133
O  O177  1  0.29840000  0.21530000  0.50000000  1.0 -0.1995355146
O  O178  1  0.21530000  0.29840000  0.50000000  1.0 -0.1995355146
O  O179  1  0.78470000  0.29840000  0.50000000  1.0 -0.1995355146
O  O180  1  0.21530000  0.70160000  0.50000000  1.0 -0.1995355146
O  O181  1  0.70160000  0.21530000  0.50000000  1.0 -0.1995355146
O  O182  1  0.70160000  0.78470000  0.50000000  1.0 -0.1995355146
O  O183  1  0.29840000  0.78470000  0.50000000  1.0 -0.1995355146
O  O184  1  0.78470000  0.70160000  0.50000000  1.0 -0.1995355146
O  O185  1  0.32650000  0.30690000  0.35530000  1.0 0.2441524328
O  O186  1  0.30690000  0.32650000  0.64470000  1.0 0.2441524328
O  O187  1  0.69310000  0.32650000  0.35530000  1.0 0.2441524328
O  O188  1  0.30690000  0.67350000  0.35530000  1.0 0.2441524328
O  O189  1  0.67350000  0.30690000  0.64470000  1.0 0.2441524328
O  O190  1  0.67350000  0.69310000  0.35530000  1.0 0.2441524328
O  O191  1  0.32650000  0.69310000  0.64470000  1.0 0.2441524328
O  O192  1  0.69310000  0.67350000  0.64470000  1.0 0.2441524328
O  O193  1  0.67350000  0.69310000  0.64470000  1.0 0.2441524328
O  O194  1  0.69310000  0.67350000  0.35530000  1.0 0.2441524328
O  O195  1  0.30690000  0.67350000  0.64470000  1.0 0.2441524328
O  O196  1  0.69310000  0.32650000  0.64470000  1.0 0.2441524328
O  O197  1  0.32650000  0.69310000  0.35530000  1.0 0.2441524328
O  O198  1  0.32650000  0.30690000  0.64470000  1.0 0.2441524328
O  O199  1  0.67350000  0.30690000  0.35530000  1.0 0.2441524328
O  O200  1  0.30690000  0.32650000  0.35530000  1.0 0.2441524328
