# DDEC6 charges by PACMAN v1.1 (https://github.com/mtap-research/PACMAN-charge/)
data_YEQTAT_FSR_pacman
_symmetry_space_group_name_H-M   'P 1'
_cell_length_a   18.74940000
_cell_length_b   18.74940000
_cell_length_c   18.74940000
_cell_angle_alpha   126.60300000
_cell_angle_beta   126.60300000
_cell_angle_gamma   78.89850000
_symmetry_Int_Tables_number   1
_chemical_formula_structural   Cu8H48C56Xe5O32
_chemical_formula_sum   'Cu16 H96 C112 Xe10 O64'
_cell_volume   4109.69260384
_cell_formula_units_Z   2
loop_
 _symmetry_equiv_pos_site_id
 _symmetry_equiv_pos_as_xyz
  1  'x, y, z'
loop_
 _atom_site_type_symbol
 _atom_site_label
 _atom_site_symmetry_multiplicity
 _atom_site_fract_x
 _atom_site_fract_y
 _atom_site_fract_z
 _atom_site_occupancy
 _atom_site_charge
Cu  Cu1  1  0.17963000  0.86921000  0.31042000  1.0 0.8394489341
Cu  Cu2  1  0.02882000  0.86934000  0.15948000  1.0 0.8017051794
Cu  Cu3  1  0.55879000  0.86921000  0.68958000  1.0 0.8345669646
Cu  Cu4  1  0.70986000  0.86934000  0.84052000  1.0 0.8017051794
Cu  Cu5  1  0.61921000  0.80879000  0.18958000  1.0 0.8345669646
Cu  Cu6  1  0.61934000  0.95986000  0.34052000  1.0 0.8017051794
Cu  Cu7  1  0.61921000  0.42963000  0.81042000  1.0 0.8345669646
Cu  Cu8  1  0.61934000  0.27882000  0.65948000  1.0 0.8017051794
Cu  Cu9  1  0.19121000  0.38079000  0.81042000  1.0 0.8345669646
Cu  Cu10  1  0.04014000  0.38066000  0.65948000  1.0 0.8017051794
Cu  Cu11  1  0.57037000  0.38079000  0.18958000  1.0 0.8345669646
Cu  Cu12  1  0.72118000  0.38066000  0.34052000  1.0 0.8017051794
Cu  Cu13  1  0.13079000  0.44121000  0.31042000  1.0 0.8345669646
Cu  Cu14  1  0.13066000  0.29014000  0.15948000  1.0 0.8017051794
Cu  Cu15  1  0.13079000  0.82037000  0.68958000  1.0 0.8345669646
Cu  Cu16  1  0.13066000  0.97118000  0.84052000  1.0 0.8017051794
H  H1  1  0.33683000  0.14195000  0.52996000  1.0 0.130051356
H  H2  1  0.33178000  0.13098000  0.43528000  1.0 0.130051356
H  H3  1  0.09936000  0.15039000  0.28587000  1.0 0.130051356
H  H4  1  0.19988000  0.16742000  0.53162000  1.0 0.130051356
H  H5  1  0.10748000  0.16996000  0.43644000  1.0 0.130051356
H  H6  1  0.34044000  0.38374000  0.68176000  1.0 0.130051356
H  H7  1  0.61199000  0.80687000  0.47004000  1.0 0.130051356
H  H8  1  0.69570000  0.89650000  0.56472000  1.0 0.130051356
H  H9  1  0.86452000  0.81349000  0.71413000  1.0 0.130051356
H  H10  1  0.63580000  0.66826000  0.46838000  1.0 0.130051356
H  H11  1  0.73352000  0.67104000  0.56356000  1.0 0.130051356
H  H12  1  0.70198000  0.65868000  0.31824000  1.0 0.130051356
H  H13  1  0.89195000  0.86199000  0.30512000  1.0 0.130051356
H  H14  1  0.88098000  0.94570000  0.29920000  1.0 0.130051356
H  H15  1  0.90039000  0.11452000  0.55103000  1.0 0.130051356
H  H16  1  0.91742000  0.88580000  0.46754000  1.0 0.130051356
H  H17  1  0.91996000  0.98352000  0.56248000  1.0 0.130051356
H  H18  1  0.13374000  0.95198000  0.54330000  1.0 0.130051356
H  H19  1  0.55687000  0.58683000  0.69488000  1.0 0.130051356
H  H20  1  0.64650000  0.58178000  0.70080000  1.0 0.130051356
H  H21  1  0.56349000  0.34936000  0.44897000  1.0 0.130051356
H  H22  1  0.41826000  0.44988000  0.53246000  1.0 0.130051356
H  H23  1  0.42104000  0.35748000  0.43752000  1.0 0.130051356
H  H24  1  0.40868000  0.59044000  0.45670000  1.0 0.130051356
H  H25  1  0.13801000  0.10805000  0.69488000  1.0 0.130051356
H  H26  1  0.05430000  0.11902000  0.70080000  1.0 0.130051356
H  H27  1  0.88548000  0.09961000  0.44897000  1.0 0.130051356
H  H28  1  0.11420000  0.08258000  0.53246000  1.0 0.130051356
H  H29  1  0.01648000  0.08004000  0.43752000  1.0 0.130051356
H  H30  1  0.04802000  0.86626000  0.45670000  1.0 0.130051356
H  H31  1  0.41317000  0.44313000  0.30512000  1.0 0.130051356
H  H32  1  0.41822000  0.35350000  0.29920000  1.0 0.130051356
H  H33  1  0.65064000  0.43651000  0.55103000  1.0 0.130051356
H  H34  1  0.55012000  0.58174000  0.46754000  1.0 0.130051356
H  H35  1  0.64252000  0.57896000  0.56248000  1.0 0.130051356
H  H36  1  0.40956000  0.59132000  0.54330000  1.0 0.130051356
H  H37  1  0.19313000  0.38801000  0.52996000  1.0 0.130051356
H  H38  1  0.10350000  0.30430000  0.43528000  1.0 0.130051356
H  H39  1  0.18651000  0.13548000  0.28587000  1.0 0.130051356
H  H40  1  0.33174000  0.36420000  0.53162000  1.0 0.130051356
H  H41  1  0.32896000  0.26648000  0.43644000  1.0 0.130051356
H  H42  1  0.34132000  0.29802000  0.68176000  1.0 0.130051356
H  H43  1  0.85805000  0.66317000  0.47004000  1.0 0.130051356
H  H44  1  0.86902000  0.66822000  0.56472000  1.0 0.130051356
H  H45  1  0.84961000  0.90064000  0.71413000  1.0 0.130051356
H  H46  1  0.83258000  0.80012000  0.46838000  1.0 0.130051356
H  H47  1  0.83004000  0.89252000  0.56356000  1.0 0.130051356
H  H48  1  0.61626000  0.65956000  0.31824000  1.0 0.130051356
H  H49  1  0.41317000  0.10805000  0.97004000  1.0 0.130051356
H  H50  1  0.41822000  0.11902000  0.06472000  1.0 0.130051356
H  H51  1  0.65064000  0.09961000  0.21413000  1.0 0.130051356
H  H52  1  0.55012000  0.08258000  0.96838000  1.0 0.130051356
H  H53  1  0.64252000  0.08004000  0.06356000  1.0 0.130051356
H  H54  1  0.40956000  0.86626000  0.81824000  1.0 0.130051356
H  H55  1  0.13801000  0.44313000  0.02996000  1.0 0.130051356
H  H56  1  0.05430000  0.35350000  0.93528000  1.0 0.130051356
H  H57  1  0.88548000  0.43651000  0.78587000  1.0 0.130051356
H  H58  1  0.11420000  0.58174000  0.03162000  1.0 0.130051356
H  H59  1  0.01648000  0.57896000  0.93644000  1.0 0.130051356
H  H60  1  0.04802000  0.59132000  0.18176000  1.0 0.130051356
H  H61  1  0.85805000  0.38801000  0.19488000  1.0 0.130051356
H  H62  1  0.86902000  0.30430000  0.20080000  1.0 0.130051356
H  H63  1  0.84961000  0.13548000  0.94897000  1.0 0.130051356
H  H64  1  0.83258000  0.36420000  0.03246000  1.0 0.130051356
H  H65  1  0.83004000  0.26648000  0.93752000  1.0 0.130051356
H  H66  1  0.61626000  0.29802000  0.95670000  1.0 0.130051356
H  H67  1  0.19313000  0.66317000  0.80512000  1.0 0.130051356
H  H68  1  0.10350000  0.66822000  0.79920000  1.0 0.130051356
H  H69  1  0.18651000  0.90064000  0.05103000  1.0 0.130051356
H  H70  1  0.33174000  0.80012000  0.96754000  1.0 0.130051356
H  H71  1  0.32896000  0.89252000  0.06248000  1.0 0.130051356
H  H72  1  0.34132000  0.65956000  0.04330000  1.0 0.130051356
H  H73  1  0.61199000  0.14195000  0.80512000  1.0 0.130051356
H  H74  1  0.69570000  0.13098000  0.79920000  1.0 0.130051356
H  H75  1  0.86452000  0.15039000  0.05103000  1.0 0.130051356
H  H76  1  0.63580000  0.16742000  0.96754000  1.0 0.130051356
H  H77  1  0.73352000  0.16996000  0.06248000  1.0 0.130051356
H  H78  1  0.70198000  0.38374000  0.04330000  1.0 0.130051356
H  H79  1  0.33683000  0.80687000  0.19488000  1.0 0.130051356
H  H80  1  0.33178000  0.89650000  0.20080000  1.0 0.130051356
H  H81  1  0.09936000  0.81349000  0.94897000  1.0 0.130051356
H  H82  1  0.19988000  0.66826000  0.03246000  1.0 0.130051356
H  H83  1  0.10748000  0.67104000  0.93752000  1.0 0.130051356
H  H84  1  0.34044000  0.65868000  0.95670000  1.0 0.130051356
H  H85  1  0.55687000  0.86199000  0.97004000  1.0 0.130051356
H  H86  1  0.64650000  0.94570000  0.06472000  1.0 0.130051356
H  H87  1  0.56349000  0.11452000  0.21413000  1.0 0.130051356
H  H88  1  0.41826000  0.88580000  0.96838000  1.0 0.130051356
H  H89  1  0.42104000  0.98352000  0.06356000  1.0 0.130051356
H  H90  1  0.40868000  0.95198000  0.81824000  1.0 0.130051356
H  H91  1  0.89195000  0.58683000  0.02996000  1.0 0.130051356
H  H92  1  0.88098000  0.58178000  0.93528000  1.0 0.130051356
H  H93  1  0.90039000  0.34936000  0.78587000  1.0 0.130051356
H  H94  1  0.91742000  0.44988000  0.03162000  1.0 0.130051356
H  H95  1  0.91996000  0.35748000  0.93644000  1.0 0.130051356
H  H96  1  0.13374000  0.59044000  0.18176000  1.0 0.130051356
C  C1  1  0.31170000  0.16240000  0.48310000  1.0 -0.2693774005
C  C2  1  0.20582000  0.13722000  0.40860000  1.0 0.0896218945
C  C3  1  0.17538000  0.18678000  0.48380000  1.0 -0.2595242805
C  C4  1  0.21085000  0.29175000  0.55850000  1.0 0.0896218945
C  C5  1  0.17719000  0.33259000  0.62880000  1.0 0.5468823814
C  C6  1  0.16822000  0.03542000  0.34040000  1.0 0.5468823814
C  C7  1  0.67930000  0.82860000  0.51690000  1.0 -0.2693774005
C  C8  1  0.72862000  0.79722000  0.59140000  1.0 0.0896218945
C  C9  1  0.70298000  0.69158000  0.51620000  1.0 -0.2595242805
C  C10  1  0.73325000  0.65235000  0.44150000  1.0 0.0896218945
C  C11  1  0.70379000  0.54839000  0.37120000  1.0 0.5468823814
C  C12  1  0.69502000  0.82782000  0.65960000  1.0 0.5468823814
C  C13  1  0.91240000  0.92930000  0.35070000  1.0 -0.2693774005
C  C14  1  0.88722000  0.97862000  0.43140000  1.0 0.0896218945
C  C15  1  0.93678000  0.95298000  0.51140000  1.0 -0.2595242805
C  C16  1  0.04175000  0.98325000  0.58090000  1.0 0.0896218945
C  C17  1  0.08259000  0.95379000  0.65540000  1.0 0.5468823814
C  C18  1  0.78542000  0.94502000  0.36720000  1.0 0.5468823814
C  C19  1  0.57860000  0.56170000  0.64930000  1.0 -0.2693774005
C  C20  1  0.54722000  0.45582000  0.56860000  1.0 0.0896218945
C  C21  1  0.44158000  0.42538000  0.48860000  1.0 -0.2595242805
C  C22  1  0.40235000  0.46085000  0.41910000  1.0 0.0896218945
C  C23  1  0.29839000  0.42719000  0.34460000  1.0 0.5468823814
C  C24  1  0.57782000  0.41822000  0.63280000  1.0 0.5468823814
C  C25  1  0.07070000  0.08760000  0.64930000  1.0 -0.2693774005
C  C26  1  0.02138000  0.11278000  0.56860000  1.0 0.0896218945
C  C27  1  0.04702000  0.06322000  0.48860000  1.0 -0.2595242805
C  C28  1  0.01675000  0.95825000  0.41910000  1.0 0.0896218945
C  C29  1  0.04621000  0.91741000  0.34460000  1.0 0.5468823814
C  C30  1  0.05498000  0.21458000  0.63280000  1.0 0.5468823814
C  C31  1  0.43830000  0.42140000  0.35070000  1.0 -0.2693774005
C  C32  1  0.54418000  0.45278000  0.43140000  1.0 0.0896218945
C  C33  1  0.57462000  0.55842000  0.51140000  1.0 -0.2595242805
C  C34  1  0.53915000  0.59765000  0.58090000  1.0 0.0896218945
C  C35  1  0.57281000  0.70161000  0.65540000  1.0 0.5468823814
C  C36  1  0.58178000  0.42218000  0.36720000  1.0 0.5468823814
C  C37  1  0.17140000  0.32070000  0.48310000  1.0 -0.2693774005
C  C38  1  0.20278000  0.27138000  0.40860000  1.0 0.0896218945
C  C39  1  0.30842000  0.29702000  0.48380000  1.0 -0.2595242805
C  C40  1  0.34765000  0.26675000  0.55850000  1.0 0.0896218945
C  C41  1  0.45161000  0.29621000  0.62880000  1.0 0.5468823814
C  C42  1  0.17218000  0.30498000  0.34040000  1.0 0.5468823814
C  C43  1  0.83760000  0.68830000  0.51690000  1.0 -0.2693774005
C  C44  1  0.86278000  0.79418000  0.59140000  1.0 0.0896218945
C  C45  1  0.81322000  0.82462000  0.51620000  1.0 -0.2595242805
C  C46  1  0.70825000  0.78915000  0.44150000  1.0 0.0896218945
C  C47  1  0.66741000  0.82281000  0.37120000  1.0 0.5468823814
C  C48  1  0.96458000  0.83178000  0.65960000  1.0 0.5468823814
C  C49  1  0.43830000  0.08760000  0.01690000  1.0 -0.2693774005
C  C50  1  0.54418000  0.11278000  0.09140000  1.0 0.0896218945
C  C51  1  0.57462000  0.06322000  0.01620000  1.0 -0.2595242805
C  C52  1  0.53915000  0.95825000  0.94150000  1.0 0.0896218945
C  C53  1  0.57281000  0.91741000  0.87120000  1.0 0.5468823814
C  C54  1  0.58178000  0.21458000  0.15960000  1.0 0.5468823814
C  C55  1  0.07070000  0.42140000  0.98310000  1.0 -0.2693774005
C  C56  1  0.02138000  0.45278000  0.90860000  1.0 0.0896218945
C  C57  1  0.04702000  0.55842000  0.98380000  1.0 -0.2595242805
C  C58  1  0.01675000  0.59765000  0.05850000  1.0 0.0896218945
C  C59  1  0.04621000  0.70161000  0.12880000  1.0 0.5468823814
C  C60  1  0.05498000  0.42218000  0.84040000  1.0 0.5468823814
C  C61  1  0.83760000  0.32070000  0.14930000  1.0 -0.2693774005
C  C62  1  0.86278000  0.27138000  0.06860000  1.0 0.0896218945
C  C63  1  0.81322000  0.29702000  0.98860000  1.0 -0.2595242805
C  C64  1  0.70825000  0.26675000  0.91910000  1.0 0.0896218945
C  C65  1  0.66741000  0.29621000  0.84460000  1.0 0.5468823814
C  C66  1  0.96458000  0.30498000  0.13280000  1.0 0.5468823814
C  C67  1  0.17140000  0.68830000  0.85070000  1.0 -0.2693774005
C  C68  1  0.20278000  0.79418000  0.93140000  1.0 0.0896218945
C  C69  1  0.30842000  0.82462000  0.01140000  1.0 -0.2595242805
C  C70  1  0.34765000  0.78915000  0.08090000  1.0 0.0896218945
C  C71  1  0.45161000  0.82281000  0.15540000  1.0 0.5468823814
C  C72  1  0.17218000  0.83178000  0.86720000  1.0 0.5468823814
C  C73  1  0.67930000  0.16240000  0.85070000  1.0 -0.2693774005
C  C74  1  0.72862000  0.13722000  0.93140000  1.0 0.0896218945
C  C75  1  0.70298000  0.18678000  0.01140000  1.0 -0.2595242805
C  C76  1  0.73325000  0.29175000  0.08090000  1.0 0.0896218945
C  C77  1  0.70379000  0.33259000  0.15540000  1.0 0.5468823814
C  C78  1  0.69502000  0.03542000  0.86720000  1.0 0.5468823814
C  C79  1  0.31170000  0.82860000  0.14930000  1.0 -0.2693774005
C  C80  1  0.20582000  0.79722000  0.06860000  1.0 0.0896218945
C  C81  1  0.17538000  0.69158000  0.98860000  1.0 -0.2595242805
C  C82  1  0.21085000  0.65235000  0.91910000  1.0 0.0896218945
C  C83  1  0.17719000  0.54839000  0.84460000  1.0 0.5468823814
C  C84  1  0.16822000  0.82782000  0.13280000  1.0 0.5468823814
C  C85  1  0.57860000  0.92930000  0.01690000  1.0 -0.2693774005
C  C86  1  0.54722000  0.97862000  0.09140000  1.0 0.0896218945
C  C87  1  0.44158000  0.95298000  0.01620000  1.0 -0.2595242805
C  C88  1  0.40235000  0.98325000  0.94150000  1.0 0.0896218945
C  C89  1  0.29839000  0.95379000  0.87120000  1.0 0.5468823814
C  C90  1  0.57782000  0.94502000  0.15960000  1.0 0.5468823814
C  C91  1  0.91240000  0.56170000  0.98310000  1.0 -0.2693774005
C  C92  1  0.88722000  0.45582000  0.90860000  1.0 0.0896218945
C  C93  1  0.93678000  0.42538000  0.98380000  1.0 -0.2595242805
C  C94  1  0.04175000  0.46085000  0.05850000  1.0 0.0896218945
C  C95  1  0.08259000  0.42719000  0.12880000  1.0 0.5468823814
C  C96  1  0.78542000  0.41822000  0.84040000  1.0 0.5468823814
C  C97  1  0.16730000  0.16730000  0.33460000  1.0 -0.2693774005
C  C98  1  0.31650000  0.31650000  0.63300000  1.0 -0.2693774005
C  C99  1  0.83270000  0.83270000  0.66540000  1.0 -0.2693774005
C  C100  1  0.68350000  0.68350000  0.36700000  1.0 -0.2693774005
C  C101  1  0.91730000  0.08270000  0.50000000  1.0 -0.2693774005
C  C102  1  0.06650000  0.93350000  0.50000000  1.0 -0.2693774005
C  C103  1  0.58270000  0.41730000  0.50000000  1.0 -0.2693774005
C  C104  1  0.43350000  0.56650000  0.50000000  1.0 -0.2693774005
C  C105  1  0.58270000  0.08270000  0.16540000  1.0 -0.2693774005
C  C106  1  0.43350000  0.93350000  0.86700000  1.0 -0.2693774005
C  C107  1  0.91730000  0.41730000  0.83460000  1.0 -0.2693774005
C  C108  1  0.06650000  0.56650000  0.13300000  1.0 -0.2693774005
C  C109  1  0.83270000  0.16730000  0.00000000  1.0 -0.2693774005
C  C110  1  0.68350000  0.31650000  0.00000000  1.0 -0.2693774005
C  C111  1  0.16730000  0.83270000  0.00000000  1.0 -0.2693774005
C  C112  1  0.31650000  0.68350000  0.00000000  1.0 -0.2693774005
Xe  Xe1  1  0.33850000  0.83850000  0.50000000  1.0 -0.1332573242
Xe  Xe2  1  0.58850000  0.58850000  0.00000000  1.0 -0.1430463142
Xe  Xe3  1  0.41150000  0.41150000  0.00000000  1.0 -0.1430463142
Xe  Xe4  1  0.16150000  0.66150000  0.50000000  1.0 -0.1332573242
Xe  Xe5  1  0.25000000  0.75000000  0.50000000  1.0 -0.0024153105
Xe  Xe6  1  0.50000000  0.50000000  0.00000000  1.0 -0.0024153105
Xe  Xe7  1  0.86870000  0.86870000  0.00000000  1.0 -0.0748448915
Xe  Xe8  1  0.61870000  0.11870000  0.50000000  1.0 -0.0771287478
Xe  Xe9  1  0.88130000  0.38130000  0.50000000  1.0 -0.0748448915
Xe  Xe10  1  0.13130000  0.13130000  0.00000000  1.0 -0.0771287478
O  O1  1  0.08699000  0.99809000  0.25010000  1.0 -0.5064263726
O  O2  1  0.09734000  0.34514000  0.58680000  1.0 -0.5064263726
O  O3  1  0.21848000  0.99628000  0.38160000  1.0 -0.5003631099
O  O4  1  0.22991000  0.34601000  0.72130000  1.0 -0.5064263726
O  O5  1  0.74799000  0.83689000  0.74990000  1.0 -0.5064263726
O  O6  1  0.75834000  0.51054000  0.41320000  1.0 -0.5064263726
O  O7  1  0.61468000  0.83688000  0.61840000  1.0 -0.5003631099
O  O8  1  0.62471000  0.50861000  0.27870000  1.0 -0.5064263726
O  O9  1  0.74809000  0.99799000  0.41110000  1.0 -0.5064263726
O  O10  1  0.09514000  0.00834000  0.74780000  1.0 -0.5064263726
O  O11  1  0.74628000  0.86468000  0.27780000  1.0 -0.5003631099
O  O12  1  0.09601000  0.87471000  0.61610000  1.0 -0.5064263726
O  O13  1  0.58689000  0.33699000  0.58890000  1.0 -0.5064263726
O  O14  1  0.26054000  0.34734000  0.25220000  1.0 -0.5064263726
O  O15  1  0.58688000  0.46848000  0.72220000  1.0 -0.5003631099
O  O16  1  0.25861000  0.47991000  0.38390000  1.0 -0.5064263726
O  O17  1  0.00201000  0.25191000  0.58890000  1.0 -0.5064263726
O  O18  1  0.99166000  0.90486000  0.25220000  1.0 -0.5064263726
O  O19  1  0.13532000  0.25372000  0.72220000  1.0 -0.5003631099
O  O20  1  0.12529000  0.90399000  0.38390000  1.0 -0.5064263726
O  O21  1  0.66301000  0.41311000  0.41110000  1.0 -0.5064263726
O  O22  1  0.65266000  0.73946000  0.74780000  1.0 -0.5064263726
O  O23  1  0.53152000  0.41312000  0.27780000  1.0 -0.5003631099
O  O24  1  0.52009000  0.74139000  0.61610000  1.0 -0.5064263726
O  O25  1  0.16311000  0.25201000  0.25010000  1.0 -0.5064263726
O  O26  1  0.48946000  0.24166000  0.58680000  1.0 -0.5064263726
O  O27  1  0.16312000  0.38532000  0.38160000  1.0 -0.5003631099
O  O28  1  0.49139000  0.37529000  0.72130000  1.0 -0.5064263726
O  O29  1  0.00191000  0.91301000  0.74990000  1.0 -0.5064263726
O  O30  1  0.65486000  0.90266000  0.41320000  1.0 -0.5064263726
O  O31  1  0.00372000  0.78152000  0.61840000  1.0 -0.5003631099
O  O32  1  0.65399000  0.77009000  0.27870000  1.0 -0.5064263726
O  O33  1  0.66301000  0.25191000  0.24990000  1.0 -0.5064263726
O  O34  1  0.65266000  0.90486000  0.91320000  1.0 -0.5064263726
O  O35  1  0.53152000  0.25372000  0.11840000  1.0 -0.5003631099
O  O36  1  0.52009000  0.90399000  0.77870000  1.0 -0.5064263726
O  O37  1  0.00201000  0.41311000  0.75010000  1.0 -0.5064263726
O  O38  1  0.99166000  0.73946000  0.08680000  1.0 -0.5064263726
O  O39  1  0.13532000  0.41312000  0.88160000  1.0 -0.5003631099
O  O40  1  0.12529000  0.74139000  0.22130000  1.0 -0.5064263726
O  O41  1  0.00191000  0.25201000  0.08890000  1.0 -0.5064263726
O  O42  1  0.65486000  0.24166000  0.75220000  1.0 -0.5064263726
O  O43  1  0.00372000  0.38532000  0.22220000  1.0 -0.5003631099
O  O44  1  0.65399000  0.37529000  0.88390000  1.0 -0.5064263726
O  O45  1  0.16311000  0.91301000  0.91110000  1.0 -0.5064263726
O  O46  1  0.48946000  0.90266000  0.24780000  1.0 -0.5064263726
O  O47  1  0.16312000  0.78152000  0.77780000  1.0 -0.5003631099
O  O48  1  0.49139000  0.77009000  0.11610000  1.0 -0.5064263726
O  O49  1  0.74799000  0.99809000  0.91110000  1.0 -0.5064263726
O  O50  1  0.75834000  0.34514000  0.24780000  1.0 -0.5064263726
O  O51  1  0.61468000  0.99628000  0.77780000  1.0 -0.5003631099
O  O52  1  0.62471000  0.34601000  0.11610000  1.0 -0.5064263726
O  O53  1  0.08699000  0.83689000  0.08890000  1.0 -0.5064263726
O  O54  1  0.09734000  0.51054000  0.75220000  1.0 -0.5064263726
O  O55  1  0.21848000  0.83688000  0.22220000  1.0 -0.5003631099
O  O56  1  0.22991000  0.50861000  0.88390000  1.0 -0.5064263726
O  O57  1  0.58689000  0.99799000  0.24990000  1.0 -0.5064263726
O  O58  1  0.26054000  0.00834000  0.91320000  1.0 -0.5064263726
O  O59  1  0.58688000  0.86468000  0.11840000  1.0 -0.5003631099
O  O60  1  0.25861000  0.87471000  0.77870000  1.0 -0.5064263726
O  O61  1  0.74809000  0.33699000  0.75010000  1.0 -0.5064263726
O  O62  1  0.09514000  0.34734000  0.08680000  1.0 -0.5064263726
O  O63  1  0.74628000  0.46848000  0.88160000  1.0 -0.5003631099
O  O64  1  0.09601000  0.47991000  0.22130000  1.0 -0.5064263726
