# DDEC6 charges by PACMAN v1.1 (https://github.com/mtap-research/PACMAN-charge/)
data_YESFIO_ASR_pacman
_symmetry_space_group_name_H-M   'P 1'
_cell_length_a   10.48600000
_cell_length_b   10.51200000
_cell_length_c   24.34120000
_cell_angle_alpha   90.00000000
_cell_angle_beta   113.67500000
_cell_angle_gamma   90.00000000
_symmetry_Int_Tables_number   1
_chemical_formula_structural   ZnH15C21N2O5
_chemical_formula_sum   'Zn4 H60 C84 N8 O20'
_cell_volume   2457.28651323
_cell_formula_units_Z   4
loop_
 _symmetry_equiv_pos_site_id
 _symmetry_equiv_pos_as_xyz
  1  'x, y, z'
loop_
 _atom_site_type_symbol
 _atom_site_label
 _atom_site_symmetry_multiplicity
 _atom_site_fract_x
 _atom_site_fract_y
 _atom_site_fract_z
 _atom_site_occupancy
 _atom_site_charge
Zn  Zn1  1  0.44942000  0.12075000  0.51450000  1.0 0.8301286293
Zn  Zn2  1  0.55058000  0.62075000  0.98550000  1.0 0.8301286293
Zn  Zn3  1  0.55058000  0.87925000  0.48550000  1.0 0.8301286293
Zn  Zn4  1  0.44942000  0.37925000  0.01450000  1.0 0.8301286293
H  H1  1  0.23470000  0.31260000  0.51170000  1.0 0.1217379762
H  H2  1  0.74160000  0.85160000  0.25870000  1.0 0.138708348
H  H3  1  0.67170000  0.78480000  0.16100000  1.0 0.1121456535
H  H4  1  0.46940000  0.49160000  0.19340000  1.0 0.1217379762
H  H5  1  0.98970000  0.03880000  0.44650000  1.0 0.1217379762
H  H6  1  0.76710000  0.95420000  0.40150000  1.0 0.138708348
H  H7  1  0.92220000  0.64670000  0.35330000  1.0 0.138708348
H  H8  1  0.14380000  0.72930000  0.40010000  1.0 0.1121456535
H  H9  1  0.53720000  0.55900000  0.29130000  1.0 0.138708348
H  H10  1  0.42730000  0.63510000  0.58520000  1.0 0.1217379762
H  H11  1  0.07040000  0.70100000  0.54320000  1.0 0.1535901768
H  H12  1  0.21460000  0.67980000  0.59690000  1.0 0.1564381314
H  H13  1  0.20870000  0.73130000  0.53550000  1.0 0.1535901768
H  H14  1  0.63860000  0.32760000  0.57680000  1.0 0.1121456535
H  H15  1  0.63680000  0.53580000  0.60420000  1.0 0.1323770178
H  H16  1  0.76530000  0.81260000  0.98830000  1.0 0.1217379762
H  H17  1  0.25840000  0.35160000  0.24130000  1.0 0.138708348
H  H18  1  0.32830000  0.28480000  0.33900000  1.0 0.1121456535
H  H19  1  0.53060000  0.99160000  0.30660000  1.0 0.1217379762
H  H20  1  0.01030000  0.53880000  0.05350000  1.0 0.1217379762
H  H21  1  0.23290000  0.45420000  0.09850000  1.0 0.138708348
H  H22  1  0.07780000  0.14670000  0.14670000  1.0 0.138708348
H  H23  1  0.85620000  0.22930000  0.09990000  1.0 0.1121456535
H  H24  1  0.46280000  0.05900000  0.20870000  1.0 0.138708348
H  H25  1  0.57270000  0.13510000  0.91480000  1.0 0.1217379762
H  H26  1  0.92960000  0.20100000  0.95680000  1.0 0.1535901768
H  H27  1  0.78540000  0.17980000  0.90310000  1.0 0.1564381314
H  H28  1  0.79130000  0.23130000  0.96450000  1.0 0.1535901768
H  H29  1  0.36140000  0.82760000  0.92320000  1.0 0.1121456535
H  H30  1  0.36320000  0.03580000  0.89580000  1.0 0.1323770178
H  H31  1  0.76530000  0.68740000  0.48830000  1.0 0.1217379762
H  H32  1  0.25840000  0.14840000  0.74130000  1.0 0.138708348
H  H33  1  0.32830000  0.21520000  0.83900000  1.0 0.1121456535
H  H34  1  0.53060000  0.50840000  0.80660000  1.0 0.1217379762
H  H35  1  0.01030000  0.96120000  0.55350000  1.0 0.1217379762
H  H36  1  0.23290000  0.04580000  0.59850000  1.0 0.138708348
H  H37  1  0.07780000  0.35330000  0.64670000  1.0 0.138708348
H  H38  1  0.85620000  0.27070000  0.59990000  1.0 0.1121456535
H  H39  1  0.46280000  0.44100000  0.70870000  1.0 0.138708348
H  H40  1  0.57270000  0.36490000  0.41480000  1.0 0.1217379762
H  H41  1  0.92960000  0.29900000  0.45680000  1.0 0.1535901768
H  H42  1  0.78540000  0.32020000  0.40310000  1.0 0.1564381314
H  H43  1  0.79130000  0.26870000  0.46450000  1.0 0.1535901768
H  H44  1  0.36140000  0.67240000  0.42320000  1.0 0.1121456535
H  H45  1  0.36320000  0.46420000  0.39580000  1.0 0.1323770178
H  H46  1  0.23470000  0.18740000  0.01170000  1.0 0.1217379762
H  H47  1  0.74160000  0.64840000  0.75870000  1.0 0.138708348
H  H48  1  0.67170000  0.71520000  0.66100000  1.0 0.1121456535
H  H49  1  0.46940000  0.00840000  0.69340000  1.0 0.1217379762
H  H50  1  0.98970000  0.46120000  0.94650000  1.0 0.1217379762
H  H51  1  0.76710000  0.54580000  0.90150000  1.0 0.138708348
H  H52  1  0.92220000  0.85330000  0.85330000  1.0 0.138708348
H  H53  1  0.14380000  0.77070000  0.90010000  1.0 0.1121456535
H  H54  1  0.53720000  0.94100000  0.79130000  1.0 0.138708348
H  H55  1  0.42730000  0.86490000  0.08520000  1.0 0.1217379762
H  H56  1  0.07040000  0.79900000  0.04320000  1.0 0.1535901768
H  H57  1  0.21460000  0.82020000  0.09690000  1.0 0.1564381314
H  H58  1  0.20870000  0.76870000  0.03550000  1.0 0.1535901768
H  H59  1  0.63860000  0.17240000  0.07680000  1.0 0.1121456535
H  H60  1  0.63680000  0.96420000  0.10420000  1.0 0.1323770178
C  C1  1  0.56519000  0.62974000  0.16680000  1.0 -0.048458191
C  C2  1  0.08996000  0.89400000  0.42723000  1.0 -0.0416030543
C  C3  1  0.31637000  0.35884000  0.53044000  1.0 0.0584361782
C  C4  1  0.68751000  0.77870000  0.24571000  1.0 -0.2209553117
C  C5  1  0.23449000  0.94880000  0.45588000  1.0 0.5724140895
C  C6  1  0.64559000  0.73830000  0.18729000  1.0 -0.0883087548
C  C7  1  0.30665000  0.48409000  0.54615000  1.0 -0.0104568378
C  C8  1  0.52475000  0.56370000  0.20645000  1.0 -0.0831378209
C  C9  1  0.97652000  0.95990000  0.42769000  1.0 -0.0883087548
C  C10  1  0.84295000  0.91000000  0.40045000  1.0 -0.1985250184
C  C11  1  0.93590000  0.72590000  0.37190000  1.0 -0.2073156307
C  C12  1  0.82462000  0.79500000  0.37204000  1.0 0.232657951
C  C13  1  0.06805000  0.77580000  0.39975000  1.0 -0.0831378209
C  C14  1  0.64919000  0.71060000  0.28469000  1.0 0.2504346562
C  C15  1  0.56554000  0.60350000  0.26514000  1.0 -0.2073156307
C  C16  1  0.53173000  0.58270000  0.10443000  1.0 0.5786862565
C  C17  1  0.16912000  0.54190000  0.53352000  1.0 0.2680239571
C  C18  1  0.42919000  0.55070000  0.57409000  1.0 -0.0831378209
C  C19  1  0.16535000  0.67550000  0.55415000  1.0 -0.5205967905
C  C20  1  0.55378000  0.36750000  0.56858000  1.0 0.0728171734
C  C21  1  0.55350000  0.49190000  0.58540000  1.0 -0.1397359477
C  C22  1  0.43481000  0.12974000  0.33320000  1.0 -0.048458191
C  C23  1  0.91004000  0.39400000  0.07277000  1.0 -0.0416030543
C  C24  1  0.68363000  0.85884000  0.96956000  1.0 0.0584361782
C  C25  1  0.31249000  0.27870000  0.25429000  1.0 -0.2209553117
C  C26  1  0.76551000  0.44880000  0.04412000  1.0 0.5724140895
C  C27  1  0.35441000  0.23830000  0.31271000  1.0 -0.0883087548
C  C28  1  0.69335000  0.98409000  0.95385000  1.0 -0.0104568378
C  C29  1  0.47525000  0.06370000  0.29355000  1.0 -0.0831378209
C  C30  1  0.02348000  0.45990000  0.07231000  1.0 -0.0883087548
C  C31  1  0.15705000  0.41000000  0.09955000  1.0 -0.1985250184
C  C32  1  0.06410000  0.22590000  0.12810000  1.0 -0.2073156307
C  C33  1  0.17538000  0.29500000  0.12796000  1.0 0.232657951
C  C34  1  0.93195000  0.27580000  0.10025000  1.0 -0.0831378209
C  C35  1  0.35081000  0.21060000  0.21531000  1.0 0.2504346562
C  C36  1  0.43446000  0.10350000  0.23486000  1.0 -0.2073156307
C  C37  1  0.46827000  0.08270000  0.39557000  1.0 0.5786862565
C  C38  1  0.83088000  0.04190000  0.96648000  1.0 0.2680239571
C  C39  1  0.57081000  0.05070000  0.92591000  1.0 -0.0831378209
C  C40  1  0.83465000  0.17550000  0.94585000  1.0 -0.5205967905
C  C41  1  0.44622000  0.86750000  0.93142000  1.0 0.0728171734
C  C42  1  0.44650000  0.99190000  0.91460000  1.0 -0.1397359477
C  C43  1  0.43481000  0.37026000  0.83320000  1.0 -0.048458191
C  C44  1  0.91004000  0.10600000  0.57277000  1.0 -0.0416030543
C  C45  1  0.68363000  0.64116000  0.46956000  1.0 0.0584361782
C  C46  1  0.31249000  0.22130000  0.75429000  1.0 -0.2209553117
C  C47  1  0.76551000  0.05120000  0.54412000  1.0 0.5724140895
C  C48  1  0.35441000  0.26170000  0.81271000  1.0 -0.0883087548
C  C49  1  0.69335000  0.51591000  0.45385000  1.0 -0.0104568378
C  C50  1  0.47525000  0.43630000  0.79355000  1.0 -0.0831378209
C  C51  1  0.02348000  0.04010000  0.57231000  1.0 -0.0883087548
C  C52  1  0.15705000  0.09000000  0.59955000  1.0 -0.1985250184
C  C53  1  0.06410000  0.27410000  0.62810000  1.0 -0.2073156307
C  C54  1  0.17538000  0.20500000  0.62796000  1.0 0.232657951
C  C55  1  0.93195000  0.22420000  0.60025000  1.0 -0.0831378209
C  C56  1  0.35081000  0.28940000  0.71531000  1.0 0.2504346562
C  C57  1  0.43446000  0.39650000  0.73486000  1.0 -0.2073156307
C  C58  1  0.46827000  0.41730000  0.89557000  1.0 0.5786862565
C  C59  1  0.83088000  0.45810000  0.46648000  1.0 0.2680239571
C  C60  1  0.57081000  0.44930000  0.42591000  1.0 -0.0831378209
C  C61  1  0.83465000  0.32450000  0.44585000  1.0 -0.5205967905
C  C62  1  0.44622000  0.63250000  0.43142000  1.0 0.0728171734
C  C63  1  0.44650000  0.50810000  0.41460000  1.0 -0.1397359477
C  C64  1  0.56519000  0.87026000  0.66680000  1.0 -0.048458191
C  C65  1  0.08996000  0.60600000  0.92723000  1.0 -0.0416030543
C  C66  1  0.31637000  0.14116000  0.03044000  1.0 0.0584361782
C  C67  1  0.68751000  0.72130000  0.74571000  1.0 -0.2209553117
C  C68  1  0.23449000  0.55120000  0.95588000  1.0 0.5724140895
C  C69  1  0.64559000  0.76170000  0.68729000  1.0 -0.0883087548
C  C70  1  0.30665000  0.01591000  0.04615000  1.0 -0.0104568378
C  C71  1  0.52475000  0.93630000  0.70645000  1.0 -0.0831378209
C  C72  1  0.97652000  0.54010000  0.92769000  1.0 -0.0883087548
C  C73  1  0.84295000  0.59000000  0.90045000  1.0 -0.1985250184
C  C74  1  0.93590000  0.77410000  0.87190000  1.0 -0.2073156307
C  C75  1  0.82462000  0.70500000  0.87204000  1.0 0.232657951
C  C76  1  0.06805000  0.72420000  0.89975000  1.0 -0.0831378209
C  C77  1  0.64919000  0.78940000  0.78469000  1.0 0.2504346562
C  C78  1  0.56554000  0.89650000  0.76514000  1.0 -0.2073156307
C  C79  1  0.53173000  0.91730000  0.60443000  1.0 0.5786862565
C  C80  1  0.16912000  0.95810000  0.03352000  1.0 0.2680239571
C  C81  1  0.42919000  0.94930000  0.07409000  1.0 -0.0831378209
C  C82  1  0.16535000  0.82450000  0.05415000  1.0 -0.5205967905
C  C83  1  0.55378000  0.13250000  0.06858000  1.0 0.0728171734
C  C84  1  0.55350000  0.00810000  0.08540000  1.0 -0.1397359477
N  N1  1  0.43697000  0.30165000  0.54096000  1.0 -0.1985250184
N  N2  1  0.06439000  0.47172000  0.50519000  1.0 -0.2314119892
N  N3  1  0.56303000  0.80165000  0.95904000  1.0 -0.1985250184
N  N4  1  0.93561000  0.97172000  0.99481000  1.0 -0.2314119892
N  N5  1  0.56303000  0.69835000  0.45904000  1.0 -0.1985250184
N  N6  1  0.93561000  0.52828000  0.49481000  1.0 -0.2314119892
N  N7  1  0.43697000  0.19835000  0.04096000  1.0 -0.1985250184
N  N8  1  0.06439000  0.02828000  0.00519000  1.0 -0.2314119892
O  O1  1  0.68979000  0.74650000  0.34419000  1.0 -0.2209553117
O  O2  1  0.56183000  0.65436000  0.07010000  1.0 -0.5488835679
O  O3  1  0.47767000  0.47445000  0.09106000  1.0 -0.5278211044
O  O4  1  0.33246000  0.87998000  0.45632000  1.0 -0.5686294841
O  O5  1  0.24874000  0.05862000  0.47728000  1.0 -0.5205967905
O  O6  1  0.31021000  0.24650000  0.15581000  1.0 -0.2209553117
O  O7  1  0.43817000  0.15436000  0.42990000  1.0 -0.5488835679
O  O8  1  0.52233000  0.97445000  0.40894000  1.0 -0.5278211044
O  O9  1  0.66754000  0.37998000  0.04368000  1.0 -0.5686294841
O  O10  1  0.75126000  0.55862000  0.02272000  1.0 -0.5205967905
O  O11  1  0.31021000  0.25350000  0.65581000  1.0 -0.2209553117
O  O12  1  0.43817000  0.34564000  0.92990000  1.0 -0.5488835679
O  O13  1  0.52233000  0.52555000  0.90894000  1.0 -0.5278211044
O  O14  1  0.66754000  0.12002000  0.54368000  1.0 -0.5686294841
O  O15  1  0.75126000  0.94138000  0.52272000  1.0 -0.5205967905
O  O16  1  0.68979000  0.75350000  0.84419000  1.0 -0.2209553117
O  O17  1  0.56183000  0.84564000  0.57010000  1.0 -0.5488835679
O  O18  1  0.47767000  0.02555000  0.59106000  1.0 -0.5278211044
O  O19  1  0.33246000  0.62002000  0.95632000  1.0 -0.5686294841
O  O20  1  0.24874000  0.44138000  0.97728000  1.0 -0.5205967905
