# DDEC6 charges by PACMAN v1.1 (https://github.com/mtap-research/PACMAN-charge/)
data_YEVTUR_ASR_pacman
_symmetry_space_group_name_H-M   'P 1'
_cell_length_a   30.65100000
_cell_length_b   30.65100000
_cell_length_c   30.65100000
_cell_angle_alpha   60.00000000
_cell_angle_beta   60.00000000
_cell_angle_gamma   60.00000000
_symmetry_Int_Tables_number   1
_chemical_formula_structural   Co14H84C144(ClO20)3
_chemical_formula_sum   'Co28 H168 C288 Cl6 O120'
_cell_volume   20361.93029865
_cell_formula_units_Z   2
loop_
 _symmetry_equiv_pos_site_id
 _symmetry_equiv_pos_as_xyz
  1  'x, y, z'
loop_
 _atom_site_type_symbol
 _atom_site_label
 _atom_site_symmetry_multiplicity
 _atom_site_fract_x
 _atom_site_fract_y
 _atom_site_fract_z
 _atom_site_occupancy
 _atom_site_charge
Co  Co1  1  0.66062000  0.66062000  0.66062000  1.0 0.9004679668
Co  Co2  1  0.61192000  0.61192000  0.61192000  1.0 1.0018948305
Co  Co3  1  0.66062000  0.01814000  0.66062000  1.0 0.9004679668
Co  Co4  1  0.61192000  0.16424000  0.61192000  1.0 1.0018948305
Co  Co5  1  0.66062000  0.66062000  0.01814000  1.0 0.8923180092
Co  Co6  1  0.61192000  0.61192000  0.16424000  1.0 1.0018948305
Co  Co7  1  0.01814000  0.66062000  0.66062000  1.0 0.9004679668
Co  Co8  1  0.16424000  0.61192000  0.61192000  1.0 1.0018948305
Co  Co9  1  0.33938000  0.98186000  0.33938000  1.0 0.8923180092
Co  Co10  1  0.38808000  0.83576000  0.38808000  1.0 1.0018948305
Co  Co11  1  0.33938000  0.33938000  0.33938000  1.0 0.9004679668
Co  Co12  1  0.38808000  0.38808000  0.38808000  1.0 1.0018948305
Co  Co13  1  0.33938000  0.33938000  0.98186000  1.0 0.8923180092
Co  Co14  1  0.38808000  0.38808000  0.83576000  1.0 1.0018948305
Co  Co15  1  0.98186000  0.33938000  0.33938000  1.0 0.9004679668
Co  Co16  1  0.83576000  0.38808000  0.38808000  1.0 1.0018948305
Co  Co17  1  0.29906000  0.70094000  0.70094000  1.0 0.9627967465
Co  Co18  1  0.23192000  0.76808000  0.76808000  1.0 1.0247960437
Co  Co19  1  0.70094000  0.29906000  0.29906000  1.0 0.9627967465
Co  Co20  1  0.76808000  0.23192000  0.23192000  1.0 1.0247960437
Co  Co21  1  0.70094000  0.70094000  0.29906000  1.0 0.9627967465
Co  Co22  1  0.76808000  0.76808000  0.23192000  1.0 1.0247960437
Co  Co23  1  0.29906000  0.29906000  0.70094000  1.0 0.9627967465
Co  Co24  1  0.23192000  0.23192000  0.76808000  1.0 1.0257876504
Co  Co25  1  0.70094000  0.29906000  0.70094000  1.0 0.9627967465
Co  Co26  1  0.76808000  0.23192000  0.76808000  1.0 1.0247960437
Co  Co27  1  0.29906000  0.70094000  0.29906000  1.0 0.9627967465
Co  Co28  1  0.23192000  0.76808000  0.23192000  1.0 1.0247960437
H  H1  1  0.43220000  0.73720000  0.94080000  1.0 0.1202767846
H  H2  1  0.94080000  0.88980000  0.43220000  1.0 0.1202767846
H  H3  1  0.73720000  0.43220000  0.88980000  1.0 0.1202767846
H  H4  1  0.88980000  0.94080000  0.73720000  1.0 0.1202767846
H  H5  1  0.73720000  0.94080000  0.43220000  1.0 0.1202767846
H  H6  1  0.88980000  0.43220000  0.94080000  1.0 0.1202767846
H  H7  1  0.43220000  0.88980000  0.73720000  1.0 0.1202767846
H  H8  1  0.94080000  0.73720000  0.88980000  1.0 0.1202767846
H  H9  1  0.94080000  0.43220000  0.73720000  1.0 0.1202767846
H  H10  1  0.43220000  0.94080000  0.88980000  1.0 0.1202767846
H  H11  1  0.88980000  0.73720000  0.43220000  1.0 0.1202767846
H  H12  1  0.73720000  0.88980000  0.94080000  1.0 0.1202767846
H  H13  1  0.56780000  0.11020000  0.05920000  1.0 0.1202767846
H  H14  1  0.05920000  0.26280000  0.56780000  1.0 0.1202767846
H  H15  1  0.26280000  0.05920000  0.11020000  1.0 0.1202767846
H  H16  1  0.11020000  0.56780000  0.26280000  1.0 0.1202767846
H  H17  1  0.26280000  0.11020000  0.56780000  1.0 0.1202767846
H  H18  1  0.11020000  0.26280000  0.05920000  1.0 0.1202767846
H  H19  1  0.56780000  0.05920000  0.26280000  1.0 0.1202767846
H  H20  1  0.05920000  0.56780000  0.11020000  1.0 0.1202767846
H  H21  1  0.05920000  0.11020000  0.26280000  1.0 0.1202767846
H  H22  1  0.56780000  0.26280000  0.11020000  1.0 0.1202767846
H  H23  1  0.11020000  0.05920000  0.56780000  1.0 0.1202767846
H  H24  1  0.26280000  0.56780000  0.05920000  1.0 0.1202767846
H  H25  1  0.56780000  0.26280000  0.05920000  1.0 0.1202767846
H  H26  1  0.05920000  0.11020000  0.56780000  1.0 0.1202767846
H  H27  1  0.26280000  0.56780000  0.11020000  1.0 0.1202767846
H  H28  1  0.11020000  0.05920000  0.26280000  1.0 0.1202767846
H  H29  1  0.26280000  0.05920000  0.56780000  1.0 0.1202767846
H  H30  1  0.11020000  0.56780000  0.05920000  1.0 0.1202767846
H  H31  1  0.56780000  0.11020000  0.26280000  1.0 0.1202767846
H  H32  1  0.05920000  0.26280000  0.11020000  1.0 0.1202767846
H  H33  1  0.05920000  0.56780000  0.26280000  1.0 0.1202767846
H  H34  1  0.56780000  0.05920000  0.11020000  1.0 0.1202767846
H  H35  1  0.11020000  0.26280000  0.56780000  1.0 0.1202767846
H  H36  1  0.26280000  0.11020000  0.05920000  1.0 0.1202767846
H  H37  1  0.43220000  0.88980000  0.94080000  1.0 0.1202767846
H  H38  1  0.94080000  0.73720000  0.43220000  1.0 0.1202767846
H  H39  1  0.73720000  0.94080000  0.88980000  1.0 0.1202767846
H  H40  1  0.88980000  0.43220000  0.73720000  1.0 0.1202767846
H  H41  1  0.73720000  0.88980000  0.43220000  1.0 0.1202767846
H  H42  1  0.88980000  0.73720000  0.94080000  1.0 0.1202767846
H  H43  1  0.43220000  0.94080000  0.73720000  1.0 0.1202767846
H  H44  1  0.94080000  0.43220000  0.88980000  1.0 0.1202767846
H  H45  1  0.94080000  0.88980000  0.73720000  1.0 0.1202767846
H  H46  1  0.43220000  0.73720000  0.88980000  1.0 0.1202767846
H  H47  1  0.88980000  0.94080000  0.43220000  1.0 0.1202767846
H  H48  1  0.73720000  0.43220000  0.94080000  1.0 0.1202767846
H  H49  1  0.45400000  0.68920000  0.68920000  1.0 0.1420102743
H  H50  1  0.35810000  0.78150000  0.78150000  1.0 0.1297418414
H  H51  1  0.51630000  0.73670000  0.73670000  1.0 0.1420102743
H  H52  1  0.35070000  0.82310000  0.82310000  1.0 0.1103146471
H  H53  1  0.68920000  0.16760000  0.45400000  1.0 0.1420102743
H  H54  1  0.78150000  0.07890000  0.35810000  1.0 0.1297418414
H  H55  1  0.73670000  0.01030000  0.51630000  1.0 0.1420102743
H  H56  1  0.82310000  0.00310000  0.35070000  1.0 0.1103146471
H  H57  1  0.68920000  0.45400000  0.16760000  1.0 0.1420102743
H  H58  1  0.78150000  0.35810000  0.07890000  1.0 0.1297418414
H  H59  1  0.73670000  0.51630000  0.01030000  1.0 0.1420102743
H  H60  1  0.82310000  0.35070000  0.00310000  1.0 0.1103146471
H  H61  1  0.16760000  0.68920000  0.68920000  1.0 0.1420102743
H  H62  1  0.07890000  0.78150000  0.78150000  1.0 0.1297418414
H  H63  1  0.01030000  0.73670000  0.73670000  1.0 0.1420102743
H  H64  1  0.00310000  0.82310000  0.82310000  1.0 0.1103146471
H  H65  1  0.68920000  0.68920000  0.45400000  1.0 0.1420102743
H  H66  1  0.78150000  0.78150000  0.35810000  1.0 0.1297418414
H  H67  1  0.73670000  0.73670000  0.51630000  1.0 0.1455469418
H  H68  1  0.82310000  0.82310000  0.35070000  1.0 0.1103146471
H  H69  1  0.16760000  0.45400000  0.68920000  1.0 0.1420102743
H  H70  1  0.07890000  0.35810000  0.78150000  1.0 0.1297418414
H  H71  1  0.01030000  0.51630000  0.73670000  1.0 0.1420102743
H  H72  1  0.00310000  0.35070000  0.82310000  1.0 0.1103146471
H  H73  1  0.45400000  0.16760000  0.68920000  1.0 0.1420102743
H  H74  1  0.35810000  0.07890000  0.78150000  1.0 0.1297418414
H  H75  1  0.51630000  0.01030000  0.73670000  1.0 0.1420102743
H  H76  1  0.35070000  0.00310000  0.82310000  1.0 0.1103146471
H  H77  1  0.68920000  0.68920000  0.16760000  1.0 0.1420102743
H  H78  1  0.78150000  0.78150000  0.07890000  1.0 0.1297418414
H  H79  1  0.73670000  0.73670000  0.01030000  1.0 0.1455469418
H  H80  1  0.82310000  0.82310000  0.00310000  1.0 0.1103146471
H  H81  1  0.68920000  0.45400000  0.68920000  1.0 0.1420102743
H  H82  1  0.78150000  0.35810000  0.78150000  1.0 0.1297418414
H  H83  1  0.73670000  0.51630000  0.73670000  1.0 0.1420102743
H  H84  1  0.82310000  0.35070000  0.82310000  1.0 0.1103146471
H  H85  1  0.45400000  0.68920000  0.16760000  1.0 0.1420102743
H  H86  1  0.35810000  0.78150000  0.07890000  1.0 0.1297418414
H  H87  1  0.51630000  0.73670000  0.01030000  1.0 0.1420102743
H  H88  1  0.35070000  0.82310000  0.00310000  1.0 0.1103146471
H  H89  1  0.16760000  0.68920000  0.45400000  1.0 0.1420102743
H  H90  1  0.07890000  0.78150000  0.35810000  1.0 0.1297418414
H  H91  1  0.01030000  0.73670000  0.51630000  1.0 0.1455469418
H  H92  1  0.00310000  0.82310000  0.35070000  1.0 0.1103146471
H  H93  1  0.68920000  0.16760000  0.68920000  1.0 0.1420102743
H  H94  1  0.78150000  0.07890000  0.78150000  1.0 0.1297418414
H  H95  1  0.73670000  0.01030000  0.73670000  1.0 0.1420102743
H  H96  1  0.82310000  0.00310000  0.82310000  1.0 0.1103146471
H  H97  1  0.54600000  0.83240000  0.31080000  1.0 0.1420102743
H  H98  1  0.64190000  0.92110000  0.21850000  1.0 0.1297418414
H  H99  1  0.48370000  0.98970000  0.26330000  1.0 0.1420102743
H  H100  1  0.64930000  0.99690000  0.17690000  1.0 0.1103146471
H  H101  1  0.31080000  0.31080000  0.54600000  1.0 0.1420102743
H  H102  1  0.21850000  0.21850000  0.64190000  1.0 0.1297418414
H  H103  1  0.26330000  0.26330000  0.48370000  1.0 0.1420102743
H  H104  1  0.17690000  0.17690000  0.64930000  1.0 0.1103146471
H  H105  1  0.31080000  0.31080000  0.83240000  1.0 0.1420102743
H  H106  1  0.21850000  0.21850000  0.92110000  1.0 0.1297418414
H  H107  1  0.26330000  0.26330000  0.98970000  1.0 0.1420102743
H  H108  1  0.17690000  0.17690000  0.99690000  1.0 0.1103146471
H  H109  1  0.83240000  0.54600000  0.31080000  1.0 0.1420102743
H  H110  1  0.92110000  0.64190000  0.21850000  1.0 0.1297418414
H  H111  1  0.98970000  0.48370000  0.26330000  1.0 0.1420102743
H  H112  1  0.99690000  0.64930000  0.17690000  1.0 0.1103146471
H  H113  1  0.31080000  0.83240000  0.54600000  1.0 0.1420102743
H  H114  1  0.21850000  0.92110000  0.64190000  1.0 0.1297418414
H  H115  1  0.26330000  0.98970000  0.48370000  1.0 0.1420102743
H  H116  1  0.17690000  0.99690000  0.64930000  1.0 0.1103146471
H  H117  1  0.83240000  0.31080000  0.31080000  1.0 0.1420102743
H  H118  1  0.92110000  0.21850000  0.21850000  1.0 0.1297418414
H  H119  1  0.98970000  0.26330000  0.26330000  1.0 0.1420102743
H  H120  1  0.99690000  0.17690000  0.17690000  1.0 0.1103146471
H  H121  1  0.54600000  0.31080000  0.31080000  1.0 0.1420102743
H  H122  1  0.64190000  0.21850000  0.21850000  1.0 0.1297418414
H  H123  1  0.48370000  0.26330000  0.26330000  1.0 0.1455469418
H  H124  1  0.64930000  0.17690000  0.17690000  1.0 0.1103146471
H  H125  1  0.31080000  0.54600000  0.83240000  1.0 0.1420102743
H  H126  1  0.21850000  0.64190000  0.92110000  1.0 0.1297418414
H  H127  1  0.26330000  0.48370000  0.98970000  1.0 0.1420102743
H  H128  1  0.17690000  0.64930000  0.99690000  1.0 0.1103146471
H  H129  1  0.31080000  0.83240000  0.31080000  1.0 0.1420102743
H  H130  1  0.21850000  0.92110000  0.21850000  1.0 0.1297418414
H  H131  1  0.26330000  0.98970000  0.26330000  1.0 0.1455469418
H  H132  1  0.17690000  0.99690000  0.17690000  1.0 0.1103146471
H  H133  1  0.54600000  0.31080000  0.83240000  1.0 0.1420102743
H  H134  1  0.64190000  0.21850000  0.92110000  1.0 0.1297418414
H  H135  1  0.48370000  0.26330000  0.98970000  1.0 0.1420102743
H  H136  1  0.64930000  0.17690000  0.99690000  1.0 0.1103146471
H  H137  1  0.83240000  0.31080000  0.54600000  1.0 0.1420102743
H  H138  1  0.92110000  0.21850000  0.64190000  1.0 0.1297418414
H  H139  1  0.98970000  0.26330000  0.48370000  1.0 0.1420102743
H  H140  1  0.99690000  0.17690000  0.64930000  1.0 0.1103146471
H  H141  1  0.31080000  0.54600000  0.31080000  1.0 0.1420102743
H  H142  1  0.21850000  0.64190000  0.21850000  1.0 0.1297418414
H  H143  1  0.26330000  0.48370000  0.26330000  1.0 0.1455469418
H  H144  1  0.17690000  0.64930000  0.17690000  1.0 0.1103146471
H  H145  1  0.37800000  0.75100000  0.93550000  1.0 0.1202767846
H  H146  1  0.93550000  0.93550000  0.37800000  1.0 0.1202767846
H  H147  1  0.75100000  0.37800000  0.93550000  1.0 0.1202767846
H  H148  1  0.93550000  0.93550000  0.75100000  1.0 0.1202767846
H  H149  1  0.75100000  0.93550000  0.37800000  1.0 0.1202767846
H  H150  1  0.93550000  0.37800000  0.93550000  1.0 0.1202767846
H  H151  1  0.37800000  0.93550000  0.75100000  1.0 0.1202767846
H  H152  1  0.93550000  0.75100000  0.93550000  1.0 0.1202767846
H  H153  1  0.93550000  0.37800000  0.75100000  1.0 0.1202767846
H  H154  1  0.37800000  0.93550000  0.93550000  1.0 0.1202767846
H  H155  1  0.93550000  0.75100000  0.37800000  1.0 0.1202767846
H  H156  1  0.75100000  0.93550000  0.93550000  1.0 0.1202767846
H  H157  1  0.62200000  0.06450000  0.06450000  1.0 0.1202767846
H  H158  1  0.06450000  0.24900000  0.62200000  1.0 0.1202767846
H  H159  1  0.24900000  0.06450000  0.06450000  1.0 0.1202767846
H  H160  1  0.06450000  0.62200000  0.24900000  1.0 0.1202767846
H  H161  1  0.24900000  0.06450000  0.62200000  1.0 0.1202767846
H  H162  1  0.06450000  0.24900000  0.06450000  1.0 0.1202767846
H  H163  1  0.62200000  0.06450000  0.24900000  1.0 0.1202767846
H  H164  1  0.06450000  0.62200000  0.06450000  1.0 0.1202767846
H  H165  1  0.06450000  0.06450000  0.24900000  1.0 0.1202767846
H  H166  1  0.62200000  0.24900000  0.06450000  1.0 0.1202767846
H  H167  1  0.06450000  0.06450000  0.62200000  1.0 0.1202767846
H  H168  1  0.24900000  0.62200000  0.06450000  1.0 0.1202767846
C  C1  1  0.54970000  0.68030000  0.68030000  1.0 0.5732660133
C  C2  1  0.49180000  0.70940000  0.70940000  1.0 -0.0134846797
C  C3  1  0.44900000  0.70820000  0.70820000  1.0 -0.1106521008
C  C4  1  0.39858000  0.73480000  0.73480000  1.0 0.0016675178
C  C5  1  0.39200000  0.76300000  0.76300000  1.0 -0.2214742538
C  C6  1  0.43670000  0.76310000  0.76310000  1.0 0.215751576
C  C7  1  0.48632000  0.73640000  0.73640000  1.0 -0.1870892016
C  C8  1  0.34932000  0.73410000  0.73410000  1.0 0.5954647947
C  C9  1  0.40010000  0.84130000  0.84130000  1.0 -0.0842652797
C  C10  1  0.38490000  0.81850000  0.81850000  1.0 0.0709894539
C  C11  1  0.68030000  0.08970000  0.54970000  1.0 0.5761311415
C  C12  1  0.70940000  0.08940000  0.49180000  1.0 -0.0134846797
C  C13  1  0.70820000  0.13460000  0.44900000  1.0 -0.1106521008
C  C14  1  0.73480000  0.13182000  0.39858000  1.0 0.0016675178
C  C15  1  0.76300000  0.08200000  0.39200000  1.0 -0.2214742538
C  C16  1  0.76310000  0.03710000  0.43670000  1.0 0.2146677127
C  C17  1  0.73640000  0.04088000  0.48632000  1.0 -0.1870892016
C  C18  1  0.73410000  0.18248000  0.34932000  1.0 0.5954647947
C  C19  1  0.84130000  0.91730000  0.40010000  1.0 -0.0842652797
C  C20  1  0.81850000  0.97810000  0.38490000  1.0 0.0709894539
C  C21  1  0.68030000  0.54970000  0.08970000  1.0 0.5732660133
C  C22  1  0.70940000  0.49180000  0.08940000  1.0 -0.0155895747
C  C23  1  0.70820000  0.44900000  0.13460000  1.0 -0.1106521008
C  C24  1  0.73480000  0.39858000  0.13182000  1.0 0.0016675178
C  C25  1  0.76300000  0.39200000  0.08200000  1.0 -0.2214742538
C  C26  1  0.76310000  0.43670000  0.03710000  1.0 0.215751576
C  C27  1  0.73640000  0.48632000  0.04088000  1.0 -0.1870892016
C  C28  1  0.73410000  0.34932000  0.18248000  1.0 0.5954647947
C  C29  1  0.84130000  0.40010000  0.91730000  1.0 -0.0842652797
C  C30  1  0.81850000  0.38490000  0.97810000  1.0 0.0709894539
C  C31  1  0.08970000  0.68030000  0.68030000  1.0 0.5761311415
C  C32  1  0.08940000  0.70940000  0.70940000  1.0 -0.0134846797
C  C33  1  0.13460000  0.70820000  0.70820000  1.0 -0.1106521008
C  C34  1  0.13182000  0.73480000  0.73480000  1.0 0.0016675178
C  C35  1  0.08200000  0.76300000  0.76300000  1.0 -0.2214742538
C  C36  1  0.03710000  0.76310000  0.76310000  1.0 0.2146677127
C  C37  1  0.04088000  0.73640000  0.73640000  1.0 -0.1870892016
C  C38  1  0.18248000  0.73410000  0.73410000  1.0 0.5954647947
C  C39  1  0.91730000  0.84130000  0.84130000  1.0 -0.0856117778
C  C40  1  0.97810000  0.81850000  0.81850000  1.0 0.0709894539
C  C41  1  0.68030000  0.68030000  0.54970000  1.0 0.5732660133
C  C42  1  0.70940000  0.70940000  0.49180000  1.0 -0.0155895747
C  C43  1  0.70820000  0.70820000  0.44900000  1.0 -0.1106521008
C  C44  1  0.73480000  0.73480000  0.39858000  1.0 0.0016675178
C  C45  1  0.76300000  0.76300000  0.39200000  1.0 -0.2214742538
C  C46  1  0.76310000  0.76310000  0.43670000  1.0 0.215751576
C  C47  1  0.73640000  0.73640000  0.48632000  1.0 -0.1870892016
C  C48  1  0.73410000  0.73410000  0.34932000  1.0 0.5954647947
C  C49  1  0.84130000  0.84130000  0.40010000  1.0 -0.0842652797
C  C50  1  0.81850000  0.81850000  0.38490000  1.0 0.0709894539
C  C51  1  0.08970000  0.54970000  0.68030000  1.0 0.5761311415
C  C52  1  0.08940000  0.49180000  0.70940000  1.0 -0.0134846797
C  C53  1  0.13460000  0.44900000  0.70820000  1.0 -0.1106521008
C  C54  1  0.13182000  0.39858000  0.73480000  1.0 0.0016675178
C  C55  1  0.08200000  0.39200000  0.76300000  1.0 -0.2214742538
C  C56  1  0.03710000  0.43670000  0.76310000  1.0 0.2146677127
C  C57  1  0.04088000  0.48632000  0.73640000  1.0 -0.1870892016
C  C58  1  0.18248000  0.34932000  0.73410000  1.0 0.5954647947
C  C59  1  0.91730000  0.40010000  0.84130000  1.0 -0.0842652797
C  C60  1  0.97810000  0.38490000  0.81850000  1.0 0.0709894539
C  C61  1  0.54970000  0.08970000  0.68030000  1.0 0.5732660133
C  C62  1  0.49180000  0.08940000  0.70940000  1.0 -0.0155895747
C  C63  1  0.44900000  0.13460000  0.70820000  1.0 -0.1106521008
C  C64  1  0.39858000  0.13182000  0.73480000  1.0 0.0016675178
C  C65  1  0.39200000  0.08200000  0.76300000  1.0 -0.2214742538
C  C66  1  0.43670000  0.03710000  0.76310000  1.0 0.2146677127
C  C67  1  0.48632000  0.04088000  0.73640000  1.0 -0.1870892016
C  C68  1  0.34932000  0.18248000  0.73410000  1.0 0.5954647947
C  C69  1  0.40010000  0.91730000  0.84130000  1.0 -0.0856117778
C  C70  1  0.38490000  0.97810000  0.81850000  1.0 0.0709894539
C  C71  1  0.68030000  0.68030000  0.08970000  1.0 0.5732660133
C  C72  1  0.70940000  0.70940000  0.08940000  1.0 -0.0155895747
C  C73  1  0.70820000  0.70820000  0.13460000  1.0 -0.1106521008
C  C74  1  0.73480000  0.73480000  0.13182000  1.0 0.0016675178
C  C75  1  0.76300000  0.76300000  0.08200000  1.0 -0.2214742538
C  C76  1  0.76310000  0.76310000  0.03710000  1.0 0.215751576
C  C77  1  0.73640000  0.73640000  0.04088000  1.0 -0.1870892016
C  C78  1  0.73410000  0.73410000  0.18248000  1.0 0.5954647947
C  C79  1  0.84130000  0.84130000  0.91730000  1.0 -0.0842652797
C  C80  1  0.81850000  0.81850000  0.97810000  1.0 0.0709894539
C  C81  1  0.68030000  0.54970000  0.68030000  1.0 0.5761311415
C  C82  1  0.70940000  0.49180000  0.70940000  1.0 -0.0134846797
C  C83  1  0.70820000  0.44900000  0.70820000  1.0 -0.1106521008
C  C84  1  0.73480000  0.39858000  0.73480000  1.0 -2.73485e-05
C  C85  1  0.76300000  0.39200000  0.76300000  1.0 -0.2214742538
C  C86  1  0.76310000  0.43670000  0.76310000  1.0 0.2146677127
C  C87  1  0.73640000  0.48632000  0.73640000  1.0 -0.1870892016
C  C88  1  0.73410000  0.34932000  0.73410000  1.0 0.5954647947
C  C89  1  0.84130000  0.40010000  0.84130000  1.0 -0.0856117778
C  C90  1  0.81850000  0.38490000  0.81850000  1.0 0.0709894539
C  C91  1  0.54970000  0.68030000  0.08970000  1.0 0.5732660133
C  C92  1  0.49180000  0.70940000  0.08940000  1.0 -0.0155895747
C  C93  1  0.44900000  0.70820000  0.13460000  1.0 -0.1106521008
C  C94  1  0.39858000  0.73480000  0.13182000  1.0 0.0016675178
C  C95  1  0.39200000  0.76300000  0.08200000  1.0 -0.2214742538
C  C96  1  0.43670000  0.76310000  0.03710000  1.0 0.2146677127
C  C97  1  0.48632000  0.73640000  0.04088000  1.0 -0.1870892016
C  C98  1  0.34932000  0.73410000  0.18248000  1.0 0.5954647947
C  C99  1  0.40010000  0.84130000  0.91730000  1.0 -0.0842652797
C  C100  1  0.38490000  0.81850000  0.97810000  1.0 0.0709894539
C  C101  1  0.08970000  0.68030000  0.54970000  1.0 0.5761311415
C  C102  1  0.08940000  0.70940000  0.49180000  1.0 -0.0155895747
C  C103  1  0.13460000  0.70820000  0.44900000  1.0 -0.1106521008
C  C104  1  0.13182000  0.73480000  0.39858000  1.0 0.0016675178
C  C105  1  0.08200000  0.76300000  0.39200000  1.0 -0.2214742538
C  C106  1  0.03710000  0.76310000  0.43670000  1.0 0.215751576
C  C107  1  0.04088000  0.73640000  0.48632000  1.0 -0.1870892016
C  C108  1  0.18248000  0.73410000  0.34932000  1.0 0.5954647947
C  C109  1  0.91730000  0.84130000  0.40010000  1.0 -0.0842652797
C  C110  1  0.97810000  0.81850000  0.38490000  1.0 0.0709894539
C  C111  1  0.68030000  0.08970000  0.68030000  1.0 0.5732660133
C  C112  1  0.70940000  0.08940000  0.70940000  1.0 -0.0134846797
C  C113  1  0.70820000  0.13460000  0.70820000  1.0 -0.1106521008
C  C114  1  0.73480000  0.13182000  0.73480000  1.0 0.0016675178
C  C115  1  0.76300000  0.08200000  0.76300000  1.0 -0.2214742538
C  C116  1  0.76310000  0.03710000  0.76310000  1.0 0.2146677127
C  C117  1  0.73640000  0.04088000  0.73640000  1.0 -0.1870892016
C  C118  1  0.73410000  0.18248000  0.73410000  1.0 0.5954647947
C  C119  1  0.84130000  0.91730000  0.84130000  1.0 -0.0856117778
C  C120  1  0.81850000  0.97810000  0.81850000  1.0 0.0709894539
C  C121  1  0.45030000  0.91030000  0.31970000  1.0 0.5732660133
C  C122  1  0.50820000  0.91060000  0.29060000  1.0 -0.0155895747
C  C123  1  0.55100000  0.86540000  0.29180000  1.0 -0.1106521008
C  C124  1  0.60142000  0.86818000  0.26520000  1.0 0.0016675178
C  C125  1  0.60800000  0.91800000  0.23700000  1.0 -0.2214742538
C  C126  1  0.56330000  0.96290000  0.23690000  1.0 0.215751576
C  C127  1  0.51368000  0.95912000  0.26360000  1.0 -0.1870892016
C  C128  1  0.65068000  0.81752000  0.26590000  1.0 0.5954647947
C  C129  1  0.59990000  0.08270000  0.15870000  1.0 -0.0856117778
C  C130  1  0.61510000  0.02190000  0.18150000  1.0 0.0709894539
C  C131  1  0.31970000  0.31970000  0.45030000  1.0 0.5761311415
C  C132  1  0.29060000  0.29060000  0.50820000  1.0 -0.0155895747
C  C133  1  0.29180000  0.29180000  0.55100000  1.0 -0.1106521008
C  C134  1  0.26520000  0.26520000  0.60142000  1.0 0.0016675178
C  C135  1  0.23700000  0.23700000  0.60800000  1.0 -0.2214742538
C  C136  1  0.23690000  0.23690000  0.56330000  1.0 0.2146677127
C  C137  1  0.26360000  0.26360000  0.51368000  1.0 -0.1870892016
C  C138  1  0.26590000  0.26590000  0.65068000  1.0 0.5954647947
C  C139  1  0.15870000  0.15870000  0.59990000  1.0 -0.0856117778
C  C140  1  0.18150000  0.18150000  0.61510000  1.0 0.0709894539
C  C141  1  0.31970000  0.31970000  0.91030000  1.0 0.5761311415
C  C142  1  0.29060000  0.29060000  0.91060000  1.0 -0.0134846797
C  C143  1  0.29180000  0.29180000  0.86540000  1.0 -0.1106521008
C  C144  1  0.26520000  0.26520000  0.86818000  1.0 0.0016675178
C  C145  1  0.23700000  0.23700000  0.91800000  1.0 -0.2214742538
C  C146  1  0.23690000  0.23690000  0.96290000  1.0 0.2146677127
C  C147  1  0.26360000  0.26360000  0.95912000  1.0 -0.1870892016
C  C148  1  0.26590000  0.26590000  0.81752000  1.0 0.5954647947
C  C149  1  0.15870000  0.15870000  0.08270000  1.0 -0.0842652797
C  C150  1  0.18150000  0.18150000  0.02190000  1.0 0.0709894539
C  C151  1  0.91030000  0.45030000  0.31970000  1.0 0.5732660133
C  C152  1  0.91060000  0.50820000  0.29060000  1.0 -0.0134846797
C  C153  1  0.86540000  0.55100000  0.29180000  1.0 -0.1106521008
C  C154  1  0.86818000  0.60142000  0.26520000  1.0 0.0016675178
C  C155  1  0.91800000  0.60800000  0.23700000  1.0 -0.2214742538
C  C156  1  0.96290000  0.56330000  0.23690000  1.0 0.215751576
C  C157  1  0.95912000  0.51368000  0.26360000  1.0 -0.1870892016
C  C158  1  0.81752000  0.65068000  0.26590000  1.0 0.5954647947
C  C159  1  0.08270000  0.59990000  0.15870000  1.0 -0.0842652797
C  C160  1  0.02190000  0.61510000  0.18150000  1.0 0.0709894539
C  C161  1  0.31970000  0.91030000  0.45030000  1.0 0.5732660133
C  C162  1  0.29060000  0.91060000  0.50820000  1.0 -0.0155895747
C  C163  1  0.29180000  0.86540000  0.55100000  1.0 -0.1106521008
C  C164  1  0.26520000  0.86818000  0.60142000  1.0 0.0016675178
C  C165  1  0.23700000  0.91800000  0.60800000  1.0 -0.2214742538
C  C166  1  0.23690000  0.96290000  0.56330000  1.0 0.215751576
C  C167  1  0.26360000  0.95912000  0.51368000  1.0 -0.1870892016
C  C168  1  0.26590000  0.81752000  0.65068000  1.0 0.5954647947
C  C169  1  0.15870000  0.08270000  0.59990000  1.0 -0.0842652797
C  C170  1  0.18150000  0.02190000  0.61510000  1.0 0.0709894539
C  C171  1  0.91030000  0.31970000  0.31970000  1.0 0.5761311415
C  C172  1  0.91060000  0.29060000  0.29060000  1.0 -0.0134846797
C  C173  1  0.86540000  0.29180000  0.29180000  1.0 -0.1106521008
C  C174  1  0.86818000  0.26520000  0.26520000  1.0 0.0016675178
C  C175  1  0.91800000  0.23700000  0.23700000  1.0 -0.2214742538
C  C176  1  0.96290000  0.23690000  0.23690000  1.0 0.215751576
C  C177  1  0.95912000  0.26360000  0.26360000  1.0 -0.1870892016
C  C178  1  0.81752000  0.26590000  0.26590000  1.0 0.5954647947
C  C179  1  0.08270000  0.15870000  0.15870000  1.0 -0.0842652797
C  C180  1  0.02190000  0.18150000  0.18150000  1.0 0.0709894539
C  C181  1  0.45030000  0.31970000  0.31970000  1.0 0.5732660133
C  C182  1  0.50820000  0.29060000  0.29060000  1.0 -0.0134846797
C  C183  1  0.55100000  0.29180000  0.29180000  1.0 -0.1106521008
C  C184  1  0.60142000  0.26520000  0.26520000  1.0 0.0016675178
C  C185  1  0.60800000  0.23700000  0.23700000  1.0 -0.2214742538
C  C186  1  0.56330000  0.23690000  0.23690000  1.0 0.2146677127
C  C187  1  0.51368000  0.26360000  0.26360000  1.0 -0.1870892016
C  C188  1  0.65068000  0.26590000  0.26590000  1.0 0.5954647947
C  C189  1  0.59990000  0.15870000  0.15870000  1.0 -0.0842652797
C  C190  1  0.61510000  0.18150000  0.18150000  1.0 0.0709894539
C  C191  1  0.31970000  0.45030000  0.91030000  1.0 0.5732660133
C  C192  1  0.29060000  0.50820000  0.91060000  1.0 -0.0134846797
C  C193  1  0.29180000  0.55100000  0.86540000  1.0 -0.1106521008
C  C194  1  0.26520000  0.60142000  0.86818000  1.0 0.0016675178
C  C195  1  0.23700000  0.60800000  0.91800000  1.0 -0.2214742538
C  C196  1  0.23690000  0.56330000  0.96290000  1.0 0.2146677127
C  C197  1  0.26360000  0.51368000  0.95912000  1.0 -0.1870892016
C  C198  1  0.26590000  0.65068000  0.81752000  1.0 0.5954647947
C  C199  1  0.15870000  0.59990000  0.08270000  1.0 -0.0842652797
C  C200  1  0.18150000  0.61510000  0.02190000  1.0 0.0709894539
C  C201  1  0.31970000  0.91030000  0.31970000  1.0 0.5732660133
C  C202  1  0.29060000  0.91060000  0.29060000  1.0 -0.0155895747
C  C203  1  0.29180000  0.86540000  0.29180000  1.0 -0.1106521008
C  C204  1  0.26520000  0.86818000  0.26520000  1.0 0.0016675178
C  C205  1  0.23700000  0.91800000  0.23700000  1.0 -0.2214742538
C  C206  1  0.23690000  0.96290000  0.23690000  1.0 0.215751576
C  C207  1  0.26360000  0.95912000  0.26360000  1.0 -0.1870892016
C  C208  1  0.26590000  0.81752000  0.26590000  1.0 0.5954647947
C  C209  1  0.15870000  0.08270000  0.15870000  1.0 -0.0856117778
C  C210  1  0.18150000  0.02190000  0.18150000  1.0 0.0709894539
C  C211  1  0.45030000  0.31970000  0.91030000  1.0 0.5732660133
C  C212  1  0.50820000  0.29060000  0.91060000  1.0 -0.0134846797
C  C213  1  0.55100000  0.29180000  0.86540000  1.0 -0.1106521008
C  C214  1  0.60142000  0.26520000  0.86818000  1.0 0.0016675178
C  C215  1  0.60800000  0.23700000  0.91800000  1.0 -0.2214742538
C  C216  1  0.56330000  0.23690000  0.96290000  1.0 0.2146677127
C  C217  1  0.51368000  0.26360000  0.95912000  1.0 -0.1870892016
C  C218  1  0.65068000  0.26590000  0.81752000  1.0 0.5954647947
C  C219  1  0.59990000  0.15870000  0.08270000  1.0 -0.0842652797
C  C220  1  0.61510000  0.18150000  0.02190000  1.0 0.0709894539
C  C221  1  0.91030000  0.31970000  0.45030000  1.0 0.5732660133
C  C222  1  0.91060000  0.29060000  0.50820000  1.0 -0.0155895747
C  C223  1  0.86540000  0.29180000  0.55100000  1.0 -0.1106521008
C  C224  1  0.86818000  0.26520000  0.60142000  1.0 0.0016675178
C  C225  1  0.91800000  0.23700000  0.60800000  1.0 -0.2214742538
C  C226  1  0.96290000  0.23690000  0.56330000  1.0 0.215751576
C  C227  1  0.95912000  0.26360000  0.51368000  1.0 -0.1870892016
C  C228  1  0.81752000  0.26590000  0.65068000  1.0 0.5954647947
C  C229  1  0.08270000  0.15870000  0.59990000  1.0 -0.0842652797
C  C230  1  0.02190000  0.18150000  0.61510000  1.0 0.0709894539
C  C231  1  0.31970000  0.45030000  0.31970000  1.0 0.5732660133
C  C232  1  0.29060000  0.50820000  0.29060000  1.0 -0.0155895747
C  C233  1  0.29180000  0.55100000  0.29180000  1.0 -0.1106521008
C  C234  1  0.26520000  0.60142000  0.26520000  1.0 0.0016675178
C  C235  1  0.23700000  0.60800000  0.23700000  1.0 -0.2214742538
C  C236  1  0.23690000  0.56330000  0.23690000  1.0 0.215751576
C  C237  1  0.26360000  0.51368000  0.26360000  1.0 -0.1870892016
C  C238  1  0.26590000  0.65068000  0.26590000  1.0 0.5954647947
C  C239  1  0.15870000  0.59990000  0.15870000  1.0 -0.0842652797
C  C240  1  0.18150000  0.61510000  0.18150000  1.0 0.0709894539
C  C241  1  0.40790000  0.81350000  0.88930000  1.0 0.0805432108
C  C242  1  0.41300000  0.75420000  0.91640000  1.0 -0.4427916382
C  C243  1  0.88930000  0.88930000  0.40790000  1.0 0.0805432108
C  C244  1  0.91640000  0.91640000  0.41300000  1.0 -0.4427916382
C  C245  1  0.81350000  0.40790000  0.88930000  1.0 0.0805432108
C  C246  1  0.75420000  0.41300000  0.91640000  1.0 -0.4427916382
C  C247  1  0.88930000  0.88930000  0.81350000  1.0 0.0805432108
C  C248  1  0.91640000  0.91640000  0.75420000  1.0 -0.4427916382
C  C249  1  0.81350000  0.88930000  0.40790000  1.0 0.0805432108
C  C250  1  0.75420000  0.91640000  0.41300000  1.0 -0.4427916382
C  C251  1  0.88930000  0.40790000  0.88930000  1.0 0.0805432108
C  C252  1  0.91640000  0.41300000  0.91640000  1.0 -0.4427916382
C  C253  1  0.40790000  0.88930000  0.81350000  1.0 0.0805432108
C  C254  1  0.41300000  0.91640000  0.75420000  1.0 -0.4427916382
C  C255  1  0.88930000  0.81350000  0.88930000  1.0 0.0805432108
C  C256  1  0.91640000  0.75420000  0.91640000  1.0 -0.4427916382
C  C257  1  0.88930000  0.40790000  0.81350000  1.0 0.0805432108
C  C258  1  0.91640000  0.41300000  0.75420000  1.0 -0.4427916382
C  C259  1  0.40790000  0.88930000  0.88930000  1.0 0.0805432108
C  C260  1  0.41300000  0.91640000  0.91640000  1.0 -0.4427916382
C  C261  1  0.88930000  0.81350000  0.40790000  1.0 0.0805432108
C  C262  1  0.91640000  0.75420000  0.41300000  1.0 -0.4427916382
C  C263  1  0.81350000  0.88930000  0.88930000  1.0 0.0805432108
C  C264  1  0.75420000  0.91640000  0.91640000  1.0 -0.4427916382
C  C265  1  0.59210000  0.11070000  0.11070000  1.0 0.0805432108
C  C266  1  0.58700000  0.08360000  0.08360000  1.0 -0.4427916382
C  C267  1  0.11070000  0.18650000  0.59210000  1.0 0.0805432108
C  C268  1  0.08360000  0.24580000  0.58700000  1.0 -0.4427916382
C  C269  1  0.18650000  0.11070000  0.11070000  1.0 0.0805432108
C  C270  1  0.24580000  0.08360000  0.08360000  1.0 -0.4427916382
C  C271  1  0.11070000  0.59210000  0.18650000  1.0 0.0805432108
C  C272  1  0.08360000  0.58700000  0.24580000  1.0 -0.4427916382
C  C273  1  0.18650000  0.11070000  0.59210000  1.0 0.0805432108
C  C274  1  0.24580000  0.08360000  0.58700000  1.0 -0.4427916382
C  C275  1  0.11070000  0.18650000  0.11070000  1.0 0.0805432108
C  C276  1  0.08360000  0.24580000  0.08360000  1.0 -0.4427916382
C  C277  1  0.59210000  0.11070000  0.18650000  1.0 0.0805432108
C  C278  1  0.58700000  0.08360000  0.24580000  1.0 -0.4427916382
C  C279  1  0.11070000  0.59210000  0.11070000  1.0 0.0805432108
C  C280  1  0.08360000  0.58700000  0.08360000  1.0 -0.4427916382
C  C281  1  0.11070000  0.11070000  0.18650000  1.0 0.0805432108
C  C282  1  0.08360000  0.08360000  0.24580000  1.0 -0.4427916382
C  C283  1  0.59210000  0.18650000  0.11070000  1.0 0.0805432108
C  C284  1  0.58700000  0.24580000  0.08360000  1.0 -0.4427916382
C  C285  1  0.11070000  0.11070000  0.59210000  1.0 0.0805432108
C  C286  1  0.08360000  0.08360000  0.58700000  1.0 -0.4427916382
C  C287  1  0.18650000  0.59210000  0.11070000  1.0 0.0805432108
C  C288  1  0.24580000  0.58700000  0.08360000  1.0 -0.4427916382
Cl  Cl1  1  0.34500000  0.65500000  0.65500000  1.0 -0.3933258516
Cl  Cl2  1  0.65500000  0.34500000  0.34500000  1.0 -0.3933258516
Cl  Cl3  1  0.65500000  0.65500000  0.34500000  1.0 -0.3952386689
Cl  Cl4  1  0.34500000  0.34500000  0.65500000  1.0 -0.3952386689
Cl  Cl5  1  0.65500000  0.34500000  0.65500000  1.0 -0.3952386689
Cl  Cl6  1  0.34500000  0.65500000  0.34500000  1.0 -0.3952386689
O  O1  1  0.58536000  0.68330000  0.68330000  1.0 -0.5283572561
O  O2  1  0.55278000  0.65600000  0.65600000  1.0 -0.5811483375
O  O3  1  0.35689000  0.70825000  0.70825000  1.0 -0.5460581642
O  O4  1  0.30445000  0.76027000  0.76027000  1.0 -0.5811483375
O  O5  1  0.43258000  0.79000000  0.79000000  1.0 -0.157293627
O  O6  1  0.68330000  0.04804000  0.58536000  1.0 -0.5283572561
O  O7  1  0.65600000  0.13522000  0.55278000  1.0 -0.5811483375
O  O8  1  0.70825000  0.22661000  0.35689000  1.0 -0.5460581642
O  O9  1  0.76027000  0.17501000  0.30445000  1.0 -0.5811483375
O  O10  1  0.79000000  0.98742000  0.43258000  1.0 -0.157293627
O  O11  1  0.68330000  0.58536000  0.04804000  1.0 -0.5283572561
O  O12  1  0.65600000  0.55278000  0.13522000  1.0 -0.5811483375
O  O13  1  0.70825000  0.35689000  0.22661000  1.0 -0.5460581642
O  O14  1  0.76027000  0.30445000  0.17501000  1.0 -0.5811483375
O  O15  1  0.79000000  0.43258000  0.98742000  1.0 -0.157293627
O  O16  1  0.04804000  0.68330000  0.68330000  1.0 -0.5283572561
O  O17  1  0.13522000  0.65600000  0.65600000  1.0 -0.5811483375
O  O18  1  0.22661000  0.70825000  0.70825000  1.0 -0.5460581642
O  O19  1  0.17501000  0.76027000  0.76027000  1.0 -0.5811483375
O  O20  1  0.98742000  0.79000000  0.79000000  1.0 -0.157293627
O  O21  1  0.68330000  0.68330000  0.58536000  1.0 -0.5283572561
O  O22  1  0.65600000  0.65600000  0.55278000  1.0 -0.5811483375
O  O23  1  0.70825000  0.70825000  0.35689000  1.0 -0.5460581642
O  O24  1  0.76027000  0.76027000  0.30445000  1.0 -0.5811483375
O  O25  1  0.79000000  0.79000000  0.43258000  1.0 -0.157293627
O  O26  1  0.04804000  0.58536000  0.68330000  1.0 -0.5283572561
O  O27  1  0.13522000  0.55278000  0.65600000  1.0 -0.5811483375
O  O28  1  0.22661000  0.35689000  0.70825000  1.0 -0.5460581642
O  O29  1  0.17501000  0.30445000  0.76027000  1.0 -0.5811483375
O  O30  1  0.98742000  0.43258000  0.79000000  1.0 -0.157293627
O  O31  1  0.58536000  0.04804000  0.68330000  1.0 -0.5283572561
O  O32  1  0.55278000  0.13522000  0.65600000  1.0 -0.5811483375
O  O33  1  0.35689000  0.22661000  0.70825000  1.0 -0.5460581642
O  O34  1  0.30445000  0.17501000  0.76027000  1.0 -0.5811483375
O  O35  1  0.43258000  0.98742000  0.79000000  1.0 -0.157293627
O  O36  1  0.68330000  0.68330000  0.04804000  1.0 -0.5283572561
O  O37  1  0.65600000  0.65600000  0.13522000  1.0 -0.5811483375
O  O38  1  0.70825000  0.70825000  0.22661000  1.0 -0.5460581642
O  O39  1  0.76027000  0.76027000  0.17501000  1.0 -0.5811483375
O  O40  1  0.79000000  0.79000000  0.98742000  1.0 -0.157293627
O  O41  1  0.68330000  0.58536000  0.68330000  1.0 -0.5283572561
O  O42  1  0.65600000  0.55278000  0.65600000  1.0 -0.5811483375
O  O43  1  0.70825000  0.35689000  0.70825000  1.0 -0.5460581642
O  O44  1  0.76027000  0.30445000  0.76027000  1.0 -0.5811483375
O  O45  1  0.79000000  0.43258000  0.79000000  1.0 -0.157293627
O  O46  1  0.58536000  0.68330000  0.04804000  1.0 -0.5283572561
O  O47  1  0.55278000  0.65600000  0.13522000  1.0 -0.5811483375
O  O48  1  0.35689000  0.70825000  0.22661000  1.0 -0.5460581642
O  O49  1  0.30445000  0.76027000  0.17501000  1.0 -0.5811483375
O  O50  1  0.43258000  0.79000000  0.98742000  1.0 -0.157293627
O  O51  1  0.04804000  0.68330000  0.58536000  1.0 -0.5283572561
O  O52  1  0.13522000  0.65600000  0.55278000  1.0 -0.5811483375
O  O53  1  0.22661000  0.70825000  0.35689000  1.0 -0.5460581642
O  O54  1  0.17501000  0.76027000  0.30445000  1.0 -0.5811483375
O  O55  1  0.98742000  0.79000000  0.43258000  1.0 -0.157293627
O  O56  1  0.68330000  0.04804000  0.68330000  1.0 -0.5283572561
O  O57  1  0.65600000  0.13522000  0.65600000  1.0 -0.5811483375
O  O58  1  0.70825000  0.22661000  0.70825000  1.0 -0.5460581642
O  O59  1  0.76027000  0.17501000  0.76027000  1.0 -0.5811483375
O  O60  1  0.79000000  0.98742000  0.79000000  1.0 -0.157293627
O  O61  1  0.41464000  0.95196000  0.31670000  1.0 -0.5283572561
O  O62  1  0.44722000  0.86478000  0.34400000  1.0 -0.5811483375
O  O63  1  0.64311000  0.77339000  0.29175000  1.0 -0.5460581642
O  O64  1  0.69555000  0.82499000  0.23973000  1.0 -0.5811483375
O  O65  1  0.56742000  0.01258000  0.21000000  1.0 -0.157293627
O  O66  1  0.31670000  0.31670000  0.41464000  1.0 -0.5283572561
O  O67  1  0.34400000  0.34400000  0.44722000  1.0 -0.5811483375
O  O68  1  0.29175000  0.29175000  0.64311000  1.0 -0.5460581642
O  O69  1  0.23973000  0.23973000  0.69555000  1.0 -0.5811483375
O  O70  1  0.21000000  0.21000000  0.56742000  1.0 -0.157293627
O  O71  1  0.31670000  0.31670000  0.95196000  1.0 -0.5283572561
O  O72  1  0.34400000  0.34400000  0.86478000  1.0 -0.5811483375
O  O73  1  0.29175000  0.29175000  0.77339000  1.0 -0.5460581642
O  O74  1  0.23973000  0.23973000  0.82499000  1.0 -0.5811483375
O  O75  1  0.21000000  0.21000000  0.01258000  1.0 -0.157293627
O  O76  1  0.95196000  0.41464000  0.31670000  1.0 -0.5283572561
O  O77  1  0.86478000  0.44722000  0.34400000  1.0 -0.5811483375
O  O78  1  0.77339000  0.64311000  0.29175000  1.0 -0.5460581642
O  O79  1  0.82499000  0.69555000  0.23973000  1.0 -0.5811483375
O  O80  1  0.01258000  0.56742000  0.21000000  1.0 -0.157293627
O  O81  1  0.31670000  0.95196000  0.41464000  1.0 -0.5283572561
O  O82  1  0.34400000  0.86478000  0.44722000  1.0 -0.5811483375
O  O83  1  0.29175000  0.77339000  0.64311000  1.0 -0.5460581642
O  O84  1  0.23973000  0.82499000  0.69555000  1.0 -0.5811483375
O  O85  1  0.21000000  0.01258000  0.56742000  1.0 -0.157293627
O  O86  1  0.95196000  0.31670000  0.31670000  1.0 -0.5283572561
O  O87  1  0.86478000  0.34400000  0.34400000  1.0 -0.5811483375
O  O88  1  0.77339000  0.29175000  0.29175000  1.0 -0.5460581642
O  O89  1  0.82499000  0.23973000  0.23973000  1.0 -0.5811483375
O  O90  1  0.01258000  0.21000000  0.21000000  1.0 -0.157293627
O  O91  1  0.41464000  0.31670000  0.31670000  1.0 -0.5283572561
O  O92  1  0.44722000  0.34400000  0.34400000  1.0 -0.5811483375
O  O93  1  0.64311000  0.29175000  0.29175000  1.0 -0.5460581642
O  O94  1  0.69555000  0.23973000  0.23973000  1.0 -0.5811483375
O  O95  1  0.56742000  0.21000000  0.21000000  1.0 -0.157293627
O  O96  1  0.31670000  0.41464000  0.95196000  1.0 -0.5283572561
O  O97  1  0.34400000  0.44722000  0.86478000  1.0 -0.5811483375
O  O98  1  0.29175000  0.64311000  0.77339000  1.0 -0.5460581642
O  O99  1  0.23973000  0.69555000  0.82499000  1.0 -0.5811483375
O  O100  1  0.21000000  0.56742000  0.01258000  1.0 -0.157293627
O  O101  1  0.31670000  0.95196000  0.31670000  1.0 -0.5283572561
O  O102  1  0.34400000  0.86478000  0.34400000  1.0 -0.5811483375
O  O103  1  0.29175000  0.77339000  0.29175000  1.0 -0.5460581642
O  O104  1  0.23973000  0.82499000  0.23973000  1.0 -0.5811483375
O  O105  1  0.21000000  0.01258000  0.21000000  1.0 -0.157293627
O  O106  1  0.41464000  0.31670000  0.95196000  1.0 -0.5283572561
O  O107  1  0.44722000  0.34400000  0.86478000  1.0 -0.5811483375
O  O108  1  0.64311000  0.29175000  0.77339000  1.0 -0.5460581642
O  O109  1  0.69555000  0.23973000  0.82499000  1.0 -0.5811483375
O  O110  1  0.56742000  0.21000000  0.01258000  1.0 -0.157293627
O  O111  1  0.95196000  0.31670000  0.41464000  1.0 -0.5283572561
O  O112  1  0.86478000  0.34400000  0.44722000  1.0 -0.5811483375
O  O113  1  0.77339000  0.29175000  0.64311000  1.0 -0.5460581642
O  O114  1  0.82499000  0.23973000  0.69555000  1.0 -0.5811483375
O  O115  1  0.01258000  0.21000000  0.56742000  1.0 -0.157293627
O  O116  1  0.31670000  0.41464000  0.31670000  1.0 -0.5283572561
O  O117  1  0.34400000  0.44722000  0.34400000  1.0 -0.5811483375
O  O118  1  0.29175000  0.64311000  0.29175000  1.0 -0.5460581642
O  O119  1  0.23973000  0.69555000  0.23973000  1.0 -0.5811483375
O  O120  1  0.21000000  0.56742000  0.21000000  1.0 -0.157293627
