# DDEC6 charges by PACMAN v1.1 (https://github.com/mtap-research/PACMAN-charge/)
data_YEVTOL_ion_pacman
_symmetry_space_group_name_H-M   'P 1'
_cell_length_a   30.96070000
_cell_length_b   30.96070000
_cell_length_c   30.96070000
_cell_angle_alpha   60.00000000
_cell_angle_beta   60.00000000
_cell_angle_gamma   60.00000000
_symmetry_Int_Tables_number   1
_chemical_formula_structural   Zn7H66C72(N2O17)3
_chemical_formula_sum   'Zn28 H264 C288 N24 O204'
_cell_volume   20985.40310070
_cell_formula_units_Z   4
loop_
 _symmetry_equiv_pos_site_id
 _symmetry_equiv_pos_as_xyz
  1  'x, y, z'
loop_
 _atom_site_type_symbol
 _atom_site_label
 _atom_site_symmetry_multiplicity
 _atom_site_fract_x
 _atom_site_fract_y
 _atom_site_fract_z
 _atom_site_occupancy
 _atom_site_charge
Zn  Zn1  1  0.23206000  0.23206000  0.76794000  1.0 0.9699072438
Zn  Zn2  1  0.30063000  0.30063000  0.69937000  1.0 0.923738529
Zn  Zn3  1  0.76794000  0.76794000  0.23206000  1.0 0.9699072438
Zn  Zn4  1  0.69937000  0.69937000  0.30063000  1.0 0.923738529
Zn  Zn5  1  0.23206000  0.76794000  0.23206000  1.0 0.9699072438
Zn  Zn6  1  0.30063000  0.69937000  0.30063000  1.0 0.923738529
Zn  Zn7  1  0.76794000  0.23206000  0.76794000  1.0 0.9699072438
Zn  Zn8  1  0.69937000  0.30063000  0.69937000  1.0 0.923738529
Zn  Zn9  1  0.76794000  0.23206000  0.23206000  1.0 0.9699072438
Zn  Zn10  1  0.69937000  0.30063000  0.30063000  1.0 0.923738529
Zn  Zn11  1  0.23206000  0.76794000  0.76794000  1.0 0.9699072438
Zn  Zn12  1  0.30063000  0.69937000  0.69937000  1.0 0.923738529
Zn  Zn13  1  0.34031000  0.34031000  0.97907000  1.0 0.8530972711
Zn  Zn14  1  0.38742000  0.38742000  0.83774000  1.0 1.0199832814
Zn  Zn15  1  0.97907000  0.34031000  0.34031000  1.0 0.8530972711
Zn  Zn16  1  0.83774000  0.38742000  0.38742000  1.0 1.0199832814
Zn  Zn17  1  0.34031000  0.34031000  0.34031000  1.0 0.8530972711
Zn  Zn18  1  0.38742000  0.38742000  0.38742000  1.0 1.0199832814
Zn  Zn19  1  0.34031000  0.97907000  0.34031000  1.0 0.8530972711
Zn  Zn20  1  0.38742000  0.83774000  0.38742000  1.0 1.0199832814
Zn  Zn21  1  0.65969000  0.65969000  0.02093000  1.0 0.8559555011
Zn  Zn22  1  0.61258000  0.61258000  0.16226000  1.0 1.0199832814
Zn  Zn23  1  0.02093000  0.65969000  0.65969000  1.0 0.8530972711
Zn  Zn24  1  0.16226000  0.61258000  0.61258000  1.0 1.0199832814
Zn  Zn25  1  0.65969000  0.02093000  0.65969000  1.0 0.8530972711
Zn  Zn26  1  0.61258000  0.16226000  0.61258000  1.0 1.0199832814
Zn  Zn27  1  0.65969000  0.65969000  0.65969000  1.0 0.8530972711
Zn  Zn28  1  0.61258000  0.61258000  0.61258000  1.0 1.0199832814
H  H1  1  0.20090000  0.14990000  0.00250000  1.0 0.1208802223
H  H2  1  0.26110000  0.06850000  0.09030000  1.0 0.0481528853
H  H3  1  0.23780000  0.04240000  0.07840000  1.0 0.036716385
H  H4  1  0.24650000  0.09650000  0.03870000  1.0 0.0323060638
H  H5  1  0.00250000  0.64670000  0.20090000  1.0 0.1208802223
H  H6  1  0.09030000  0.58010000  0.26110000  1.0 0.0481528853
H  H7  1  0.07840000  0.64140000  0.23780000  1.0 0.036716385
H  H8  1  0.03870000  0.61830000  0.24650000  1.0 0.0323060638
H  H9  1  0.14990000  0.20090000  0.64670000  1.0 0.1208802223
H  H10  1  0.06850000  0.26110000  0.58010000  1.0 0.0481528853
H  H11  1  0.04240000  0.23780000  0.64140000  1.0 0.036716385
H  H12  1  0.09650000  0.24650000  0.61830000  1.0 0.0323060638
H  H13  1  0.64670000  0.00250000  0.14990000  1.0 0.1208802223
H  H14  1  0.58010000  0.09030000  0.06850000  1.0 0.0481528853
H  H15  1  0.64140000  0.07840000  0.04240000  1.0 0.036716385
H  H16  1  0.61830000  0.03870000  0.09650000  1.0 0.0323060638
H  H17  1  0.14990000  0.00250000  0.20090000  1.0 0.1208802223
H  H18  1  0.06850000  0.09030000  0.26110000  1.0 0.0481528853
H  H19  1  0.04240000  0.07840000  0.23780000  1.0 0.036716385
H  H20  1  0.09650000  0.03870000  0.24650000  1.0 0.0323060638
H  H21  1  0.64670000  0.20090000  0.00250000  1.0 0.1208802223
H  H22  1  0.58010000  0.26110000  0.09030000  1.0 0.0481528853
H  H23  1  0.64140000  0.23780000  0.07840000  1.0 0.036716385
H  H24  1  0.61830000  0.24650000  0.03870000  1.0 0.0323060638
H  H25  1  0.20090000  0.64670000  0.14990000  1.0 0.1208802223
H  H26  1  0.26110000  0.58010000  0.06850000  1.0 0.0481528853
H  H27  1  0.23780000  0.64140000  0.04240000  1.0 0.0323060638
H  H28  1  0.24650000  0.61830000  0.09650000  1.0 0.0323060638
H  H29  1  0.00250000  0.14990000  0.64670000  1.0 0.1208802223
H  H30  1  0.09030000  0.06850000  0.58010000  1.0 0.0481528853
H  H31  1  0.07840000  0.04240000  0.64140000  1.0 0.036716385
H  H32  1  0.03870000  0.09650000  0.61830000  1.0 0.0323060638
H  H33  1  0.00250000  0.20090000  0.14990000  1.0 0.1208802223
H  H34  1  0.09030000  0.26110000  0.06850000  1.0 0.0481528853
H  H35  1  0.07840000  0.23780000  0.04240000  1.0 0.0323060638
H  H36  1  0.03870000  0.24650000  0.09650000  1.0 0.0323060638
H  H37  1  0.20090000  0.00250000  0.64670000  1.0 0.1208802223
H  H38  1  0.26110000  0.09030000  0.58010000  1.0 0.0481528853
H  H39  1  0.23780000  0.07840000  0.64140000  1.0 0.036716385
H  H40  1  0.24650000  0.03870000  0.61830000  1.0 0.0323060638
H  H41  1  0.64670000  0.14990000  0.20090000  1.0 0.1208802223
H  H42  1  0.58010000  0.06850000  0.26110000  1.0 0.0481528853
H  H43  1  0.64140000  0.04240000  0.23780000  1.0 0.036716385
H  H44  1  0.61830000  0.09650000  0.24650000  1.0 0.0323060638
H  H45  1  0.14990000  0.64670000  0.00250000  1.0 0.1208802223
H  H46  1  0.06850000  0.58010000  0.09030000  1.0 0.0481528853
H  H47  1  0.04240000  0.64140000  0.07840000  1.0 0.036716385
H  H48  1  0.09650000  0.61830000  0.03870000  1.0 0.0323060638
H  H49  1  0.79910000  0.35330000  0.99750000  1.0 0.1208802223
H  H50  1  0.73890000  0.41990000  0.90970000  1.0 0.0481528853
H  H51  1  0.76220000  0.35860000  0.92160000  1.0 0.036716385
H  H52  1  0.75350000  0.38170000  0.96130000  1.0 0.0323060638
H  H53  1  0.99750000  0.85010000  0.79910000  1.0 0.1208802223
H  H54  1  0.90970000  0.93150000  0.73890000  1.0 0.0481528853
H  H55  1  0.92160000  0.95760000  0.76220000  1.0 0.036716385
H  H56  1  0.96130000  0.90350000  0.75350000  1.0 0.0323060638
H  H57  1  0.85010000  0.99750000  0.35330000  1.0 0.1208802223
H  H58  1  0.93150000  0.90970000  0.41990000  1.0 0.0481528853
H  H59  1  0.95760000  0.92160000  0.35860000  1.0 0.036716385
H  H60  1  0.90350000  0.96130000  0.38170000  1.0 0.0323060638
H  H61  1  0.35330000  0.79910000  0.85010000  1.0 0.1208802223
H  H62  1  0.41990000  0.73890000  0.93150000  1.0 0.0481528853
H  H63  1  0.35860000  0.76220000  0.95760000  1.0 0.036716385
H  H64  1  0.38170000  0.75350000  0.90350000  1.0 0.0323060638
H  H65  1  0.85010000  0.35330000  0.79910000  1.0 0.1208802223
H  H66  1  0.93150000  0.41990000  0.73890000  1.0 0.0481528853
H  H67  1  0.95760000  0.35860000  0.76220000  1.0 0.036716385
H  H68  1  0.90350000  0.38170000  0.75350000  1.0 0.0323060638
H  H69  1  0.35330000  0.85010000  0.99750000  1.0 0.1208802223
H  H70  1  0.41990000  0.93150000  0.90970000  1.0 0.0481528853
H  H71  1  0.35860000  0.95760000  0.92160000  1.0 0.036716385
H  H72  1  0.38170000  0.90350000  0.96130000  1.0 0.0323060638
H  H73  1  0.79910000  0.99750000  0.85010000  1.0 0.1208802223
H  H74  1  0.73890000  0.90970000  0.93150000  1.0 0.0481528853
H  H75  1  0.76220000  0.92160000  0.95760000  1.0 0.036716385
H  H76  1  0.75350000  0.96130000  0.90350000  1.0 0.0323060638
H  H77  1  0.99750000  0.79910000  0.35330000  1.0 0.1208802223
H  H78  1  0.90970000  0.73890000  0.41990000  1.0 0.0481528853
H  H79  1  0.92160000  0.76220000  0.35860000  1.0 0.036716385
H  H80  1  0.96130000  0.75350000  0.38170000  1.0 0.0323060638
H  H81  1  0.99750000  0.35330000  0.85010000  1.0 0.1208802223
H  H82  1  0.90970000  0.41990000  0.93150000  1.0 0.0481528853
H  H83  1  0.92160000  0.35860000  0.95760000  1.0 0.036716385
H  H84  1  0.96130000  0.38170000  0.90350000  1.0 0.0323060638
H  H85  1  0.79910000  0.85010000  0.35330000  1.0 0.1208802223
H  H86  1  0.73890000  0.93150000  0.41990000  1.0 0.0481528853
H  H87  1  0.76220000  0.95760000  0.35860000  1.0 0.036716385
H  H88  1  0.75350000  0.90350000  0.38170000  1.0 0.0323060638
H  H89  1  0.35330000  0.99750000  0.79910000  1.0 0.1208802223
H  H90  1  0.41990000  0.90970000  0.73890000  1.0 0.0481528853
H  H91  1  0.35860000  0.92160000  0.76220000  1.0 0.036716385
H  H92  1  0.38170000  0.96130000  0.75350000  1.0 0.0323060638
H  H93  1  0.85010000  0.79910000  0.99750000  1.0 0.1208802223
H  H94  1  0.93150000  0.73890000  0.90970000  1.0 0.0481528853
H  H95  1  0.95760000  0.76220000  0.92160000  1.0 0.036716385
H  H96  1  0.90350000  0.75350000  0.96130000  1.0 0.0323060638
H  H97  1  0.79910000  0.85010000  0.99750000  1.0 0.1208802223
H  H98  1  0.73890000  0.93150000  0.90970000  1.0 0.0481528853
H  H99  1  0.76220000  0.95760000  0.92160000  1.0 0.036716385
H  H100  1  0.75350000  0.90350000  0.96130000  1.0 0.0323060638
H  H101  1  0.99750000  0.35330000  0.79910000  1.0 0.1208802223
H  H102  1  0.90970000  0.41990000  0.73890000  1.0 0.0481528853
H  H103  1  0.92160000  0.35860000  0.76220000  1.0 0.036716385
H  H104  1  0.96130000  0.38170000  0.75350000  1.0 0.0323060638
H  H105  1  0.85010000  0.79910000  0.35330000  1.0 0.1208802223
H  H106  1  0.93150000  0.73890000  0.41990000  1.0 0.0481528853
H  H107  1  0.95760000  0.76220000  0.35860000  1.0 0.036716385
H  H108  1  0.90350000  0.75350000  0.38170000  1.0 0.0323060638
H  H109  1  0.35330000  0.99750000  0.85010000  1.0 0.1208802223
H  H110  1  0.41990000  0.90970000  0.93150000  1.0 0.0481528853
H  H111  1  0.35860000  0.92160000  0.95760000  1.0 0.036716385
H  H112  1  0.38170000  0.96130000  0.90350000  1.0 0.0323060638
H  H113  1  0.85010000  0.99750000  0.79910000  1.0 0.1208802223
H  H114  1  0.93150000  0.90970000  0.73890000  1.0 0.0481528853
H  H115  1  0.95760000  0.92160000  0.76220000  1.0 0.036716385
H  H116  1  0.90350000  0.96130000  0.75350000  1.0 0.0323060638
H  H117  1  0.35330000  0.79910000  0.99750000  1.0 0.1208802223
H  H118  1  0.41990000  0.73890000  0.90970000  1.0 0.0481528853
H  H119  1  0.35860000  0.76220000  0.92160000  1.0 0.036716385
H  H120  1  0.38170000  0.75350000  0.96130000  1.0 0.0323060638
H  H121  1  0.79910000  0.35330000  0.85010000  1.0 0.1208802223
H  H122  1  0.73890000  0.41990000  0.93150000  1.0 0.0481528853
H  H123  1  0.76220000  0.35860000  0.95760000  1.0 0.036716385
H  H124  1  0.75350000  0.38170000  0.90350000  1.0 0.0323060638
H  H125  1  0.99750000  0.85010000  0.35330000  1.0 0.1208802223
H  H126  1  0.90970000  0.93150000  0.41990000  1.0 0.0481528853
H  H127  1  0.92160000  0.95760000  0.35860000  1.0 0.036716385
H  H128  1  0.96130000  0.90350000  0.38170000  1.0 0.0323060638
H  H129  1  0.99750000  0.79910000  0.85010000  1.0 0.1208802223
H  H130  1  0.90970000  0.73890000  0.93150000  1.0 0.0481528853
H  H131  1  0.92160000  0.76220000  0.95760000  1.0 0.036716385
H  H132  1  0.96130000  0.75350000  0.90350000  1.0 0.0323060638
H  H133  1  0.79910000  0.99750000  0.35330000  1.0 0.1208802223
H  H134  1  0.73890000  0.90970000  0.41990000  1.0 0.0481528853
H  H135  1  0.76220000  0.92160000  0.35860000  1.0 0.036716385
H  H136  1  0.75350000  0.96130000  0.38170000  1.0 0.0323060638
H  H137  1  0.35330000  0.85010000  0.79910000  1.0 0.1208802223
H  H138  1  0.41990000  0.93150000  0.73890000  1.0 0.0481528853
H  H139  1  0.35860000  0.95760000  0.76220000  1.0 0.036716385
H  H140  1  0.38170000  0.90350000  0.75350000  1.0 0.0323060638
H  H141  1  0.85010000  0.35330000  0.99750000  1.0 0.1208802223
H  H142  1  0.93150000  0.41990000  0.90970000  1.0 0.0481528853
H  H143  1  0.95760000  0.35860000  0.92160000  1.0 0.036716385
H  H144  1  0.90350000  0.38170000  0.96130000  1.0 0.0323060638
H  H145  1  0.20090000  0.64670000  0.00250000  1.0 0.1208802223
H  H146  1  0.26110000  0.58010000  0.09030000  1.0 0.0481528853
H  H147  1  0.23780000  0.64140000  0.07840000  1.0 0.036716385
H  H148  1  0.24650000  0.61830000  0.03870000  1.0 0.0323060638
H  H149  1  0.00250000  0.14990000  0.20090000  1.0 0.1208802223
H  H150  1  0.09030000  0.06850000  0.26110000  1.0 0.0481528853
H  H151  1  0.07840000  0.04240000  0.23780000  1.0 0.036716385
H  H152  1  0.03870000  0.09650000  0.24650000  1.0 0.0323060638
H  H153  1  0.14990000  0.00250000  0.64670000  1.0 0.1208802223
H  H154  1  0.06850000  0.09030000  0.58010000  1.0 0.0481528853
H  H155  1  0.04240000  0.07840000  0.64140000  1.0 0.036716385
H  H156  1  0.09650000  0.03870000  0.61830000  1.0 0.0323060638
H  H157  1  0.64670000  0.20090000  0.14990000  1.0 0.1208802223
H  H158  1  0.58010000  0.26110000  0.06850000  1.0 0.0481528853
H  H159  1  0.64140000  0.23780000  0.04240000  1.0 0.036716385
H  H160  1  0.61830000  0.24650000  0.09650000  1.0 0.0323060638
H  H161  1  0.14990000  0.64670000  0.20090000  1.0 0.1208802223
H  H162  1  0.06850000  0.58010000  0.26110000  1.0 0.0481528853
H  H163  1  0.04240000  0.64140000  0.23780000  1.0 0.036716385
H  H164  1  0.09650000  0.61830000  0.24650000  1.0 0.0323060638
H  H165  1  0.64670000  0.14990000  0.00250000  1.0 0.1208802223
H  H166  1  0.58010000  0.06850000  0.09030000  1.0 0.0481528853
H  H167  1  0.64140000  0.04240000  0.07840000  1.0 0.036716385
H  H168  1  0.61830000  0.09650000  0.03870000  1.0 0.0323060638
H  H169  1  0.20090000  0.00250000  0.14990000  1.0 0.1208802223
H  H170  1  0.26110000  0.09030000  0.06850000  1.0 0.0481528853
H  H171  1  0.23780000  0.07840000  0.04240000  1.0 0.036716385
H  H172  1  0.24650000  0.03870000  0.09650000  1.0 0.0323060638
H  H173  1  0.00250000  0.20090000  0.64670000  1.0 0.1208802223
H  H174  1  0.09030000  0.26110000  0.58010000  1.0 0.0481528853
H  H175  1  0.07840000  0.23780000  0.64140000  1.0 0.0323060638
H  H176  1  0.03870000  0.24650000  0.61830000  1.0 0.0323060638
H  H177  1  0.00250000  0.64670000  0.14990000  1.0 0.1208802223
H  H178  1  0.09030000  0.58010000  0.06850000  1.0 0.0481528853
H  H179  1  0.07840000  0.64140000  0.04240000  1.0 0.036716385
H  H180  1  0.03870000  0.61830000  0.09650000  1.0 0.0323060638
H  H181  1  0.20090000  0.14990000  0.64670000  1.0 0.1208802223
H  H182  1  0.26110000  0.06850000  0.58010000  1.0 0.0481528853
H  H183  1  0.23780000  0.04240000  0.64140000  1.0 0.036716385
H  H184  1  0.24650000  0.09650000  0.61830000  1.0 0.0323060638
H  H185  1  0.64670000  0.00250000  0.20090000  1.0 0.1208802223
H  H186  1  0.58010000  0.09030000  0.26110000  1.0 0.0481528853
H  H187  1  0.64140000  0.07840000  0.23780000  1.0 0.036716385
H  H188  1  0.61830000  0.03870000  0.24650000  1.0 0.0323060638
H  H189  1  0.14990000  0.20090000  0.00250000  1.0 0.1208802223
H  H190  1  0.06850000  0.26110000  0.09030000  1.0 0.0481528853
H  H191  1  0.04240000  0.23780000  0.07840000  1.0 0.036716385
H  H192  1  0.09650000  0.24650000  0.03870000  1.0 0.0323060638
H  H193  1  0.31000000  0.31000000  0.83520000  1.0 0.1296723681
H  H194  1  0.26000000  0.26000000  0.99280000  1.0 0.158033087
H  H195  1  0.21880000  0.21880000  0.91840000  1.0 0.158033087
H  H196  1  0.83520000  0.54480000  0.31000000  1.0 0.1296723681
H  H197  1  0.99280000  0.48720000  0.26000000  1.0 0.158033087
H  H198  1  0.91840000  0.64400000  0.21880000  1.0 0.158033087
H  H199  1  0.31000000  0.31000000  0.54480000  1.0 0.1296723681
H  H200  1  0.26000000  0.26000000  0.48720000  1.0 0.158033087
H  H201  1  0.21880000  0.21880000  0.64400000  1.0 0.158033087
H  H202  1  0.54480000  0.83520000  0.31000000  1.0 0.1296723681
H  H203  1  0.48720000  0.99280000  0.26000000  1.0 0.158033087
H  H204  1  0.64400000  0.91840000  0.21880000  1.0 0.158033087
H  H205  1  0.31000000  0.83520000  0.31000000  1.0 0.1296723681
H  H206  1  0.26000000  0.99280000  0.26000000  1.0 0.158033087
H  H207  1  0.21880000  0.91840000  0.21880000  1.0 0.158033087
H  H208  1  0.54480000  0.31000000  0.83520000  1.0 0.1296723681
H  H209  1  0.48720000  0.26000000  0.99280000  1.0 0.158033087
H  H210  1  0.64400000  0.21880000  0.91840000  1.0 0.158033087
H  H211  1  0.31000000  0.54480000  0.31000000  1.0 0.1296723681
H  H212  1  0.26000000  0.48720000  0.26000000  1.0 0.158033087
H  H213  1  0.21880000  0.64400000  0.21880000  1.0 0.158033087
H  H214  1  0.83520000  0.31000000  0.54480000  1.0 0.1296723681
H  H215  1  0.99280000  0.26000000  0.48720000  1.0 0.158033087
H  H216  1  0.91840000  0.21880000  0.64400000  1.0 0.158033087
H  H217  1  0.83520000  0.31000000  0.31000000  1.0 0.1296723681
H  H218  1  0.99280000  0.26000000  0.26000000  1.0 0.158033087
H  H219  1  0.91840000  0.21880000  0.21880000  1.0 0.158033087
H  H220  1  0.31000000  0.83520000  0.54480000  1.0 0.1296723681
H  H221  1  0.26000000  0.99280000  0.48720000  1.0 0.158033087
H  H222  1  0.21880000  0.91840000  0.64400000  1.0 0.158033087
H  H223  1  0.54480000  0.31000000  0.31000000  1.0 0.1296723681
H  H224  1  0.48720000  0.26000000  0.26000000  1.0 0.158033087
H  H225  1  0.64400000  0.21880000  0.21880000  1.0 0.158033087
H  H226  1  0.31000000  0.54480000  0.83520000  1.0 0.1296723681
H  H227  1  0.26000000  0.48720000  0.99280000  1.0 0.158033087
H  H228  1  0.21880000  0.64400000  0.91840000  1.0 0.158033087
H  H229  1  0.69000000  0.45520000  0.16480000  1.0 0.1296723681
H  H230  1  0.74000000  0.51280000  0.00720000  1.0 0.158033087
H  H231  1  0.78120000  0.35600000  0.08160000  1.0 0.158033087
H  H232  1  0.16480000  0.69000000  0.69000000  1.0 0.1296723681
H  H233  1  0.00720000  0.74000000  0.74000000  1.0 0.158033087
H  H234  1  0.08160000  0.78120000  0.78120000  1.0 0.158033087
H  H235  1  0.69000000  0.16480000  0.45520000  1.0 0.1296723681
H  H236  1  0.74000000  0.00720000  0.51280000  1.0 0.158033087
H  H237  1  0.78120000  0.08160000  0.35600000  1.0 0.158033087
H  H238  1  0.45520000  0.69000000  0.69000000  1.0 0.1296723681
H  H239  1  0.51280000  0.74000000  0.74000000  1.0 0.158033087
H  H240  1  0.35600000  0.78120000  0.78120000  1.0 0.158033087
H  H241  1  0.69000000  0.45520000  0.69000000  1.0 0.1296723681
H  H242  1  0.74000000  0.51280000  0.74000000  1.0 0.158033087
H  H243  1  0.78120000  0.35600000  0.78120000  1.0 0.158033087
H  H244  1  0.45520000  0.69000000  0.16480000  1.0 0.1296723681
H  H245  1  0.51280000  0.74000000  0.00720000  1.0 0.158033087
H  H246  1  0.35600000  0.78120000  0.08160000  1.0 0.158033087
H  H247  1  0.69000000  0.16480000  0.69000000  1.0 0.1296723681
H  H248  1  0.74000000  0.00720000  0.74000000  1.0 0.158033087
H  H249  1  0.78120000  0.08160000  0.78120000  1.0 0.158033087
H  H250  1  0.16480000  0.69000000  0.45520000  1.0 0.1296723681
H  H251  1  0.00720000  0.74000000  0.51280000  1.0 0.158033087
H  H252  1  0.08160000  0.78120000  0.35600000  1.0 0.158033087
H  H253  1  0.16480000  0.45520000  0.69000000  1.0 0.1296723681
H  H254  1  0.00720000  0.51280000  0.74000000  1.0 0.158033087
H  H255  1  0.08160000  0.35600000  0.78120000  1.0 0.158033087
H  H256  1  0.69000000  0.69000000  0.45520000  1.0 0.1296723681
H  H257  1  0.74000000  0.74000000  0.51280000  1.0 0.158033087
H  H258  1  0.78120000  0.78120000  0.35600000  1.0 0.158033087
H  H259  1  0.45520000  0.16480000  0.69000000  1.0 0.1296723681
H  H260  1  0.51280000  0.00720000  0.74000000  1.0 0.158033087
H  H261  1  0.35600000  0.08160000  0.78120000  1.0 0.158033087
H  H262  1  0.69000000  0.69000000  0.16480000  1.0 0.1296723681
H  H263  1  0.74000000  0.74000000  0.00720000  1.0 0.158033087
H  H264  1  0.78120000  0.78120000  0.08160000  1.0 0.158033087
C  C1  1  0.29100000  0.29100000  0.86760000  1.0 -0.0703400506
C  C2  1  0.29170000  0.29170000  0.91370000  1.0 -0.0454888702
C  C3  1  0.23250000  0.23250000  0.96770000  1.0 0.3080000974
C  C4  1  0.26130000  0.26130000  0.96170000  1.0 -0.1046789763
C  C5  1  0.26510000  0.26510000  0.86470000  1.0 0.0323060638
C  C6  1  0.23660000  0.23660000  0.91720000  1.0 -0.1091964161
C  C7  1  0.31790000  0.31790000  0.91670000  1.0 0.6157453532
C  C8  1  0.26720000  0.26720000  0.81400000  1.0 0.5789602446
C  C9  1  0.17720000  0.17720000  0.01860000  1.0 0.0066317811
C  C10  1  0.15230000  0.15230000  0.08030000  1.0 -0.0305599269
C  C11  1  0.86760000  0.55040000  0.29100000  1.0 -0.0703400506
C  C12  1  0.91370000  0.50290000  0.29170000  1.0 -0.0454888702
C  C13  1  0.96770000  0.56730000  0.23250000  1.0 0.3080000974
C  C14  1  0.96170000  0.51570000  0.26130000  1.0 -0.1046789763
C  C15  1  0.86470000  0.60510000  0.26510000  1.0 0.0323060638
C  C16  1  0.91720000  0.60960000  0.23660000  1.0 -0.1091964161
C  C17  1  0.91670000  0.44750000  0.31790000  1.0 0.6139190935
C  C18  1  0.81400000  0.65160000  0.26720000  1.0 0.5789602446
C  C19  1  0.01860000  0.62700000  0.17720000  1.0 0.0066317811
C  C20  1  0.08030000  0.61510000  0.15230000  1.0 -0.0305599269
C  C21  1  0.29100000  0.29100000  0.55040000  1.0 -0.0703400506
C  C22  1  0.29170000  0.29170000  0.50290000  1.0 -0.0454888702
C  C23  1  0.23250000  0.23250000  0.56730000  1.0 0.3080000974
C  C24  1  0.26130000  0.26130000  0.51570000  1.0 -0.1091964161
C  C25  1  0.26510000  0.26510000  0.60510000  1.0 0.0323060638
C  C26  1  0.23660000  0.23660000  0.60960000  1.0 -0.1091964161
C  C27  1  0.31790000  0.31790000  0.44750000  1.0 0.6157453532
C  C28  1  0.26720000  0.26720000  0.65160000  1.0 0.5789602446
C  C29  1  0.17720000  0.17720000  0.62700000  1.0 0.0066317811
C  C30  1  0.15230000  0.15230000  0.61510000  1.0 -0.0305599269
C  C31  1  0.55040000  0.86760000  0.29100000  1.0 -0.0703400506
C  C32  1  0.50290000  0.91370000  0.29170000  1.0 -0.0454888702
C  C33  1  0.56730000  0.96770000  0.23250000  1.0 0.3080000974
C  C34  1  0.51570000  0.96170000  0.26130000  1.0 -0.1046789763
C  C35  1  0.60510000  0.86470000  0.26510000  1.0 0.0323060638
C  C36  1  0.60960000  0.91720000  0.23660000  1.0 -0.1091964161
C  C37  1  0.44750000  0.91670000  0.31790000  1.0 0.6157453532
C  C38  1  0.65160000  0.81400000  0.26720000  1.0 0.5789602446
C  C39  1  0.62700000  0.01860000  0.17720000  1.0 0.0066317811
C  C40  1  0.61510000  0.08030000  0.15230000  1.0 -0.0305599269
C  C41  1  0.29100000  0.86760000  0.29100000  1.0 -0.0703400506
C  C42  1  0.29170000  0.91370000  0.29170000  1.0 -0.0454888702
C  C43  1  0.23250000  0.96770000  0.23250000  1.0 0.3080000974
C  C44  1  0.26130000  0.96170000  0.26130000  1.0 -0.1046789763
C  C45  1  0.26510000  0.86470000  0.26510000  1.0 0.0323060638
C  C46  1  0.23660000  0.91720000  0.23660000  1.0 -0.1091964161
C  C47  1  0.31790000  0.91670000  0.31790000  1.0 0.6157453532
C  C48  1  0.26720000  0.81400000  0.26720000  1.0 0.5789602446
C  C49  1  0.17720000  0.01860000  0.17720000  1.0 0.0066317811
C  C50  1  0.15230000  0.08030000  0.15230000  1.0 -0.0305599269
C  C51  1  0.55040000  0.29100000  0.86760000  1.0 -0.0703400506
C  C52  1  0.50290000  0.29170000  0.91370000  1.0 -0.0454888702
C  C53  1  0.56730000  0.23250000  0.96770000  1.0 0.3080000974
C  C54  1  0.51570000  0.26130000  0.96170000  1.0 -0.1091964161
C  C55  1  0.60510000  0.26510000  0.86470000  1.0 0.0323060638
C  C56  1  0.60960000  0.23660000  0.91720000  1.0 -0.1091964161
C  C57  1  0.44750000  0.31790000  0.91670000  1.0 0.6157453532
C  C58  1  0.65160000  0.26720000  0.81400000  1.0 0.5789602446
C  C59  1  0.62700000  0.17720000  0.01860000  1.0 0.0066317811
C  C60  1  0.61510000  0.15230000  0.08030000  1.0 -0.0305599269
C  C61  1  0.29100000  0.55040000  0.29100000  1.0 -0.0703400506
C  C62  1  0.29170000  0.50290000  0.29170000  1.0 -0.0454888702
C  C63  1  0.23250000  0.56730000  0.23250000  1.0 0.3080000974
C  C64  1  0.26130000  0.51570000  0.26130000  1.0 -0.1046789763
C  C65  1  0.26510000  0.60510000  0.26510000  1.0 0.0323060638
C  C66  1  0.23660000  0.60960000  0.23660000  1.0 -0.1091964161
C  C67  1  0.31790000  0.44750000  0.31790000  1.0 0.6139190935
C  C68  1  0.26720000  0.65160000  0.26720000  1.0 0.5789602446
C  C69  1  0.17720000  0.62700000  0.17720000  1.0 0.0066317811
C  C70  1  0.15230000  0.61510000  0.15230000  1.0 -0.0305599269
C  C71  1  0.86760000  0.29100000  0.55040000  1.0 -0.0703400506
C  C72  1  0.91370000  0.29170000  0.50290000  1.0 -0.0454888702
C  C73  1  0.96770000  0.23250000  0.56730000  1.0 0.3080000974
C  C74  1  0.96170000  0.26130000  0.51570000  1.0 -0.1046789763
C  C75  1  0.86470000  0.26510000  0.60510000  1.0 0.0323060638
C  C76  1  0.91720000  0.23660000  0.60960000  1.0 -0.1091964161
C  C77  1  0.91670000  0.31790000  0.44750000  1.0 0.6139190935
C  C78  1  0.81400000  0.26720000  0.65160000  1.0 0.5789602446
C  C79  1  0.01860000  0.17720000  0.62700000  1.0 0.0066317811
C  C80  1  0.08030000  0.15230000  0.61510000  1.0 -0.0305599269
C  C81  1  0.86760000  0.29100000  0.29100000  1.0 -0.0703400506
C  C82  1  0.91370000  0.29170000  0.29170000  1.0 -0.0454888702
C  C83  1  0.96770000  0.23250000  0.23250000  1.0 0.3080000974
C  C84  1  0.96170000  0.26130000  0.26130000  1.0 -0.1046789763
C  C85  1  0.86470000  0.26510000  0.26510000  1.0 0.0323060638
C  C86  1  0.91720000  0.23660000  0.23660000  1.0 -0.1091964161
C  C87  1  0.91670000  0.31790000  0.31790000  1.0 0.6139190935
C  C88  1  0.81400000  0.26720000  0.26720000  1.0 0.5789602446
C  C89  1  0.01860000  0.17720000  0.17720000  1.0 0.0066317811
C  C90  1  0.08030000  0.15230000  0.15230000  1.0 -0.0305599269
C  C91  1  0.29100000  0.86760000  0.55040000  1.0 -0.0703400506
C  C92  1  0.29170000  0.91370000  0.50290000  1.0 -0.0454888702
C  C93  1  0.23250000  0.96770000  0.56730000  1.0 0.3080000974
C  C94  1  0.26130000  0.96170000  0.51570000  1.0 -0.1091964161
C  C95  1  0.26510000  0.86470000  0.60510000  1.0 0.0323060638
C  C96  1  0.23660000  0.91720000  0.60960000  1.0 -0.1091964161
C  C97  1  0.31790000  0.91670000  0.44750000  1.0 0.6157453532
C  C98  1  0.26720000  0.81400000  0.65160000  1.0 0.5789602446
C  C99  1  0.17720000  0.01860000  0.62700000  1.0 0.0066317811
C  C100  1  0.15230000  0.08030000  0.61510000  1.0 -0.0305599269
C  C101  1  0.55040000  0.29100000  0.29100000  1.0 -0.0703400506
C  C102  1  0.50290000  0.29170000  0.29170000  1.0 -0.0454888702
C  C103  1  0.56730000  0.23250000  0.23250000  1.0 0.3080000974
C  C104  1  0.51570000  0.26130000  0.26130000  1.0 -0.1046789763
C  C105  1  0.60510000  0.26510000  0.26510000  1.0 0.0323060638
C  C106  1  0.60960000  0.23660000  0.23660000  1.0 -0.1091964161
C  C107  1  0.44750000  0.31790000  0.31790000  1.0 0.6139190935
C  C108  1  0.65160000  0.26720000  0.26720000  1.0 0.5789602446
C  C109  1  0.62700000  0.17720000  0.17720000  1.0 0.0066317811
C  C110  1  0.61510000  0.15230000  0.15230000  1.0 -0.0305599269
C  C111  1  0.29100000  0.55040000  0.86760000  1.0 -0.0703400506
C  C112  1  0.29170000  0.50290000  0.91370000  1.0 -0.0454888702
C  C113  1  0.23250000  0.56730000  0.96770000  1.0 0.3080000974
C  C114  1  0.26130000  0.51570000  0.96170000  1.0 -0.1091964161
C  C115  1  0.26510000  0.60510000  0.86470000  1.0 0.0323060638
C  C116  1  0.23660000  0.60960000  0.91720000  1.0 -0.1091964161
C  C117  1  0.31790000  0.44750000  0.91670000  1.0 0.6157453532
C  C118  1  0.26720000  0.65160000  0.81400000  1.0 0.5789602446
C  C119  1  0.17720000  0.62700000  0.01860000  1.0 0.0066317811
C  C120  1  0.15230000  0.61510000  0.08030000  1.0 -0.0305599269
C  C121  1  0.70900000  0.44960000  0.13240000  1.0 -0.0703400506
C  C122  1  0.70830000  0.49710000  0.08630000  1.0 -0.0454888702
C  C123  1  0.76750000  0.43270000  0.03230000  1.0 0.3080000974
C  C124  1  0.73870000  0.48430000  0.03830000  1.0 -0.1091964161
C  C125  1  0.73490000  0.39490000  0.13530000  1.0 0.0323060638
C  C126  1  0.76340000  0.39040000  0.08280000  1.0 -0.1091964161
C  C127  1  0.68210000  0.55250000  0.08330000  1.0 0.6139190935
C  C128  1  0.73280000  0.34840000  0.18600000  1.0 0.5789602446
C  C129  1  0.82280000  0.37300000  0.98140000  1.0 0.0066317811
C  C130  1  0.84770000  0.38490000  0.91970000  1.0 -0.0305599269
C  C131  1  0.13240000  0.70900000  0.70900000  1.0 -0.0703400506
C  C132  1  0.08630000  0.70830000  0.70830000  1.0 -0.0454888702
C  C133  1  0.03230000  0.76750000  0.76750000  1.0 0.3080000974
C  C134  1  0.03830000  0.73870000  0.73870000  1.0 -0.1091964161
C  C135  1  0.13530000  0.73490000  0.73490000  1.0 0.0323060638
C  C136  1  0.08280000  0.76340000  0.76340000  1.0 -0.1091964161
C  C137  1  0.08330000  0.68210000  0.68210000  1.0 0.6157453532
C  C138  1  0.18600000  0.73280000  0.73280000  1.0 0.5789602446
C  C139  1  0.98140000  0.82280000  0.82280000  1.0 0.0066317811
C  C140  1  0.91970000  0.84770000  0.84770000  1.0 -0.0305599269
C  C141  1  0.70900000  0.13240000  0.44960000  1.0 -0.0703400506
C  C142  1  0.70830000  0.08630000  0.49710000  1.0 -0.0454888702
C  C143  1  0.76750000  0.03230000  0.43270000  1.0 0.3080000974
C  C144  1  0.73870000  0.03830000  0.48430000  1.0 -0.1091964161
C  C145  1  0.73490000  0.13530000  0.39490000  1.0 0.0323060638
C  C146  1  0.76340000  0.08280000  0.39040000  1.0 -0.1091964161
C  C147  1  0.68210000  0.08330000  0.55250000  1.0 0.6139190935
C  C148  1  0.73280000  0.18600000  0.34840000  1.0 0.5789602446
C  C149  1  0.82280000  0.98140000  0.37300000  1.0 0.0066317811
C  C150  1  0.84770000  0.91970000  0.38490000  1.0 -0.0305599269
C  C151  1  0.44960000  0.70900000  0.70900000  1.0 -0.0703400506
C  C152  1  0.49710000  0.70830000  0.70830000  1.0 -0.0454888702
C  C153  1  0.43270000  0.76750000  0.76750000  1.0 0.3080000974
C  C154  1  0.48430000  0.73870000  0.73870000  1.0 -0.1091964161
C  C155  1  0.39490000  0.73490000  0.73490000  1.0 0.0323060638
C  C156  1  0.39040000  0.76340000  0.76340000  1.0 -0.1091964161
C  C157  1  0.55250000  0.68210000  0.68210000  1.0 0.6157453532
C  C158  1  0.34840000  0.73280000  0.73280000  1.0 0.5789602446
C  C159  1  0.37300000  0.82280000  0.82280000  1.0 0.0066317811
C  C160  1  0.38490000  0.84770000  0.84770000  1.0 -0.0305599269
C  C161  1  0.70900000  0.44960000  0.70900000  1.0 -0.0703400506
C  C162  1  0.70830000  0.49710000  0.70830000  1.0 -0.0454888702
C  C163  1  0.76750000  0.43270000  0.76750000  1.0 0.3080000974
C  C164  1  0.73870000  0.48430000  0.73870000  1.0 -0.1091964161
C  C165  1  0.73490000  0.39490000  0.73490000  1.0 0.0323060638
C  C166  1  0.76340000  0.39040000  0.76340000  1.0 -0.1091964161
C  C167  1  0.68210000  0.55250000  0.68210000  1.0 0.6157453532
C  C168  1  0.73280000  0.34840000  0.73280000  1.0 0.5789602446
C  C169  1  0.82280000  0.37300000  0.82280000  1.0 0.0066317811
C  C170  1  0.84770000  0.38490000  0.84770000  1.0 -0.0305599269
C  C171  1  0.44960000  0.70900000  0.13240000  1.0 -0.0703400506
C  C172  1  0.49710000  0.70830000  0.08630000  1.0 -0.0454888702
C  C173  1  0.43270000  0.76750000  0.03230000  1.0 0.3080000974
C  C174  1  0.48430000  0.73870000  0.03830000  1.0 -0.1091964161
C  C175  1  0.39490000  0.73490000  0.13530000  1.0 0.0323060638
C  C176  1  0.39040000  0.76340000  0.08280000  1.0 -0.1091964161
C  C177  1  0.55250000  0.68210000  0.08330000  1.0 0.6139190935
C  C178  1  0.34840000  0.73280000  0.18600000  1.0 0.5789602446
C  C179  1  0.37300000  0.82280000  0.98140000  1.0 0.0066317811
C  C180  1  0.38490000  0.84770000  0.91970000  1.0 -0.0305599269
C  C181  1  0.70900000  0.13240000  0.70900000  1.0 -0.0703400506
C  C182  1  0.70830000  0.08630000  0.70830000  1.0 -0.0454888702
C  C183  1  0.76750000  0.03230000  0.76750000  1.0 0.3080000974
C  C184  1  0.73870000  0.03830000  0.73870000  1.0 -0.1091964161
C  C185  1  0.73490000  0.13530000  0.73490000  1.0 0.0323060638
C  C186  1  0.76340000  0.08280000  0.76340000  1.0 -0.1091964161
C  C187  1  0.68210000  0.08330000  0.68210000  1.0 0.6139190935
C  C188  1  0.73280000  0.18600000  0.73280000  1.0 0.5789602446
C  C189  1  0.82280000  0.98140000  0.82280000  1.0 0.0066317811
C  C190  1  0.84770000  0.91970000  0.84770000  1.0 -0.0305599269
C  C191  1  0.13240000  0.70900000  0.44960000  1.0 -0.0703400506
C  C192  1  0.08630000  0.70830000  0.49710000  1.0 -0.0454888702
C  C193  1  0.03230000  0.76750000  0.43270000  1.0 0.3080000974
C  C194  1  0.03830000  0.73870000  0.48430000  1.0 -0.1091964161
C  C195  1  0.13530000  0.73490000  0.39490000  1.0 0.0323060638
C  C196  1  0.08280000  0.76340000  0.39040000  1.0 -0.1091964161
C  C197  1  0.08330000  0.68210000  0.55250000  1.0 0.6157453532
C  C198  1  0.18600000  0.73280000  0.34840000  1.0 0.5789602446
C  C199  1  0.98140000  0.82280000  0.37300000  1.0 0.0066317811
C  C200  1  0.91970000  0.84770000  0.38490000  1.0 -0.0305599269
C  C201  1  0.13240000  0.44960000  0.70900000  1.0 -0.0703400506
C  C202  1  0.08630000  0.49710000  0.70830000  1.0 -0.0454888702
C  C203  1  0.03230000  0.43270000  0.76750000  1.0 0.3080000974
C  C204  1  0.03830000  0.48430000  0.73870000  1.0 -0.1091964161
C  C205  1  0.13530000  0.39490000  0.73490000  1.0 0.0323060638
C  C206  1  0.08280000  0.39040000  0.76340000  1.0 -0.1091964161
C  C207  1  0.08330000  0.55250000  0.68210000  1.0 0.6157453532
C  C208  1  0.18600000  0.34840000  0.73280000  1.0 0.5789602446
C  C209  1  0.98140000  0.37300000  0.82280000  1.0 0.0066317811
C  C210  1  0.91970000  0.38490000  0.84770000  1.0 -0.0305599269
C  C211  1  0.70900000  0.70900000  0.44960000  1.0 -0.0703400506
C  C212  1  0.70830000  0.70830000  0.49710000  1.0 -0.0454888702
C  C213  1  0.76750000  0.76750000  0.43270000  1.0 0.3080000974
C  C214  1  0.73870000  0.73870000  0.48430000  1.0 -0.1091964161
C  C215  1  0.73490000  0.73490000  0.39490000  1.0 0.0323060638
C  C216  1  0.76340000  0.76340000  0.39040000  1.0 -0.1091964161
C  C217  1  0.68210000  0.68210000  0.55250000  1.0 0.6157453532
C  C218  1  0.73280000  0.73280000  0.34840000  1.0 0.5789602446
C  C219  1  0.82280000  0.82280000  0.37300000  1.0 0.0066317811
C  C220  1  0.84770000  0.84770000  0.38490000  1.0 -0.0305599269
C  C221  1  0.44960000  0.13240000  0.70900000  1.0 -0.0703400506
C  C222  1  0.49710000  0.08630000  0.70830000  1.0 -0.0454888702
C  C223  1  0.43270000  0.03230000  0.76750000  1.0 0.3080000974
C  C224  1  0.48430000  0.03830000  0.73870000  1.0 -0.1091964161
C  C225  1  0.39490000  0.13530000  0.73490000  1.0 0.0323060638
C  C226  1  0.39040000  0.08280000  0.76340000  1.0 -0.1091964161
C  C227  1  0.55250000  0.08330000  0.68210000  1.0 0.6139190935
C  C228  1  0.34840000  0.18600000  0.73280000  1.0 0.5789602446
C  C229  1  0.37300000  0.98140000  0.82280000  1.0 0.0066317811
C  C230  1  0.38490000  0.91970000  0.84770000  1.0 -0.0305599269
C  C231  1  0.70900000  0.70900000  0.13240000  1.0 -0.0703400506
C  C232  1  0.70830000  0.70830000  0.08630000  1.0 -0.0454888702
C  C233  1  0.76750000  0.76750000  0.03230000  1.0 0.3080000974
C  C234  1  0.73870000  0.73870000  0.03830000  1.0 -0.1091964161
C  C235  1  0.73490000  0.73490000  0.13530000  1.0 0.0323060638
C  C236  1  0.76340000  0.76340000  0.08280000  1.0 -0.1091964161
C  C237  1  0.68210000  0.68210000  0.08330000  1.0 0.6139190935
C  C238  1  0.73280000  0.73280000  0.18600000  1.0 0.5789602446
C  C239  1  0.82280000  0.82280000  0.98140000  1.0 0.0066317811
C  C240  1  0.84770000  0.84770000  0.91970000  1.0 -0.0305599269
C  C241  1  0.18200000  0.10420000  0.10420000  1.0 0.0323060638
C  C242  1  0.23670000  0.07530000  0.07530000  1.0 -0.1690341893
C  C243  1  0.10420000  0.60960000  0.18200000  1.0 0.0323060638
C  C244  1  0.07530000  0.61270000  0.23670000  1.0 -0.1690341893
C  C245  1  0.10420000  0.18200000  0.60960000  1.0 0.0323060638
C  C246  1  0.07530000  0.23670000  0.61270000  1.0 -0.1690341893
C  C247  1  0.60960000  0.10420000  0.10420000  1.0 0.0323060638
C  C248  1  0.61270000  0.07530000  0.07530000  1.0 -0.1690341893
C  C249  1  0.10420000  0.10420000  0.18200000  1.0 0.0323060638
C  C250  1  0.07530000  0.07530000  0.23670000  1.0 -0.1690341893
C  C251  1  0.60960000  0.18200000  0.10420000  1.0 0.0323060638
C  C252  1  0.61270000  0.23670000  0.07530000  1.0 -0.1690341893
C  C253  1  0.18200000  0.60960000  0.10420000  1.0 0.0323060638
C  C254  1  0.23670000  0.61270000  0.07530000  1.0 -0.1690341893
C  C255  1  0.10420000  0.10420000  0.60960000  1.0 0.0323060638
C  C256  1  0.07530000  0.07530000  0.61270000  1.0 -0.1690341893
C  C257  1  0.10420000  0.18200000  0.10420000  1.0 0.0323060638
C  C258  1  0.07530000  0.23670000  0.07530000  1.0 -0.1649309797
C  C259  1  0.18200000  0.10420000  0.60960000  1.0 0.0323060638
C  C260  1  0.23670000  0.07530000  0.61270000  1.0 -0.1690341893
C  C261  1  0.60960000  0.10420000  0.18200000  1.0 0.0323060638
C  C262  1  0.61270000  0.07530000  0.23670000  1.0 -0.1690341893
C  C263  1  0.10420000  0.60960000  0.10420000  1.0 0.0323060638
C  C264  1  0.07530000  0.61270000  0.07530000  1.0 -0.1690341893
C  C265  1  0.81800000  0.39040000  0.89580000  1.0 0.0323060638
C  C266  1  0.76330000  0.38730000  0.92470000  1.0 -0.1690341893
C  C267  1  0.89580000  0.89580000  0.81800000  1.0 0.0323060638
C  C268  1  0.92470000  0.92470000  0.76330000  1.0 -0.1690341893
C  C269  1  0.89580000  0.89580000  0.39040000  1.0 0.0323060638
C  C270  1  0.92470000  0.92470000  0.38730000  1.0 -0.1690341893
C  C271  1  0.39040000  0.81800000  0.89580000  1.0 0.0323060638
C  C272  1  0.38730000  0.76330000  0.92470000  1.0 -0.1690341893
C  C273  1  0.89580000  0.39040000  0.81800000  1.0 0.0323060638
C  C274  1  0.92470000  0.38730000  0.76330000  1.0 -0.1690341893
C  C275  1  0.39040000  0.89580000  0.89580000  1.0 0.0323060638
C  C276  1  0.38730000  0.92470000  0.92470000  1.0 -0.1690341893
C  C277  1  0.81800000  0.89580000  0.89580000  1.0 0.0323060638
C  C278  1  0.76330000  0.92470000  0.92470000  1.0 -0.1690341893
C  C279  1  0.89580000  0.81800000  0.39040000  1.0 0.0323060638
C  C280  1  0.92470000  0.76330000  0.38730000  1.0 -0.1690341893
C  C281  1  0.89580000  0.39040000  0.89580000  1.0 0.0323060638
C  C282  1  0.92470000  0.38730000  0.92470000  1.0 -0.1690341893
C  C283  1  0.81800000  0.89580000  0.39040000  1.0 0.0323060638
C  C284  1  0.76330000  0.92470000  0.38730000  1.0 -0.1690341893
C  C285  1  0.39040000  0.89580000  0.81800000  1.0 0.0323060638
C  C286  1  0.38730000  0.92470000  0.76330000  1.0 -0.1690341893
C  C287  1  0.89580000  0.81800000  0.89580000  1.0 0.0323060638
C  C288  1  0.92470000  0.76330000  0.92470000  1.0 -0.1690341893
N  N1  1  0.90650000  0.64170000  0.09350000  1.0 0.4578643787
N  N2  1  0.35830000  0.09350000  0.64170000  1.0 0.4578643787
N  N3  1  0.64170000  0.90650000  0.35830000  1.0 0.4578643787
N  N4  1  0.09350000  0.35830000  0.90650000  1.0 0.4578643787
N  N5  1  0.09350000  0.64170000  0.35830000  1.0 0.4578643787
N  N6  1  0.64170000  0.09350000  0.90650000  1.0 0.4578643787
N  N7  1  0.35830000  0.90650000  0.09350000  1.0 0.4578643787
N  N8  1  0.90650000  0.35830000  0.64170000  1.0 0.4578643787
N  N9  1  0.35830000  0.64170000  0.90650000  1.0 0.4538585814
N  N10  1  0.90650000  0.09350000  0.35830000  1.0 0.4578643787
N  N11  1  0.09350000  0.90650000  0.64170000  1.0 0.4538585814
N  N12  1  0.64170000  0.35830000  0.09350000  1.0 0.4578643787
N  N13  1  0.09350000  0.64170000  0.90650000  1.0 0.4578643787
N  N14  1  0.64170000  0.09350000  0.35830000  1.0 0.4578643787
N  N15  1  0.35830000  0.90650000  0.64170000  1.0 0.4538585814
N  N16  1  0.90650000  0.35830000  0.09350000  1.0 0.4578643787
N  N17  1  0.90650000  0.09350000  0.64170000  1.0 0.4578643787
N  N18  1  0.35830000  0.64170000  0.09350000  1.0 0.4578643787
N  N19  1  0.64170000  0.35830000  0.90650000  1.0 0.4578643787
N  N20  1  0.09350000  0.90650000  0.35830000  1.0 0.4538585814
N  N21  1  0.64170000  0.90650000  0.09350000  1.0 0.4578643787
N  N22  1  0.09350000  0.35830000  0.64170000  1.0 0.4578643787
N  N23  1  0.90650000  0.64170000  0.35830000  1.0 0.4578643787
N  N24  1  0.35830000  0.09350000  0.90650000  1.0 0.4578643787
O  O1  1  0.34860000  0.34860000  0.65140000  1.0 -0.1477650059
O  O2  1  0.18490000  0.18490000  0.81510000  1.0 -0.2029040086
O  O3  1  0.65140000  0.65140000  0.34860000  1.0 -0.1477650059
O  O4  1  0.81510000  0.81510000  0.18490000  1.0 -0.2029040086
O  O5  1  0.34860000  0.65140000  0.34860000  1.0 -0.1449479265
O  O6  1  0.18490000  0.81510000  0.18490000  1.0 -0.2029040086
O  O7  1  0.65140000  0.34860000  0.65140000  1.0 -0.1477650059
O  O8  1  0.81510000  0.18490000  0.81510000  1.0 -0.2029040086
O  O9  1  0.65140000  0.34860000  0.34860000  1.0 -0.1477650059
O  O10  1  0.81510000  0.18490000  0.18490000  1.0 -0.2029040086
O  O11  1  0.34860000  0.65140000  0.65140000  1.0 -0.1477650059
O  O12  1  0.18490000  0.81510000  0.81510000  1.0 -0.2029040086
O  O13  1  0.20600000  0.20600000  0.01420000  1.0 -0.3062914837
O  O14  1  0.29330000  0.29330000  0.77330000  1.0 -0.498280171
O  O15  1  0.31350000  0.31350000  0.96090000  1.0 -0.5201040434
O  O16  1  0.34180000  0.34180000  0.86980000  1.0 -0.5705473003
O  O17  1  0.24160000  0.24160000  0.82260000  1.0 -0.498280171
O  O18  1  0.01420000  0.57380000  0.20600000  1.0 -0.3062914837
O  O19  1  0.77330000  0.64010000  0.29330000  1.0 -0.498280171
O  O20  1  0.96090000  0.41210000  0.31350000  1.0 -0.5201040434
O  O21  1  0.86980000  0.44660000  0.34180000  1.0 -0.5705473003
O  O22  1  0.82260000  0.69420000  0.24160000  1.0 -0.498280171
O  O23  1  0.20600000  0.20600000  0.57380000  1.0 -0.3062914837
O  O24  1  0.29330000  0.29330000  0.64010000  1.0 -0.498280171
O  O25  1  0.31350000  0.31350000  0.41210000  1.0 -0.5201040434
O  O26  1  0.34180000  0.34180000  0.44660000  1.0 -0.5705473003
O  O27  1  0.24160000  0.24160000  0.69420000  1.0 -0.498280171
O  O28  1  0.57380000  0.01420000  0.20600000  1.0 -0.3048876328
O  O29  1  0.64010000  0.77330000  0.29330000  1.0 -0.498280171
O  O30  1  0.41210000  0.96090000  0.31350000  1.0 -0.5201040434
O  O31  1  0.44660000  0.86980000  0.34180000  1.0 -0.5705473003
O  O32  1  0.69420000  0.82260000  0.24160000  1.0 -0.498280171
O  O33  1  0.20600000  0.01420000  0.20600000  1.0 -0.3062914837
O  O34  1  0.29330000  0.77330000  0.29330000  1.0 -0.498280171
O  O35  1  0.31350000  0.96090000  0.31350000  1.0 -0.5201040434
O  O36  1  0.34180000  0.86980000  0.34180000  1.0 -0.5705473003
O  O37  1  0.24160000  0.82260000  0.24160000  1.0 -0.498280171
O  O38  1  0.57380000  0.20600000  0.01420000  1.0 -0.3048876328
O  O39  1  0.64010000  0.29330000  0.77330000  1.0 -0.498280171
O  O40  1  0.41210000  0.31350000  0.96090000  1.0 -0.5201040434
O  O41  1  0.44660000  0.34180000  0.86980000  1.0 -0.5705473003
O  O42  1  0.69420000  0.24160000  0.82260000  1.0 -0.498280171
O  O43  1  0.20600000  0.57380000  0.20600000  1.0 -0.3062914837
O  O44  1  0.29330000  0.64010000  0.29330000  1.0 -0.498280171
O  O45  1  0.31350000  0.41210000  0.31350000  1.0 -0.5201040434
O  O46  1  0.34180000  0.44660000  0.34180000  1.0 -0.5705473003
O  O47  1  0.24160000  0.69420000  0.24160000  1.0 -0.498280171
O  O48  1  0.01420000  0.20600000  0.57380000  1.0 -0.3062914837
O  O49  1  0.77330000  0.29330000  0.64010000  1.0 -0.498280171
O  O50  1  0.96090000  0.31350000  0.41210000  1.0 -0.5201040434
O  O51  1  0.86980000  0.34180000  0.44660000  1.0 -0.5705473003
O  O52  1  0.82260000  0.24160000  0.69420000  1.0 -0.498280171
O  O53  1  0.01420000  0.20600000  0.20600000  1.0 -0.3062914837
O  O54  1  0.77330000  0.29330000  0.29330000  1.0 -0.498280171
O  O55  1  0.96090000  0.31350000  0.31350000  1.0 -0.5201040434
O  O56  1  0.86980000  0.34180000  0.34180000  1.0 -0.5705473003
O  O57  1  0.82260000  0.24160000  0.24160000  1.0 -0.498280171
O  O58  1  0.20600000  0.01420000  0.57380000  1.0 -0.3062914837
O  O59  1  0.29330000  0.77330000  0.64010000  1.0 -0.498280171
O  O60  1  0.31350000  0.96090000  0.41210000  1.0 -0.5201040434
O  O61  1  0.34180000  0.86980000  0.44660000  1.0 -0.5705473003
O  O62  1  0.24160000  0.82260000  0.69420000  1.0 -0.498280171
O  O63  1  0.57380000  0.20600000  0.20600000  1.0 -0.3048876328
O  O64  1  0.64010000  0.29330000  0.29330000  1.0 -0.498280171
O  O65  1  0.41210000  0.31350000  0.31350000  1.0 -0.5201040434
O  O66  1  0.44660000  0.34180000  0.34180000  1.0 -0.5705473003
O  O67  1  0.69420000  0.24160000  0.24160000  1.0 -0.498280171
O  O68  1  0.20600000  0.57380000  0.01420000  1.0 -0.3062914837
O  O69  1  0.29330000  0.64010000  0.77330000  1.0 -0.498280171
O  O70  1  0.31350000  0.41210000  0.96090000  1.0 -0.5201040434
O  O71  1  0.34180000  0.44660000  0.86980000  1.0 -0.5705473003
O  O72  1  0.24160000  0.69420000  0.82260000  1.0 -0.498280171
O  O73  1  0.79400000  0.42620000  0.98580000  1.0 -0.3062914837
O  O74  1  0.70670000  0.35990000  0.22670000  1.0 -0.498280171
O  O75  1  0.68650000  0.58790000  0.03910000  1.0 -0.5201040434
O  O76  1  0.65820000  0.55340000  0.13020000  1.0 -0.5705473003
O  O77  1  0.75840000  0.30580000  0.17740000  1.0 -0.498280171
O  O78  1  0.98580000  0.79400000  0.79400000  1.0 -0.3062914837
O  O79  1  0.22670000  0.70670000  0.70670000  1.0 -0.498280171
O  O80  1  0.03910000  0.68650000  0.68650000  1.0 -0.5201040434
O  O81  1  0.13020000  0.65820000  0.65820000  1.0 -0.5705473003
O  O82  1  0.17740000  0.75840000  0.75840000  1.0 -0.498280171
O  O83  1  0.79400000  0.98580000  0.42620000  1.0 -0.3048876328
O  O84  1  0.70670000  0.22670000  0.35990000  1.0 -0.498280171
O  O85  1  0.68650000  0.03910000  0.58790000  1.0 -0.5201040434
O  O86  1  0.65820000  0.13020000  0.55340000  1.0 -0.5705473003
O  O87  1  0.75840000  0.17740000  0.30580000  1.0 -0.498280171
O  O88  1  0.42620000  0.79400000  0.79400000  1.0 -0.3062914837
O  O89  1  0.35990000  0.70670000  0.70670000  1.0 -0.498280171
O  O90  1  0.58790000  0.68650000  0.68650000  1.0 -0.5201040434
O  O91  1  0.55340000  0.65820000  0.65820000  1.0 -0.5705473003
O  O92  1  0.30580000  0.75840000  0.75840000  1.0 -0.498280171
O  O93  1  0.79400000  0.42620000  0.79400000  1.0 -0.3062914837
O  O94  1  0.70670000  0.35990000  0.70670000  1.0 -0.498280171
O  O95  1  0.68650000  0.58790000  0.68650000  1.0 -0.5201040434
O  O96  1  0.65820000  0.55340000  0.65820000  1.0 -0.5705473003
O  O97  1  0.75840000  0.30580000  0.75840000  1.0 -0.498280171
O  O98  1  0.42620000  0.79400000  0.98580000  1.0 -0.3062914837
O  O99  1  0.35990000  0.70670000  0.22670000  1.0 -0.498280171
O  O100  1  0.58790000  0.68650000  0.03910000  1.0 -0.5201040434
O  O101  1  0.55340000  0.65820000  0.13020000  1.0 -0.5705473003
O  O102  1  0.30580000  0.75840000  0.17740000  1.0 -0.498280171
O  O103  1  0.79400000  0.98580000  0.79400000  1.0 -0.3062914837
O  O104  1  0.70670000  0.22670000  0.70670000  1.0 -0.498280171
O  O105  1  0.68650000  0.03910000  0.68650000  1.0 -0.5201040434
O  O106  1  0.65820000  0.13020000  0.65820000  1.0 -0.5705473003
O  O107  1  0.75840000  0.17740000  0.75840000  1.0 -0.498280171
O  O108  1  0.98580000  0.79400000  0.42620000  1.0 -0.3062914837
O  O109  1  0.22670000  0.70670000  0.35990000  1.0 -0.498280171
O  O110  1  0.03910000  0.68650000  0.58790000  1.0 -0.5201040434
O  O111  1  0.13020000  0.65820000  0.55340000  1.0 -0.5705473003
O  O112  1  0.17740000  0.75840000  0.30580000  1.0 -0.498280171
O  O113  1  0.98580000  0.42620000  0.79400000  1.0 -0.3062914837
O  O114  1  0.22670000  0.35990000  0.70670000  1.0 -0.498280171
O  O115  1  0.03910000  0.58790000  0.68650000  1.0 -0.5201040434
O  O116  1  0.13020000  0.55340000  0.65820000  1.0 -0.5705473003
O  O117  1  0.17740000  0.30580000  0.75840000  1.0 -0.498280171
O  O118  1  0.79400000  0.79400000  0.42620000  1.0 -0.3048876328
O  O119  1  0.70670000  0.70670000  0.35990000  1.0 -0.498280171
O  O120  1  0.68650000  0.68650000  0.58790000  1.0 -0.5201040434
O  O121  1  0.65820000  0.65820000  0.55340000  1.0 -0.5705473003
O  O122  1  0.75840000  0.75840000  0.30580000  1.0 -0.498280171
O  O123  1  0.42620000  0.98580000  0.79400000  1.0 -0.3062914837
O  O124  1  0.35990000  0.22670000  0.70670000  1.0 -0.498280171
O  O125  1  0.58790000  0.03910000  0.68650000  1.0 -0.5201040434
O  O126  1  0.55340000  0.13020000  0.65820000  1.0 -0.5705473003
O  O127  1  0.30580000  0.17740000  0.75840000  1.0 -0.498280171
O  O128  1  0.79400000  0.79400000  0.98580000  1.0 -0.3062914837
O  O129  1  0.70670000  0.70670000  0.22670000  1.0 -0.498280171
O  O130  1  0.68650000  0.68650000  0.03910000  1.0 -0.5201040434
O  O131  1  0.65820000  0.65820000  0.13020000  1.0 -0.5705473003
O  O132  1  0.75840000  0.75840000  0.17740000  1.0 -0.498280171
O  O133  1  0.94830000  0.61970000  0.05170000  1.0 -0.3290906489
O  O134  1  0.90490000  0.68910000  0.09510000  1.0 -0.3637829426
O  O135  1  0.86670000  0.61670000  0.13330000  1.0 -0.3435756016
O  O136  1  0.38030000  0.05170000  0.61970000  1.0 -0.3290906489
O  O137  1  0.31090000  0.09510000  0.68910000  1.0 -0.3637829426
O  O138  1  0.38330000  0.13330000  0.61670000  1.0 -0.3435756016
O  O139  1  0.61970000  0.94830000  0.38030000  1.0 -0.3290906489
O  O140  1  0.68910000  0.90490000  0.31090000  1.0 -0.3637829426
O  O141  1  0.61670000  0.86670000  0.38330000  1.0 -0.3435756016
O  O142  1  0.05170000  0.38030000  0.94830000  1.0 -0.3290906489
O  O143  1  0.09510000  0.31090000  0.90490000  1.0 -0.3637829426
O  O144  1  0.13330000  0.38330000  0.86670000  1.0 -0.3435756016
O  O145  1  0.05170000  0.61970000  0.38030000  1.0 -0.3290906489
O  O146  1  0.09510000  0.68910000  0.31090000  1.0 -0.3637829426
O  O147  1  0.13330000  0.61670000  0.38330000  1.0 -0.3435756016
O  O148  1  0.61970000  0.05170000  0.94830000  1.0 -0.3290906489
O  O149  1  0.68910000  0.09510000  0.90490000  1.0 -0.3637829426
O  O150  1  0.61670000  0.13330000  0.86670000  1.0 -0.3435756016
O  O151  1  0.38030000  0.94830000  0.05170000  1.0 -0.3290906489
O  O152  1  0.31090000  0.90490000  0.09510000  1.0 -0.3637829426
O  O153  1  0.38330000  0.86670000  0.13330000  1.0 -0.3435756016
O  O154  1  0.94830000  0.38030000  0.61970000  1.0 -0.3290906489
O  O155  1  0.90490000  0.31090000  0.68910000  1.0 -0.3637829426
O  O156  1  0.86670000  0.38330000  0.61670000  1.0 -0.3435756016
O  O157  1  0.38030000  0.61970000  0.94830000  1.0 -0.3290906489
O  O158  1  0.31090000  0.68910000  0.90490000  1.0 -0.3637829426
O  O159  1  0.38330000  0.61670000  0.86670000  1.0 -0.3435756016
O  O160  1  0.94830000  0.05170000  0.38030000  1.0 -0.3290906489
O  O161  1  0.90490000  0.09510000  0.31090000  1.0 -0.3637829426
O  O162  1  0.86670000  0.13330000  0.38330000  1.0 -0.3435756016
O  O163  1  0.05170000  0.94830000  0.61970000  1.0 -0.3290906489
O  O164  1  0.09510000  0.90490000  0.68910000  1.0 -0.3637829426
O  O165  1  0.13330000  0.86670000  0.61670000  1.0 -0.3453700943
O  O166  1  0.61970000  0.38030000  0.05170000  1.0 -0.3290906489
O  O167  1  0.68910000  0.31090000  0.09510000  1.0 -0.3637829426
O  O168  1  0.61670000  0.38330000  0.13330000  1.0 -0.3435756016
O  O169  1  0.05170000  0.61970000  0.94830000  1.0 -0.3290906489
O  O170  1  0.09510000  0.68910000  0.90490000  1.0 -0.3637829426
O  O171  1  0.13330000  0.61670000  0.86670000  1.0 -0.3435756016
O  O172  1  0.61970000  0.05170000  0.38030000  1.0 -0.3290906489
O  O173  1  0.68910000  0.09510000  0.31090000  1.0 -0.3637829426
O  O174  1  0.61670000  0.13330000  0.38330000  1.0 -0.3435756016
O  O175  1  0.38030000  0.94830000  0.61970000  1.0 -0.3290906489
O  O176  1  0.31090000  0.90490000  0.68910000  1.0 -0.3637829426
O  O177  1  0.38330000  0.86670000  0.61670000  1.0 -0.3453700943
O  O178  1  0.94830000  0.38030000  0.05170000  1.0 -0.3290906489
O  O179  1  0.90490000  0.31090000  0.09510000  1.0 -0.3637829426
O  O180  1  0.86670000  0.38330000  0.13330000  1.0 -0.3435756016
O  O181  1  0.94830000  0.05170000  0.61970000  1.0 -0.3290906489
O  O182  1  0.90490000  0.09510000  0.68910000  1.0 -0.3637829426
O  O183  1  0.86670000  0.13330000  0.61670000  1.0 -0.3435756016
O  O184  1  0.38030000  0.61970000  0.05170000  1.0 -0.3290906489
O  O185  1  0.31090000  0.68910000  0.09510000  1.0 -0.3637829426
O  O186  1  0.38330000  0.61670000  0.13330000  1.0 -0.3435756016
O  O187  1  0.61970000  0.38030000  0.94830000  1.0 -0.3290906489
O  O188  1  0.68910000  0.31090000  0.90490000  1.0 -0.3637829426
O  O189  1  0.61670000  0.38330000  0.86670000  1.0 -0.3435756016
O  O190  1  0.05170000  0.94830000  0.38030000  1.0 -0.3290906489
O  O191  1  0.09510000  0.90490000  0.31090000  1.0 -0.3637829426
O  O192  1  0.13330000  0.86670000  0.38330000  1.0 -0.3435756016
O  O193  1  0.61970000  0.94830000  0.05170000  1.0 -0.3290906489
O  O194  1  0.68910000  0.90490000  0.09510000  1.0 -0.3637829426
O  O195  1  0.61670000  0.86670000  0.13330000  1.0 -0.3435756016
O  O196  1  0.05170000  0.38030000  0.61970000  1.0 -0.3290906489
O  O197  1  0.09510000  0.31090000  0.68910000  1.0 -0.3637829426
O  O198  1  0.13330000  0.38330000  0.61670000  1.0 -0.3435756016
O  O199  1  0.94830000  0.61970000  0.38030000  1.0 -0.3290906489
O  O200  1  0.90490000  0.68910000  0.31090000  1.0 -0.3637829426
O  O201  1  0.86670000  0.61670000  0.38330000  1.0 -0.3435756016
O  O202  1  0.38030000  0.05170000  0.94830000  1.0 -0.3290906489
O  O203  1  0.31090000  0.09510000  0.90490000  1.0 -0.3637829426
O  O204  1  0.38330000  0.13330000  0.86670000  1.0 -0.3435756016
