# DDEC6 charges by PACMAN v1.1 (https://github.com/mtap-research/PACMAN-charge/)
data_YEXFUF_FSR_pacman
_symmetry_space_group_name_H-M   'P 1'
_cell_length_a   10.05440000
_cell_length_b   11.41380000
_cell_length_c   14.12150000
_cell_angle_alpha   104.82400000
_cell_angle_beta   92.79500000
_cell_angle_gamma   104.67800000
_symmetry_Int_Tables_number   1
_chemical_formula_structural   CoH36C48(NO2)2
_chemical_formula_sum   'Co2 H72 C96 N4 O8'
_cell_volume   1504.28116642
_cell_formula_units_Z   2
loop_
 _symmetry_equiv_pos_site_id
 _symmetry_equiv_pos_as_xyz
  1  'x, y, z'
loop_
 _atom_site_type_symbol
 _atom_site_label
 _atom_site_symmetry_multiplicity
 _atom_site_fract_x
 _atom_site_fract_y
 _atom_site_fract_z
 _atom_site_occupancy
 _atom_site_charge
Co  Co1  1  0.61570000  0.87998000  0.94203000  1.0 0.7209186012
Co  Co2  1  0.38430000  0.12002000  0.05797000  1.0 0.7209186012
H  H1  1  0.45460000  0.64690000  0.01080000  1.0 0.0904749375
H  H2  1  0.47150000  0.55530000  0.13640000  1.0 0.0904749375
H  H3  1  0.81010000  0.83910000  0.26500000  1.0 0.0904749375
H  H4  1  0.78570000  0.92430000  0.13380000  1.0 0.0755850429
H  H5  1  0.73610000  0.66810000  0.34380000  1.0 0.0904749375
H  H6  1  0.50790000  0.47160000  0.24920000  1.0 0.1222043092
H  H7  1  0.41110000  0.33490000  0.34610000  1.0 0.0677502234
H  H8  1  0.42810000  0.23630000  0.46990000  1.0 0.1006204675
H  H9  1  0.81440000  0.46490000  0.56340000  1.0 0.1272138263
H  H10  1  0.79650000  0.56260000  0.43980000  1.0 0.0904749375
H  H11  1  0.73310000  0.30170000  0.64330000  1.0 0.1006204675
H  H12  1  0.47250000  0.13850000  0.57100000  1.0 0.1006204675
H  H13  1  0.44960000  0.83640000  0.73750000  1.0 0.1006204675
H  H14  1  0.42950000  0.93730000  0.61650000  1.0 0.1108215191
H  H15  1  0.73600000  0.23630000  0.77960000  1.0 0.1006204675
H  H16  1  0.75270000  0.12420000  0.89280000  1.0 0.1006204675
H  H17  1  0.22740000  0.60570000  0.78950000  1.0 0.1108215191
H  H18  1  0.00300000  0.48500000  0.72130000  1.0 0.1006204675
H  H19  1  0.81380000  0.56490000  0.76100000  1.0 0.1108215191
H  H20  1  0.07530000  0.89120000  0.93320000  1.0 0.1272138263
H  H21  1  0.48010000  0.64530000  0.97100000  1.0 0.0677502234
H  H22  1  0.44410000  0.51310000  0.07270000  1.0 0.0904749375
H  H23  1  0.72070000  0.78960000  0.27840000  1.0 0.0904749375
H  H24  1  0.74660000  0.91530000  0.17200000  1.0 0.1006204675
H  H25  1  0.49550000  0.47940000  0.23740000  1.0 0.1006204675
H  H26  1  0.73050000  0.64860000  0.35000000  1.0 0.1108215191
H  H27  1  0.45360000  0.38840000  0.35310000  1.0 0.0904749375
H  H28  1  0.43820000  0.26760000  0.46470000  1.0 0.1272138263
H  H29  1  0.83420000  0.44930000  0.57830000  1.0 0.1006204675
H  H30  1  0.84360000  0.57840000  0.47440000  1.0 0.0677502234
H  H31  1  0.66930000  0.32800000  0.67130000  1.0 0.1006204675
H  H32  1  0.52380000  0.10190000  0.53960000  1.0 0.0904749375
H  H33  1  0.42930000  0.86100000  0.75840000  1.0 0.1108215191
H  H34  1  0.40370000  0.95950000  0.63790000  1.0 0.1222043092
H  H35  1  0.77170000  0.21470000  0.75620000  1.0 0.0904749375
H  H36  1  0.78810000  0.10630000  0.87340000  1.0 0.0904749375
H  H37  1  0.54540000  0.35310000  0.98920000  1.0 0.0904749375
H  H38  1  0.52850000  0.44470000  0.86360000  1.0 0.0904749375
H  H39  1  0.18990000  0.16090000  0.73500000  1.0 0.0904749375
H  H40  1  0.21430000  0.07570000  0.86620000  1.0 0.0755850429
H  H41  1  0.26390000  0.33190000  0.65620000  1.0 0.0904749375
H  H42  1  0.49210000  0.52840000  0.75080000  1.0 0.1222043092
H  H43  1  0.58890000  0.66510000  0.65390000  1.0 0.0677502234
H  H44  1  0.57190000  0.76370000  0.53010000  1.0 0.1006204675
H  H45  1  0.18560000  0.53510000  0.43660000  1.0 0.1272138263
H  H46  1  0.20350000  0.43740000  0.56020000  1.0 0.0904749375
H  H47  1  0.26690000  0.69830000  0.35670000  1.0 0.1006204675
H  H48  1  0.52750000  0.86150000  0.42900000  1.0 0.1006204675
H  H49  1  0.55040000  0.16360000  0.26250000  1.0 0.1006204675
H  H50  1  0.57050000  0.06270000  0.38350000  1.0 0.1108215191
H  H51  1  0.26400000  0.76370000  0.22040000  1.0 0.1006204675
H  H52  1  0.24730000  0.87580000  0.10720000  1.0 0.1006204675
H  H53  1  0.77260000  0.39430000  0.21050000  1.0 0.1108215191
H  H54  1  0.99700000  0.51500000  0.27870000  1.0 0.1006204675
H  H55  1  0.18620000  0.43510000  0.23900000  1.0 0.1108215191
H  H56  1  0.92470000  0.10880000  0.06680000  1.0 0.1272138263
H  H57  1  0.51990000  0.35470000  0.02900000  1.0 0.0677502234
H  H58  1  0.55590000  0.48690000  0.92730000  1.0 0.0904749375
H  H59  1  0.27930000  0.21040000  0.72160000  1.0 0.0904749375
H  H60  1  0.25340000  0.08470000  0.82800000  1.0 0.1006204675
H  H61  1  0.50450000  0.52060000  0.76260000  1.0 0.1006204675
H  H62  1  0.26950000  0.35140000  0.65000000  1.0 0.1108215191
H  H63  1  0.54640000  0.61160000  0.64690000  1.0 0.0904749375
H  H64  1  0.56180000  0.73240000  0.53530000  1.0 0.1272138263
H  H65  1  0.16580000  0.55070000  0.42170000  1.0 0.1006204675
H  H66  1  0.15640000  0.42160000  0.52560000  1.0 0.0677502234
H  H67  1  0.33070000  0.67200000  0.32870000  1.0 0.1006204675
H  H68  1  0.47620000  0.89810000  0.46040000  1.0 0.0904749375
H  H69  1  0.57070000  0.13900000  0.24160000  1.0 0.1108215191
H  H70  1  0.59630000  0.04050000  0.36210000  1.0 0.1222043092
H  H71  1  0.22830000  0.78530000  0.24380000  1.0 0.0904749375
H  H72  1  0.21190000  0.89370000  0.12660000  1.0 0.0904749375
C  C1  1  0.52860000  0.68690000  0.06270000  1.0 -0.0344392603
C  C2  1  0.53870000  0.63130000  0.13770000  1.0 0.0202859079
C  C3  1  0.64400000  0.68360000  0.21410000  1.0 0.0295422969
C  C4  1  0.73670000  0.79690000  0.21290000  1.0 -0.0976601959
C  C5  1  0.72080000  0.84800000  0.13440000  1.0 0.0104130859
C  C6  1  0.66130000  0.62430000  0.29300000  1.0 -0.0830219123
C  C7  1  0.58250000  0.51590000  0.29990000  1.0 -0.0634717961
C  C8  1  0.60080000  0.45800000  0.37950000  1.0 0.0424177729
C  C9  1  0.49420000  0.36180000  0.39030000  1.0 -0.0504563611
C  C10  1  0.50420000  0.30220000  0.46420000  1.0 -0.2193295603
C  C11  1  0.62410000  0.33830000  0.52910000  1.0 0.1108215191
C  C12  1  0.73160000  0.43710000  0.51880000  1.0 -0.1569274958
C  C13  1  0.72110000  0.49600000  0.44520000  1.0 0.0104130859
C  C14  1  0.64730000  0.27060000  0.60180000  1.0 -0.1383717006
C  C15  1  0.55740000  0.16980000  0.61350000  1.0 -0.1326205602
C  C16  1  0.50940000  0.91820000  0.74520000  1.0 -0.0976601959
C  C17  1  0.49480000  0.97880000  0.67370000  1.0 -0.1569274958
C  C18  1  0.57720000  0.10180000  0.68630000  1.0 0.1222043092
C  C19  1  0.67560000  0.15410000  0.76910000  1.0 -0.1174711059
C  C20  1  0.68520000  0.08560000  0.83650000  1.0 -0.0504563611
C  C21  1  0.31770000  0.83860000  0.91139000  1.0 0.4288741404
C  C22  1  0.17340000  0.76010000  0.86804000  1.0 0.0202859079
C  C23  1  0.15110000  0.63890000  0.80490000  1.0 -0.2193295603
C  C24  1  0.01770000  0.56700000  0.76480000  1.0 -0.2193295603
C  C25  1  0.90510000  0.61460000  0.78810000  1.0 -0.1957063248
C  C26  1  0.92670000  0.73520000  0.85117000  1.0 0.0424177729
C  C27  1  0.06060000  0.80850000  0.89081000  1.0 -0.1054704284
C  C28  1  0.80550000  0.78650000  0.87870000  1.0 0.4774523283
C  C29  1  0.53040000  0.67570000  0.03510000  1.0 -0.1174711059
C  C30  1  0.50770000  0.59460000  0.09520000  1.0 -0.0830219123
C  C31  1  0.58020000  0.63650000  0.18800000  1.0 0.0295422969
C  C32  1  0.66920000  0.75750000  0.21460000  1.0 -0.0156981127
C  C33  1  0.68510000  0.83280000  0.15040000  1.0 0.0031710025
C  C34  1  0.57070000  0.55370000  0.25390000  1.0 -0.0830219123
C  C35  1  0.65670000  0.57320000  0.33333333  1.0 -0.0688498443
C  C36  1  0.65110000  0.49160000  0.39900000  1.0 0.0454891155
C  C37  1  0.53210000  0.40100000  0.39870000  1.0 0.0104130859
C  C38  1  0.52370000  0.32650000  0.46400000  1.0 -0.1747951304
C  C39  1  0.63790000  0.33750000  0.52750000  1.0 0.1108215191
C  C40  1  0.75640000  0.43510000  0.53170000  1.0 -0.1801158434
C  C41  1  0.76250000  0.51160000  0.46930000  1.0 -0.0634717961
C  C42  1  0.62980000  0.27530000  0.60730000  1.0 -0.1383717006
C  C43  1  0.57430000  0.15520000  0.60060000  1.0 -0.1383717006
C  C44  1  0.50040000  0.93380000  0.75820000  1.0 -0.0976601959
C  C45  1  0.48370000  0.99190000  0.68540000  1.0 -0.1569274958
C  C46  1  0.58640000  0.09910000  0.68280000  1.0 0.1222043092
C  C47  1  0.70000000  0.14160000  0.75490000  1.0 -0.1174711059
C  C48  1  0.70890000  0.07670000  0.82530000  1.0 -0.0634717961
C  C49  1  0.47140000  0.31310000  0.93730000  1.0 -0.0344392603
C  C50  1  0.46130000  0.36870000  0.86230000  1.0 0.0202859079
C  C51  1  0.35600000  0.31640000  0.78590000  1.0 0.0295422969
C  C52  1  0.26330000  0.20310000  0.78710000  1.0 -0.0976601959
C  C53  1  0.27920000  0.15200000  0.86560000  1.0 0.0104130859
C  C54  1  0.33870000  0.37570000  0.70700000  1.0 -0.0830219123
C  C55  1  0.41750000  0.48410000  0.70010000  1.0 -0.0634717961
C  C56  1  0.39920000  0.54200000  0.62050000  1.0 0.0424177729
C  C57  1  0.50580000  0.63820000  0.60970000  1.0 -0.0504563611
C  C58  1  0.49580000  0.69780000  0.53580000  1.0 -0.2193295603
C  C59  1  0.37590000  0.66170000  0.47090000  1.0 0.1108215191
C  C60  1  0.26840000  0.56290000  0.48120000  1.0 -0.1569274958
C  C61  1  0.27890000  0.50400000  0.55480000  1.0 0.0104130859
C  C62  1  0.35270000  0.72940000  0.39820000  1.0 -0.1383717006
C  C63  1  0.44260000  0.83020000  0.38650000  1.0 -0.1326205602
C  C64  1  0.49060000  0.08180000  0.25480000  1.0 -0.0976601959
C  C65  1  0.50520000  0.02120000  0.32630000  1.0 -0.1569274958
C  C66  1  0.42280000  0.89820000  0.31370000  1.0 0.1222043092
C  C67  1  0.32440000  0.84590000  0.23090000  1.0 -0.1174711059
C  C68  1  0.31480000  0.91440000  0.16350000  1.0 -0.0504563611
C  C69  1  0.68230000  0.16140000  0.08861000  1.0 0.4288741404
C  C70  1  0.82660000  0.23990000  0.13196000  1.0 0.0202859079
C  C71  1  0.84890000  0.36110000  0.19510000  1.0 -0.2193295603
C  C72  1  0.98230000  0.43300000  0.23520000  1.0 -0.2193295603
C  C73  1  0.09490000  0.38540000  0.21190000  1.0 -0.1957063248
C  C74  1  0.07330000  0.26480000  0.14883000  1.0 0.0424177729
C  C75  1  0.93940000  0.19150000  0.10919000  1.0 -0.1054704284
C  C76  1  0.19450000  0.21350000  0.12130000  1.0 0.4774523283
C  C77  1  0.46960000  0.32430000  0.96490000  1.0 -0.1174711059
C  C78  1  0.49230000  0.40540000  0.90480000  1.0 -0.0830219123
C  C79  1  0.41980000  0.36350000  0.81200000  1.0 0.0295422969
C  C80  1  0.33080000  0.24250000  0.78540000  1.0 -0.0156981127
C  C81  1  0.31490000  0.16720000  0.84960000  1.0 0.0031710025
C  C82  1  0.42930000  0.44630000  0.74610000  1.0 -0.0830219123
C  C83  1  0.34330000  0.42680000  0.66666667  1.0 -0.0688498443
C  C84  1  0.34890000  0.50840000  0.60100000  1.0 0.0454891155
C  C85  1  0.46790000  0.59900000  0.60130000  1.0 0.0104130859
C  C86  1  0.47630000  0.67350000  0.53600000  1.0 -0.1747951304
C  C87  1  0.36210000  0.66250000  0.47250000  1.0 0.1108215191
C  C88  1  0.24360000  0.56490000  0.46830000  1.0 -0.1801158434
C  C89  1  0.23750000  0.48840000  0.53070000  1.0 -0.0634717961
C  C90  1  0.37020000  0.72470000  0.39270000  1.0 -0.1383717006
C  C91  1  0.42570000  0.84480000  0.39940000  1.0 -0.1383717006
C  C92  1  0.49960000  0.06620000  0.24180000  1.0 -0.0976601959
C  C93  1  0.51630000  0.00810000  0.31460000  1.0 -0.1569274958
C  C94  1  0.41360000  0.90090000  0.31720000  1.0 0.1222043092
C  C95  1  0.30000000  0.85840000  0.24510000  1.0 -0.1174711059
C  C96  1  0.29110000  0.92330000  0.17470000  1.0 -0.0688498443
N  N1  1  0.61730000  0.79340000  0.05940000  1.0 -0.1497202462
N  N2  1  0.60750000  0.97170000  0.82751000  1.0 -0.0688498443
N  N3  1  0.38270000  0.20660000  0.94060000  1.0 -0.1497202462
N  N4  1  0.39250000  0.02830000  0.17249000  1.0 -0.0688498443
O  O1  1  0.41268000  0.78350000  0.90105000  1.0 -0.5304939991
O  O2  1  0.33560000  0.95241000  0.95305000  1.0 -0.5006251728
O  O3  1  0.68400000  0.71897000  0.84780000  1.0 -0.5453809446
O  O4  1  0.82990000  0.89754000  0.93337000  1.0 -0.4836021608
O  O5  1  0.58732000  0.21650000  0.09895000  1.0 -0.5304939991
O  O6  1  0.66440000  0.04759000  0.04695000  1.0 -0.5006251728
O  O7  1  0.31600000  0.28103000  0.15220000  1.0 -0.5453809446
O  O8  1  0.17010000  0.10246000  0.06663000  1.0 -0.4836021608
