# DDEC6 charges by PACMAN v1.1 (https://github.com/mtap-research/PACMAN-charge/)
data_YEYVOO_FSR_pacman
_symmetry_space_group_name_H-M   'P 1'
_cell_length_a   45.83210000
_cell_length_b   45.83210000
_cell_length_c   45.83210000
_cell_angle_alpha   94.82590000
_cell_angle_beta   94.82590000
_cell_angle_gamma   146.27800000
_symmetry_Int_Tables_number   1
_chemical_formula_structural   AgH6C5N2
_chemical_formula_sum   'Ag240 H1440 C1200 N480'
_cell_volume   51150.28339219
_cell_formula_units_Z   240
loop_
 _symmetry_equiv_pos_site_id
 _symmetry_equiv_pos_as_xyz
  1  'x, y, z'
loop_
 _atom_site_type_symbol
 _atom_site_label
 _atom_site_symmetry_multiplicity
 _atom_site_fract_x
 _atom_site_fract_y
 _atom_site_fract_z
 _atom_site_occupancy
 _atom_site_charge
Ag  Ag1  1  0.10765000  0.89793000  0.75532000  1.0 0.1990939783
Ag  Ag2  1  0.60233000  0.85765000  0.70972000  1.0 0.1990939783
Ag  Ag3  1  0.14793000  0.89261000  0.29028000  1.0 0.1990939783
Ag  Ag4  1  0.14261000  0.35233000  0.24468000  1.0 0.1990939783
Ag  Ag5  1  0.14235000  0.85207000  0.74468000  1.0 0.1990939783
Ag  Ag6  1  0.64767000  0.89235000  0.79028000  1.0 0.1990939783
Ag  Ag7  1  0.10207000  0.85739000  0.20972000  1.0 0.1990939783
Ag  Ag8  1  0.10739000  0.39767000  0.25532000  1.0 0.1990939783
Ag  Ag9  1  0.16335000  0.90875000  0.81678000  1.0 0.2586798919
Ag  Ag10  1  0.59657000  0.91335000  0.75460000  1.0 0.2586798919
Ag  Ag11  1  0.15875000  0.84197000  0.24540000  1.0 0.2586798919
Ag  Ag12  1  0.09197000  0.34657000  0.18322000  1.0 0.2586798919
Ag  Ag13  1  0.08665000  0.84125000  0.68322000  1.0 0.2586798919
Ag  Ag14  1  0.65343000  0.83665000  0.74540000  1.0 0.2586798919
Ag  Ag15  1  0.09125000  0.90803000  0.25460000  1.0 0.2586798919
Ag  Ag16  1  0.15803000  0.40343000  0.31678000  1.0 0.2586798919
Ag  Ag17  1  0.03996000  0.78144000  0.76764000  1.0 0.2487457515
Ag  Ag18  1  0.52232000  0.78996000  0.75852000  1.0 0.2487457515
Ag  Ag19  1  0.03144000  0.76380000  0.24148000  1.0 0.2487457515
Ag  Ag20  1  0.01380000  0.27232000  0.23236000  1.0 0.2487457515
Ag  Ag21  1  0.21004000  0.96856000  0.73236000  1.0 0.2487457515
Ag  Ag22  1  0.72768000  0.96004000  0.74148000  1.0 0.2487457515
Ag  Ag23  1  0.21856000  0.98620000  0.25852000  1.0 0.2487457515
Ag  Ag24  1  0.23620000  0.47768000  0.26764000  1.0 0.2487457515
Ag  Ag25  1  0.88211000  0.94278000  0.18323000  1.0 0.2487457515
Ag  Ag26  1  0.94888000  0.63211000  0.43933000  1.0 0.2487457515
Ag  Ag27  1  0.19278000  0.50955000  0.56067000  1.0 0.2487457515
Ag  Ag28  1  0.75955000  0.69888000  0.81677000  1.0 0.2487457515
Ag  Ag29  1  0.36789000  0.80722000  0.31677000  1.0 0.2487457515
Ag  Ag30  1  0.30112000  0.11789000  0.06067000  1.0 0.2487457515
Ag  Ag31  1  0.05722000  0.24045000  0.93933000  1.0 0.2487457515
Ag  Ag32  1  0.49045000  0.05112000  0.68323000  1.0 0.2487457515
Ag  Ag33  1  0.97213000  0.00935000  0.14328000  1.0 0.2294848305
Ag  Ag34  1  0.07885000  0.72213000  0.46278000  1.0 0.2294848305
Ag  Ag35  1  0.25935000  0.61607000  0.53722000  1.0 0.2294848305
Ag  Ag36  1  0.86607000  0.82885000  0.85672000  1.0 0.2294848305
Ag  Ag37  1  0.27787000  0.74065000  0.35672000  1.0 0.2294848305
Ag  Ag38  1  0.17115000  0.02787000  0.03722000  1.0 0.2294848305
Ag  Ag39  1  0.99065000  0.13393000  0.96278000  1.0 0.2294848305
Ag  Ag40  1  0.38393000  0.92115000  0.64328000  1.0 0.2294848305
Ag  Ag41  1  0.85109000  0.94141000  0.11068000  1.0 0.2586798919
Ag  Ag42  1  0.99041000  0.60109000  0.40968000  1.0 0.2586798919
Ag  Ag43  1  0.19141000  0.58073000  0.59032000  1.0 0.2586798919
Ag  Ag44  1  0.83073000  0.74041000  0.88932000  1.0 0.2586798919
Ag  Ag45  1  0.39891000  0.80859000  0.38932000  1.0 0.2586798919
Ag  Ag46  1  0.25959000  0.14891000  0.09032000  1.0 0.2586798919
Ag  Ag47  1  0.05859000  0.16927000  0.90968000  1.0 0.2586798919
Ag  Ag48  1  0.41927000  0.00959000  0.61068000  1.0 0.2586798919
Ag  Ag49  1  0.08795000  0.23504000  0.02067000  1.0 0.2386469608
Ag  Ag50  1  0.31728000  0.83795000  0.35291000  1.0 0.2386469608
Ag  Ag51  1  0.48504000  0.96437000  0.64709000  1.0 0.2386469608
Ag  Ag52  1  0.21437000  0.06728000  0.97933000  1.0 0.2386469608
Ag  Ag53  1  0.16205000  0.51496000  0.47933000  1.0 0.2386469608
Ag  Ag54  1  0.93272000  0.91205000  0.14709000  1.0 0.2386469608
Ag  Ag55  1  0.76496000  0.78563000  0.85291000  1.0 0.2386469608
Ag  Ag56  1  0.03563000  0.68272000  0.52067000  1.0 0.2386469608
Ag  Ag57  1  0.10395000  0.18244000  0.98731000  1.0 0.2487457515
Ag  Ag58  1  0.36664000  0.85395000  0.42151000  1.0 0.2487457515
Ag  Ag59  1  0.43244000  0.94513000  0.57849000  1.0 0.2487457515
Ag  Ag60  1  0.19513000  0.11664000  0.01269000  1.0 0.2487457515
Ag  Ag61  1  0.14605000  0.56756000  0.51269000  1.0 0.2487457515
Ag  Ag62  1  0.88336000  0.89605000  0.07849000  1.0 0.2487457515
Ag  Ag63  1  0.81756000  0.80487000  0.92151000  1.0 0.2487457515
Ag  Ag64  1  0.05487000  0.63336000  0.48731000  1.0 0.2487457515
Ag  Ag65  1  0.16931000  0.29565000  0.97020000  1.0 0.2294848305
Ag  Ag66  1  0.44911000  0.91931000  0.37366000  1.0 0.2294848305
Ag  Ag67  1  0.54565000  0.07545000  0.62634000  1.0 0.2294848305
Ag  Ag68  1  0.32545000  0.19911000  0.02980000  1.0 0.2294848305
Ag  Ag69  1  0.08069000  0.45435000  0.52980000  1.0 0.2294848305
Ag  Ag70  1  0.80089000  0.83069000  0.12634000  1.0 0.2294848305
Ag  Ag71  1  0.70435000  0.67455000  0.87366000  1.0 0.2294848305
Ag  Ag72  1  0.92455000  0.55089000  0.47020000  1.0 0.2294848305
Ag  Ag73  1  0.27369000  0.20078000  0.87021000  1.0 0.1990939783
Ag  Ag74  1  0.65348000  0.02369000  0.57291000  1.0 0.1990939783
Ag  Ag75  1  0.45078000  0.08057000  0.42709000  1.0 0.1990939783
Ag  Ag76  1  0.33057000  0.40348000  0.12979000  1.0 0.1990939783
Ag  Ag77  1  0.97631000  0.54922000  0.62979000  1.0 0.1990939783
Ag  Ag78  1  0.59652000  0.72631000  0.92709000  1.0 0.1990939783
Ag  Ag79  1  0.79922000  0.66943000  0.07291000  1.0 0.1990939783
Ag  Ag80  1  0.91943000  0.34652000  0.37021000  1.0 0.1990939783
Ag  Ag81  1  0.38559000  0.32828000  0.91677000  1.0 0.2487457515
Ag  Ag82  1  0.71882000  0.13559000  0.55731000  1.0 0.2487457515
Ag  Ag83  1  0.57828000  0.16151000  0.44269000  1.0 0.2487457515
Ag  Ag84  1  0.41151000  0.46882000  0.08323000  1.0 0.2487457515
Ag  Ag85  1  0.86441000  0.42172000  0.58323000  1.0 0.2487457515
Ag  Ag86  1  0.53118000  0.61441000  0.94269000  1.0 0.2487457515
Ag  Ag87  1  0.67172000  0.58849000  0.05731000  1.0 0.2487457515
Ag  Ag88  1  0.83849000  0.28118000  0.41677000  1.0 0.2487457515
Ag  Ag89  1  0.40088000  0.27324000  0.88582000  1.0 0.2294848305
Ag  Ag90  1  0.76506000  0.15088000  0.62764000  1.0 0.2294848305
Ag  Ag91  1  0.52324000  0.13742000  0.37236000  1.0 0.2294848305
Ag  Ag92  1  0.38742000  0.51506000  0.11418000  1.0 0.2294848305
Ag  Ag93  1  0.84912000  0.47676000  0.61418000  1.0 0.2294848305
Ag  Ag94  1  0.48494000  0.59912000  0.87236000  1.0 0.2294848305
Ag  Ag95  1  0.72676000  0.61258000  0.12764000  1.0 0.2294848305
Ag  Ag96  1  0.86258000  0.23494000  0.38582000  1.0 0.2294848305
Ag  Ag97  1  0.75687000  0.58172000  0.02513000  1.0 0.2190012804
Ag  Ag98  1  0.98174000  0.50687000  0.67515000  1.0 0.2190012804
Ag  Ag99  1  0.83172000  0.30659000  0.32485000  1.0 0.2294848305
Ag  Ag100  1  0.55659000  0.73174000  0.97487000  1.0 0.2294848305
Ag  Ag101  1  0.49313000  0.16828000  0.47487000  1.0 0.2190012804
Ag  Ag102  1  0.26826000  0.24313000  0.82485000  1.0 0.2190012804
Ag  Ag103  1  0.41828000  0.44341000  0.17515000  1.0 0.2294848305
Ag  Ag104  1  0.69341000  0.01826000  0.52513000  1.0 0.2190012804
Ag  Ag105  1  0.68145000  0.52605000  0.07442000  1.0 0.1990939783
Ag  Ag106  1  0.85703000  0.43145000  0.65540000  1.0 0.1990939783
Ag  Ag107  1  0.77605000  0.20163000  0.34460000  1.0 0.1990939783
Ag  Ag108  1  0.45163000  0.60703000  0.92558000  1.0 0.1990939783
Ag  Ag109  1  0.56855000  0.22395000  0.42558000  1.0 0.1990939783
Ag  Ag110  1  0.39297000  0.31855000  0.84460000  1.0 0.1990939783
Ag  Ag111  1  0.47395000  0.54837000  0.15540000  1.0 0.1990939783
Ag  Ag112  1  0.79837000  0.14297000  0.57442000  1.0 0.1990939783
Ag  Ag113  1  0.80859000  0.60079000  0.09546000  1.0 0.2586798919
Ag  Ag114  1  0.96313000  0.55859000  0.70780000  1.0 0.2586798919
Ag  Ag115  1  0.85079000  0.25533000  0.29220000  1.0 0.2487457515
Ag  Ag116  1  0.50533000  0.71313000  0.90454000  1.0 0.2487457515
Ag  Ag117  1  0.44141000  0.14921000  0.40454000  1.0 0.2586798919
Ag  Ag118  1  0.28687000  0.19141000  0.79220000  1.0 0.2586798919
Ag  Ag119  1  0.39921000  0.49467000  0.20780000  1.0 0.2586798919
Ag  Ag120  1  0.74467000  0.03687000  0.59546000  1.0 0.2586798919
Ag  Ag121  1  0.27668000  0.64204000  0.05280000  1.0 0.2294848305
Ag  Ag122  1  0.47388000  0.02668000  0.13464000  1.0 0.2294848305
Ag  Ag123  1  0.89204000  0.33924000  0.86536000  1.0 0.2294848305
Ag  Ag124  1  0.58924000  0.22388000  0.94720000  1.0 0.2294848305
Ag  Ag125  1  0.97332000  0.10796000  0.44720000  1.0 0.2294848305
Ag  Ag126  1  0.77612000  0.72332000  0.36536000  1.0 0.2294848305
Ag  Ag127  1  0.35796000  0.41076000  0.63464000  1.0 0.2294848305
Ag  Ag128  1  0.66076000  0.52612000  0.55280000  1.0 0.2294848305
Ag  Ag129  1  0.23564000  0.54501000  0.07027000  1.0 0.2294848305
Ag  Ag130  1  0.41537000  0.98564000  0.19063000  1.0 0.2294848305
Ag  Ag131  1  0.79501000  0.22474000  0.80937000  1.0 0.2294848305
Ag  Ag132  1  0.47474000  0.16537000  0.92973000  1.0 0.2294848305
Ag  Ag133  1  0.01436000  0.20499000  0.42973000  1.0 0.2294848305
Ag  Ag134  1  0.83463000  0.76436000  0.30937000  1.0 0.2294848305
Ag  Ag135  1  0.45499000  0.52526000  0.69063000  1.0 0.2294848305
Ag  Ag136  1  0.77526000  0.58463000  0.57027000  1.0 0.2294848305
Ag  Ag137  1  0.18534000  0.51870000  0.99698000  1.0 0.2586798919
Ag  Ag138  1  0.43836000  0.93534000  0.16664000  1.0 0.2586798919
Ag  Ag139  1  0.76870000  0.27172000  0.83336000  1.0 0.2586798919
Ag  Ag140  1  0.52172000  0.18836000  0.00302000  1.0 0.2586798919
Ag  Ag141  1  0.06466000  0.23130000  0.50302000  1.0 0.2586798919
Ag  Ag142  1  0.81164000  0.81466000  0.33333333  1.0 0.2586798919
Ag  Ag143  1  0.48130000  0.47828000  0.66666667  1.0 0.2586798919
Ag  Ag144  1  0.72828000  0.56164000  0.49698000  1.0 0.2586798919
Ag  Ag145  1  0.82377000  0.68459000  0.58564000  1.0 0.2190012804
Ag  Ag146  1  0.48813000  0.57377000  0.63918000  1.0 0.2190012804
Ag  Ag147  1  0.93459000  0.84895000  0.36082000  1.0 0.2190012804
Ag  Ag148  1  0.09895000  0.23813000  0.41436000  1.0 0.2190012804
Ag  Ag149  1  0.42623000  0.06541000  0.91436000  1.0 0.2190012804
Ag  Ag150  1  0.76187000  0.17623000  0.86082000  1.0 0.2190012804
Ag  Ag151  1  0.31541000  0.90105000  0.13918000  1.0 0.2190012804
Ag  Ag152  1  0.15105000  0.51187000  0.08564000  1.0 0.2190012804
Ag  Ag153  1  0.71327000  0.62976000  0.56039000  1.0 0.2294848305
Ag  Ag154  1  0.40288000  0.46327000  0.58351000  1.0 0.2294848305
Ag  Ag155  1  0.87976000  0.81937000  0.41649000  1.0 0.2294848305
Ag  Ag156  1  0.06937000  0.15288000  0.43961000  1.0 0.2294848305
Ag  Ag157  1  0.53673000  0.12024000  0.93961000  1.0 0.2294848305
Ag  Ag158  1  0.84712000  0.28673000  0.91649000  1.0 0.2294848305
Ag  Ag159  1  0.37024000  0.93063000  0.08351000  1.0 0.2294848305
Ag  Ag160  1  0.18063000  0.59712000  0.06039000  1.0 0.2294848305
Ag  Ag161  1  0.74196000  0.63202000  0.63424000  1.0 0.2586798919
Ag  Ag162  1  0.35772000  0.49196000  0.60994000  1.0 0.2586798919
Ag  Ag163  1  0.88202000  0.74778000  0.39006000  1.0 0.2586798919
Ag  Ag164  1  0.99778000  0.10772000  0.36576000  1.0 0.2586798919
Ag  Ag165  1  0.50804000  0.11798000  0.86576000  1.0 0.2586798919
Ag  Ag166  1  0.89228000  0.25804000  0.89006000  1.0 0.2586798919
Ag  Ag167  1  0.36798000  0.00222000  0.10994000  1.0 0.2586798919
Ag  Ag168  1  0.25222000  0.64228000  0.13424000  1.0 0.2586798919
Ag  Ag169  1  0.29073000  0.26171000  0.39964000  1.0 0.2190012804
Ag  Ag170  1  0.14109000  0.04073000  0.52902000  1.0 0.2190012804
Ag  Ag171  1  0.51171000  0.61207000  0.47098000  1.0 0.2190012804
Ag  Ag172  1  0.86207000  0.89109000  0.60036000  1.0 0.2190012804
Ag  Ag173  1  0.95927000  0.48829000  0.10036000  1.0 0.2190012804
Ag  Ag174  1  0.10891000  0.70927000  0.97098000  1.0 0.2190012804
Ag  Ag175  1  0.73829000  0.13793000  0.02902000  1.0 0.2190012804
Ag  Ag176  1  0.38793000  0.85891000  0.89964000  1.0 0.2190012804
Ag  Ag177  1  0.18260000  0.13933000  0.34631000  1.0 0.2586798919
Ag  Ag178  1  0.08629000  0.93260000  0.54327000  1.0 0.2586798919
Ag  Ag179  1  0.38933000  0.54302000  0.45673000  1.0 0.2586798919
Ag  Ag180  1  0.79302000  0.83629000  0.65369000  1.0 0.2586798919
Ag  Ag181  1  0.06740000  0.61067000  0.15369000  1.0 0.2586798919
Ag  Ag182  1  0.16371000  0.81740000  0.95673000  1.0 0.2487457515
Ag  Ag183  1  0.86067000  0.20698000  0.04327000  1.0 0.2586798919
Ag  Ag184  1  0.45698000  0.91371000  0.84631000  1.0 0.2586798919
Ag  Ag185  1  0.23259000  0.24558000  0.33343000  1.0 0.2386469608
Ag  Ag186  1  0.14916000  0.98259000  0.48701000  1.0 0.2386469608
Ag  Ag187  1  0.49558000  0.66215000  0.51299000  1.0 0.2386469608
Ag  Ag188  1  0.91215000  0.89916000  0.66657000  1.0 0.2386469608
Ag  Ag189  1  0.01741000  0.50442000  0.16657000  1.0 0.2386469608
Ag  Ag190  1  0.10084000  0.76741000  0.01299000  1.0 0.2386469608
Ag  Ag191  1  0.75442000  0.08785000  0.98701000  1.0 0.2386469608
Ag  Ag192  1  0.33785000  0.85084000  0.83343000  1.0 0.2386469608
Ag  Ag193  1  0.01737000  0.63391000  0.91404000  1.0 0.2294848305
Ag  Ag194  1  0.35333000  0.76737000  0.88346000  1.0 0.2294848305
Ag  Ag195  1  0.88391000  0.46987000  0.11654000  1.0 0.2294848305
Ag  Ag196  1  0.71987000  0.10333000  0.08596000  1.0 0.2294848305
Ag  Ag197  1  0.23263000  0.11609000  0.58596000  1.0 0.2294848305
Ag  Ag198  1  0.89667000  0.98263000  0.61654000  1.0 0.2294848305
Ag  Ag199  1  0.36609000  0.28013000  0.38346000  1.0 0.2294848305
Ag  Ag200  1  0.53013000  0.64667000  0.41404000  1.0 0.2294848305
Ag  Ag201  1  0.01296000  0.69568000  0.95246000  1.0 0.2190012804
Ag  Ag202  1  0.31050000  0.76296000  0.81728000  1.0 0.2190012804
Ag  Ag203  1  0.94568000  0.49322000  0.18272000  1.0 0.2190012804
Ag  Ag204  1  0.74322000  0.06050000  0.04754000  1.0 0.2190012804
Ag  Ag205  1  0.23704000  0.05432000  0.54754000  1.0 0.2190012804
Ag  Ag206  1  0.93950000  0.98704000  0.68272000  1.0 0.2190012804
Ag  Ag207  1  0.30432000  0.25678000  0.31728000  1.0 0.2190012804
Ag  Ag208  1  0.50678000  0.68950000  0.45246000  1.0 0.2190012804
Ag  Ag209  1  0.94849000  0.58331000  0.97016000  1.0 0.2586798919
Ag  Ag210  1  0.22833000  0.69849000  0.86518000  1.0 0.2586798919
Ag  Ag211  1  0.83331000  0.36315000  0.13482000  1.0 0.2586798919
Ag  Ag212  1  0.61315000  0.97833000  0.02984000  1.0 0.2586798919
Ag  Ag213  1  0.30151000  0.16669000  0.52984000  1.0 0.2586798919
Ag  Ag214  1  0.02167000  0.05151000  0.63482000  1.0 0.2586798919
Ag  Ag215  1  0.41669000  0.38685000  0.36518000  1.0 0.2586798919
Ag  Ag216  1  0.63685000  0.77167000  0.47016000  1.0 0.2586798919
Ag  Ag217  1  0.69562000  0.94005000  0.23685000  1.0 0.2294848305
Ag  Ag218  1  0.70877000  0.44562000  0.25557000  1.0 0.2294848305
Ag  Ag219  1  0.19005000  0.45320000  0.74443000  1.0 0.2294848305
Ag  Ag220  1  0.70320000  0.45877000  0.76315000  1.0 0.2294848305
Ag  Ag221  1  0.55438000  0.80995000  0.26315000  1.0 0.2294848305
Ag  Ag222  1  0.54123000  0.30438000  0.24443000  1.0 0.2294848305
Ag  Ag223  1  0.05995000  0.29680000  0.75557000  1.0 0.2294848305
Ag  Ag224  1  0.54680000  0.29123000  0.73685000  1.0 0.2294848305
Ag  Ag225  1  0.57949000  0.81880000  0.18609000  1.0 0.2586798919
Ag  Ag226  1  0.64340000  0.32949000  0.26069000  1.0 0.2586798919
Ag  Ag227  1  0.06880000  0.38271000  0.73931000  1.0 0.2586798919
Ag  Ag228  1  0.63271000  0.39340000  0.81391000  1.0 0.2586798919
Ag  Ag229  1  0.67051000  0.93120000  0.31391000  1.0 0.2586798919
Ag  Ag230  1  0.60660000  0.42051000  0.23931000  1.0 0.2586798919
Ag  Ag231  1  0.18120000  0.36729000  0.76069000  1.0 0.2586798919
Ag  Ag232  1  0.61729000  0.35660000  0.68609000  1.0 0.2586798919
Ag  Ag233  1  0.59585000  0.32606000  0.19589000  1.0 0.2386469608
Ag  Ag234  1  0.64996000  0.34585000  0.76979000  1.0 0.2487457515
Ag  Ag235  1  0.57606000  0.88017000  0.23021000  1.0 0.2487457515
Ag  Ag236  1  0.13017000  0.39996000  0.80411000  1.0 0.2487457515
Ag  Ag237  1  0.65415000  0.42394000  0.30411000  1.0 0.2487457515
Ag  Ag238  1  0.60004000  0.40415000  0.73021000  1.0 0.2487457515
Ag  Ag239  1  0.67394000  0.86983000  0.26979000  1.0 0.2487457515
Ag  Ag240  1  0.11983000  0.35004000  0.69589000  1.0 0.2487457515
H  H1  1  0.16060000  0.99580000  0.74680000  1.0 0.1413898258
H  H2  1  0.66380000  0.91060000  0.66480000  1.0 0.1413898258
H  H3  1  0.24580000  0.99900000  0.33520000  1.0 0.1413898258
H  H4  1  0.24900000  0.41380000  0.25320000  1.0 0.1413898258
H  H5  1  0.08940000  0.75420000  0.75320000  1.0 0.1413898258
H  H6  1  0.58620000  0.83940000  0.83520000  1.0 0.1413898258
H  H7  1  0.00420000  0.75100000  0.16480000  1.0 0.1413898258
H  H8  1  0.00100000  0.33620000  0.24680000  1.0 0.1413898258
H  H9  1  0.17350000  0.03440000  0.77010000  1.0 0.1489245988
H  H10  1  0.65340000  0.92350000  0.63910000  1.0 0.1489245988
H  H11  1  0.28440000  0.01430000  0.36090000  1.0 0.1489245988
H  H12  1  0.26430000  0.40340000  0.22990000  1.0 0.1489245988
H  H13  1  0.07650000  0.71560000  0.72990000  1.0 0.1489245988
H  H14  1  0.59660000  0.82650000  0.86090000  1.0 0.1489245988
H  H15  1  0.96560000  0.73570000  0.13910000  1.0 0.1489245988
H  H16  1  0.98570000  0.34660000  0.27010000  1.0 0.1489245988
H  H17  1  0.21980000  0.05880000  0.75740000  1.0 0.1413898258
H  H18  1  0.71240000  0.96980000  0.66100000  1.0 0.1413898258
H  H19  1  0.30880000  0.05140000  0.33900000  1.0 0.1413898258
H  H20  1  0.30140000  0.46240000  0.24260000  1.0 0.1413898258
H  H21  1  0.03020000  0.69120000  0.74260000  1.0 0.1413898258
H  H22  1  0.53760000  0.78020000  0.83900000  1.0 0.1413898258
H  H23  1  0.94120000  0.69860000  0.16100000  1.0 0.1413898258
H  H24  1  0.94860000  0.28760000  0.25740000  1.0 0.1413898258
H  H25  1  0.28740000  0.07860000  0.87380000  1.0 0.1413898258
H  H26  1  0.66360000  0.03740000  0.70880000  1.0 0.1413898258
H  H27  1  0.32860000  0.95480000  0.29120000  1.0 0.1413898258
H  H28  1  0.20480000  0.41360000  0.12620000  1.0 0.1413898258
H  H29  1  0.96260000  0.67140000  0.62620000  1.0 0.1413898258
H  H30  1  0.58640000  0.71260000  0.79120000  1.0 0.1413898258
H  H31  1  0.92140000  0.79520000  0.20880000  1.0 0.1413898258
H  H32  1  0.04520000  0.33640000  0.37380000  1.0 0.1413898258
H  H33  1  0.23810000  0.01670000  0.87320000  1.0 0.1489245988
H  H34  1  0.61490000  0.98810000  0.72140000  1.0 0.1489245988
H  H35  1  0.26670000  0.89350000  0.27860000  1.0 0.1489245988
H  H36  1  0.14350000  0.36490000  0.12680000  1.0 0.1489245988
H  H37  1  0.01190000  0.73330000  0.62680000  1.0 0.1489245988
H  H38  1  0.63510000  0.76190000  0.77860000  1.0 0.1489245988
H  H39  1  0.98330000  0.85650000  0.22140000  1.0 0.1489245988
H  H40  1  0.10650000  0.38510000  0.37320000  1.0 0.1489245988
H  H41  1  0.28640000  0.04490000  0.86090000  1.0 0.1413898258
H  H42  1  0.67550000  0.03640000  0.74150000  1.0 0.1413898258
H  H43  1  0.29490000  0.93400000  0.25850000  1.0 0.1413898258
H  H44  1  0.18400000  0.42550000  0.13910000  1.0 0.1413898258
H  H45  1  0.96360000  0.70510000  0.63910000  1.0 0.1413898258
H  H46  1  0.57450000  0.71360000  0.75850000  1.0 0.1413898258
H  H47  1  0.95510000  0.81600000  0.24150000  1.0 0.1413898258
H  H48  1  0.06600000  0.32450000  0.36090000  1.0 0.1413898258
H  H49  1  0.19640000  0.91130000  0.87630000  1.0 0.1413898258
H  H50  1  0.57010000  0.94640000  0.78510000  1.0 0.1413898258
H  H51  1  0.16130000  0.78500000  0.21490000  1.0 0.1413898258
H  H52  1  0.03500000  0.32010000  0.12370000  1.0 0.1413898258
H  H53  1  0.05360000  0.83870000  0.62370000  1.0 0.1413898258
H  H54  1  0.67990000  0.80360000  0.71490000  1.0 0.1413898258
H  H55  1  0.08870000  0.96500000  0.28510000  1.0 0.1413898258
H  H56  1  0.21500000  0.42990000  0.37630000  1.0 0.1413898258
H  H57  1  0.15800000  0.87350000  0.89670000  1.0 0.1413898258
H  H58  1  0.51130000  0.90800000  0.78450000  1.0 0.1413898258
H  H59  1  0.12350000  0.72680000  0.21550000  1.0 0.1413898258
H  H60  1  0.97680000  0.26130000  0.10330000  1.0 0.1413898258
H  H61  1  0.09200000  0.87650000  0.60330000  1.0 0.1413898258
H  H62  1  0.73870000  0.84200000  0.71550000  1.0 0.1413898258
H  H63  1  0.12650000  0.02320000  0.28450000  1.0 0.1413898258
H  H64  1  0.27320000  0.48870000  0.39670000  1.0 0.1413898258
H  H65  1  0.19150000  0.87570000  0.88640000  1.0 0.1489245988
H  H66  1  0.55510000  0.94150000  0.81580000  1.0 0.1489245988
H  H67  1  0.12570000  0.73930000  0.18420000  1.0 0.1489245988
H  H68  1  0.98930000  0.30510000  0.11360000  1.0 0.1489245988
H  H69  1  0.05850000  0.87430000  0.61360000  1.0 0.1489245988
H  H70  1  0.69490000  0.80850000  0.68420000  1.0 0.1489245988
H  H71  1  0.12430000  0.01070000  0.31580000  1.0 0.1489245988
H  H72  1  0.26070000  0.44490000  0.38640000  1.0 0.1489245988
H  H73  1  0.98650000  0.68550000  0.78260000  1.0 0.1413898258
H  H74  1  0.45390000  0.73650000  0.80100000  1.0 0.1413898258
H  H75  1  0.93550000  0.65290000  0.19900000  1.0 0.1413898258
H  H76  1  0.90290000  0.20390000  0.21740000  1.0 0.1413898258
H  H77  1  0.26350000  0.06450000  0.71740000  1.0 0.1413898258
H  H78  1  0.79610000  0.01350000  0.69900000  1.0 0.1413898258
H  H79  1  0.31450000  0.09710000  0.30100000  1.0 0.1413898258
H  H80  1  0.34710000  0.54610000  0.28260000  1.0 0.1413898258
H  H81  1  0.00190000  0.67280000  0.80390000  1.0 0.1413898258
H  H82  1  0.44800000  0.75190000  0.82910000  1.0 0.1413898258
H  H83  1  0.92280000  0.61890000  0.17090000  1.0 0.1413898258
H  H84  1  0.86890000  0.19800000  0.19610000  1.0 0.1413898258
H  H85  1  0.24810000  0.07720000  0.69610000  1.0 0.1413898258
H  H86  1  0.80200000  0.99810000  0.67090000  1.0 0.1413898258
H  H87  1  0.32720000  0.13110000  0.32910000  1.0 0.1413898258
H  H88  1  0.38110000  0.55200000  0.30390000  1.0 0.1413898258
H  H89  1  0.97020000  0.67340000  0.81320000  1.0 0.1489245988
H  H90  1  0.40700000  0.72020000  0.79680000  1.0 0.1489245988
H  H91  1  0.92340000  0.61020000  0.20320000  1.0 0.1489245988
H  H92  1  0.86020000  0.15700000  0.18680000  1.0 0.1489245988
H  H93  1  0.27980000  0.07660000  0.68680000  1.0 0.1489245988
H  H94  1  0.84300000  0.02980000  0.70320000  1.0 0.1489245988
H  H95  1  0.32660000  0.13980000  0.29680000  1.0 0.1489245988
H  H96  1  0.38980000  0.59300000  0.31320000  1.0 0.1489245988
H  H97  1  0.87400000  0.65050000  0.70170000  1.0 0.1413898258
H  H98  1  0.42230000  0.62400000  0.72350000  1.0 0.1413898258
H  H99  1  0.90050000  0.69880000  0.27650000  1.0 0.1413898258
H  H100  1  0.94880000  0.17230000  0.29830000  1.0 0.1413898258
H  H101  1  0.37600000  0.09950000  0.79830000  1.0 0.1413898258
H  H102  1  0.82770000  0.12600000  0.77650000  1.0 0.1413898258
H  H103  1  0.34950000  0.05120000  0.22350000  1.0 0.1413898258
H  H104  1  0.30120000  0.57770000  0.20170000  1.0 0.1413898258
H  H105  1  0.92210000  0.66870000  0.71060000  1.0 0.1489245988
H  H106  1  0.46150000  0.67210000  0.75340000  1.0 0.1489245988
H  H107  1  0.91870000  0.70810000  0.24660000  1.0 0.1489245988
H  H108  1  0.95810000  0.21150000  0.28940000  1.0 0.1489245988
H  H109  1  0.32790000  0.08130000  0.78940000  1.0 0.1489245988
H  H110  1  0.78850000  0.07790000  0.74660000  1.0 0.1489245988
H  H111  1  0.33130000  0.04190000  0.25340000  1.0 0.1489245988
H  H112  1  0.29190000  0.53850000  0.21060000  1.0 0.1489245988
H  H113  1  0.90440000  0.67290000  0.73610000  1.0 0.1489245988
H  H114  1  0.41830000  0.65440000  0.73150000  1.0 0.1489245988
H  H115  1  0.92290000  0.68680000  0.26850000  1.0 0.1489245988
H  H116  1  0.93680000  0.16830000  0.26390000  1.0 0.1489245988
H  H117  1  0.34560000  0.07710000  0.76390000  1.0 0.1489245988
H  H118  1  0.83170000  0.09560000  0.76850000  1.0 0.1489245988
H  H119  1  0.32710000  0.06320000  0.23150000  1.0 0.1489245988
H  H120  1  0.31320000  0.58170000  0.23610000  1.0 0.1489245988
H  H121  1  0.05270000  0.88790000  0.70820000  1.0 0.1413898258
H  H122  1  0.59450000  0.80270000  0.66480000  1.0 0.1413898258
H  H123  1  0.13790000  0.92970000  0.33520000  1.0 0.1413898258
H  H124  1  0.17970000  0.34450000  0.29180000  1.0 0.1413898258
H  H125  1  0.19730000  0.86210000  0.79180000  1.0 0.1413898258
H  H126  1  0.65550000  0.94730000  0.83520000  1.0 0.1413898258
H  H127  1  0.11210000  0.82030000  0.16480000  1.0 0.1413898258
H  H128  1  0.07030000  0.40550000  0.20820000  1.0 0.1413898258
H  H129  1  0.00790000  0.84600000  0.67670000  1.0 0.1413898258
H  H130  1  0.58120000  0.75790000  0.66190000  1.0 0.1413898258
H  H131  1  0.09600000  0.91930000  0.33810000  1.0 0.1413898258
H  H132  1  0.16930000  0.33120000  0.32330000  1.0 0.1413898258
H  H133  1  0.24210000  0.90400000  0.82330000  1.0 0.1413898258
H  H134  1  0.66880000  0.99210000  0.83810000  1.0 0.1413898258
H  H135  1  0.15400000  0.83070000  0.16190000  1.0 0.1413898258
H  H136  1  0.08070000  0.41880000  0.17670000  1.0 0.1413898258
H  H137  1  0.99430000  0.85200000  0.70450000  1.0 0.1573784319
H  H138  1  0.53980000  0.74430000  0.64230000  1.0 0.1573784319
H  H139  1  0.10200000  0.89750000  0.35770000  1.0 0.1573784319
H  H140  1  0.14750000  0.28980000  0.29550000  1.0 0.1573784319
H  H141  1  0.25570000  0.89800000  0.79550000  1.0 0.1573784319
H  H142  1  0.71020000  0.00570000  0.85770000  1.0 0.1573784319
H  H143  1  0.14800000  0.85250000  0.14230000  1.0 0.1573784319
H  H144  1  0.10250000  0.46020000  0.20450000  1.0 0.1573784319
H  H145  1  0.92280000  0.97150000  0.25130000  1.0 0.1413898258
H  H146  1  0.92150000  0.67280000  0.45130000  1.0 0.1413898258
H  H147  1  0.22150000  0.47020000  0.54870000  1.0 0.1413898258
H  H148  1  0.72020000  0.67150000  0.74870000  1.0 0.1413898258
H  H149  1  0.32720000  0.77850000  0.24870000  1.0 0.1413898258
H  H150  1  0.32850000  0.07720000  0.04870000  1.0 0.1413898258
H  H151  1  0.02850000  0.27980000  0.95130000  1.0 0.1413898258
H  H152  1  0.52980000  0.07850000  0.75130000  1.0 0.1413898258
H  H153  1  0.96700000  0.98890000  0.27130000  1.0 0.1489245988
H  H154  1  0.94570000  0.71700000  0.47810000  1.0 0.1413898258
H  H155  1  0.23890000  0.46760000  0.52190000  1.0 0.1413898258
H  H156  1  0.71760000  0.69570000  0.72870000  1.0 0.1413898258
H  H157  1  0.28300000  0.76110000  0.22870000  1.0 0.1413898258
H  H158  1  0.30430000  0.03300000  0.02190000  1.0 0.1413898258
H  H159  1  0.01110000  0.28240000  0.97810000  1.0 0.1489245988
H  H160  1  0.53240000  0.05430000  0.77130000  1.0 0.1413898258
H  H161  1  0.97780000  0.03160000  0.27220000  1.0 0.1573784319
H  H162  1  0.95560000  0.72780000  0.44620000  1.0 0.1573784319
H  H163  1  0.28160000  0.50940000  0.55380000  1.0 0.1573784319
H  H164  1  0.75940000  0.70560000  0.72780000  1.0 0.1573784319
H  H165  1  0.27220000  0.71840000  0.22780000  1.0 0.1573784319
H  H166  1  0.29440000  0.02220000  0.05380000  1.0 0.1573784319
H  H167  1  0.96840000  0.24060000  0.94620000  1.0 0.1573784319
H  H168  1  0.49060000  0.04440000  0.77220000  1.0 0.1573784319
H  H169  1  0.08220000  0.08150000  0.17290000  1.0 0.1413898258
H  H170  1  0.15930000  0.83220000  0.50070000  1.0 0.1413898258
H  H171  1  0.33150000  0.65860000  0.49930000  1.0 0.1413898258
H  H172  1  0.90860000  0.90930000  0.82710000  1.0 0.1413898258
H  H173  1  0.16780000  0.66850000  0.32710000  1.0 0.1413898258
H  H174  1  0.09070000  0.91780000  0.99930000  1.0 0.1413898258
H  H175  1  0.91850000  0.09140000  0.00070000  1.0 0.1413898258
H  H176  1  0.34140000  0.84070000  0.67290000  1.0 0.1413898258
H  H177  1  0.12120000  0.13030000  0.20250000  1.0 0.1489245988
H  H178  1  0.16870000  0.87120000  0.49090000  1.0 0.1489245988
H  H179  1  0.38030000  0.67780000  0.50910000  1.0 0.1489245988
H  H180  1  0.92780000  0.91870000  0.79750000  1.0 0.1489245988
H  H181  1  0.12880000  0.61970000  0.29750000  1.0 0.1489245988
H  H182  1  0.08130000  0.87880000  0.00910000  1.0 0.1489245988
H  H183  1  0.86970000  0.07220000  0.99090000  1.0 0.1489245988
H  H184  1  0.32220000  0.83130000  0.70250000  1.0 0.1489245988
H  H185  1  0.11000000  0.08710000  0.20090000  1.0 0.1489245988
H  H186  1  0.15910000  0.86000000  0.52290000  1.0 0.1489245988
H  H187  1  0.33710000  0.63620000  0.47710000  1.0 0.1489245988
H  H188  1  0.88620000  0.90910000  0.79910000  1.0 0.1489245988
H  H189  1  0.14000000  0.66290000  0.29910000  1.0 0.1489245988
H  H190  1  0.09090000  0.89000000  0.97710000  1.0 0.1489245988
H  H191  1  0.91290000  0.11380000  0.02290000  1.0 0.1489245988
H  H192  1  0.36380000  0.84090000  0.70090000  1.0 0.1489245988
H  H193  1  0.05430000  0.07710000  0.11420000  1.0 0.1413898258
H  H194  1  0.19010000  0.80430000  0.47720000  1.0 0.1413898258
H  H195  1  0.32710000  0.71290000  0.52280000  1.0 0.1413898258
H  H196  1  0.96290000  0.94010000  0.88580000  1.0 0.1413898258
H  H197  1  0.19570000  0.67290000  0.38580000  1.0 0.1413898258
H  H198  1  0.05990000  0.94570000  0.02280000  1.0 0.1413898258
H  H199  1  0.92290000  0.03710000  0.97720000  1.0 0.1413898258
H  H200  1  0.28710000  0.80990000  0.61420000  1.0 0.1413898258
H  H201  1  0.06020000  0.08320000  0.08120000  1.0 0.1489245988
H  H202  1  0.22900000  0.81020000  0.47700000  1.0 0.1489245988
H  H203  1  0.33320000  0.75200000  0.52300000  1.0 0.1489245988
H  H204  1  0.00200000  0.97900000  0.91880000  1.0 0.1489245988
H  H205  1  0.18980000  0.66680000  0.41880000  1.0 0.1489245988
H  H206  1  0.02100000  0.93980000  0.02300000  1.0 0.1489245988
H  H207  1  0.91680000  0.99800000  0.97700000  1.0 0.1489245988
H  H208  1  0.24800000  0.77100000  0.58120000  1.0 0.1489245988
H  H209  1  0.08130000  0.12720000  0.10570000  1.0 0.1573784319
H  H210  1  0.22560000  0.83130000  0.45410000  1.0 0.1573784319
H  H211  1  0.37720000  0.77150000  0.54590000  1.0 0.1573784319
H  H212  1  0.02150000  0.97560000  0.89430000  1.0 0.1573784319
H  H213  1  0.16870000  0.62280000  0.39430000  1.0 0.1573784319
H  H214  1  0.02440000  0.91870000  0.04590000  1.0 0.1573784319
H  H215  1  0.87280000  0.97850000  0.95410000  1.0 0.1573784319
H  H216  1  0.22850000  0.77440000  0.60570000  1.0 0.1573784319
H  H217  1  0.84590000  0.96790000  0.05380000  1.0 0.1413898258
H  H218  1  0.04210000  0.59590000  0.37800000  1.0 0.1413898258
H  H219  1  0.21790000  0.66410000  0.62200000  1.0 0.1413898258
H  H220  1  0.91410000  0.79210000  0.94620000  1.0 0.1413898258
H  H221  1  0.40410000  0.78210000  0.44620000  1.0 0.1413898258
H  H222  1  0.20790000  0.15410000  0.12200000  1.0 0.1413898258
H  H223  1  0.03210000  0.08590000  0.87800000  1.0 0.1413898258
H  H224  1  0.33590000  0.95790000  0.55380000  1.0 0.1413898258
H  H225  1  0.89120000  0.02840000  0.05280000  1.0 0.1489245988
H  H226  1  0.08840000  0.64120000  0.36280000  1.0 0.1489245988
H  H227  1  0.27840000  0.72560000  0.63720000  1.0 0.1489245988
H  H228  1  0.97560000  0.83840000  0.94720000  1.0 0.1489245988
H  H229  1  0.35880000  0.72160000  0.44720000  1.0 0.1489245988
H  H230  1  0.16160000  0.10880000  0.13720000  1.0 0.1489245988
H  H231  1  0.97160000  0.02440000  0.86280000  1.0 0.1489245988
H  H232  1  0.27440000  0.91160000  0.55280000  1.0 0.1489245988
H  H233  1  0.87450000  0.98830000  0.02760000  1.0 0.1489245988
H  H234  1  0.09690000  0.62450000  0.38620000  1.0 0.1489245988
H  H235  1  0.23830000  0.71070000  0.61380000  1.0 0.1489245988
H  H236  1  0.96070000  0.84690000  0.97240000  1.0 0.1489245988
H  H237  1  0.37550000  0.76170000  0.47240000  1.0 0.1489245988
H  H238  1  0.15310000  0.12550000  0.11380000  1.0 0.1489245988
H  H239  1  0.01170000  0.03930000  0.88620000  1.0 0.1489245988
H  H240  1  0.28930000  0.90310000  0.52760000  1.0 0.1489245988
H  H241  1  0.72040000  0.89460000  0.11360000  1.0 0.1413898258
H  H242  1  0.85680000  0.47040000  0.32580000  1.0 0.1413898258
H  H243  1  0.14460000  0.53100000  0.67420000  1.0 0.1413898258
H  H244  1  0.78100000  0.60680000  0.88640000  1.0 0.1413898258
H  H245  1  0.52960000  0.85540000  0.38640000  1.0 0.1413898258
H  H246  1  0.39320000  0.27960000  0.17420000  1.0 0.1413898258
H  H247  1  0.10540000  0.21900000  0.82580000  1.0 0.1413898258
H  H248  1  0.46900000  0.14320000  0.61360000  1.0 0.1413898258
H  H249  1  0.77590000  0.93450000  0.10600000  1.0 0.1413898258
H  H250  1  0.91990000  0.52590000  0.34140000  1.0 0.1489245988
H  H251  1  0.18450000  0.57850000  0.65860000  1.0 0.1413898258
H  H252  1  0.82850000  0.66990000  0.89400000  1.0 0.1413898258
H  H253  1  0.47410000  0.81550000  0.39400000  1.0 0.1413898258
H  H254  1  0.33010000  0.22410000  0.15860000  1.0 0.1489245988
H  H255  1  0.06550000  0.17150000  0.84140000  1.0 0.1489245988
H  H256  1  0.42150000  0.08010000  0.60600000  1.0 0.1413898258
H  H257  1  0.72620000  0.87110000  0.09330000  1.0 0.1413898258
H  H258  1  0.88290000  0.47620000  0.35510000  1.0 0.1413898258
H  H259  1  0.12110000  0.52780000  0.64490000  1.0 0.1413898258
H  H260  1  0.77780000  0.63290000  0.90670000  1.0 0.1413898258
H  H261  1  0.52380000  0.87890000  0.40670000  1.0 0.1413898258
H  H262  1  0.36710000  0.27380000  0.14490000  1.0 0.1413898258
H  H263  1  0.12890000  0.22220000  0.85510000  1.0 0.1413898258
H  H264  1  0.47220000  0.11710000  0.59330000  1.0 0.1413898258
H  H265  1  0.80980000  0.89420000  0.21900000  1.0 0.1330842872
H  H266  1  0.84080000  0.55980000  0.41560000  1.0 0.1330842872
H  H267  1  0.14420000  0.42520000  0.58440000  1.0 0.1330842872
H  H268  1  0.67520000  0.59080000  0.78100000  1.0 0.1330842872
H  H269  1  0.44020000  0.85580000  0.28100000  1.0 0.1330842872
H  H270  1  0.40920000  0.19020000  0.08440000  1.0 0.1330842872
H  H271  1  0.10580000  0.32480000  0.91560000  1.0 0.1330842872
H  H272  1  0.57480000  0.15920000  0.71900000  1.0 0.1330842872
H  H273  1  0.79970000  0.91850000  0.22900000  1.0 0.1413898258
H  H274  1  0.82070000  0.54970000  0.38120000  1.0 0.1413898258
H  H275  1  0.16850000  0.43950000  0.61880000  1.0 0.1413898258
H  H276  1  0.68950000  0.57070000  0.77100000  1.0 0.1413898258
H  H277  1  0.45030000  0.83150000  0.27100000  1.0 0.1413898258
H  H278  1  0.42930000  0.20030000  0.11880000  1.0 0.1413898258
H  H279  1  0.08150000  0.31050000  0.88120000  1.0 0.1413898258
H  H280  1  0.56050000  0.17930000  0.72900000  1.0 0.1413898258
H  H281  1  0.74990000  0.85510000  0.21540000  1.0 0.1489245988
H  H282  1  0.78450000  0.49990000  0.39480000  1.0 0.1489245988
H  H283  1  0.10510000  0.38970000  0.60520000  1.0 0.1489245988
H  H284  1  0.63970000  0.53450000  0.78460000  1.0 0.1489245988
H  H285  1  0.50010000  0.89490000  0.28460000  1.0 0.1489245988
H  H286  1  0.46550000  0.25010000  0.10520000  1.0 0.1489245988
H  H287  1  0.14490000  0.36030000  0.89480000  1.0 0.1489245988
H  H288  1  0.61030000  0.21550000  0.71540000  1.0 0.1489245988
H  H289  1  0.02120000  0.18170000  0.06670000  1.0 0.1413898258
H  H290  1  0.20450000  0.77120000  0.33950000  1.0 0.1413898258
H  H291  1  0.43170000  0.86500000  0.66050000  1.0 0.1413898258
H  H292  1  0.11500000  0.95450000  0.93330000  1.0 0.1413898258
H  H293  1  0.22880000  0.56830000  0.43330000  1.0 0.1413898258
H  H294  1  0.04550000  0.97880000  0.16050000  1.0 0.1413898258
H  H295  1  0.81830000  0.88500000  0.83950000  1.0 0.1413898258
H  H296  1  0.13500000  0.79550000  0.56670000  1.0 0.1413898258
H  H297  1  0.02090000  0.16030000  0.09180000  1.0 0.1489245988
H  H298  1  0.17910000  0.77090000  0.36060000  1.0 0.1489245988
H  H299  1  0.41030000  0.81850000  0.63940000  1.0 0.1489245988
H  H300  1  0.06850000  0.92910000  0.90820000  1.0 0.1489245988
H  H301  1  0.22910000  0.58970000  0.40820000  1.0 0.1489245988
H  H302  1  0.07090000  0.97910000  0.13940000  1.0 0.1489245988
H  H303  1  0.83970000  0.93150000  0.86060000  1.0 0.1489245988
H  H304  1  0.18150000  0.82090000  0.59180000  1.0 0.1489245988
H  H305  1  0.96700000  0.12000000  0.06600000  1.0 0.1413898258
H  H306  1  0.15100000  0.71700000  0.34700000  1.0 0.1413898258
H  H307  1  0.37000000  0.80400000  0.65300000  1.0 0.1413898258
H  H308  1  0.05400000  0.90100000  0.93400000  1.0 0.1413898258
H  H309  1  0.28300000  0.63000000  0.43400000  1.0 0.1413898258
H  H310  1  0.09900000  0.03300000  0.15300000  1.0 0.1413898258
H  H311  1  0.88000000  0.94600000  0.84700000  1.0 0.1413898258
H  H312  1  0.19600000  0.84900000  0.56600000  1.0 0.1413898258
H  H313  1  0.05850000  0.09430000  0.00380000  1.0 0.1413898258
H  H314  1  0.30470000  0.80850000  0.46420000  1.0 0.1413898258
H  H315  1  0.34430000  0.84050000  0.53580000  1.0 0.1413898258
H  H316  1  0.09050000  0.05470000  0.99620000  1.0 0.1413898258
H  H317  1  0.19150000  0.65570000  0.49620000  1.0 0.1413898258
H  H318  1  0.94530000  0.94150000  0.03580000  1.0 0.1413898258
H  H319  1  0.90570000  0.90950000  0.96420000  1.0 0.1413898258
H  H320  1  0.15950000  0.69530000  0.50380000  1.0 0.1413898258
H  H321  1  0.00030000  0.04000000  0.00770000  1.0 0.1413898258
H  H322  1  0.24260000  0.75030000  0.46030000  1.0 0.1489245988
H  H323  1  0.29000000  0.78230000  0.53970000  1.0 0.1489245988
H  H324  1  0.03230000  0.99260000  0.99230000  1.0 0.1489245988
H  H325  1  0.24970000  0.71000000  0.49230000  1.0 0.1489245988
H  H326  1  0.00740000  0.99970000  0.03970000  1.0 0.1489245988
H  H327  1  0.96000000  0.96770000  0.96030000  1.0 0.1489245988
H  H328  1  0.21770000  0.75740000  0.50770000  1.0 0.1489245988
H  H329  1  0.05240000  0.07950000  0.03470000  1.0 0.1489245988
H  H330  1  0.26770000  0.80240000  0.47290000  1.0 0.1489245988
H  H331  1  0.32950000  0.79480000  0.52710000  1.0 0.1489245988
H  H332  1  0.04480000  0.01770000  0.96530000  1.0 0.1489245988
H  H333  1  0.19760000  0.67050000  0.46530000  1.0 0.1489245988
H  H334  1  0.98230000  0.94760000  0.02710000  1.0 0.1489245988
H  H335  1  0.92050000  0.95520000  0.97290000  1.0 0.1489245988
H  H336  1  0.20520000  0.73230000  0.53470000  1.0 0.1489245988
H  H337  1  0.12390000  0.14150000  0.96140000  1.0 0.1413898258
H  H338  1  0.41250000  0.87390000  0.48240000  1.0 0.1413898258
H  H339  1  0.39150000  0.93010000  0.51760000  1.0 0.1413898258
H  H340  1  0.18010000  0.16250000  0.03860000  1.0 0.1413898258
H  H341  1  0.12610000  0.60850000  0.53860000  1.0 0.1413898258
H  H342  1  0.83750000  0.87610000  0.01760000  1.0 0.1413898258
H  H343  1  0.85850000  0.81990000  0.98240000  1.0 0.1413898258
H  H344  1  0.06990000  0.58750000  0.46140000  1.0 0.1413898258
H  H345  1  0.18110000  0.17670000  0.96100000  1.0 0.1489245988
H  H346  1  0.47010000  0.93110000  0.50440000  1.0 0.1489245988
H  H347  1  0.42670000  0.96570000  0.49560000  1.0 0.1489245988
H  H348  1  0.21570000  0.22010000  0.03900000  1.0 0.1489245988
H  H349  1  0.06890000  0.57330000  0.53900000  1.0 0.1489245988
H  H350  1  0.77990000  0.81890000  0.99560000  1.0 0.1489245988
H  H351  1  0.82330000  0.78430000  0.00440000  1.0 0.1489245988
H  H352  1  0.03430000  0.52990000  0.46100000  1.0 0.1573784319
H  H353  1  0.13400000  0.13740000  0.93060000  1.0 0.1489245988
H  H354  1  0.45340000  0.88400000  0.49660000  1.0 0.1489245988
H  H355  1  0.38740000  0.95680000  0.50340000  1.0 0.1489245988
H  H356  1  0.20680000  0.20340000  0.06940000  1.0 0.1489245988
H  H357  1  0.11600000  0.61260000  0.56940000  1.0 0.1489245988
H  H358  1  0.79660000  0.86600000  0.00340000  1.0 0.1489245988
H  H359  1  0.86260000  0.79320000  0.99660000  1.0 0.1489245988
H  H360  1  0.04320000  0.54660000  0.43060000  1.0 0.1489245988
H  H361  1  0.23330000  0.33790000  0.92660000  1.0 0.1413898258
H  H362  1  0.55670000  0.98330000  0.39540000  1.0 0.1413898258
H  H363  1  0.58790000  0.16130000  0.60460000  1.0 0.1413898258
H  H364  1  0.41130000  0.30670000  0.07340000  1.0 0.1413898258
H  H365  1  0.01670000  0.41210000  0.57340000  1.0 0.1413898258
H  H366  1  0.69330000  0.76670000  0.10460000  1.0 0.1413898258
H  H367  1  0.66210000  0.58870000  0.89540000  1.0 0.1413898258
H  H368  1  0.83870000  0.44330000  0.42660000  1.0 0.1413898258
H  H369  1  0.23310000  0.31460000  0.89930000  1.0 0.1489245988
H  H370  1  0.58380000  0.98310000  0.41850000  1.0 0.1489245988
H  H371  1  0.56460000  0.16530000  0.58150000  1.0 0.1489245988
H  H372  1  0.41530000  0.33380000  0.10070000  1.0 0.1489245988
H  H373  1  0.01690000  0.43540000  0.60070000  1.0 0.1489245988
H  H374  1  0.66620000  0.76690000  0.08150000  1.0 0.1489245988
H  H375  1  0.68540000  0.58470000  0.91850000  1.0 0.1489245988
H  H376  1  0.83470000  0.41620000  0.39930000  1.0 0.1489245988
H  H377  1  0.27980000  0.35360000  0.93000000  1.0 0.1489245988
H  H378  1  0.59980000  0.02980000  0.42620000  1.0 0.1489245988
H  H379  1  0.60360000  0.17360000  0.57380000  1.0 0.1489245988
H  H380  1  0.42360000  0.34980000  0.07000000  1.0 0.1489245988
H  H381  1  0.97020000  0.39640000  0.57000000  1.0 0.1489245988
H  H382  1  0.65020000  0.72020000  0.07380000  1.0 0.1489245988
H  H383  1  0.64640000  0.57640000  0.92620000  1.0 0.1489245988
H  H384  1  0.82640000  0.40020000  0.43000000  1.0 0.1489245988
H  H385  1  0.22670000  0.39510000  0.96240000  1.0 0.1413898258
H  H386  1  0.51430000  0.97670000  0.33160000  1.0 0.1413898258
H  H387  1  0.64510000  0.18270000  0.66840000  1.0 0.1413898258
H  H388  1  0.43270000  0.26430000  0.03760000  1.0 0.1413898258
H  H389  1  0.02330000  0.35490000  0.53760000  1.0 0.1413898258
H  H390  1  0.73570000  0.77330000  0.16840000  1.0 0.1413898258
H  H391  1  0.60490000  0.56730000  0.83160000  1.0 0.1413898258
H  H392  1  0.81730000  0.48570000  0.46240000  1.0 0.1413898258
H  H393  1  0.25540000  0.44490000  0.98610000  1.0 0.1573784319
H  H394  1  0.51930000  0.00540000  0.31050000  1.0 0.1573784319
H  H395  1  0.69490000  0.20880000  0.68950000  1.0 0.1573784319
H  H396  1  0.45880000  0.26930000  0.01390000  1.0 0.1573784319
H  H397  1  0.99460000  0.30510000  0.51390000  1.0 0.1573784319
H  H398  1  0.73070000  0.74460000  0.18950000  1.0 0.1573784319
H  H399  1  0.55510000  0.54120000  0.81050000  1.0 0.1573784319
H  H400  1  0.79120000  0.48070000  0.48610000  1.0 0.1573784319
H  H401  1  0.20880000  0.41260000  0.95700000  1.0 0.1489245988
H  H402  1  0.50180000  0.95880000  0.29620000  1.0 0.1489245988
H  H403  1  0.66260000  0.20560000  0.70380000  1.0 0.1489245988
H  H404  1  0.45560000  0.25180000  0.04300000  1.0 0.1489245988
H  H405  1  0.04120000  0.33740000  0.54300000  1.0 0.1489245988
H  H406  1  0.74820000  0.79120000  0.20380000  1.0 0.1489245988
H  H407  1  0.58740000  0.54440000  0.79620000  1.0 0.1489245988
H  H408  1  0.79440000  0.49820000  0.45700000  1.0 0.1489245988
H  H409  1  0.07060000  0.27670000  0.04310000  1.0 0.1413898258
H  H410  1  0.27750000  0.82060000  0.29390000  1.0 0.1413898258
H  H411  1  0.52670000  0.98360000  0.70610000  1.0 0.1413898258
H  H412  1  0.23360000  0.02750000  0.95690000  1.0 0.1413898258
H  H413  1  0.17940000  0.47330000  0.45690000  1.0 0.1413898258
H  H414  1  0.97250000  0.92940000  0.20610000  1.0 0.1413898258
H  H415  1  0.72330000  0.76640000  0.79390000  1.0 0.1413898258
H  H416  1  0.01640000  0.72250000  0.54310000  1.0 0.1413898258
H  H417  1  0.06070000  0.29830000  0.02840000  1.0 0.1413898258
H  H418  1  0.28230000  0.81070000  0.26240000  1.0 0.1413898258
H  H419  1  0.54830000  0.01990000  0.73760000  1.0 0.1413898258
H  H420  1  0.26990000  0.03230000  0.97160000  1.0 0.1413898258
H  H421  1  0.18930000  0.45170000  0.47160000  1.0 0.1413898258
H  H422  1  0.96770000  0.93930000  0.23760000  1.0 0.1413898258
H  H423  1  0.70170000  0.73010000  0.76240000  1.0 0.1413898258
H  H424  1  0.98010000  0.71770000  0.52840000  1.0 0.1413898258
H  H425  1  0.10980000  0.33630000  0.05730000  1.0 0.1413898258
H  H426  1  0.30250000  0.85980000  0.27350000  1.0 0.1413898258
H  H427  1  0.58630000  0.02900000  0.72650000  1.0 0.1413898258
H  H428  1  0.27900000  0.05250000  0.94270000  1.0 0.1413898258
H  H429  1  0.14020000  0.41370000  0.44270000  1.0 0.1413898258
H  H430  1  0.94750000  0.89020000  0.22650000  1.0 0.1413898258
H  H431  1  0.66370000  0.72100000  0.77350000  1.0 0.1413898258
H  H432  1  0.97100000  0.69750000  0.55730000  1.0 0.1413898258
H  H433  1  0.16710000  0.14330000  0.86060000  1.0 0.1413898258
H  H434  1  0.55650000  0.91710000  0.52380000  1.0 0.1413898258
H  H435  1  0.39330000  0.03270000  0.47620000  1.0 0.1413898258
H  H436  1  0.28270000  0.30650000  0.13940000  1.0 0.1413898258
H  H437  1  0.08290000  0.60670000  0.63940000  1.0 0.1413898258
H  H438  1  0.69350000  0.83290000  0.97620000  1.0 0.1413898258
H  H439  1  0.85670000  0.71730000  0.02380000  1.0 0.1413898258
H  H440  1  0.96730000  0.44350000  0.36060000  1.0 0.1413898258
H  H441  1  0.14960000  0.16160000  0.86260000  1.0 0.1489245988
H  H442  1  0.53700000  0.89960000  0.48800000  1.0 0.1489245988
H  H443  1  0.41160000  0.04900000  0.51200000  1.0 0.1489245988
H  H444  1  0.29900000  0.28700000  0.13740000  1.0 0.1489245988
H  H445  1  0.10040000  0.58840000  0.63740000  1.0 0.1489245988
H  H446  1  0.71300000  0.85040000  0.01200000  1.0 0.1489245988
H  H447  1  0.83840000  0.70100000  0.98800000  1.0 0.1489245988
H  H448  1  0.95100000  0.46300000  0.36260000  1.0 0.1489245988
H  H449  1  0.14230000  0.13480000  0.88690000  1.0 0.1413898258
H  H450  1  0.50540000  0.89230000  0.50750000  1.0 0.1413898258
H  H451  1  0.38480000  0.99790000  0.49250000  1.0 0.1413898258
H  H452  1  0.24790000  0.25540000  0.11310000  1.0 0.1413898258
H  H453  1  0.10770000  0.61520000  0.61310000  1.0 0.1413898258
H  H454  1  0.74460000  0.85770000  0.99250000  1.0 0.1413898258
H  H455  1  0.86520000  0.75210000  0.00750000  1.0 0.1413898258
H  H456  1  0.00210000  0.49460000  0.38690000  1.0 0.1413898258
H  H457  1  0.37200000  0.36970000  0.95350000  1.0 0.1413898258
H  H458  1  0.66850000  0.12200000  0.50230000  1.0 0.1413898258
H  H459  1  0.61970000  0.16620000  0.49770000  1.0 0.1413898258
H  H460  1  0.41620000  0.41850000  0.04650000  1.0 0.1413898258
H  H461  1  0.87800000  0.38030000  0.54650000  1.0 0.1413898258
H  H462  1  0.58150000  0.62800000  0.99770000  1.0 0.1413898258
H  H463  1  0.63030000  0.58380000  0.00230000  1.0 0.1413898258
H  H464  1  0.83380000  0.33150000  0.45350000  1.0 0.1413898258
H  H465  1  0.32680000  0.33880000  0.97020000  1.0 0.1573784319
H  H466  1  0.60660000  0.07680000  0.48800000  1.0 0.1573784319
H  H467  1  0.58880000  0.11860000  0.51200000  1.0 0.1573784319
H  H468  1  0.36860000  0.35660000  0.02980000  1.0 0.1573784319
H  H469  1  0.92320000  0.41120000  0.52980000  1.0 0.1573784319
H  H470  1  0.64340000  0.67320000  0.01200000  1.0 0.1573784319
H  H471  1  0.66120000  0.63140000  0.98800000  1.0 0.1573784319
H  H472  1  0.88140000  0.39340000  0.47020000  1.0 0.1573784319
H  H473  1  0.33470000  0.36590000  0.94600000  1.0 0.1489245988
H  H474  1  0.63870000  0.08470000  0.46880000  1.0 0.1489245988
H  H475  1  0.61590000  0.16990000  0.53120000  1.0 0.1489245988
H  H476  1  0.41990000  0.38870000  0.05400000  1.0 0.1489245988
H  H477  1  0.91530000  0.38410000  0.55400000  1.0 0.1489245988
H  H478  1  0.61130000  0.66530000  0.03120000  1.0 0.1489245988
H  H479  1  0.63410000  0.58010000  0.96880000  1.0 0.1489245988
H  H480  1  0.83010000  0.36130000  0.44600000  1.0 0.1489245988
H  H481  1  0.53950000  0.47420000  0.98950000  1.0 0.1413898258
H  H482  1  0.80000000  0.28950000  0.56530000  1.0 0.1413898258
H  H483  1  0.72420000  0.23470000  0.43470000  1.0 0.1413898258
H  H484  1  0.48470000  0.55000000  0.01050000  1.0 0.1413898258
H  H485  1  0.71050000  0.27580000  0.51050000  1.0 0.1413898258
H  H486  1  0.45000000  0.46050000  0.93470000  1.0 0.1413898258
H  H487  1  0.52580000  0.51530000  0.06530000  1.0 0.1413898258
H  H488  1  0.76530000  0.20000000  0.48950000  1.0 0.1413898258
H  H489  1  0.47540000  0.42190000  0.97950000  1.0 0.1413898258
H  H490  1  0.74590000  0.22540000  0.55350000  1.0 0.1413898258
H  H491  1  0.67190000  0.19240000  0.44650000  1.0 0.1413898258
H  H492  1  0.44240000  0.49590000  0.02050000  1.0 0.1413898258
H  H493  1  0.77460000  0.32810000  0.52050000  1.0 0.1413898258
H  H494  1  0.50410000  0.52460000  0.94650000  1.0 0.1413898258
H  H495  1  0.57810000  0.55760000  0.05350000  1.0 0.1413898258
H  H496  1  0.80760000  0.25410000  0.47950000  1.0 0.1413898258
H  H497  1  0.50900000  0.46290000  0.95950000  1.0 0.1413898258
H  H498  1  0.79950000  0.25900000  0.54610000  1.0 0.1413898258
H  H499  1  0.71290000  0.25340000  0.45390000  1.0 0.1413898258
H  H500  1  0.50340000  0.54950000  0.04050000  1.0 0.1413898258
H  H501  1  0.74100000  0.28710000  0.54050000  1.0 0.1413898258
H  H502  1  0.45050000  0.49100000  0.95390000  1.0 0.1413898258
H  H503  1  0.53710000  0.49660000  0.04610000  1.0 0.1413898258
H  H504  1  0.74660000  0.20050000  0.45950000  1.0 0.1413898258
H  H505  1  0.50930000  0.33430000  0.90900000  1.0 0.1413898258
H  H506  1  0.85030000  0.25930000  0.67500000  1.0 0.1413898258
H  H507  1  0.58430000  0.17530000  0.32500000  1.0 0.1413898258
H  H508  1  0.42530000  0.60030000  0.09100000  1.0 0.1413898258
H  H509  1  0.74070000  0.41570000  0.59100000  1.0 0.1413898258
H  H510  1  0.39970000  0.49070000  0.82500000  1.0 0.1413898258
H  H511  1  0.66570000  0.57470000  0.17500000  1.0 0.1413898258
H  H512  1  0.82470000  0.14970000  0.40900000  1.0 0.1413898258
H  H513  1  0.53600000  0.35450000  0.94410000  1.0 0.1489245988
H  H514  1  0.84190000  0.28600000  0.68150000  1.0 0.1489245988
H  H515  1  0.60450000  0.16040000  0.31850000  1.0 0.1489245988
H  H516  1  0.41040000  0.59190000  0.05590000  1.0 0.1489245988
H  H517  1  0.71400000  0.39550000  0.55590000  1.0 0.1489245988
H  H518  1  0.40810000  0.46400000  0.81850000  1.0 0.1489245988
H  H519  1  0.64550000  0.58960000  0.18150000  1.0 0.1489245988
H  H520  1  0.83960000  0.15810000  0.44410000  1.0 0.1489245988
H  H521  1  0.56980000  0.39570000  0.92410000  1.0 0.1413898258
H  H522  1  0.89570000  0.31980000  0.67410000  1.0 0.1413898258
H  H523  1  0.64570000  0.22160000  0.32590000  1.0 0.1413898258
H  H524  1  0.47160000  0.64570000  0.07590000  1.0 0.1413898258
H  H525  1  0.68020000  0.35430000  0.57590000  1.0 0.1413898258
H  H526  1  0.35430000  0.43020000  0.82590000  1.0 0.1413898258
H  H527  1  0.60430000  0.52840000  0.17410000  1.0 0.1413898258
H  H528  1  0.77840000  0.10430000  0.42410000  1.0 0.1413898258
H  H529  1  0.40160000  0.21470000  0.86210000  1.0 0.1413898258
H  H530  1  0.78950000  0.15160000  0.68690000  1.0 0.1413898258
H  H531  1  0.46470000  0.10260000  0.31310000  1.0 0.1413898258
H  H532  1  0.35260000  0.53950000  0.13790000  1.0 0.1413898258
H  H533  1  0.84840000  0.53530000  0.63790000  1.0 0.1413898258
H  H534  1  0.46050000  0.59840000  0.81310000  1.0 0.1413898258
H  H535  1  0.78530000  0.64740000  0.18690000  1.0 0.1413898258
H  H536  1  0.89740000  0.21050000  0.36210000  1.0 0.1413898258
H  H537  1  0.37280000  0.17360000  0.83060000  1.0 0.1489245988
H  H538  1  0.79220000  0.12280000  0.69920000  1.0 0.1489245988
H  H539  1  0.42360000  0.09300000  0.30080000  1.0 0.1489245988
H  H540  1  0.34300000  0.54220000  0.16940000  1.0 0.1489245988
H  H541  1  0.87720000  0.57640000  0.66940000  1.0 0.1489245988
H  H542  1  0.45780000  0.62720000  0.80080000  1.0 0.1489245988
H  H543  1  0.82640000  0.65700000  0.19920000  1.0 0.1489245988
H  H544  1  0.90700000  0.20780000  0.33060000  1.0 0.1489245988
H  H545  1  0.36330000  0.15570000  0.86060000  1.0 0.1489245988
H  H546  1  0.75270000  0.11330000  0.70760000  1.0 0.1489245988
H  H547  1  0.40570000  0.04510000  0.29240000  1.0 0.1489245988
H  H548  1  0.29510000  0.50270000  0.13940000  1.0 0.1489245988
H  H549  1  0.88670000  0.59430000  0.63940000  1.0 0.1489245988
H  H550  1  0.49730000  0.63670000  0.79240000  1.0 0.1489245988
H  H551  1  0.84430000  0.70490000  0.20760000  1.0 0.1489245988
H  H552  1  0.95490000  0.24730000  0.36060000  1.0 0.1489245988
H  H553  1  0.16160000  0.03760000  0.81600000  1.0 0.1413898258
H  H554  1  0.59560000  0.91160000  0.62400000  1.0 0.1413898258
H  H555  1  0.28760000  0.97160000  0.37600000  1.0 0.1413898258
H  H556  1  0.22160000  0.34560000  0.18400000  1.0 0.1413898258
H  H557  1  0.08840000  0.71240000  0.68400000  1.0 0.1413898258
H  H558  1  0.65440000  0.83840000  0.87600000  1.0 0.1413898258
H  H559  1  0.96240000  0.77840000  0.12400000  1.0 0.1413898258
H  H560  1  0.02840000  0.40440000  0.31600000  1.0 0.1413898258
H  H561  1  0.18000000  0.08520000  0.81440000  1.0 0.1413898258
H  H562  1  0.61560000  0.93000000  0.59480000  1.0 0.1413898258
H  H563  1  0.33520000  0.02080000  0.40520000  1.0 0.1413898258
H  H564  1  0.27080000  0.36560000  0.18560000  1.0 0.1413898258
H  H565  1  0.07000000  0.66480000  0.68560000  1.0 0.1413898258
H  H566  1  0.63440000  0.82000000  0.90520000  1.0 0.1413898258
H  H567  1  0.91480000  0.72920000  0.09480000  1.0 0.1413898258
H  H568  1  0.97920000  0.38440000  0.31440000  1.0 0.1413898258
H  H569  1  0.17240000  0.06900000  0.84500000  1.0 0.1573784319
H  H570  1  0.57740000  0.92240000  0.60340000  1.0 0.1573784319
H  H571  1  0.31900000  0.97400000  0.39660000  1.0 0.1573784319
H  H572  1  0.22400000  0.32740000  0.15500000  1.0 0.1573784319
H  H573  1  0.07760000  0.68100000  0.65500000  1.0 0.1573784319
H  H574  1  0.67260000  0.82760000  0.89660000  1.0 0.1573784319
H  H575  1  0.93100000  0.77600000  0.10340000  1.0 0.1573784319
H  H576  1  0.02600000  0.42260000  0.34500000  1.0 0.1573784319
H  H577  1  0.70330000  0.54480000  0.95950000  1.0 0.1413898258
H  H578  1  0.99380000  0.45330000  0.65850000  1.0 0.1413898258
H  H579  1  0.79480000  0.33530000  0.34150000  1.0 0.1413898258
H  H580  1  0.58530000  0.74380000  0.04050000  1.0 0.1413898258
H  H581  1  0.54670000  0.20520000  0.54050000  1.0 0.1413898258
H  H582  1  0.25620000  0.29670000  0.84150000  1.0 0.1413898258
H  H583  1  0.45520000  0.41470000  0.15850000  1.0 0.1413898258
H  H584  1  0.66470000  0.00620000  0.45950000  1.0 0.1413898258
H  H585  1  0.64780000  0.48310000  0.94090000  1.0 0.1489245988
H  H586  1  0.95690000  0.39780000  0.66470000  1.0 0.1489245988
H  H587  1  0.73310000  0.29220000  0.33530000  1.0 0.1489245988
H  H588  1  0.54220000  0.70690000  0.05910000  1.0 0.1489245988
H  H589  1  0.60220000  0.26690000  0.55910000  1.0 0.1489245988
H  H590  1  0.29310000  0.35220000  0.83530000  1.0 0.1489245988
H  H591  1  0.51690000  0.45780000  0.16470000  1.0 0.1489245988
H  H592  1  0.70780000  0.04310000  0.44090000  1.0 0.1489245988
H  H593  1  0.65480000  0.52300000  0.94180000  1.0 0.1413898258
H  H594  1  0.96300000  0.40480000  0.63180000  1.0 0.1413898258
H  H595  1  0.77300000  0.33120000  0.36820000  1.0 0.1413898258
H  H596  1  0.58120000  0.71300000  0.05820000  1.0 0.1413898258
H  H597  1  0.59520000  0.22700000  0.55820000  1.0 0.1413898258
H  H598  1  0.28700000  0.34520000  0.86820000  1.0 0.1413898258
H  H599  1  0.47700000  0.41880000  0.13180000  1.0 0.1413898258
H  H600  1  0.66880000  0.03700000  0.44180000  1.0 0.1413898258
H  H601  1  0.56740000  0.44680000  0.05200000  1.0 0.1489245988
H  H602  1  0.76540000  0.31740000  0.62060000  1.0 0.1489245988
H  H603  1  0.69680000  0.14480000  0.37940000  1.0 0.1489245988
H  H604  1  0.39480000  0.51540000  0.94800000  1.0 0.1489245988
H  H605  1  0.68260000  0.30320000  0.44800000  1.0 0.1489245988
H  H606  1  0.48460000  0.43260000  0.87940000  1.0 0.1489245988
H  H607  1  0.55320000  0.60520000  0.12060000  1.0 0.1489245988
H  H608  1  0.85520000  0.23460000  0.55200000  1.0 0.1489245988
H  H609  1  0.53120000  0.43360000  0.02560000  1.0 0.1489245988
H  H610  1  0.75560000  0.28120000  0.59760000  1.0 0.1489245988
H  H611  1  0.68360000  0.15800000  0.40240000  1.0 0.1489245988
H  H612  1  0.40800000  0.50560000  0.97440000  1.0 0.1489245988
H  H613  1  0.71880000  0.31640000  0.47440000  1.0 0.1489245988
H  H614  1  0.49440000  0.46880000  0.90240000  1.0 0.1489245988
H  H615  1  0.56640000  0.59200000  0.09760000  1.0 0.1489245988
H  H616  1  0.84200000  0.24440000  0.52560000  1.0 0.1489245988
H  H617  1  0.52540000  0.39470000  0.02430000  1.0 0.1573784319
H  H618  1  0.75110000  0.27540000  0.63070000  1.0 0.1573784319
H  H619  1  0.64470000  0.12040000  0.36930000  1.0 0.1573784319
H  H620  1  0.37040000  0.50110000  0.97570000  1.0 0.1573784319
H  H621  1  0.72460000  0.35530000  0.47570000  1.0 0.1573784319
H  H622  1  0.49890000  0.47460000  0.86930000  1.0 0.1573784319
H  H623  1  0.60530000  0.62960000  0.13070000  1.0 0.1573784319
H  H624  1  0.87960000  0.24890000  0.52430000  1.0 0.1573784319
H  H625  1  0.61580000  0.47280000  0.11560000  1.0 0.1413898258
H  H626  1  0.75020000  0.36580000  0.64300000  1.0 0.1413898258
H  H627  1  0.72280000  0.10720000  0.35700000  1.0 0.1413898258
H  H628  1  0.35720000  0.50020000  0.88440000  1.0 0.1413898258
H  H629  1  0.63420000  0.27720000  0.38440000  1.0 0.1413898258
H  H630  1  0.49980000  0.38420000  0.85700000  1.0 0.1413898258
H  H631  1  0.52720000  0.64280000  0.14300000  1.0 0.1413898258
H  H632  1  0.89280000  0.24980000  0.61560000  1.0 0.1413898258
H  H633  1  0.59810000  0.42950000  0.12720000  1.0 0.1489245988
H  H634  1  0.72090000  0.34810000  0.66860000  1.0 0.1413898258
H  H635  1  0.67950000  0.05230000  0.33140000  1.0 0.1413898258
H  H636  1  0.30230000  0.47090000  0.87280000  1.0 0.1413898258
H  H637  1  0.65190000  0.32050000  0.37280000  1.0 0.1489245988
H  H638  1  0.52910000  0.40190000  0.83140000  1.0 0.1413898258
H  H639  1  0.57050000  0.69770000  0.16860000  1.0 0.1489245988
H  H640  1  0.94770000  0.27910000  0.62720000  1.0 0.1489245988
H  H641  1  0.62470000  0.47820000  0.15050000  1.0 0.1489245988
H  H642  1  0.72420000  0.37470000  0.64650000  1.0 0.1489245988
H  H643  1  0.72820000  0.07770000  0.35350000  1.0 0.1489245988
H  H644  1  0.32770000  0.47420000  0.84950000  1.0 0.1489245988
H  H645  1  0.62530000  0.27180000  0.34950000  1.0 0.1489245988
H  H646  1  0.52580000  0.37530000  0.85350000  1.0 0.1489245988
H  H647  1  0.52180000  0.67230000  0.14650000  1.0 0.1489245988
H  H648  1  0.92230000  0.27580000  0.65050000  1.0 0.1489245988
H  H649  1  0.79980000  0.55060000  0.17720000  1.0 0.1413898258
H  H650  1  0.87260000  0.54980000  0.74920000  1.0 0.1413898258
H  H651  1  0.80060000  0.12340000  0.25080000  1.0 0.1413898258
H  H652  1  0.37340000  0.62260000  0.82280000  1.0 0.1413898258
H  H653  1  0.45020000  0.19940000  0.32280000  1.0 0.1413898258
H  H654  1  0.37740000  0.20020000  0.75080000  1.0 0.1413898258
H  H655  1  0.44940000  0.62660000  0.24920000  1.0 0.1413898258
H  H656  1  0.87660000  0.12740000  0.67720000  1.0 0.1413898258
H  H657  1  0.81280000  0.55760000  0.14560000  1.0 0.1489245988
H  H658  1  0.91720000  0.56280000  0.75520000  1.0 0.1489245988
H  H659  1  0.80760000  0.16200000  0.24480000  1.0 0.1489245988
H  H660  1  0.41200000  0.66720000  0.85440000  1.0 0.1489245988
H  H661  1  0.43720000  0.19240000  0.35440000  1.0 0.1489245988
H  H662  1  0.33280000  0.18720000  0.74480000  1.0 0.1489245988
H  H663  1  0.44240000  0.58800000  0.25520000  1.0 0.1489245988
H  H664  1  0.83800000  0.08280000  0.64560000  1.0 0.1489245988
H  H665  1  0.83770000  0.60510000  0.16900000  1.0 0.1413898258
H  H666  1  0.91870000  0.58770000  0.73260000  1.0 0.1413898258
H  H667  1  0.85510000  0.18610000  0.26740000  1.0 0.1413898258
H  H668  1  0.43610000  0.66870000  0.83100000  1.0 0.1413898258
H  H669  1  0.41230000  0.14490000  0.33100000  1.0 0.1413898258
H  H670  1  0.33130000  0.16230000  0.76740000  1.0 0.1413898258
H  H671  1  0.39490000  0.56390000  0.23260000  1.0 0.1413898258
H  H672  1  0.81390000  0.08130000  0.66900000  1.0 0.1413898258
H  H673  1  0.90310000  0.63990000  0.10240000  1.0 0.1413898258
H  H674  1  0.05070000  0.65310000  0.76320000  1.0 0.1413898258
H  H675  1  0.88990000  0.28750000  0.23680000  1.0 0.1413898258
H  H676  1  0.53750000  0.80070000  0.89760000  1.0 0.1413898258
H  H677  1  0.34690000  0.11010000  0.39760000  1.0 0.1413898258
H  H678  1  0.19930000  0.09690000  0.73680000  1.0 0.1413898258
H  H679  1  0.36010000  0.46250000  0.26320000  1.0 0.1413898258
H  H680  1  0.71250000  0.94930000  0.60240000  1.0 0.1413898258
H  H681  1  0.90280000  0.61230000  0.07930000  1.0 0.1413898258
H  H682  1  0.07350000  0.65280000  0.79050000  1.0 0.1413898258
H  H683  1  0.86230000  0.28300000  0.20950000  1.0 0.1413898258
H  H684  1  0.53300000  0.82350000  0.92070000  1.0 0.1413898258
H  H685  1  0.34720000  0.13770000  0.42070000  1.0 0.1413898258
H  H686  1  0.17650000  0.09720000  0.70950000  1.0 0.1413898258
H  H687  1  0.38770000  0.46700000  0.29050000  1.0 0.1413898258
H  H688  1  0.71700000  0.92650000  0.57930000  1.0 0.1413898258
H  H689  1  0.95230000  0.67600000  0.08830000  1.0 0.1489245988
H  H690  1  0.11400000  0.70230000  0.77630000  1.0 0.1489245988
H  H691  1  0.92600000  0.33770000  0.22370000  1.0 0.1489245988
H  H692  1  0.58770000  0.86400000  0.91170000  1.0 0.1489245988
H  H693  1  0.29770000  0.07400000  0.41170000  1.0 0.1489245988
H  H694  1  0.13600000  0.04770000  0.72370000  1.0 0.1489245988
H  H695  1  0.32400000  0.41230000  0.27630000  1.0 0.1489245988
H  H696  1  0.66230000  0.88600000  0.58830000  1.0 0.1489245988
H  H697  1  0.81480000  0.61910000  0.98070000  1.0 0.1330842872
H  H698  1  0.08410000  0.56480000  0.69570000  1.0 0.1330842872
H  H699  1  0.86910000  0.38840000  0.30430000  1.0 0.1330842872
H  H700  1  0.63840000  0.83410000  0.01930000  1.0 0.1330842872
H  H701  1  0.43520000  0.13090000  0.51930000  1.0 0.1330842872
H  H702  1  0.16590000  0.18520000  0.80430000  1.0 0.1330842872
H  H703  1  0.38090000  0.36160000  0.19570000  1.0 0.1330842872
H  H704  1  0.61160000  0.91590000  0.48070000  1.0 0.1330842872
H  H705  1  0.87170000  0.65500000  0.97830000  1.0 0.1330842872
H  H706  1  0.14340000  0.62170000  0.71670000  1.0 0.1330842872
H  H707  1  0.90500000  0.42670000  0.28330000  1.0 0.1330842872
H  H708  1  0.67670000  0.89340000  0.02170000  1.0 0.1330842872
H  H709  1  0.37830000  0.09500000  0.52170000  1.0 0.1330842872
H  H710  1  0.10660000  0.12830000  0.78330000  1.0 0.1330842872
H  H711  1  0.34500000  0.32330000  0.21670000  1.0 0.1330842872
H  H712  1  0.57330000  0.85660000  0.47830000  1.0 0.1330842872
H  H713  1  0.82120000  0.59130000  0.97110000  1.0 0.1489245988
H  H714  1  0.10010000  0.57120000  0.72990000  1.0 0.1489245988
H  H715  1  0.84130000  0.37020000  0.27010000  1.0 0.1489245988
H  H716  1  0.62020000  0.85010000  0.02890000  1.0 0.1489245988
H  H717  1  0.42880000  0.15870000  0.52890000  1.0 0.1489245988
H  H718  1  0.14990000  0.17880000  0.77010000  1.0 0.1489245988
H  H719  1  0.40870000  0.37980000  0.22990000  1.0 0.1489245988
H  H720  1  0.62980000  0.89990000  0.47110000  1.0 0.1489245988
H  H721  1  0.37650000  0.75550000  0.09540000  1.0 0.1413898258
H  H722  1  0.53110000  0.12650000  0.12100000  1.0 0.1413898258
H  H723  1  0.00550000  0.41010000  0.87900000  1.0 0.1413898258
H  H724  1  0.66010000  0.28110000  0.90460000  1.0 0.1413898258
H  H725  1  0.87350000  0.99450000  0.40460000  1.0 0.1413898258
H  H726  1  0.71890000  0.62350000  0.37900000  1.0 0.1413898258
H  H727  1  0.24450000  0.33990000  0.62100000  1.0 0.1413898258
H  H728  1  0.58990000  0.46890000  0.59540000  1.0 0.1413898258
H  H729  1  0.40260000  0.77990000  0.13090000  1.0 0.1489245988
H  H730  1  0.52170000  0.15260000  0.12270000  1.0 0.1489245988
H  H731  1  0.02990000  0.39900000  0.87730000  1.0 0.1489245988
H  H732  1  0.64900000  0.27170000  0.86910000  1.0 0.1489245988
H  H733  1  0.84740000  0.97010000  0.36910000  1.0 0.1489245988
H  H734  1  0.72830000  0.59740000  0.37730000  1.0 0.1489245988
H  H735  1  0.22010000  0.35100000  0.62270000  1.0 0.1489245988
H  H736  1  0.60100000  0.47830000  0.63090000  1.0 0.1489245988
H  H737  1  0.43130000  0.78530000  0.10960000  1.0 0.1573784319
H  H738  1  0.57170000  0.18130000  0.14600000  1.0 0.1573784319
H  H739  1  0.03530000  0.42570000  0.85400000  1.0 0.1573784319
H  H740  1  0.67570000  0.32170000  0.89040000  1.0 0.1573784319
H  H741  1  0.81870000  0.96470000  0.39040000  1.0 0.1573784319
H  H742  1  0.67830000  0.56870000  0.35400000  1.0 0.1573784319
H  H743  1  0.21470000  0.32430000  0.64600000  1.0 0.1573784319
H  H744  1  0.57430000  0.42830000  0.60960000  1.0 0.1573784319
H  H745  1  0.28620000  0.56710000  0.12850000  1.0 0.1413898258
H  H746  1  0.40770000  0.03620000  0.21910000  1.0 0.1413898258
H  H747  1  0.81710000  0.18860000  0.78090000  1.0 0.1413898258
H  H748  1  0.43860000  0.15770000  0.87150000  1.0 0.1413898258
H  H749  1  0.96380000  0.18290000  0.37150000  1.0 0.1413898258
H  H750  1  0.84230000  0.71380000  0.28090000  1.0 0.1413898258
H  H751  1  0.43290000  0.56140000  0.71910000  1.0 0.1413898258
H  H752  1  0.81140000  0.59230000  0.62850000  1.0 0.1413898258
H  H753  1  0.34910000  0.61410000  0.14060000  1.0 0.1413898258
H  H754  1  0.45850000  0.09910000  0.23500000  1.0 0.1413898258
H  H755  1  0.86410000  0.22350000  0.76500000  1.0 0.1413898258
H  H756  1  0.47350000  0.20850000  0.85940000  1.0 0.1413898258
H  H757  1  0.90090000  0.13590000  0.35940000  1.0 0.1413898258
H  H758  1  0.79150000  0.65090000  0.26500000  1.0 0.1413898258
H  H759  1  0.38590000  0.52650000  0.73500000  1.0 0.1413898258
H  H760  1  0.77650000  0.54150000  0.64060000  1.0 0.1413898258
H  H761  1  0.31910000  0.60810000  0.16100000  1.0 0.1489245988
H  H762  1  0.40810000  0.06910000  0.21100000  1.0 0.1489245988
H  H763  1  0.85810000  0.19710000  0.78900000  1.0 0.1489245988
H  H764  1  0.44710000  0.15810000  0.83900000  1.0 0.1489245988
H  H765  1  0.93090000  0.14190000  0.33900000  1.0 0.1489245988
H  H766  1  0.84190000  0.68090000  0.28900000  1.0 0.1489245988
H  H767  1  0.39190000  0.55290000  0.71100000  1.0 0.1489245988
H  H768  1  0.80290000  0.59190000  0.66100000  1.0 0.1489245988
H  H769  1  0.21280000  0.47180000  0.08700000  1.0 0.1413898258
H  H770  1  0.37580000  0.96280000  0.24100000  1.0 0.1413898258
H  H771  1  0.72180000  0.13480000  0.75900000  1.0 0.1413898258
H  H772  1  0.38480000  0.12580000  0.91300000  1.0 0.1413898258
H  H773  1  0.03720000  0.27820000  0.41300000  1.0 0.1413898258
H  H774  1  0.87420000  0.78720000  0.25900000  1.0 0.1413898258
H  H775  1  0.52820000  0.61520000  0.74100000  1.0 0.1413898258
H  H776  1  0.86520000  0.62420000  0.58700000  1.0 0.1413898258
H  H777  1  0.17340000  0.41170000  0.07490000  1.0 0.1413898258
H  H778  1  0.34850000  0.92340000  0.26170000  1.0 0.1413898258
H  H779  1  0.66170000  0.08680000  0.73830000  1.0 0.1413898258
H  H780  1  0.33680000  0.09850000  0.92510000  1.0 0.1413898258
H  H781  1  0.07660000  0.33830000  0.42510000  1.0 0.1413898258
H  H782  1  0.90150000  0.82660000  0.23830000  1.0 0.1413898258
H  H783  1  0.58830000  0.66320000  0.76170000  1.0 0.1413898258
H  H784  1  0.91320000  0.65150000  0.57490000  1.0 0.1413898258
H  H785  1  0.23370000  0.46080000  0.07250000  1.0 0.1573784319
H  H786  1  0.41120000  0.98370000  0.27290000  1.0 0.1573784319
H  H787  1  0.71080000  0.13830000  0.72710000  1.0 0.1489245988
H  H788  1  0.38830000  0.16120000  0.92750000  1.0 0.1489245988
H  H789  1  0.01630000  0.28920000  0.42750000  1.0 0.1489245988
H  H790  1  0.83880000  0.76630000  0.22710000  1.0 0.1489245988
H  H791  1  0.53920000  0.61170000  0.77290000  1.0 0.1489245988
H  H792  1  0.86170000  0.58880000  0.57250000  1.0 0.1489245988
H  H793  1  0.14030000  0.42940000  0.95110000  1.0 0.1413898258
H  H794  1  0.43920000  0.89030000  0.21090000  1.0 0.1413898258
H  H795  1  0.67940000  0.22830000  0.78910000  1.0 0.1413898258
H  H796  1  0.47830000  0.18920000  0.04890000  1.0 0.1413898258
H  H797  1  0.10970000  0.32060000  0.54890000  1.0 0.1413898258
H  H798  1  0.81080000  0.85970000  0.28910000  1.0 0.1413898258
H  H799  1  0.57060000  0.52170000  0.71090000  1.0 0.1413898258
H  H800  1  0.77170000  0.56080000  0.45110000  1.0 0.1413898258
H  H801  1  0.16690000  0.42060000  0.95070000  1.0 0.1413898258
H  H802  1  0.46620000  0.91690000  0.24630000  1.0 0.1413898258
H  H803  1  0.67060000  0.21990000  0.75370000  1.0 0.1413898258
H  H804  1  0.46990000  0.21620000  0.04930000  1.0 0.1413898258
H  H805  1  0.08310000  0.32940000  0.54930000  1.0 0.1413898258
H  H806  1  0.78380000  0.83310000  0.25370000  1.0 0.1413898258
H  H807  1  0.57940000  0.53010000  0.74630000  1.0 0.1413898258
H  H808  1  0.78010000  0.53380000  0.45070000  1.0 0.1413898258
H  H809  1  0.10570000  0.37230000  0.95120000  1.0 0.1413898258
H  H810  1  0.40450000  0.85570000  0.23340000  1.0 0.1413898258
H  H811  1  0.62230000  0.17110000  0.76660000  1.0 0.1413898258
H  H812  1  0.42110000  0.15450000  0.04880000  1.0 0.1413898258
H  H813  1  0.14430000  0.37770000  0.54880000  1.0 0.1413898258
H  H814  1  0.84550000  0.89430000  0.26660000  1.0 0.1413898258
H  H815  1  0.62770000  0.57890000  0.73340000  1.0 0.1413898258
H  H816  1  0.82890000  0.59550000  0.45120000  1.0 0.1413898258
H  H817  1  0.15130000  0.50930000  0.93500000  1.0 0.1330842872
H  H818  1  0.46630000  0.90130000  0.14200000  1.0 0.1330842872
H  H819  1  0.75930000  0.32430000  0.85800000  1.0 0.1330842872
H  H820  1  0.57430000  0.21630000  0.06500000  1.0 0.1330842872
H  H821  1  0.09870000  0.24070000  0.56500000  1.0 0.1330842872
H  H822  1  0.78370000  0.84870000  0.35800000  1.0 0.1330842872
H  H823  1  0.49070000  0.42570000  0.64200000  1.0 0.1330842872
H  H824  1  0.67570000  0.53370000  0.43500000  1.0 0.1330842872
H  H825  1  0.14380000  0.53310000  0.92050000  1.0 0.1489245988
H  H826  1  0.47330000  0.89380000  0.11070000  1.0 0.1489245988
H  H827  1  0.78310000  0.36260000  0.88930000  1.0 0.1489245988
H  H828  1  0.61260000  0.22330000  0.07950000  1.0 0.1489245988
H  H829  1  0.10620000  0.21690000  0.57950000  1.0 0.1489245988
H  H830  1  0.77670000  0.85620000  0.38930000  1.0 0.1489245988
H  H831  1  0.46690000  0.38740000  0.61070000  1.0 0.1489245988
H  H832  1  0.63740000  0.52670000  0.42050000  1.0 0.1489245988
H  H833  1  0.19210000  0.55310000  0.91740000  1.0 0.1573784319
H  H834  1  0.52470000  0.94210000  0.13900000  1.0 0.1573784319
H  H835  1  0.80310000  0.38570000  0.86100000  1.0 0.1573784319
H  H836  1  0.63570000  0.27470000  0.08260000  1.0 0.1573784319
H  H837  1  0.05790000  0.19690000  0.58260000  1.0 0.1573784319
H  H838  1  0.72530000  0.80790000  0.36100000  1.0 0.1573784319
H  H839  1  0.44690000  0.36430000  0.63900000  1.0 0.1573784319
H  H840  1  0.61430000  0.47530000  0.41740000  1.0 0.1573784319
H  H841  1  0.31300000  0.72320000  0.03420000  1.0 0.1413898258
H  H842  1  0.52880000  0.06300000  0.08980000  1.0 0.1413898258
H  H843  1  0.97320000  0.43900000  0.91020000  1.0 0.1413898258
H  H844  1  0.68900000  0.27880000  0.96580000  1.0 0.1413898258
H  H845  1  0.93700000  0.02680000  0.46580000  1.0 0.1413898258
H  H846  1  0.72120000  0.68700000  0.41020000  1.0 0.1413898258
H  H847  1  0.27680000  0.31100000  0.58980000  1.0 0.1413898258
H  H848  1  0.56100000  0.47120000  0.53420000  1.0 0.1413898258
H  H849  1  0.33790000  0.74580000  0.00670000  1.0 0.1413898258
H  H850  1  0.58120000  0.08790000  0.09210000  1.0 0.1413898258
H  H851  1  0.99580000  0.48910000  0.90790000  1.0 0.1413898258
H  H852  1  0.73910000  0.33120000  0.99330000  1.0 0.1413898258
H  H853  1  0.91210000  0.00420000  0.49330000  1.0 0.1413898258
H  H854  1  0.66880000  0.66210000  0.40790000  1.0 0.1413898258
H  H855  1  0.25420000  0.26090000  0.59210000  1.0 0.1413898258
H  H856  1  0.51090000  0.41880000  0.50670000  1.0 0.1413898258
H  H857  1  0.29000000  0.72630000  0.00990000  1.0 0.1489245988
H  H858  1  0.53010000  0.04000000  0.06370000  1.0 0.1489245988
H  H859  1  0.97630000  0.46640000  0.93630000  1.0 0.1489245988
H  H860  1  0.71640000  0.28010000  0.99010000  1.0 0.1489245988
H  H861  1  0.96000000  0.02370000  0.49010000  1.0 0.1489245988
H  H862  1  0.71990000  0.71000000  0.43630000  1.0 0.1489245988
H  H863  1  0.27370000  0.28360000  0.56370000  1.0 0.1489245988
H  H864  1  0.53360000  0.46990000  0.50990000  1.0 0.1489245988
H  H865  1  0.89310000  0.72510000  0.54440000  1.0 0.1489245988
H  H866  1  0.59870000  0.64310000  0.66800000  1.0 0.1489245988
H  H867  1  0.97510000  0.93070000  0.33200000  1.0 0.1489245988
H  H868  1  0.18070000  0.34870000  0.45560000  1.0 0.1489245988
H  H869  1  0.35690000  0.02490000  0.95560000  1.0 0.1489245988
H  H870  1  0.65130000  0.10690000  0.83200000  1.0 0.1489245988
H  H871  1  0.27490000  0.81930000  0.16800000  1.0 0.1489245988
H  H872  1  0.06930000  0.40130000  0.04440000  1.0 0.1489245988
H  H873  1  0.91520000  0.76480000  0.52520000  1.0 0.1573784319
H  H874  1  0.64000000  0.66520000  0.65040000  1.0 0.1573784319
H  H875  1  0.01480000  0.98960000  0.34960000  1.0 0.1573784319
H  H876  1  0.23960000  0.39000000  0.47480000  1.0 0.1573784319
H  H877  1  0.33480000  0.98520000  0.97480000  1.0 0.1573784319
H  H878  1  0.61000000  0.08480000  0.84960000  1.0 0.1573784319
H  H879  1  0.23520000  0.76040000  0.15040000  1.0 0.1573784319
H  H880  1  0.01040000  0.36000000  0.02520000  1.0 0.1573784319
H  H881  1  0.88170000  0.70860000  0.50910000  1.0 0.1489245988
H  H882  1  0.62260000  0.63170000  0.67310000  1.0 0.1489245988
H  H883  1  0.95860000  0.94950000  0.32690000  1.0 0.1489245988
H  H884  1  0.19950000  0.37260000  0.49090000  1.0 0.1489245988
H  H885  1  0.36830000  0.04140000  0.99090000  1.0 0.1489245988
H  H886  1  0.62740000  0.11830000  0.82690000  1.0 0.1489245988
H  H887  1  0.29140000  0.80050000  0.17310000  1.0 0.1489245988
H  H888  1  0.05050000  0.37740000  0.00910000  1.0 0.1489245988
H  H889  1  0.68790000  0.62770000  0.49860000  1.0 0.1413898258
H  H890  1  0.43930000  0.43790000  0.56020000  1.0 0.1413898258
H  H891  1  0.87770000  0.87910000  0.43980000  1.0 0.1413898258
H  H892  1  0.12910000  0.18930000  0.50140000  1.0 0.1413898258
H  H893  1  0.56210000  0.12230000  0.00140000  1.0 0.1413898258
H  H894  1  0.81070000  0.31210000  0.93980000  1.0 0.1413898258
H  H895  1  0.37230000  0.87090000  0.06020000  1.0 0.1413898258
H  H896  1  0.12090000  0.56070000  0.99860000  1.0 0.1413898258
H  H897  1  0.69460000  0.61960000  0.46740000  1.0 0.1489245988
H  H898  1  0.47720000  0.44460000  0.57500000  1.0 0.1489245988
H  H899  1  0.86960000  0.90220000  0.42500000  1.0 0.1489245988
H  H900  1  0.15220000  0.22720000  0.53260000  1.0 0.1489245988
H  H901  1  0.55540000  0.13040000  0.03260000  1.0 0.1489245988
H  H902  1  0.77280000  0.30540000  0.92500000  1.0 0.1489245988
H  H903  1  0.38040000  0.84780000  0.07500000  1.0 0.1489245988
H  H904  1  0.09780000  0.52280000  0.96740000  1.0 0.1489245988
H  H905  1  0.72780000  0.67570000  0.48330000  1.0 0.1413898258
H  H906  1  0.49450000  0.47780000  0.55210000  1.0 0.1413898258
H  H907  1  0.92570000  0.94240000  0.44790000  1.0 0.1413898258
H  H908  1  0.19240000  0.24450000  0.51670000  1.0 0.1413898258
H  H909  1  0.52220000  0.07430000  0.01670000  1.0 0.1413898258
H  H910  1  0.75550000  0.27220000  0.94790000  1.0 0.1413898258
H  H911  1  0.32430000  0.80760000  0.05210000  1.0 0.1413898258
H  H912  1  0.05760000  0.50550000  0.98330000  1.0 0.1413898258
H  H913  1  0.84860000  0.80620000  0.47000000  1.0 0.1413898258
H  H914  1  0.62860000  0.59860000  0.54240000  1.0 0.1413898258
H  H915  1  0.05620000  0.08620000  0.45760000  1.0 0.1413898258
H  H916  1  0.33620000  0.37860000  0.53000000  1.0 0.1413898258
H  H917  1  0.40140000  0.94380000  0.03000000  1.0 0.1413898258
H  H918  1  0.62140000  0.15140000  0.95760000  1.0 0.1413898258
H  H919  1  0.19380000  0.66380000  0.04240000  1.0 0.1413898258
H  H920  1  0.91380000  0.37140000  0.97000000  1.0 0.1413898258
H  H921  1  0.86370000  0.80260000  0.49990000  1.0 0.1573784319
H  H922  1  0.61380000  0.61370000  0.56110000  1.0 0.1573784319
H  H923  1  0.05260000  0.05270000  0.43890000  1.0 0.1573784319
H  H924  1  0.30270000  0.36380000  0.50010000  1.0 0.1573784319
H  H925  1  0.38630000  0.94740000  0.00010000  1.0 0.1573784319
H  H926  1  0.63620000  0.13630000  0.93890000  1.0 0.1573784319
H  H927  1  0.19740000  0.69730000  0.06110000  1.0 0.1573784319
H  H928  1  0.94730000  0.38620000  0.99990000  1.0 0.1573784319
H  H929  1  0.80210000  0.75570000  0.48260000  1.0 0.1413898258
H  H930  1  0.56950000  0.55210000  0.54640000  1.0 0.1413898258
H  H931  1  0.00570000  0.02310000  0.45360000  1.0 0.1413898258
H  H932  1  0.27310000  0.31950000  0.51740000  1.0 0.1413898258
H  H933  1  0.44790000  0.99430000  0.01740000  1.0 0.1413898258
H  H934  1  0.68050000  0.19790000  0.95360000  1.0 0.1413898258
H  H935  1  0.24430000  0.72690000  0.04640000  1.0 0.1413898258
H  H936  1  0.97690000  0.43050000  0.98260000  1.0 0.1413898258
H  H937  1  0.83380000  0.66510000  0.42150000  1.0 0.1413898258
H  H938  1  0.66230000  0.58380000  0.66870000  1.0 0.1413898258
H  H939  1  0.91510000  0.99360000  0.33130000  1.0 0.1413898258
H  H940  1  0.24360000  0.41230000  0.57850000  1.0 0.1413898258
H  H941  1  0.41620000  0.08490000  0.07850000  1.0 0.1413898258
H  H942  1  0.58770000  0.16620000  0.83130000  1.0 0.1413898258
H  H943  1  0.33490000  0.75640000  0.16870000  1.0 0.1413898258
H  H944  1  0.00640000  0.33770000  0.92150000  1.0 0.1413898258
H  H945  1  0.78700000  0.62710000  0.43770000  1.0 0.1413898258
H  H946  1  0.59930000  0.53700000  0.65990000  1.0 0.1413898258
H  H947  1  0.87710000  0.93940000  0.34010000  1.0 0.1413898258
H  H948  1  0.18940000  0.34930000  0.56230000  1.0 0.1413898258
H  H949  1  0.46300000  0.12290000  0.06230000  1.0 0.1413898258
H  H950  1  0.65070000  0.21300000  0.84010000  1.0 0.1413898258
H  H951  1  0.37290000  0.81060000  0.15990000  1.0 0.1413898258
H  H952  1  0.06060000  0.40070000  0.93770000  1.0 0.1413898258
H  H953  1  0.84790000  0.67430000  0.45660000  1.0 0.1489245988
H  H954  1  0.64130000  0.59790000  0.67360000  1.0 0.1489245988
H  H955  1  0.92430000  0.96770000  0.32640000  1.0 0.1489245988
H  H956  1  0.21770000  0.39130000  0.54340000  1.0 0.1489245988
H  H957  1  0.40210000  0.07570000  0.04340000  1.0 0.1489245988
H  H958  1  0.60870000  0.15210000  0.82640000  1.0 0.1489245988
H  H959  1  0.32570000  0.78230000  0.17360000  1.0 0.1489245988
H  H960  1  0.03230000  0.35870000  0.95660000  1.0 0.1489245988
H  H961  1  0.78690000  0.65180000  0.69810000  1.0 0.1413898258
H  H962  1  0.33880000  0.53690000  0.63510000  1.0 0.1413898258
H  H963  1  0.90180000  0.70370000  0.36490000  1.0 0.1413898258
H  H964  1  0.95370000  0.08880000  0.30190000  1.0 0.1413898258
H  H965  1  0.46310000  0.09820000  0.80190000  1.0 0.1413898258
H  H966  1  0.91120000  0.21310000  0.86490000  1.0 0.1413898258
H  H967  1  0.34820000  0.04630000  0.13510000  1.0 0.1413898258
H  H968  1  0.29630000  0.66120000  0.19810000  1.0 0.1413898258
H  H969  1  0.84600000  0.70800000  0.71960000  1.0 0.1573784319
H  H970  1  0.37640000  0.59600000  0.63800000  1.0 0.1573784319
H  H971  1  0.95800000  0.73840000  0.36200000  1.0 0.1573784319
H  H972  1  0.98840000  0.12640000  0.28040000  1.0 0.1573784319
H  H973  1  0.40400000  0.04200000  0.78040000  1.0 0.1573784319
H  H974  1  0.87360000  0.15400000  0.86200000  1.0 0.1573784319
H  H975  1  0.29200000  0.01160000  0.13800000  1.0 0.1573784319
H  H976  1  0.26160000  0.62360000  0.21960000  1.0 0.1573784319
H  H977  1  0.82370000  0.65690000  0.71260000  1.0 0.1489245988
H  H978  1  0.36110000  0.57370000  0.66680000  1.0 0.1489245988
H  H979  1  0.90690000  0.69430000  0.33320000  1.0 0.1489245988
H  H980  1  0.94430000  0.11110000  0.28740000  1.0 0.1489245988
H  H981  1  0.42630000  0.09310000  0.78740000  1.0 0.1489245988
H  H982  1  0.88890000  0.17630000  0.83320000  1.0 0.1489245988
H  H983  1  0.34310000  0.05570000  0.16680000  1.0 0.1489245988
H  H984  1  0.30570000  0.63890000  0.21260000  1.0 0.1489245988
H  H985  1  0.92440000  0.74290000  0.60730000  1.0 0.1413898258
H  H986  1  0.56710000  0.67440000  0.68150000  1.0 0.1413898258
H  H987  1  0.99290000  0.88560000  0.31850000  1.0 0.1413898258
H  H988  1  0.13560000  0.31710000  0.39270000  1.0 0.1413898258
H  H989  1  0.32560000  0.00710000  0.89270000  1.0 0.1413898258
H  H990  1  0.68290000  0.07560000  0.81850000  1.0 0.1413898258
H  H991  1  0.25710000  0.86440000  0.18150000  1.0 0.1413898258
H  H992  1  0.11440000  0.43290000  0.10730000  1.0 0.1413898258
H  H993  1  0.94520000  0.73640000  0.63020000  1.0 0.1489245988
H  H994  1  0.56500000  0.69520000  0.70880000  1.0 0.1489245988
H  H995  1  0.98640000  0.85620000  0.29120000  1.0 0.1489245988
H  H996  1  0.10620000  0.31500000  0.36980000  1.0 0.1489245988
H  H997  1  0.30480000  0.01360000  0.86980000  1.0 0.1489245988
H  H998  1  0.68500000  0.05480000  0.79120000  1.0 0.1489245988
H  H999  1  0.26360000  0.89380000  0.20880000  1.0 0.1489245988
H  H1000  1  0.14380000  0.43500000  0.13020000  1.0 0.1489245988
H  H1001  1  0.97050000  0.78930000  0.63760000  1.0 0.1413898258
H  H1002  1  0.58290000  0.72050000  0.68120000  1.0 0.1413898258
H  H1003  1  0.03930000  0.90170000  0.31880000  1.0 0.1413898258
H  H1004  1  0.15170000  0.33290000  0.36240000  1.0 0.1413898258
H  H1005  1  0.27950000  0.96070000  0.86240000  1.0 0.1413898258
H  H1006  1  0.66710000  0.02950000  0.81880000  1.0 0.1413898258
H  H1007  1  0.21070000  0.84830000  0.18120000  1.0 0.1413898258
H  H1008  1  0.09830000  0.41710000  0.13760000  1.0 0.1413898258
H  H1009  1  0.33260000  0.26840000  0.45820000  1.0 0.1413898258
H  H1010  1  0.12440000  0.08260000  0.56420000  1.0 0.1413898258
H  H1011  1  0.51840000  0.56020000  0.43580000  1.0 0.1413898258
H  H1012  1  0.81020000  0.87440000  0.54180000  1.0 0.1413898258
H  H1013  1  0.91740000  0.48160000  0.04180000  1.0 0.1413898258
H  H1014  1  0.12560000  0.66740000  0.93580000  1.0 0.1413898258
H  H1015  1  0.73160000  0.18980000  0.06420000  1.0 0.1413898258
H  H1016  1  0.43980000  0.87560000  0.95820000  1.0 0.1413898258
H  H1017  1  0.32800000  0.23340000  0.46920000  1.0 0.1413898258
H  H1018  1  0.10880000  0.07800000  0.59460000  1.0 0.1413898258
H  H1019  1  0.48340000  0.51420000  0.40540000  1.0 0.1413898258
H  H1020  1  0.76420000  0.85880000  0.53080000  1.0 0.1413898258
H  H1021  1  0.92200000  0.51660000  0.03080000  1.0 0.1413898258
H  H1022  1  0.14120000  0.67200000  0.90540000  1.0 0.1413898258
H  H1023  1  0.76660000  0.23580000  0.09460000  1.0 0.1413898258
H  H1024  1  0.48580000  0.89120000  0.96920000  1.0 0.1413898258
H  H1025  1  0.29370000  0.23060000  0.47850000  1.0 0.1489245988
H  H1026  1  0.06520000  0.04370000  0.56310000  1.0 0.1489245988
H  H1027  1  0.48060000  0.50210000  0.43690000  1.0 0.1489245988
H  H1028  1  0.75210000  0.81520000  0.52150000  1.0 0.1413898258
H  H1029  1  0.95630000  0.51940000  0.02150000  1.0 0.1489245988
H  H1030  1  0.18480000  0.70630000  0.93690000  1.0 0.1489245988
H  H1031  1  0.76940000  0.24790000  0.06310000  1.0 0.1489245988
H  H1032  1  0.49790000  0.93480000  0.97850000  1.0 0.1489245988
H  H1033  1  0.12510000  0.04440000  0.36370000  1.0 0.1413898258
H  H1034  1  0.01140000  0.87510000  0.58070000  1.0 0.1413898258
H  H1035  1  0.29440000  0.43070000  0.41930000  1.0 0.1413898258
H  H1036  1  0.68070000  0.76140000  0.63630000  1.0 0.1413898258
H  H1037  1  0.12490000  0.70560000  0.13630000  1.0 0.1413898258
H  H1038  1  0.23860000  0.87490000  0.91930000  1.0 0.1413898258
H  H1039  1  0.95560000  0.31930000  0.08070000  1.0 0.1413898258
H  H1040  1  0.56930000  0.98860000  0.86370000  1.0 0.1413898258
H  H1041  1  0.10880000  0.02990000  0.39430000  1.0 0.1573784319
H  H1042  1  0.96450000  0.85880000  0.57890000  1.0 0.1573784319
H  H1043  1  0.27990000  0.38560000  0.42110000  1.0 0.1573784319
H  H1044  1  0.63560000  0.71450000  0.60570000  1.0 0.1573784319
H  H1045  1  0.14120000  0.72010000  0.10570000  1.0 0.1573784319
H  H1046  1  0.28550000  0.89120000  0.92110000  1.0 0.1573784319
H  H1047  1  0.97010000  0.36440000  0.07890000  1.0 0.1573784319
H  H1048  1  0.61440000  0.03550000  0.89430000  1.0 0.1573784319
H  H1049  1  0.14270000  0.03270000  0.38380000  1.0 0.1489245988
H  H1050  1  0.00890000  0.89270000  0.61000000  1.0 0.1489245988
H  H1051  1  0.28270000  0.39890000  0.39000000  1.0 0.1489245988
H  H1052  1  0.64890000  0.75890000  0.61620000  1.0 0.1489245988
H  H1053  1  0.10730000  0.71730000  0.11620000  1.0 0.1489245988
H  H1054  1  0.24110000  0.85730000  0.89000000  1.0 0.1489245988
H  H1055  1  0.96730000  0.35110000  0.11000000  1.0 0.1489245988
H  H1056  1  0.60110000  0.99110000  0.88380000  1.0 0.1489245988
H  H1057  1  0.08130000  0.03030000  0.30180000  1.0 0.1413898258
H  H1058  1  0.02950000  0.83130000  0.55100000  1.0 0.1413898258
H  H1059  1  0.28030000  0.47850000  0.44900000  1.0 0.1413898258
H  H1060  1  0.72850000  0.77950000  0.69820000  1.0 0.1413898258
H  H1061  1  0.16870000  0.71970000  0.19820000  1.0 0.1413898258
H  H1062  1  0.22050000  0.91870000  0.94900000  1.0 0.1413898258
H  H1063  1  0.96970000  0.27150000  0.05100000  1.0 0.1413898258
H  H1064  1  0.52150000  0.97050000  0.80180000  1.0 0.1413898258
H  H1065  1  0.05980000  0.01140000  0.26620000  1.0 0.1489245988
H  H1066  1  0.04360000  0.80980000  0.54840000  1.0 0.1489245988
H  H1067  1  0.26140000  0.49520000  0.45160000  1.0 0.1489245988
H  H1068  1  0.74520000  0.79360000  0.73380000  1.0 0.1489245988
H  H1069  1  0.19020000  0.73860000  0.23380000  1.0 0.1489245988
H  H1070  1  0.20640000  0.94020000  0.95160000  1.0 0.1489245988
H  H1071  1  0.98860000  0.25480000  0.04840000  1.0 0.1489245988
H  H1072  1  0.50480000  0.95640000  0.76620000  1.0 0.1489245988
H  H1073  1  0.02850000  0.00320000  0.28650000  1.0 0.1489245988
H  H1074  1  0.99200000  0.77850000  0.52530000  1.0 0.1489245988
H  H1075  1  0.25320000  0.46670000  0.47470000  1.0 0.1489245988
H  H1076  1  0.71670000  0.74200000  0.71350000  1.0 0.1489245988
H  H1077  1  0.22150000  0.74680000  0.21350000  1.0 0.1489245988
H  H1078  1  0.25800000  0.97150000  0.97470000  1.0 0.1489245988
H  H1079  1  0.99680000  0.28330000  0.02530000  1.0 0.1489245988
H  H1080  1  0.53330000  0.00800000  0.78650000  1.0 0.1489245988
H  H1081  1  0.17910000  0.22640000  0.27850000  1.0 0.1330842872
H  H1082  1  0.15060000  0.92910000  0.45270000  1.0 0.1330842872
H  H1083  1  0.47640000  0.69790000  0.54730000  1.0 0.1330842872
H  H1084  1  0.94790000  0.90060000  0.72150000  1.0 0.1330842872
H  H1085  1  0.07090000  0.52360000  0.22150000  1.0 0.1330842872
H  H1086  1  0.09940000  0.82090000  0.04730000  1.0 0.1330842872
H  H1087  1  0.77360000  0.05210000  0.95270000  1.0 0.1330842872
H  H1088  1  0.30210000  0.84940000  0.77850000  1.0 0.1330842872
H  H1089  1  0.11620000  0.17950000  0.26630000  1.0 0.1489245988
H  H1090  1  0.09990000  0.86620000  0.43670000  1.0 0.1489245988
H  H1091  1  0.42950000  0.66320000  0.56330000  1.0 0.1489245988
H  H1092  1  0.91320000  0.84990000  0.73370000  1.0 0.1489245988
H  H1093  1  0.13380000  0.57050000  0.23370000  1.0 0.1489245988
H  H1094  1  0.15010000  0.88380000  0.06330000  1.0 0.1489245988
H  H1095  1  0.82050000  0.08680000  0.93670000  1.0 0.1489245988
H  H1096  1  0.33680000  0.90010000  0.76630000  1.0 0.1489245988
H  H1097  1  0.14710000  0.18860000  0.24490000  1.0 0.1413898258
H  H1098  1  0.15220000  0.89710000  0.45850000  1.0 0.1413898258
H  H1099  1  0.43860000  0.69370000  0.54150000  1.0 0.1413898258
H  H1100  1  0.94370000  0.90220000  0.75510000  1.0 0.1413898258
H  H1101  1  0.10290000  0.56140000  0.25510000  1.0 0.1413898258
H  H1102  1  0.09780000  0.85290000  0.04150000  1.0 0.1413898258
H  H1103  1  0.81140000  0.05630000  0.95850000  1.0 0.1413898258
H  H1104  1  0.30630000  0.84780000  0.74490000  1.0 0.1413898258
H  H1105  1  0.19360000  0.02250000  0.43750000  1.0 0.1413898258
H  H1106  1  0.00610000  0.94360000  0.67110000  1.0 0.1413898258
H  H1107  1  0.27250000  0.33500000  0.32890000  1.0 0.1413898258
H  H1108  1  0.58500000  0.75610000  0.56250000  1.0 0.1413898258
H  H1109  1  0.05640000  0.72750000  0.06250000  1.0 0.1413898258
H  H1110  1  0.24390000  0.80640000  0.82890000  1.0 0.1413898258
H  H1111  1  0.97750000  0.41500000  0.17110000  1.0 0.1413898258
H  H1112  1  0.66500000  0.99390000  0.93750000  1.0 0.1413898258
H  H1113  1  0.24170000  0.08030000  0.43160000  1.0 0.1489245988
H  H1114  1  0.06010000  0.99170000  0.66140000  1.0 0.1489245988
H  H1115  1  0.33030000  0.39870000  0.33860000  1.0 0.1489245988
H  H1116  1  0.64870000  0.81010000  0.56840000  1.0 0.1489245988
H  H1117  1  0.00830000  0.66970000  0.06840000  1.0 0.1489245988
H  H1118  1  0.18990000  0.75830000  0.83860000  1.0 0.1489245988
H  H1119  1  0.91970000  0.35130000  0.16140000  1.0 0.1489245988
H  H1120  1  0.60130000  0.93990000  0.93160000  1.0 0.1489245988
H  H1121  1  0.18170000  0.03360000  0.41130000  1.0 0.1489245988
H  H1122  1  0.02040000  0.93170000  0.64810000  1.0 0.1489245988
H  H1123  1  0.28360000  0.37230000  0.35190000  1.0 0.1489245988
H  H1124  1  0.62230000  0.77040000  0.58870000  1.0 0.1489245988
H  H1125  1  0.06830000  0.71640000  0.08870000  1.0 0.1489245988
H  H1126  1  0.22960000  0.81830000  0.85190000  1.0 0.1489245988
H  H1127  1  0.96640000  0.37770000  0.14810000  1.0 0.1489245988
H  H1128  1  0.62770000  0.97960000  0.91130000  1.0 0.1489245988
H  H1129  1  0.18300000  0.12770000  0.51190000  1.0 0.1489245988
H  H1130  1  0.92110000  0.93300000  0.55530000  1.0 0.1489245988
H  H1131  1  0.37770000  0.36580000  0.44470000  1.0 0.1489245988
H  H1132  1  0.61580000  0.67110000  0.48810000  1.0 0.1489245988
H  H1133  1  0.06700000  0.62230000  0.98810000  1.0 0.1489245988
H  H1134  1  0.32890000  0.81700000  0.94470000  1.0 0.1489245988
H  H1135  1  0.87230000  0.38420000  0.05530000  1.0 0.1489245988
H  H1136  1  0.63420000  0.07890000  0.01190000  1.0 0.1489245988
H  H1137  1  0.16700000  0.12500000  0.47900000  1.0 0.1573784319
H  H1138  1  0.93800000  0.91700000  0.54200000  1.0 0.1573784319
H  H1139  1  0.37500000  0.39600000  0.45800000  1.0 0.1573784319
H  H1140  1  0.64600000  0.68800000  0.52100000  1.0 0.1573784319
H  H1141  1  0.08300000  0.62500000  0.02100000  1.0 0.1573784319
H  H1142  1  0.31200000  0.83300000  0.95800000  1.0 0.1573784319
H  H1143  1  0.87500000  0.35400000  0.04200000  1.0 0.1573784319
H  H1144  1  0.60400000  0.06200000  0.97900000  1.0 0.1573784319
H  H1145  1  0.22880000  0.17410000  0.49690000  1.0 0.1413898258
H  H1146  1  0.98190000  0.97880000  0.55470000  1.0 0.1413898258
H  H1147  1  0.42410000  0.42720000  0.44530000  1.0 0.1413898258
H  H1148  1  0.67720000  0.73190000  0.50310000  1.0 0.1413898258
H  H1149  1  0.02120000  0.57590000  0.00310000  1.0 0.1413898258
H  H1150  1  0.26810000  0.77120000  0.94530000  1.0 0.1413898258
H  H1151  1  0.82590000  0.32280000  0.05470000  1.0 0.1413898258
H  H1152  1  0.57280000  0.01810000  0.99690000  1.0 0.1413898258
H  H1153  1  0.06010000  0.66800000  0.85950000  1.0 0.1413898258
H  H1154  1  0.45060000  0.81010000  0.89210000  1.0 0.1413898258
H  H1155  1  0.91800000  0.55850000  0.10790000  1.0 0.1413898258
H  H1156  1  0.80850000  0.20060000  0.14050000  1.0 0.1413898258
H  H1157  1  0.18990000  0.08200000  0.64050000  1.0 0.1413898258
H  H1158  1  0.79940000  0.93990000  0.60790000  1.0 0.1413898258
H  H1159  1  0.33200000  0.19150000  0.39210000  1.0 0.1413898258
H  H1160  1  0.44150000  0.54940000  0.35950000  1.0 0.1413898258
H  H1161  1  0.04440000  0.67530000  0.83270000  1.0 0.1413898258
H  H1162  1  0.46170000  0.79440000  0.86910000  1.0 0.1413898258
H  H1163  1  0.92530000  0.59260000  0.13090000  1.0 0.1413898258
H  H1164  1  0.84260000  0.21170000  0.16730000  1.0 0.1413898258
H  H1165  1  0.20560000  0.07470000  0.66730000  1.0 0.1413898258
H  H1166  1  0.78830000  0.95560000  0.63090000  1.0 0.1413898258
H  H1167  1  0.32470000  0.15740000  0.36910000  1.0 0.1413898258
H  H1168  1  0.40740000  0.53830000  0.33270000  1.0 0.1413898258
H  H1169  1  0.10580000  0.72410000  0.85150000  1.0 0.1413898258
H  H1170  1  0.50430000  0.85580000  0.88170000  1.0 0.1413898258
H  H1171  1  0.97410000  0.62260000  0.11830000  1.0 0.1413898258
H  H1172  1  0.87260000  0.25430000  0.14850000  1.0 0.1413898258
H  H1173  1  0.14420000  0.02590000  0.64850000  1.0 0.1413898258
H  H1174  1  0.74570000  0.89420000  0.61830000  1.0 0.1413898258
H  H1175  1  0.27590000  0.12740000  0.38170000  1.0 0.1413898258
H  H1176  1  0.37740000  0.49570000  0.35150000  1.0 0.1413898258
H  H1177  1  0.04700000  0.77540000  0.93020000  1.0 0.1413898258
H  H1178  1  0.36680000  0.79700000  0.77160000  1.0 0.1413898258
H  H1179  1  0.02540000  0.59520000  0.22840000  1.0 0.1413898258
H  H1180  1  0.84520000  0.11680000  0.06980000  1.0 0.1413898258
H  H1181  1  0.20300000  0.97460000  0.56980000  1.0 0.1413898258
H  H1182  1  0.88320000  0.95300000  0.72840000  1.0 0.1413898258
H  H1183  1  0.22460000  0.15480000  0.27160000  1.0 0.1413898258
H  H1184  1  0.40480000  0.63320000  0.43020000  1.0 0.1413898258
H  H1185  1  0.09350000  0.82100000  0.91530000  1.0 0.1413898258
H  H1186  1  0.42820000  0.84350000  0.77250000  1.0 0.1413898258
H  H1187  1  0.07100000  0.65570000  0.22750000  1.0 0.1413898258
H  H1188  1  0.90570000  0.17820000  0.08470000  1.0 0.1413898258
H  H1189  1  0.15650000  0.92900000  0.58470000  1.0 0.1413898258
H  H1190  1  0.82180000  0.90650000  0.72750000  1.0 0.1413898258
H  H1191  1  0.17900000  0.09430000  0.27250000  1.0 0.1413898258
H  H1192  1  0.34430000  0.57180000  0.41530000  1.0 0.1413898258
H  H1193  1  0.03200000  0.77220000  0.89680000  1.0 0.1573784319
H  H1194  1  0.38520000  0.78200000  0.75980000  1.0 0.1573784319
H  H1195  1  0.02220000  0.62540000  0.24020000  1.0 0.1573784319
H  H1196  1  0.87540000  0.13520000  0.10320000  1.0 0.1573784319
H  H1197  1  0.21800000  0.97780000  0.60320000  1.0 0.1573784319
H  H1198  1  0.86480000  0.96800000  0.74020000  1.0 0.1573784319
H  H1199  1  0.22780000  0.12460000  0.25980000  1.0 0.1573784319
H  H1200  1  0.37460000  0.61480000  0.39680000  1.0 0.1573784319
H  H1201  1  0.00280000  0.74350000  0.98110000  1.0 0.1330842872
H  H1202  1  0.27170000  0.75280000  0.75930000  1.0 0.1330842872
H  H1203  1  0.99350000  0.51240000  0.24070000  1.0 0.1330842872
H  H1204  1  0.76240000  0.02170000  0.01890000  1.0 0.1330842872
H  H1205  1  0.24720000  0.00650000  0.51890000  1.0 0.1330842872
H  H1206  1  0.97830000  0.99720000  0.74070000  1.0 0.1330842872
H  H1207  1  0.25650000  0.23760000  0.25930000  1.0 0.1330842872
H  H1208  1  0.48760000  0.72830000  0.48110000  1.0 0.1330842872
H  H1209  1  0.94680000  0.71060000  0.98220000  1.0 0.1413898258
H  H1210  1  0.21460000  0.69680000  0.73620000  1.0 0.1413898258
H  H1211  1  0.96060000  0.47840000  0.26380000  1.0 0.1413898258
H  H1212  1  0.72840000  0.96460000  0.01780000  1.0 0.1413898258
H  H1213  1  0.30320000  0.03940000  0.51780000  1.0 0.1413898258
H  H1214  1  0.03540000  0.05320000  0.76380000  1.0 0.1413898258
H  H1215  1  0.28940000  0.27160000  0.23620000  1.0 0.1413898258
H  H1216  1  0.52160000  0.78540000  0.48220000  1.0 0.1413898258
H  H1217  1  0.99470000  0.74990000  0.01220000  1.0 0.1489245988
H  H1218  1  0.23250000  0.74470000  0.74480000  1.0 0.1489245988
H  H1219  1  0.99990000  0.48770000  0.25520000  1.0 0.1489245988
H  H1220  1  0.73770000  0.98250000  0.98780000  1.0 0.1489245988
H  H1221  1  0.25530000  0.00010000  0.48780000  1.0 0.1489245988
H  H1222  1  0.01750000  0.00530000  0.75520000  1.0 0.1489245988
H  H1223  1  0.25010000  0.26230000  0.24480000  1.0 0.1489245988
H  H1224  1  0.51230000  0.76750000  0.51220000  1.0 0.1489245988
H  H1225  1  0.88790000  0.54290000  0.01640000  1.0 0.1330842872
H  H1226  1  0.12150000  0.63790000  0.84500000  1.0 0.1330842872
H  H1227  1  0.79290000  0.27650000  0.15500000  1.0 0.1330842872
H  H1228  1  0.52650000  0.87150000  0.98360000  1.0 0.1330842872
H  H1229  1  0.36210000  0.20710000  0.48360000  1.0 0.1330842872
H  H1230  1  0.12850000  0.11210000  0.65500000  1.0 0.1330842872
H  H1231  1  0.45710000  0.47350000  0.34500000  1.0 0.1330842872
H  H1232  1  0.72350000  0.87850000  0.51640000  1.0 0.1330842872
H  H1233  1  0.89260000  0.56910000  0.04490000  1.0 0.1413898258
H  H1234  1  0.09770000  0.64260000  0.82350000  1.0 0.1413898258
H  H1235  1  0.81910000  0.27420000  0.17650000  1.0 0.1413898258
H  H1236  1  0.52420000  0.84770000  0.95510000  1.0 0.1413898258
H  H1237  1  0.35740000  0.18090000  0.45510000  1.0 0.1413898258
H  H1238  1  0.15230000  0.10740000  0.67650000  1.0 0.1413898258
H  H1239  1  0.43090000  0.47580000  0.32350000  1.0 0.1413898258
H  H1240  1  0.72580000  0.90230000  0.54490000  1.0 0.1413898258
H  H1241  1  0.84320000  0.52950000  0.01570000  1.0 0.1573784319
H  H1242  1  0.07750000  0.59320000  0.81370000  1.0 0.1573784319
H  H1243  1  0.77950000  0.26380000  0.18630000  1.0 0.1573784319
H  H1244  1  0.51380000  0.82750000  0.98430000  1.0 0.1573784319
H  H1245  1  0.40680000  0.22050000  0.48430000  1.0 0.1573784319
H  H1246  1  0.17250000  0.15680000  0.68630000  1.0 0.1573784319
H  H1247  1  0.47050000  0.48620000  0.31370000  1.0 0.1573784319
H  H1248  1  0.73620000  0.92250000  0.51570000  1.0 0.1573784319
H  H1249  1  0.14950000  0.59460000  0.92970000  1.0 0.1413898258
H  H1250  1  0.46980000  0.89950000  0.05490000  1.0 0.1413898258
H  H1251  1  0.84460000  0.41490000  0.94510000  1.0 0.1413898258
H  H1252  1  0.66490000  0.21980000  0.07030000  1.0 0.1413898258
H  H1253  1  0.10050000  0.15540000  0.57030000  1.0 0.1413898258
H  H1254  1  0.78020000  0.85050000  0.44510000  1.0 0.1413898258
H  H1255  1  0.40540000  0.33510000  0.55490000  1.0 0.1413898258
H  H1256  1  0.58510000  0.53020000  0.42970000  1.0 0.1413898258
H  H1257  1  0.15850000  0.63240000  0.91810000  1.0 0.1413898258
H  H1258  1  0.49040000  0.90850000  0.02610000  1.0 0.1413898258
H  H1259  1  0.88240000  0.46430000  0.97390000  1.0 0.1413898258
H  H1260  1  0.71430000  0.24040000  0.08190000  1.0 0.1413898258
H  H1261  1  0.09150000  0.11760000  0.58190000  1.0 0.1413898258
H  H1262  1  0.75960000  0.84150000  0.47390000  1.0 0.1413898258
H  H1263  1  0.36760000  0.28570000  0.52610000  1.0 0.1413898258
H  H1264  1  0.53570000  0.50960000  0.41810000  1.0 0.1413898258
H  H1265  1  0.14300000  0.59160000  0.89500000  1.0 0.1489245988
H  H1266  1  0.49800000  0.89300000  0.05140000  1.0 0.1489245988
H  H1267  1  0.84160000  0.44660000  0.94860000  1.0 0.1489245988
H  H1268  1  0.69660000  0.24800000  0.10500000  1.0 0.1489245988
H  H1269  1  0.10700000  0.15840000  0.60500000  1.0 0.1489245988
H  H1270  1  0.75200000  0.85700000  0.44860000  1.0 0.1489245988
H  H1271  1  0.40840000  0.30340000  0.55140000  1.0 0.1489245988
H  H1272  1  0.55340000  0.50200000  0.39500000  1.0 0.1489245988
H  H1273  1  0.38550000  0.76910000  0.94120000  1.0 0.1413898258
H  H1274  1  0.69430000  0.13550000  0.11640000  1.0 0.1413898258
H  H1275  1  0.01910000  0.57790000  0.88360000  1.0 0.1413898258
H  H1276  1  0.82790000  0.44430000  0.05880000  1.0 0.1413898258
H  H1277  1  0.86450000  0.98090000  0.55880000  1.0 0.1413898258
H  H1278  1  0.55570000  0.61450000  0.38360000  1.0 0.1413898258
H  H1279  1  0.23090000  0.17210000  0.61640000  1.0 0.1413898258
H  H1280  1  0.42210000  0.30570000  0.44120000  1.0 0.1413898258
H  H1281  1  0.36820000  0.75620000  0.97160000  1.0 0.1413898258
H  H1282  1  0.64660000  0.11820000  0.11200000  1.0 0.1413898258
H  H1283  1  0.00620000  0.53460000  0.88800000  1.0 0.1413898258
H  H1284  1  0.78460000  0.39660000  0.02840000  1.0 0.1413898258
H  H1285  1  0.88180000  0.99380000  0.52840000  1.0 0.1413898258
H  H1286  1  0.60340000  0.63180000  0.38800000  1.0 0.1413898258
H  H1287  1  0.24380000  0.21540000  0.61200000  1.0 0.1413898258
H  H1288  1  0.46540000  0.35340000  0.47160000  1.0 0.1413898258
H  H1289  1  0.35120000  0.71470000  0.94770000  1.0 0.1489245988
H  H1290  1  0.65350000  0.10120000  0.13650000  1.0 0.1489245988
H  H1291  1  0.96470000  0.51700000  0.86350000  1.0 0.1489245988
H  H1292  1  0.76700000  0.40350000  0.05230000  1.0 0.1489245988
H  H1293  1  0.89880000  0.03530000  0.55230000  1.0 0.1489245988
H  H1294  1  0.59650000  0.64880000  0.36350000  1.0 0.1489245988
H  H1295  1  0.28530000  0.23300000  0.63650000  1.0 0.1489245988
H  H1296  1  0.48300000  0.34650000  0.44770000  1.0 0.1489245988
H  H1297  1  0.79340000  0.99030000  0.23910000  1.0 0.1413898258
H  H1298  1  0.80430000  0.54340000  0.30310000  1.0 0.1413898258
H  H1299  1  0.24030000  0.50120000  0.69690000  1.0 0.1413898258
H  H1300  1  0.75120000  0.55430000  0.76090000  1.0 0.1413898258
H  H1301  1  0.45660000  0.75970000  0.26090000  1.0 0.1413898258
H  H1302  1  0.44570000  0.20660000  0.19690000  1.0 0.1413898258
H  H1303  1  0.00970000  0.24880000  0.80310000  1.0 0.1413898258
H  H1304  1  0.49880000  0.19570000  0.73910000  1.0 0.1413898258
H  H1305  1  0.81090000  0.97270000  0.23300000  1.0 0.1413898258
H  H1306  1  0.82790000  0.56090000  0.33820000  1.0 0.1413898258
H  H1307  1  0.22270000  0.48970000  0.66180000  1.0 0.1413898258
H  H1308  1  0.73970000  0.57790000  0.76700000  1.0 0.1413898258
H  H1309  1  0.43910000  0.77730000  0.26700000  1.0 0.1413898258
H  H1310  1  0.42210000  0.18910000  0.16180000  1.0 0.1413898258
H  H1311  1  0.02730000  0.26030000  0.83820000  1.0 0.1413898258
H  H1312  1  0.51030000  0.17210000  0.73300000  1.0 0.1413898258
H  H1313  1  0.81840000  0.00300000  0.21200000  1.0 0.1489245988
H  H1314  1  0.85640000  0.56840000  0.31540000  1.0 0.1573784319
H  H1315  1  0.25300000  0.54100000  0.68460000  1.0 0.1489245988
H  H1316  1  0.79100000  0.60640000  0.78800000  1.0 0.1489245988
H  H1317  1  0.43160000  0.74700000  0.28800000  1.0 0.1489245988
H  H1318  1  0.39360000  0.18160000  0.18460000  1.0 0.1573784319
H  H1319  1  0.99700000  0.20900000  0.81540000  1.0 0.1573784319
H  H1320  1  0.45900000  0.14360000  0.71200000  1.0 0.1489245988
H  H1321  1  0.58860000  0.77820000  0.13840000  1.0 0.1413898258
H  H1322  1  0.70020000  0.33860000  0.31040000  1.0 0.1413898258
H  H1323  1  0.02820000  0.38980000  0.68960000  1.0 0.1413898258
H  H1324  1  0.63980000  0.45020000  0.86160000  1.0 0.1413898258
H  H1325  1  0.66140000  0.97180000  0.36160000  1.0 0.1413898258
H  H1326  1  0.54980000  0.41140000  0.18960000  1.0 0.1413898258
H  H1327  1  0.22180000  0.36020000  0.81040000  1.0 0.1413898258
H  H1328  1  0.61020000  0.29980000  0.63840000  1.0 0.1413898258
H  H1329  1  0.63490000  0.81050000  0.12240000  1.0 0.1489245988
H  H1330  1  0.76250000  0.38490000  0.32440000  1.0 0.1489245988
H  H1331  1  0.06050000  0.43810000  0.67560000  1.0 0.1489245988
H  H1332  1  0.68810000  0.51250000  0.87760000  1.0 0.1489245988
H  H1333  1  0.61510000  0.93950000  0.37760000  1.0 0.1489245988
H  H1334  1  0.48750000  0.36510000  0.17560000  1.0 0.1489245988
H  H1335  1  0.18950000  0.31190000  0.82440000  1.0 0.1489245988
H  H1336  1  0.56190000  0.23750000  0.62240000  1.0 0.1489245988
H  H1337  1  0.62090000  0.77600000  0.14290000  1.0 0.1413898258
H  H1338  1  0.72800000  0.37090000  0.34490000  1.0 0.1413898258
H  H1339  1  0.02600000  0.38310000  0.65510000  1.0 0.1413898258
H  H1340  1  0.63310000  0.47800000  0.85710000  1.0 0.1413898258
H  H1341  1  0.62910000  0.97400000  0.35710000  1.0 0.1413898258
H  H1342  1  0.52200000  0.37910000  0.15510000  1.0 0.1413898258
H  H1343  1  0.22400000  0.36690000  0.84490000  1.0 0.1413898258
H  H1344  1  0.61690000  0.27200000  0.64290000  1.0 0.1413898258
H  H1345  1  0.48540000  0.72070000  0.14370000  1.0 0.1330842872
H  H1346  1  0.59170000  0.23540000  0.26470000  1.0 0.1330842872
H  H1347  1  0.97070000  0.32700000  0.73530000  1.0 0.1330842872
H  H1348  1  0.57700000  0.34170000  0.85630000  1.0 0.1330842872
H  H1349  1  0.76460000  0.02930000  0.35630000  1.0 0.1330842872
H  H1350  1  0.65830000  0.51460000  0.23530000  1.0 0.1330842872
H  H1351  1  0.27930000  0.42300000  0.76470000  1.0 0.1330842872
H  H1352  1  0.67300000  0.40830000  0.64370000  1.0 0.1330842872
H  H1353  1  0.42160000  0.67000000  0.13620000  1.0 0.1413898258
H  H1354  1  0.53540000  0.17160000  0.25160000  1.0 0.1413898258
H  H1355  1  0.92000000  0.28380000  0.74840000  1.0 0.1413898258
H  H1356  1  0.53380000  0.28540000  0.86380000  1.0 0.1413898258
H  H1357  1  0.82840000  0.08000000  0.36380000  1.0 0.1413898258
H  H1358  1  0.71460000  0.57840000  0.24840000  1.0 0.1413898258
H  H1359  1  0.33000000  0.46620000  0.75160000  1.0 0.1413898258
H  H1360  1  0.71620000  0.46460000  0.63620000  1.0 0.1413898258
H  H1361  1  0.45360000  0.71210000  0.11690000  1.0 0.1573784319
H  H1362  1  0.58670000  0.20360000  0.24150000  1.0 0.1573784319
H  H1363  1  0.96210000  0.34520000  0.75850000  1.0 0.1573784319
H  H1364  1  0.59520000  0.33670000  0.88310000  1.0 0.1573784319
H  H1365  1  0.79640000  0.03790000  0.38310000  1.0 0.1573784319
H  H1366  1  0.66330000  0.54640000  0.25850000  1.0 0.1573784319
H  H1367  1  0.28790000  0.40480000  0.74150000  1.0 0.1573784319
H  H1368  1  0.65480000  0.41330000  0.61690000  1.0 0.1573784319
H  H1369  1  0.47350000  0.82830000  0.21320000  1.0 0.1413898258
H  H1370  1  0.51030000  0.22350000  0.14520000  1.0 0.1413898258
H  H1371  1  0.07830000  0.36510000  0.85480000  1.0 0.1413898258
H  H1372  1  0.61510000  0.26030000  0.78680000  1.0 0.1413898258
H  H1373  1  0.77650000  0.92170000  0.28680000  1.0 0.1413898258
H  H1374  1  0.73970000  0.52650000  0.35480000  1.0 0.1413898258
H  H1375  1  0.17170000  0.38490000  0.64520000  1.0 0.1413898258
H  H1376  1  0.63490000  0.48970000  0.71320000  1.0 0.1413898258
H  H1377  1  0.43920000  0.80660000  0.18060000  1.0 0.1413898258
H  H1378  1  0.50860000  0.18920000  0.13260000  1.0 0.1413898258
H  H1379  1  0.05660000  0.37600000  0.86740000  1.0 0.1413898258
H  H1380  1  0.62600000  0.25860000  0.81940000  1.0 0.1413898258
H  H1381  1  0.81080000  0.94340000  0.31940000  1.0 0.1413898258
H  H1382  1  0.74140000  0.56080000  0.36740000  1.0 0.1413898258
H  H1383  1  0.19340000  0.37400000  0.63260000  1.0 0.1413898258
H  H1384  1  0.62400000  0.49140000  0.68060000  1.0 0.1413898258
H  H1385  1  0.41110000  0.76760000  0.20170000  1.0 0.1413898258
H  H1386  1  0.45940000  0.16110000  0.14350000  1.0 0.1413898258
H  H1387  1  0.01760000  0.31590000  0.85650000  1.0 0.1413898258
H  H1388  1  0.56590000  0.20940000  0.79830000  1.0 0.1413898258
H  H1389  1  0.83890000  0.98240000  0.29830000  1.0 0.1413898258
H  H1390  1  0.79060000  0.58890000  0.35650000  1.0 0.1413898258
H  H1391  1  0.23240000  0.43410000  0.64350000  1.0 0.1413898258
H  H1392  1  0.68410000  0.54060000  0.70170000  1.0 0.1413898258
H  H1393  1  0.57710000  0.33850000  0.14140000  1.0 0.1413898258
H  H1394  1  0.68570000  0.32710000  0.73860000  1.0 0.1413898258
H  H1395  1  0.58850000  0.94710000  0.26140000  1.0 0.1413898258
H  H1396  1  0.19710000  0.43570000  0.85860000  1.0 0.1413898258
H  H1397  1  0.67290000  0.41150000  0.35860000  1.0 0.1413898258
H  H1398  1  0.56430000  0.42290000  0.76140000  1.0 0.1413898258
H  H1399  1  0.66150000  0.80290000  0.23860000  1.0 0.1413898258
H  H1400  1  0.05290000  0.31430000  0.64140000  1.0 0.1413898258
H  H1401  1  0.58290000  0.37500000  0.13190000  1.0 0.1413898258
H  H1402  1  0.70100000  0.33290000  0.70790000  1.0 0.1413898258
H  H1403  1  0.62500000  0.99310000  0.29210000  1.0 0.1413898258
H  H1404  1  0.24310000  0.45100000  0.86810000  1.0 0.1413898258
H  H1405  1  0.66710000  0.37500000  0.36810000  1.0 0.1413898258
H  H1406  1  0.54900000  0.41710000  0.79210000  1.0 0.1413898258
H  H1407  1  0.62500000  0.75690000  0.20790000  1.0 0.1413898258
H  H1408  1  0.00690000  0.29900000  0.63190000  1.0 0.1413898258
H  H1409  1  0.61970000  0.38050000  0.12360000  1.0 0.1573784319
H  H1410  1  0.74610000  0.36970000  0.73920000  1.0 0.1573784319
H  H1411  1  0.63050000  0.00690000  0.26080000  1.0 0.1573784319
H  H1412  1  0.25690000  0.49610000  0.87640000  1.0 0.1573784319
H  H1413  1  0.63030000  0.36950000  0.37640000  1.0 0.1573784319
H  H1414  1  0.50390000  0.38030000  0.76080000  1.0 0.1573784319
H  H1415  1  0.61950000  0.74310000  0.23920000  1.0 0.1573784319
H  H1416  1  0.99310000  0.25390000  0.62360000  1.0 0.1573784319
H  H1417  1  0.76960000  0.54570000  0.24770000  1.0 0.1413898258
H  H1418  1  0.77190000  0.51960000  0.72390000  1.0 0.1413898258
H  H1419  1  0.79570000  0.04800000  0.27610000  1.0 0.1413898258
H  H1420  1  0.29800000  0.52190000  0.75230000  1.0 0.1413898258
H  H1421  1  0.48040000  0.20430000  0.25230000  1.0 0.1413898258
H  H1422  1  0.47810000  0.23040000  0.77610000  1.0 0.1413898258
H  H1423  1  0.45430000  0.70200000  0.22390000  1.0 0.1413898258
H  H1424  1  0.95200000  0.22810000  0.74770000  1.0 0.1413898258
H  H1425  1  0.79450000  0.56830000  0.22020000  1.0 0.1489245988
H  H1426  1  0.82430000  0.54450000  0.72620000  1.0 0.1489245988
H  H1427  1  0.81830000  0.09810000  0.27380000  1.0 0.1489245988
H  H1428  1  0.34810000  0.57430000  0.77980000  1.0 0.1489245988
H  H1429  1  0.45550000  0.18170000  0.27980000  1.0 0.1489245988
H  H1430  1  0.42570000  0.20550000  0.77380000  1.0 0.1489245988
H  H1431  1  0.43170000  0.65190000  0.22620000  1.0 0.1489245988
H  H1432  1  0.90190000  0.17570000  0.72020000  1.0 0.1489245988
H  H1433  1  0.75850000  0.56370000  0.22860000  1.0 0.1489245988
H  H1434  1  0.77990000  0.50850000  0.69480000  1.0 0.1489245988
H  H1435  1  0.81370000  0.08510000  0.30520000  1.0 0.1489245988
H  H1436  1  0.33510000  0.52990000  0.77140000  1.0 0.1489245988
H  H1437  1  0.49150000  0.18630000  0.27140000  1.0 0.1489245988
H  H1438  1  0.47010000  0.24150000  0.80520000  1.0 0.1489245988
H  H1439  1  0.43630000  0.66490000  0.19480000  1.0 0.1489245988
H  H1440  1  0.91490000  0.22010000  0.72860000  1.0 0.1489245988
C  C1  1  0.18770000  0.02810000  0.76360000  1.0 -0.4703976866
C  C2  1  0.67410000  0.93770000  0.65960000  1.0 -0.4703976866
C  C3  1  0.27810000  0.01450000  0.34040000  1.0 -0.4703976866
C  C4  1  0.26450000  0.42410000  0.23640000  1.0 -0.4703976866
C  C5  1  0.06230000  0.72190000  0.73640000  1.0 -0.4703976866
C  C6  1  0.57590000  0.81230000  0.84040000  1.0 -0.4703976866
C  C7  1  0.97190000  0.73550000  0.15960000  1.0 -0.4703976866
C  C8  1  0.98550000  0.32590000  0.26360000  1.0 -0.4703976866
C  C9  1  0.20190000  0.02080000  0.78950000  1.0 0.1714043933
C  C10  1  0.66240000  0.95190000  0.68110000  1.0 0.1714043933
C  C11  1  0.27080000  0.98130000  0.31890000  1.0 0.1714043933
C  C12  1  0.23130000  0.41240000  0.21050000  1.0 0.1714043933
C  C13  1  0.04810000  0.72920000  0.71050000  1.0 0.1714043933
C  C14  1  0.58760000  0.79810000  0.81890000  1.0 0.1714043933
C  C15  1  0.97920000  0.76870000  0.18110000  1.0 0.1714043933
C  C16  1  0.01870000  0.33760000  0.28950000  1.0 0.1714043933
C  C17  1  0.23757000  0.05380000  0.81817000  1.0 -0.1093917011
C  C18  1  0.66940000  0.98757000  0.68377000  1.0 -0.1093917011
C  C19  1  0.30380000  0.98563000  0.31623000  1.0 -0.1093917011
C  C20  1  0.23563000  0.41940000  0.18183000  1.0 -0.1093917011
C  C21  1  0.01243000  0.69620000  0.68183000  1.0 -0.1093917011
C  C22  1  0.58060000  0.76243000  0.81623000  1.0 -0.1093917011
C  C23  1  0.94620000  0.76437000  0.18377000  1.0 -0.1093917011
C  C24  1  0.01437000  0.33060000  0.31817000  1.0 -0.1093917011
C  C25  1  0.23510000  0.02719000  0.83149000  1.0 0.1818547681
C  C26  1  0.65361000  0.98510000  0.70791000  1.0 0.1818547681
C  C27  1  0.27719000  0.94570000  0.29209000  1.0 0.1818547681
C  C28  1  0.19570000  0.40361000  0.16851000  1.0 0.1818547681
C  C29  1  0.01490000  0.72281000  0.66851000  1.0 0.1818547681
C  C30  1  0.59639000  0.76490000  0.79209000  1.0 0.1818547681
C  C31  1  0.97281000  0.80430000  0.20791000  1.0 0.1818547681
C  C32  1  0.05430000  0.34639000  0.33149000  1.0 0.1818547681
C  C33  1  0.26440000  0.04330000  0.86270000  1.0 -0.4887091108
C  C34  1  0.65170000  0.01440000  0.72110000  1.0 -0.4887091108
C  C35  1  0.29330000  0.93060000  0.27890000  1.0 -0.4887091108
C  C36  1  0.18060000  0.40170000  0.13730000  1.0 -0.4887091108
C  C37  1  0.98560000  0.70670000  0.63730000  1.0 -0.4887091108
C  C38  1  0.59830000  0.73560000  0.77890000  1.0 -0.4887091108
C  C39  1  0.95670000  0.81940000  0.22110000  1.0 -0.4887091108
C  C40  1  0.06940000  0.34830000  0.36270000  1.0 -0.4887091108
C  C41  1  0.17210000  0.87710000  0.88060000  1.0 -0.4968911569
C  C42  1  0.54150000  0.92210000  0.79500000  1.0 -0.4968911569
C  C43  1  0.12710000  0.74650000  0.20500000  1.0 -0.4968911569
C  C44  1  0.99650000  0.29150000  0.11940000  1.0 -0.4968911569
C  C45  1  0.07790000  0.87290000  0.61940000  1.0 -0.4968911569
C  C46  1  0.70850000  0.82790000  0.70500000  1.0 -0.4968911569
C  C47  1  0.12290000  0.00350000  0.29500000  1.0 -0.4968911569
C  C48  1  0.25350000  0.45850000  0.38060000  1.0 -0.4968911569
C  C49  1  0.12610000  0.83160000  0.85290000  1.0 0.1818547681
C  C50  1  0.52320000  0.87610000  0.79450000  1.0 0.1818547681
C  C51  1  0.08160000  0.72870000  0.20550000  1.0 0.1818547681
C  C52  1  0.97870000  0.27320000  0.14710000  1.0 0.1818547681
C  C53  1  0.12390000  0.91840000  0.64710000  1.0 0.1818547681
C  C54  1  0.72680000  0.87390000  0.70550000  1.0 0.1818547681
C  C55  1  0.16840000  0.02130000  0.29450000  1.0 0.1818547681
C  C56  1  0.27130000  0.47680000  0.35290000  1.0 0.1818547681
C  C57  1  0.08160000  0.77450000  0.84950000  1.0 -0.1093917011
C  C58  1  0.48210000  0.83160000  0.80710000  1.0 -0.1093917011
C  C59  1  0.02450000  0.67500000  0.19290000  1.0 -0.1093917011
C  C60  1  0.92500000  0.23210000  0.15050000  1.0 -0.1093917011
C  C61  1  0.16840000  0.97550000  0.65050000  1.0 -0.1093917011
C  C62  1  0.76790000  0.91840000  0.69290000  1.0 -0.1093917011
C  C63  1  0.22550000  0.07500000  0.30710000  1.0 -0.1093917011
C  C64  1  0.32500000  0.51790000  0.34950000  1.0 -0.1093917011
C  C65  1  0.05110000  0.75000000  0.81970000  1.0 0.1818547681
C  C66  1  0.48140000  0.80110000  0.80110000  1.0 0.1818547681
C  C67  1  0.00000000  0.68030000  0.19890000  1.0 0.1818547681
C  C68  1  0.93030000  0.23140000  0.18030000  1.0 0.1818547681
C  C69  1  0.19890000  0.00000000  0.68030000  1.0 0.1818547681
C  C70  1  0.76860000  0.94890000  0.69890000  1.0 0.1818547681
C  C71  1  0.25000000  0.06970000  0.30110000  1.0 0.1818547681
C  C72  1  0.31970000  0.51860000  0.31970000  1.0 0.1818547681
C  C73  1  0.99760000  0.69000000  0.80340000  1.0 -0.4703976866
C  C74  1  0.44420000  0.74760000  0.80760000  1.0 -0.4703976866
C  C75  1  0.94000000  0.63660000  0.19240000  1.0 -0.4703976866
C  C76  1  0.88660000  0.19420000  0.19660000  1.0 -0.4703976866
C  C77  1  0.25240000  0.06000000  0.69660000  1.0 -0.4703976866
C  C78  1  0.80580000  0.00240000  0.69240000  1.0 -0.4703976866
C  C79  1  0.31000000  0.11340000  0.30760000  1.0 -0.4703976866
C  C80  1  0.36340000  0.55580000  0.30340000  1.0 -0.4703976866
C  C81  1  0.90870000  0.67620000  0.71590000  1.0 -0.4887091108
C  C82  1  0.44280000  0.65870000  0.73250000  1.0 -0.4804044148
C  C83  1  0.92620000  0.71030000  0.26750000  1.0 -0.4887091108
C  C84  1  0.96030000  0.19280000  0.28410000  1.0 -0.4887091108
C  C85  1  0.34130000  0.07380000  0.78410000  1.0 -0.4804044148
C  C86  1  0.80720000  0.09130000  0.76750000  1.0 -0.4887091108
C  C87  1  0.32380000  0.03970000  0.23250000  1.0 -0.4804044148
C  C88  1  0.28970000  0.55720000  0.21590000  1.0 -0.4804044148
C  C89  1  0.94820000  0.73260000  0.71500000  1.0 0.1818547681
C  C90  1  0.48320000  0.69820000  0.71560000  1.0 0.1818547681
C  C91  1  0.98260000  0.76760000  0.28440000  1.0 0.1818547681
C  C92  1  0.01760000  0.23320000  0.28500000  1.0 0.1818547681
C  C93  1  0.30180000  0.01740000  0.78500000  1.0 0.1818547681
C  C94  1  0.76680000  0.05180000  0.78440000  1.0 0.1818547681
C  C95  1  0.26740000  0.98240000  0.21560000  1.0 0.1818547681
C  C96  1  0.23240000  0.51680000  0.21500000  1.0 0.1818547681
C  C97  1  0.94440000  0.75310000  0.69890000  1.0 -0.1093917011
C  C98  1  0.49550000  0.69440000  0.69130000  1.0 -0.1093917011
C  C99  1  0.00310000  0.80420000  0.30870000  1.0 -0.1093917011
C  C100  1  0.05420000  0.24550000  0.30110000  1.0 -0.1093917011
C  C101  1  0.30560000  0.99690000  0.80110000  1.0 -0.1093917011
C  C102  1  0.75450000  0.05560000  0.80870000  1.0 -0.1093917011
C  C103  1  0.24690000  0.94580000  0.19130000  1.0 -0.1093917011
C  C104  1  0.19580000  0.50450000  0.19890000  1.0 -0.1093917011
C  C105  1  0.99610000  0.81000000  0.70750000  1.0 0.1818547681
C  C106  1  0.53860000  0.74610000  0.68610000  1.0 0.1818547681
C  C107  1  0.06000000  0.85250000  0.31390000  1.0 0.1818547681
C  C108  1  0.10250000  0.28860000  0.29250000  1.0 0.1818547681
C  C109  1  0.25390000  0.94000000  0.79250000  1.0 0.1818547681
C  C110  1  0.71140000  0.00390000  0.81390000  1.0 0.1818547681
C  C111  1  0.19000000  0.89750000  0.18610000  1.0 0.1818547681
C  C112  1  0.14750000  0.46140000  0.20750000  1.0 0.1818547681
C  C113  1  0.01430000  0.85270000  0.69840000  1.0 -0.4703976866
C  C114  1  0.56590000  0.76430000  0.66160000  1.0 -0.4703976866
C  C115  1  0.10270000  0.90430000  0.33840000  1.0 -0.4703976866
C  C116  1  0.15430000  0.31590000  0.30160000  1.0 -0.4703976866
C  C117  1  0.23570000  0.89730000  0.80160000  1.0 -0.4703976866
C  C118  1  0.68410000  0.98570000  0.83840000  1.0 -0.4703976866
C  C119  1  0.14730000  0.84570000  0.16160000  1.0 -0.4703976866
C  C120  1  0.09570000  0.43410000  0.19840000  1.0 -0.4703976866
C  C121  1  0.96140000  0.00080000  0.25940000  1.0 -0.4887091108
C  C122  1  0.95200000  0.71140000  0.46060000  1.0 -0.4887091108
C  C123  1  0.25080000  0.49140000  0.53940000  1.0 -0.4887091108
C  C124  1  0.74140000  0.70200000  0.74060000  1.0 -0.4887091108
C  C125  1  0.28860000  0.74920000  0.24060000  1.0 -0.4887091108
C  C126  1  0.29800000  0.03860000  0.03940000  1.0 -0.4887091108
C  C127  1  0.99920000  0.25860000  0.96060000  1.0 -0.4887091108
C  C128  1  0.50860000  0.04800000  0.75940000  1.0 -0.4887091108
C  C129  1  0.98700000  0.01700000  0.23400000  1.0 0.1900498243
C  C130  1  0.00300000  0.73700000  0.47000000  1.0 0.1900498243
C  C131  1  0.26700000  0.53300000  0.53000000  1.0 0.1900498243
C  C132  1  0.78300000  0.75300000  0.76600000  1.0 0.1900498243
C  C133  1  0.26300000  0.73300000  0.26600000  1.0 0.1900498243
C  C134  1  0.24700000  0.01300000  0.03000000  1.0 0.1900498243
C  C135  1  0.98300000  0.21700000  0.97000000  1.0 0.1900498243
C  C136  1  0.46700000  0.99700000  0.73400000  1.0 0.1900498243
C  C137  1  0.04360000  0.05920000  0.23720000  1.0 -0.0893664005
C  C138  1  0.05640000  0.79360000  0.48440000  1.0 -0.0893664005
C  C139  1  0.30920000  0.57200000  0.51560000  1.0 -0.0893664005
C  C140  1  0.82200000  0.80640000  0.76280000  1.0 -0.0893664005
C  C141  1  0.20640000  0.69080000  0.26280000  1.0 -0.0893664005
C  C142  1  0.19360000  0.95640000  0.01560000  1.0 -0.0893664005
C  C143  1  0.94080000  0.17800000  0.98440000  1.0 -0.0893664005
C  C144  1  0.42800000  0.94360000  0.73720000  1.0 -0.0893664005
C  C145  1  0.04560000  0.05770000  0.20750000  1.0 0.1714043933
C  C146  1  0.08810000  0.79560000  0.48790000  1.0 0.1714043933
C  C147  1  0.30770000  0.60020000  0.51210000  1.0 0.1714043933
C  C148  1  0.85020000  0.83810000  0.79250000  1.0 0.1714043933
C  C149  1  0.20440000  0.69230000  0.29250000  1.0 0.1714043933
C  C150  1  0.16190000  0.95440000  0.01210000  1.0 0.1714043933
C  C151  1  0.94230000  0.14980000  0.98790000  1.0 0.1714043933
C  C152  1  0.39980000  0.91190000  0.70750000  1.0 0.1714043933
C  C153  1  0.09420000  0.09240000  0.19480000  1.0 -0.4703976866
C  C154  1  0.14940000  0.84420000  0.50180000  1.0 -0.4703976866
C  C155  1  0.34240000  0.64760000  0.49820000  1.0 -0.4703976866
C  C156  1  0.89760000  0.89940000  0.80520000  1.0 -0.4703976866
C  C157  1  0.15580000  0.65760000  0.30520000  1.0 -0.4703976866
C  C158  1  0.10060000  0.90580000  0.99820000  1.0 -0.4703976866
C  C159  1  0.90760000  0.10240000  0.00180000  1.0 -0.4703976866
C  C160  1  0.35240000  0.85060000  0.69480000  1.0 -0.4703976866
C  C161  1  0.05350000  0.08900000  0.09830000  1.0 -0.4887091108
C  C162  1  0.20520000  0.80350000  0.46450000  1.0 -0.4887091108
C  C163  1  0.33900000  0.74070000  0.53550000  1.0 -0.4887091108
C  C164  1  0.99070000  0.95520000  0.90170000  1.0 -0.4887091108
C  C165  1  0.19650000  0.66100000  0.40170000  1.0 -0.4887091108
C  C166  1  0.04480000  0.94650000  0.03550000  1.0 -0.4804044148
C  C167  1  0.91100000  0.00930000  0.96450000  1.0 -0.4887091108
C  C168  1  0.25930000  0.79480000  0.59830000  1.0 -0.4887091108
C  C169  1  0.99930000  0.05740000  0.08890000  1.0 0.1900498243
C  C170  1  0.16040000  0.74930000  0.44190000  1.0 0.1900498243
C  C171  1  0.30740000  0.71850000  0.55810000  1.0 0.1900498243
C  C172  1  0.96850000  0.91040000  0.91110000  1.0 0.1900498243
C  C173  1  0.25070000  0.69260000  0.41110000  1.0 0.1900498243
C  C174  1  0.08960000  0.00070000  0.05810000  1.0 0.1900498243
C  C175  1  0.94260000  0.03150000  0.94190000  1.0 0.1900498243
C  C176  1  0.28150000  0.83960000  0.58890000  1.0 0.1900498243
C  C177  1  0.97790000  0.05890000  0.06720000  1.0 -0.1007166551
C  C178  1  0.16070000  0.72790000  0.41900000  1.0 -0.1007166551
C  C179  1  0.30890000  0.74170000  0.58100000  1.0 -0.1093917011
C  C180  1  0.99170000  0.91070000  0.93280000  1.0 -0.1007166551
C  C181  1  0.27210000  0.69110000  0.43280000  1.0 -0.1007166551
C  C182  1  0.08930000  0.02210000  0.08100000  1.0 -0.1007166551
C  C183  1  0.94110000  0.00830000  0.91900000  1.0 -0.1007166551
C  C184  1  0.25830000  0.83930000  0.56720000  1.0 -0.1093917011
C  C185  1  0.92350000  0.01620000  0.06810000  1.0 0.1900498243
C  C186  1  0.10540000  0.67350000  0.40730000  1.0 0.1900498243
C  C187  1  0.26620000  0.69810000  0.59270000  1.0 0.1900498243
C  C188  1  0.94810000  0.85540000  0.93190000  1.0 0.1900498243
C  C189  1  0.32650000  0.73380000  0.43190000  1.0 0.1900498243
C  C190  1  0.14460000  0.07650000  0.09270000  1.0 0.1900498243
C  C191  1  0.98380000  0.05190000  0.90730000  1.0 0.1900498243
C  C192  1  0.30190000  0.89460000  0.56810000  1.0 0.1900498243
C  C193  1  0.87960000  0.99850000  0.04870000  1.0 -0.4703976866
C  C194  1  0.08090000  0.62960000  0.38110000  1.0 -0.4703976866
C  C195  1  0.24850000  0.69980000  0.61890000  1.0 -0.4703976866
C  C196  1  0.94980000  0.83090000  0.95130000  1.0 -0.4703976866
C  C197  1  0.37040000  0.75150000  0.45130000  1.0 -0.4703976866
C  C198  1  0.16910000  0.12040000  0.11890000  1.0 -0.4703976866
C  C199  1  0.00150000  0.05020000  0.88110000  1.0 -0.4703976866
C  C200  1  0.30020000  0.91910000  0.54870000  1.0 -0.4703976866
C  C201  1  0.74490000  0.90000000  0.11030000  1.0 -0.4703976866
C  C202  1  0.88460000  0.49490000  0.34490000  1.0 -0.4703976866
C  C203  1  0.15000000  0.53970000  0.65510000  1.0 -0.4703976866
C  C204  1  0.78970000  0.63460000  0.88970000  1.0 -0.4703976866
C  C205  1  0.50510000  0.85000000  0.38970000  1.0 -0.4703976866
C  C206  1  0.36540000  0.25510000  0.15510000  1.0 -0.4703976866
C  C207  1  0.10000000  0.21030000  0.84490000  1.0 -0.4703976866
C  C208  1  0.46030000  0.11540000  0.61030000  1.0 -0.4703976866
C  C209  1  0.76400000  0.89920000  0.13880000  1.0 0.1990939783
C  C210  1  0.87520000  0.51400000  0.36480000  1.0 0.1990939783
C  C211  1  0.14920000  0.51040000  0.63520000  1.0 0.1990939783
C  C212  1  0.76040000  0.62520000  0.86120000  1.0 0.1990939783
C  C213  1  0.48600000  0.85080000  0.36120000  1.0 0.1990939783
C  C214  1  0.37480000  0.23600000  0.13520000  1.0 0.1990939783
C  C215  1  0.10080000  0.23960000  0.86480000  1.0 0.1990939783
C  C216  1  0.48960000  0.12480000  0.63880000  1.0 0.1990939783
C  C217  1  0.75210000  0.89300000  0.16570000  1.0 -0.1203576167
C  C218  1  0.83640000  0.50210000  0.35910000  1.0 -0.1203576167
C  C219  1  0.14300000  0.47730000  0.64090000  1.0 -0.1203576167
C  C220  1  0.72730000  0.58640000  0.83430000  1.0 -0.1203576167
C  C221  1  0.49790000  0.85700000  0.33430000  1.0 -0.1203576167
C  C222  1  0.41360000  0.24790000  0.14090000  1.0 -0.1203576167
C  C223  1  0.10700000  0.27270000  0.85910000  1.0 -0.1203576167
C  C224  1  0.52270000  0.16360000  0.66570000  1.0 -0.1203576167
C  C225  1  0.78220000  0.89600000  0.18180000  1.0 0.2190012804
C  C226  1  0.85040000  0.53220000  0.38620000  1.0 0.2190012804
C  C227  1  0.14600000  0.46420000  0.61380000  1.0 0.2190012804
C  C228  1  0.71420000  0.60040000  0.81820000  1.0 0.2190012804
C  C229  1  0.46780000  0.85400000  0.31820000  1.0 0.2190012804
C  C230  1  0.39960000  0.21780000  0.11380000  1.0 0.2190012804
C  C231  1  0.10400000  0.28580000  0.88620000  1.0 0.2190012804
C  C232  1  0.53580000  0.14960000  0.68180000  1.0 0.2190012804
C  C233  1  0.78580000  0.89050000  0.21450000  1.0 -0.4804044148
C  C234  1  0.82130000  0.53580000  0.39530000  1.0 -0.4804044148
C  C235  1  0.14050000  0.42600000  0.60470000  1.0 -0.4804044148
C  C236  1  0.67600000  0.57130000  0.78550000  1.0 -0.4804044148
C  C237  1  0.46420000  0.85950000  0.28550000  1.0 -0.4804044148
C  C238  1  0.42870000  0.21420000  0.10470000  1.0 -0.4804044148
C  C239  1  0.10950000  0.32400000  0.89530000  1.0 -0.4804044148
C  C240  1  0.57400000  0.17870000  0.71450000  1.0 -0.4804044148
C  C241  1  0.00610000  0.15120000  0.07070000  1.0 -0.4540202894
C  C242  1  0.18540000  0.75610000  0.35490000  1.0 -0.459910445
C  C243  1  0.40120000  0.83050000  0.64510000  1.0 -0.4540202894
C  C244  1  0.08050000  0.93540000  0.92930000  1.0 -0.459910445
C  C245  1  0.24390000  0.59880000  0.42930000  1.0 -0.4540202894
C  C246  1  0.06460000  0.99390000  0.14510000  1.0 -0.4540202894
C  C247  1  0.84880000  0.91950000  0.85490000  1.0 -0.4540202894
C  C248  1  0.16950000  0.81460000  0.57070000  1.0 -0.4540202894
C  C249  1  0.02030000  0.13820000  0.05130000  1.0 0.1900498243
C  C250  1  0.21900000  0.77030000  0.38210000  1.0 0.1900498243
C  C251  1  0.38820000  0.83690000  0.61790000  1.0 0.1900498243
C  C252  1  0.08690000  0.96900000  0.94870000  1.0 0.1900498243
C  C253  1  0.22970000  0.61180000  0.44870000  1.0 0.1900498243
C  C254  1  0.03100000  0.97970000  0.11790000  1.0 0.1900498243
C  C255  1  0.86180000  0.91310000  0.88210000  1.0 0.1900498243
C  C256  1  0.16310000  0.78100000  0.55130000  1.0 0.1900498243
C  C257  1  0.00830000  0.09850000  0.04940000  1.0 -0.1203576167
C  C258  1  0.20890000  0.75830000  0.40980000  1.0 -0.1203576167
C  C259  1  0.34850000  0.79910000  0.59020000  1.0 -0.1203576167
C  C260  1  0.04910000  0.95890000  0.95060000  1.0 -0.1203576167
C  C261  1  0.24170000  0.65150000  0.45060000  1.0 -0.1203576167
C  C262  1  0.04110000  0.99170000  0.09020000  1.0 -0.1203576167
C  C263  1  0.90150000  0.95090000  0.90980000  1.0 -0.1203576167
C  C264  1  0.20090000  0.79110000  0.54940000  1.0 -0.1203576167
C  C265  1  0.03400000  0.10710000  0.02930000  1.0 0.1900498243
C  C266  1  0.25470000  0.78400000  0.42690000  1.0 0.1900498243
C  C267  1  0.35710000  0.82780000  0.57310000  1.0 0.1900498243
C  C268  1  0.07780000  0.00470000  0.97070000  1.0 0.1900498243
C  C269  1  0.21600000  0.64290000  0.47070000  1.0 0.1900498243
C  C270  1  0.99530000  0.96600000  0.07310000  1.0 0.1900498243
C  C271  1  0.89290000  0.92220000  0.92690000  1.0 0.1900498243
C  C272  1  0.17220000  0.74530000  0.52930000  1.0 0.1900498243
C  C273  1  0.03650000  0.07750000  0.01780000  1.0 -0.4887091108
C  C274  1  0.26870000  0.78650000  0.45900000  1.0 -0.4887091108
C  C275  1  0.32750000  0.80970000  0.54100000  1.0 -0.4887091108
C  C276  1  0.05970000  0.01870000  0.98220000  1.0 -0.4887091108
C  C277  1  0.21350000  0.67250000  0.48220000  1.0 -0.4887091108
C  C278  1  0.98130000  0.96350000  0.04100000  1.0 -0.4887091108
C  C279  1  0.92250000  0.94030000  0.95900000  1.0 -0.4887091108
C  C280  1  0.19030000  0.73130000  0.51780000  1.0 -0.4887091108
C  C281  1  0.15030000  0.16150000  0.95000000  1.0 -0.4703976866
C  C282  1  0.45030000  0.90030000  0.48880000  1.0 -0.4703976866
C  C283  1  0.41150000  0.96150000  0.51120000  1.0 -0.4703976866
C  C284  1  0.21150000  0.20030000  0.05000000  1.0 -0.4703976866
C  C285  1  0.09970000  0.58850000  0.55000000  1.0 -0.4703976866
C  C286  1  0.79970000  0.84970000  0.01120000  1.0 -0.4703976866
C  C287  1  0.83850000  0.78850000  0.98880000  1.0 -0.4703976866
C  C288  1  0.03850000  0.54970000  0.45000000  1.0 -0.4703976866
C  C289  1  0.16890000  0.20670000  0.94540000  1.0 0.1818547681
C  C290  1  0.47350000  0.91890000  0.46220000  1.0 0.1818547681
C  C291  1  0.45670000  0.01130000  0.53780000  1.0 0.1818547681
C  C292  1  0.26130000  0.22350000  0.05460000  1.0 0.1818547681
C  C293  1  0.08110000  0.54330000  0.55460000  1.0 0.1818547681
C  C294  1  0.77650000  0.83110000  0.03780000  1.0 0.1818547681
C  C295  1  0.79330000  0.73870000  0.96220000  1.0 0.1818547681
C  C296  1  0.98870000  0.52650000  0.44540000  1.0 0.1818547681
C  C297  1  0.20600000  0.24420000  0.92980000  1.0 -0.1093917011
C  C298  1  0.52620000  0.95600000  0.46180000  1.0 -0.1093917011
C  C299  1  0.49420000  0.06440000  0.53820000  1.0 -0.1093917011
C  C300  1  0.31440000  0.27620000  0.07020000  1.0 -0.1093917011
C  C301  1  0.04400000  0.50580000  0.57020000  1.0 -0.1093917011
C  C302  1  0.72380000  0.79400000  0.03820000  1.0 -0.1093917011
C  C303  1  0.75580000  0.68560000  0.96180000  1.0 -0.1093917011
C  C304  1  0.93560000  0.47380000  0.42980000  1.0 -0.1093917011
C  C305  1  0.20850000  0.27690000  0.93260000  1.0 0.1900498243
C  C306  1  0.52590000  0.95850000  0.43160000  1.0 0.1900498243
C  C307  1  0.52690000  0.09430000  0.56840000  1.0 0.1900498243
C  C308  1  0.34430000  0.27590000  0.06740000  1.0 0.1900498243
C  C309  1  0.04150000  0.47310000  0.56740000  1.0 0.1900498243
C  C310  1  0.72410000  0.79150000  0.06840000  1.0 0.1900498243
C  C311  1  0.72310000  0.65570000  0.93160000  1.0 0.1900498243
C  C312  1  0.90570000  0.47410000  0.43260000  1.0 0.1900498243
C  C313  1  0.24160000  0.32500000  0.92100000  1.0 -0.4887091108
C  C314  1  0.57060000  0.99160000  0.41660000  1.0 -0.4887091108
C  C315  1  0.57500000  0.15400000  0.58340000  1.0 -0.4887091108
C  C316  1  0.40400000  0.32060000  0.07900000  1.0 -0.4887091108
C  C317  1  0.00840000  0.42500000  0.57900000  1.0 -0.4887091108
C  C318  1  0.67940000  0.75840000  0.08340000  1.0 -0.4887091108
C  C319  1  0.67500000  0.59600000  0.91660000  1.0 -0.4887091108
C  C320  1  0.84600000  0.42940000  0.42100000  1.0 -0.4887091108
C  C321  1  0.22140000  0.40940000  0.97220000  1.0 -0.4703976866
C  C322  1  0.49920000  0.97140000  0.31200000  1.0 -0.4703976866
C  C323  1  0.65940000  0.18720000  0.68800000  1.0 -0.4703976866
C  C324  1  0.43720000  0.24920000  0.02780000  1.0 -0.4703976866
C  C325  1  0.02860000  0.34060000  0.52780000  1.0 -0.4703976866
C  C326  1  0.75080000  0.77860000  0.18800000  1.0 -0.4703976866
C  C327  1  0.59060000  0.56280000  0.81200000  1.0 -0.4703976866
C  C328  1  0.81280000  0.50080000  0.47220000  1.0 -0.4703976866
C  C329  1  0.17950000  0.37150000  0.98940000  1.0 0.1990939783
C  C330  1  0.44010000  0.92950000  0.30800000  1.0 0.1990939783
C  C331  1  0.62150000  0.13210000  0.69200000  1.0 0.1990939783
C  C332  1  0.38210000  0.19010000  0.01060000  1.0 0.1990939783
C  C333  1  0.07050000  0.37850000  0.51060000  1.0 0.1990939783
C  C334  1  0.80990000  0.82050000  0.19200000  1.0 0.1990939783
C  C335  1  0.62850000  0.61790000  0.80800000  1.0 0.1990939783
C  C336  1  0.86790000  0.55990000  0.48940000  1.0 0.1990939783
C  C337  1  0.15680000  0.37320000  0.00700000  1.0 -0.1093917011
C  C338  1  0.39980000  0.90680000  0.28360000  1.0 -0.1093917011
C  C339  1  0.62320000  0.11620000  0.71640000  1.0 -0.1093917011
C  C340  1  0.36620000  0.14980000  0.99300000  1.0 -0.1093917011
C  C341  1  0.09320000  0.37680000  0.49300000  1.0 -0.1093917011
C  C342  1  0.85020000  0.84320000  0.21640000  1.0 -0.1093917011
C  C343  1  0.62680000  0.63380000  0.78360000  1.0 -0.1093917011
C  C344  1  0.88380000  0.60020000  0.50700000  1.0 -0.1093917011
C  C345  1  0.12360000  0.32867000  0.01887000  1.0 0.1818547681
C  C346  1  0.35473000  0.87360000  0.29493000  1.0 0.1818547681
C  C347  1  0.57867000  0.05980000  0.70507000  1.0 0.1818547681
C  C348  1  0.30980000  0.10473000  0.98113000  1.0 0.1818547681
C  C349  1  0.12640000  0.42133000  0.48113000  1.0 0.1818547681
C  C350  1  0.89527000  0.87640000  0.20507000  1.0 0.1818547681
C  C351  1  0.67133000  0.69020000  0.79493000  1.0 0.1818547681
C  C352  1  0.94020000  0.64527000  0.51887000  1.0 0.1818547681
C  C353  1  0.08800000  0.30810000  0.03870000  1.0 -0.4968911569
C  C354  1  0.29930000  0.83800000  0.27990000  1.0 -0.4968911569
C  C355  1  0.55810000  0.01940000  0.72010000  1.0 -0.4968911569
C  C356  1  0.26940000  0.04930000  0.96130000  1.0 -0.4968911569
C  C357  1  0.16200000  0.44190000  0.46130000  1.0 -0.4968911569
C  C358  1  0.95070000  0.91200000  0.22010000  1.0 -0.4968911569
C  C359  1  0.69190000  0.73060000  0.77990000  1.0 -0.4968911569
C  C360  1  0.98060000  0.70070000  0.53870000  1.0 -0.4968911569
C  C361  1  0.16500000  0.15840000  0.87420000  1.0 -0.4804044148
C  C362  1  0.54080000  0.91500000  0.50660000  1.0 -0.4804044148
C  C363  1  0.40840000  0.03420000  0.49340000  1.0 -0.4703976866
C  C364  1  0.28420000  0.29080000  0.12580000  1.0 -0.4804044148
C  C365  1  0.08500000  0.59160000  0.62580000  1.0 -0.4804044148
C  C366  1  0.70920000  0.83500000  0.99340000  1.0 -0.4703976866
C  C367  1  0.84160000  0.71580000  0.00660000  1.0 -0.4804044148
C  C368  1  0.96580000  0.45920000  0.37420000  1.0 -0.4804044148
C  C369  1  0.22060000  0.21320000  0.89360000  1.0 0.1714043933
C  C370  1  0.57700000  0.97060000  0.50740000  1.0 0.1714043933
C  C371  1  0.46320000  0.06960000  0.49260000  1.0 0.1714043933
C  C372  1  0.31960000  0.32700000  0.10640000  1.0 0.1714043933
C  C373  1  0.02940000  0.53680000  0.60640000  1.0 0.1714043933
C  C374  1  0.67300000  0.77940000  0.99260000  1.0 0.1714043933
C  C375  1  0.78680000  0.68040000  0.00740000  1.0 0.1714043933
C  C376  1  0.93040000  0.42300000  0.39360000  1.0 0.1714043933
C  C377  1  0.23780000  0.25030000  0.91610000  1.0 -0.0893664005
C  C378  1  0.57170000  0.98780000  0.48750000  1.0 -0.0893664005
C  C379  1  0.50030000  0.08420000  0.51250000  1.0 -0.0893664005
C  C380  1  0.33420000  0.32170000  0.08390000  1.0 -0.0893664005
C  C381  1  0.01220000  0.49970000  0.58390000  1.0 -0.0893664005
C  C382  1  0.67830000  0.76220000  0.01250000  1.0 -0.0893664005
C  C383  1  0.74970000  0.66580000  0.98750000  1.0 -0.0893664005
C  C384  1  0.91580000  0.42830000  0.41610000  1.0 -0.0893664005
C  C385  1  0.29490000  0.29410000  0.92640000  1.0 0.1900498243
C  C386  1  0.61850000  0.04490000  0.50080000  1.0 0.1900498243
C  C387  1  0.54410000  0.11770000  0.49920000  1.0 0.1900498243
C  C388  1  0.36770000  0.36850000  0.07360000  1.0 0.1900498243
C  C389  1  0.95510000  0.45590000  0.57360000  1.0 0.1900498243
C  C390  1  0.63150000  0.70510000  0.99920000  1.0 0.1900498243
C  C391  1  0.70590000  0.63230000  0.00080000  1.0 0.1900498243
C  C392  1  0.88230000  0.38150000  0.42640000  1.0 0.1900498243
C  C393  1  0.33590000  0.34700000  0.95130000  1.0 -0.4887091108
C  C394  1  0.63460000  0.08590000  0.48890000  1.0 -0.4887091108
C  C395  1  0.59700000  0.14570000  0.51110000  1.0 -0.4887091108
C  C396  1  0.39570000  0.38460000  0.04870000  1.0 -0.4887091108
C  C397  1  0.91410000  0.40300000  0.54870000  1.0 -0.4887091108
C  C398  1  0.61540000  0.66410000  0.01110000  1.0 -0.4887091108
C  C399  1  0.65300000  0.60430000  0.98890000  1.0 -0.4887091108
C  C400  1  0.85430000  0.36540000  0.45130000  1.0 -0.4887091108
C  C401  1  0.50730000  0.44620000  0.97230000  1.0 -0.4887091108
C  C402  1  0.78500000  0.25730000  0.56110000  1.0 -0.4887091108
C  C403  1  0.69620000  0.22390000  0.43890000  1.0 -0.4887091108
C  C404  1  0.47390000  0.53500000  0.02770000  1.0 -0.4887091108
C  C405  1  0.74270000  0.30380000  0.52770000  1.0 -0.4887091108
C  C406  1  0.46500000  0.49270000  0.93890000  1.0 -0.4887091108
C  C407  1  0.55380000  0.52610000  0.06110000  1.0 -0.4887091108
C  C408  1  0.77610000  0.21500000  0.47230000  1.0 -0.4887091108
C  C409  1  0.50460000  0.41440000  0.95440000  1.0 0.1714043933
C  C410  1  0.80020000  0.25460000  0.59020000  1.0 0.1714043933
C  C411  1  0.66440000  0.21000000  0.40980000  1.0 0.1714043933
C  C412  1  0.46000000  0.55020000  0.04560000  1.0 0.1714043933
C  C413  1  0.74540000  0.33560000  0.54560000  1.0 0.1714043933
C  C414  1  0.44980000  0.49540000  0.90980000  1.0 0.1714043933
C  C415  1  0.58560000  0.54000000  0.09020000  1.0 0.1714043933
C  C416  1  0.79000000  0.19980000  0.45440000  1.0 0.1714043933
C  C417  1  0.53800000  0.41850000  0.95830000  1.0 -0.1203576167
C  C418  1  0.82970000  0.28800000  0.61950000  1.0 -0.1203576167
C  C419  1  0.66850000  0.21020000  0.38050000  1.0 -0.1203576167
C  C420  1  0.46020000  0.57970000  0.04170000  1.0 -0.1203576167
C  C421  1  0.71200000  0.33150000  0.54170000  1.0 -0.1203576167
C  C422  1  0.42030000  0.46200000  0.88050000  1.0 -0.1203576167
C  C423  1  0.58150000  0.53980000  0.11950000  1.0 -0.1203576167
C  C424  1  0.78980000  0.17030000  0.45830000  1.0 -0.1203576167
C  C425  1  0.51390000  0.37800000  0.93390000  1.0 0.1900498243
C  C426  1  0.83000000  0.26390000  0.63590000  1.0 0.1900498243
C  C427  1  0.62800000  0.19410000  0.36410000  1.0 0.1900498243
C  C428  1  0.44410000  0.58000000  0.06610000  1.0 0.1900498243
C  C429  1  0.73610000  0.37200000  0.56610000  1.0 0.1900498243
C  C430  1  0.42000000  0.48610000  0.86410000  1.0 0.1900498243
C  C431  1  0.62200000  0.55590000  0.13590000  1.0 0.1900498243
C  C432  1  0.80590000  0.17000000  0.43390000  1.0 0.1900498243
C  C433  1  0.53420000  0.36440000  0.92720000  1.0 -0.459910445
C  C434  1  0.85700000  0.28420000  0.66980000  1.0 -0.459910445
C  C435  1  0.61440000  0.18720000  0.33020000  1.0 -0.459910445
C  C436  1  0.43720000  0.60700000  0.07280000  1.0 -0.459910445
C  C437  1  0.71580000  0.38560000  0.57280000  1.0 -0.459910445
C  C438  1  0.39300000  0.46580000  0.83020000  1.0 -0.459910445
C  C439  1  0.63560000  0.56280000  0.16980000  1.0 -0.459910445
C  C440  1  0.81280000  0.14300000  0.42720000  1.0 -0.459910445
C  C441  1  0.36900000  0.17700000  0.85040000  1.0 -0.4887091108
C  C442  1  0.76860000  0.11900000  0.69200000  1.0 -0.4887091108
C  C443  1  0.42700000  0.07660000  0.30800000  1.0 -0.4887091108
C  C444  1  0.32660000  0.51860000  0.14960000  1.0 -0.4887091108
C  C445  1  0.88100000  0.57300000  0.64960000  1.0 -0.4887091108
C  C446  1  0.48140000  0.63100000  0.80800000  1.0 -0.4887091108
C  C447  1  0.82300000  0.67340000  0.19200000  1.0 -0.4887091108
C  C448  1  0.92340000  0.23140000  0.35040000  1.0 -0.4887091108
C  C449  1  0.32220000  0.15720000  0.84700000  1.0 0.1714043933
C  C450  1  0.72520000  0.07220000  0.66500000  1.0 0.1714043933
C  C451  1  0.40720000  0.06020000  0.33500000  1.0 0.1714043933
C  C452  1  0.31020000  0.47520000  0.15300000  1.0 0.1714043933
C  C453  1  0.92780000  0.59280000  0.65300000  1.0 0.1714043933
C  C454  1  0.52480000  0.67780000  0.83500000  1.0 0.1714043933
C  C455  1  0.84280000  0.68980000  0.16500000  1.0 0.1714043933
C  C456  1  0.93980000  0.27480000  0.34700000  1.0 0.1714043933
C  C457  1  0.26490000  0.10480000  0.83230000  1.0 -0.0893664005
C  C458  1  0.68260000  0.01490000  0.66010000  1.0 -0.0893664005
C  C459  1  0.35480000  0.02250000  0.33990000  1.0 -0.0893664005
C  C460  1  0.27250000  0.43260000  0.16770000  1.0 -0.0893664005
C  C461  1  0.98510000  0.64520000  0.66770000  1.0 -0.0893664005
C  C462  1  0.56740000  0.73510000  0.83990000  1.0 -0.0893664005
C  C463  1  0.89520000  0.72750000  0.16010000  1.0 -0.0893664005
C  C464  1  0.97750000  0.31740000  0.33230000  1.0 -0.0893664005
C  C465  1  0.24234000  0.11260000  0.83654000  1.0 0.1573784319
C  C466  1  0.65580000  0.99234000  0.62974000  1.0 0.1573784319
C  C467  1  0.36260000  0.02606000  0.37026000  1.0 0.1573784319
C  C468  1  0.27606000  0.40580000  0.16346000  1.0 0.1573784319
C  C469  1  0.00766000  0.63740000  0.66346000  1.0 0.1573784319
C  C470  1  0.59420000  0.75766000  0.87026000  1.0 0.1573784319
C  C471  1  0.88740000  0.72394000  0.12974000  1.0 0.1573784319
C  C472  1  0.97394000  0.34420000  0.33654000  1.0 0.1573784319
C  C473  1  0.18380000  0.07250000  0.82710000  1.0 -0.459910445
C  C474  1  0.60670000  0.93380000  0.61130000  1.0 -0.459910445
C  C475  1  0.32250000  0.99540000  0.38870000  1.0 -0.459910445
C  C476  1  0.24540000  0.35670000  0.17290000  1.0 -0.459910445
C  C477  1  0.06620000  0.67750000  0.67290000  1.0 -0.459910445
C  C478  1  0.64330000  0.81620000  0.88870000  1.0 -0.459910445
C  C479  1  0.92750000  0.75460000  0.11130000  1.0 -0.459910445
C  C480  1  0.00460000  0.39330000  0.32710000  1.0 -0.459910445
C  C481  1  0.66420000  0.51410000  0.95330000  1.0 -0.4887091108
C  C482  1  0.96090000  0.41420000  0.65010000  1.0 -0.4887091108
C  C483  1  0.76410000  0.31080000  0.34990000  1.0 -0.4887091108
C  C484  1  0.56080000  0.71090000  0.04670000  1.0 -0.4887091108
C  C485  1  0.58580000  0.23590000  0.54670000  1.0 -0.4887091108
C  C486  1  0.28910000  0.33580000  0.84990000  1.0 -0.4887091108
C  C487  1  0.48590000  0.43920000  0.15010000  1.0 -0.4887091108
C  C488  1  0.68920000  0.03910000  0.45330000  1.0 -0.4887091108
C  C489  1  0.64330000  0.50040000  0.98150000  1.0 0.1990939783
C  C490  1  0.91180000  0.39330000  0.64290000  1.0 0.1990939783
C  C491  1  0.75040000  0.26890000  0.35710000  1.0 0.1990939783
C  C492  1  0.51890000  0.66180000  0.01850000  1.0 0.1990939783
C  C493  1  0.60670000  0.24960000  0.51850000  1.0 0.1990939783
C  C494  1  0.33820000  0.35670000  0.85710000  1.0 0.1990939783
C  C495  1  0.49960000  0.48110000  0.14290000  1.0 0.1990939783
C  C496  1  0.73110000  0.08820000  0.48150000  1.0 0.1990939783
C  C497  1  0.58780000  0.45780000  0.98400000  1.0 -0.0707473445
C  C498  1  0.85380000  0.33780000  0.63000000  1.0 -0.0707473445
C  C499  1  0.70780000  0.22380000  0.37000000  1.0 -0.0707473445
C  C500  1  0.47380000  0.60380000  0.01600000  1.0 -0.0707473445
C  C501  1  0.66220000  0.29220000  0.51600000  1.0 -0.0707473445
C  C502  1  0.39620000  0.41220000  0.87000000  1.0 -0.0707473445
C  C503  1  0.54220000  0.52620000  0.13000000  1.0 -0.0707473445
C  C504  1  0.77620000  0.14620000  0.48400000  1.0 -0.0707473445
C  C505  1  0.59320000  0.46430000  0.01410000  1.0 0.1714043933
C  C506  1  0.82910000  0.34320000  0.62890000  1.0 0.1714043933
C  C507  1  0.71430000  0.20020000  0.37110000  1.0 0.1714043933
C  C508  1  0.45020000  0.57910000  0.98590000  1.0 0.1714043933
C  C509  1  0.65680000  0.28570000  0.48590000  1.0 0.1714043933
C  C510  1  0.42090000  0.40680000  0.87110000  1.0 0.1714043933
C  C511  1  0.53570000  0.54980000  0.12890000  1.0 0.1714043933
C  C512  1  0.79980000  0.17090000  0.51410000  1.0 0.1714043933
C  C513  1  0.55060000  0.43200000  0.03040000  1.0 -0.4703976866
C  C514  1  0.77020000  0.30060000  0.61860000  1.0 -0.4703976866
C  C515  1  0.68200000  0.15160000  0.38140000  1.0 -0.4703976866
C  C516  1  0.40160000  0.52020000  0.96960000  1.0 -0.4703976866
C  C517  1  0.69940000  0.31800000  0.46960000  1.0 -0.4703976866
C  C518  1  0.47980000  0.44940000  0.88140000  1.0 -0.4703976866
C  C519  1  0.56800000  0.59840000  0.11860000  1.0 -0.4703976866
C  C520  1  0.84840000  0.22980000  0.53040000  1.0 -0.4703976866
C  C521  1  0.62480000  0.46750000  0.13170000  1.0 -0.4887091108
C  C522  1  0.74310000  0.37480000  0.65730000  1.0 -0.4887091108
C  C523  1  0.71750000  0.08580000  0.34270000  1.0 -0.4887091108
C  C524  1  0.33580000  0.49310000  0.86830000  1.0 -0.4887091108
C  C525  1  0.62520000  0.28250000  0.36830000  1.0 -0.4887091108
C  C526  1  0.50690000  0.37520000  0.84270000  1.0 -0.4887091108
C  C527  1  0.53250000  0.66420000  0.15730000  1.0 -0.4887091108
C  C528  1  0.91420000  0.25690000  0.63170000  1.0 -0.4887091108
C  C529  1  0.68000000  0.50140000  0.13420000  1.0 0.1900498243
C  C530  1  0.79580000  0.43000000  0.67860000  1.0 0.1900498243
C  C531  1  0.75140000  0.11720000  0.32140000  1.0 0.1900498243
C  C532  1  0.36720000  0.54580000  0.86580000  1.0 0.1900498243
C  C533  1  0.57000000  0.24860000  0.36580000  1.0 0.1900498243
C  C534  1  0.45420000  0.32000000  0.82140000  1.0 0.1900498243
C  C535  1  0.49860000  0.63280000  0.17860000  1.0 0.1900498243
C  C536  1  0.88280000  0.20420000  0.63420000  1.0 0.1900498243
C  C537  1  0.70940000  0.50630000  0.15430000  1.0 -0.1203576167
C  C538  1  0.80510000  0.45940000  0.70310000  1.0 -0.1203576167
C  C539  1  0.75630000  0.10200000  0.29690000  1.0 -0.1203576167
C  C540  1  0.35200000  0.55510000  0.84570000  1.0 -0.1203576167
C  C541  1  0.54060000  0.24370000  0.34570000  1.0 -0.1203576167
C  C542  1  0.44490000  0.29060000  0.79690000  1.0 -0.1203576167
C  C543  1  0.49370000  0.64800000  0.20310000  1.0 -0.1203576167
C  C544  1  0.89800000  0.19490000  0.65430000  1.0 -0.1203576167
C  C545  1  0.75670000  0.54270000  0.14720000  1.0 0.1818547681
C  C546  1  0.85950000  0.50670000  0.71400000  1.0 0.1818547681
C  C547  1  0.79270000  0.14550000  0.28600000  1.0 0.1818547681
C  C548  1  0.39550000  0.60950000  0.85280000  1.0 0.1818547681
C  C549  1  0.49330000  0.20730000  0.35280000  1.0 0.1818547681
C  C550  1  0.39050000  0.24330000  0.78600000  1.0 0.1818547681
C  C551  1  0.45730000  0.60450000  0.21400000  1.0 0.1818547681
C  C552  1  0.85450000  0.14050000  0.64720000  1.0 0.1818547681
C  C553  1  0.80630000  0.56610000  0.16100000  1.0 -0.4703976866
C  C554  1  0.89530000  0.55630000  0.74020000  1.0 -0.4703976866
C  C555  1  0.81610000  0.15510000  0.25980000  1.0 -0.4703976866
C  C556  1  0.40510000  0.64530000  0.83900000  1.0 -0.4703976866
C  C557  1  0.44370000  0.18390000  0.33900000  1.0 -0.4703976866
C  C558  1  0.35470000  0.19370000  0.75980000  1.0 -0.4703976866
C  C559  1  0.43390000  0.59490000  0.24020000  1.0 -0.4703976866
C  C560  1  0.84490000  0.10470000  0.66100000  1.0 -0.4703976866
C  C561  1  0.91340000  0.64150000  0.08450000  1.0 -0.4887091108
C  C562  1  0.07890000  0.66340000  0.77190000  1.0 -0.4887091108
C  C563  1  0.89150000  0.30700000  0.22810000  1.0 -0.4887091108
C  C564  1  0.55700000  0.82890000  0.91550000  1.0 -0.4887091108
C  C565  1  0.33660000  0.10850000  0.41550000  1.0 -0.4887091108
C  C566  1  0.17110000  0.08660000  0.72810000  1.0 -0.4887091108
C  C567  1  0.35850000  0.44300000  0.27190000  1.0 -0.4887091108
C  C568  1  0.69300000  0.92110000  0.58450000  1.0 -0.4887091108
C  C569  1  0.88598000  0.63568000  0.05926000  1.0 0.1714043933
C  C570  1  0.07672000  0.63598000  0.75030000  1.0 0.1714043933
C  C571  1  0.88568000  0.32642000  0.24970000  1.0 0.1714043933
C  C572  1  0.57642000  0.82672000  0.94074000  1.0 0.1714043933
C  C573  1  0.36402000  0.11432000  0.44074000  1.0 0.1714043933
C  C574  1  0.17328000  0.11402000  0.74970000  1.0 0.1714043933
C  C575  1  0.36432000  0.42358000  0.25030000  1.0 0.1714043933
C  C576  1  0.67358000  0.92328000  0.55926000  1.0 0.1714043933
C  C577  1  0.88900000  0.63570000  0.02990000  1.0 -0.1093917011
C  C578  1  0.10910000  0.63900000  0.75330000  1.0 -0.1093917011
C  C579  1  0.88570000  0.35580000  0.24670000  1.0 -0.1093917011
C  C580  1  0.60580000  0.85910000  0.97010000  1.0 -0.1093917011
C  C581  1  0.36100000  0.11430000  0.47010000  1.0 -0.1093917011
C  C582  1  0.14090000  0.11100000  0.74670000  1.0 -0.1093917011
C  C583  1  0.36430000  0.39420000  0.25330000  1.0 -0.1093917011
C  C584  1  0.64420000  0.89090000  0.52990000  1.0 -0.1093917011
C  C585  1  0.85360000  0.62890000  0.01590000  1.0 0.1900498243
C  C586  1  0.08770000  0.60360000  0.72470000  1.0 0.1900498243
C  C587  1  0.87890000  0.36300000  0.27530000  1.0 0.1900498243
C  C588  1  0.61300000  0.83770000  0.98410000  1.0 0.1900498243
C  C589  1  0.39640000  0.12110000  0.48410000  1.0 0.1900498243
C  C590  1  0.16230000  0.14640000  0.77530000  1.0 0.1900498243
C  C591  1  0.37110000  0.38700000  0.22470000  1.0 0.1900498243
C  C592  1  0.63700000  0.91230000  0.51590000  1.0 0.1900498243
C  C593  1  0.83910000  0.62310000  0.98380000  1.0 -0.4703976866
C  C594  1  0.10530000  0.58910000  0.71600000  1.0 -0.4703976866
C  C595  1  0.87310000  0.38930000  0.28400000  1.0 -0.4703976866
C  C596  1  0.63930000  0.85530000  0.01620000  1.0 -0.4703976866
C  C597  1  0.41090000  0.12690000  0.51620000  1.0 -0.4703976866
C  C598  1  0.14470000  0.16090000  0.78400000  1.0 -0.4703976866
C  C599  1  0.37690000  0.36070000  0.21600000  1.0 -0.4703976866
C  C600  1  0.61070000  0.89470000  0.48380000  1.0 -0.4703976866
C  C601  1  0.39670000  0.76220000  0.11250000  1.0 -0.4703976866
C  C602  1  0.53420000  0.14670000  0.13450000  1.0 -0.4703976866
C  C603  1  0.01220000  0.39970000  0.86550000  1.0 -0.4703976866
C  C604  1  0.64970000  0.28420000  0.88750000  1.0 -0.4703976866
C  C605  1  0.85330000  0.98780000  0.38750000  1.0 -0.4703976866
C  C606  1  0.71580000  0.60330000  0.36550000  1.0 -0.4703976866
C  C607  1  0.23780000  0.35030000  0.63450000  1.0 -0.4703976866
C  C608  1  0.60030000  0.46580000  0.61250000  1.0 -0.4703976866
C  C609  1  0.36430000  0.70840000  0.11490000  1.0 0.1900498243
C  C610  1  0.49940000  0.11430000  0.15590000  1.0 0.1900498243
C  C611  1  0.95840000  0.34350000  0.84410000  1.0 0.1900498243
C  C612  1  0.59350000  0.24940000  0.88510000  1.0 0.1900498243
C  C613  1  0.88570000  0.04160000  0.38510000  1.0 0.1900498243
C  C614  1  0.75060000  0.63570000  0.34410000  1.0 0.1900498243
C  C615  1  0.29160000  0.40650000  0.65590000  1.0 0.1900498243
C  C616  1  0.65650000  0.50060000  0.61490000  1.0 0.1900498243
C  C617  1  0.37550000  0.69670000  0.13500000  1.0 -0.1304589945
C  C618  1  0.49050000  0.12550000  0.17880000  1.0 -0.1304589945
C  C619  1  0.94670000  0.31170000  0.82120000  1.0 -0.1304589945
C  C620  1  0.56170000  0.24050000  0.86500000  1.0 -0.1304589945
C  C621  1  0.87450000  0.05330000  0.36500000  1.0 -0.1304589945
C  C622  1  0.75950000  0.62450000  0.32120000  1.0 -0.1304589945
C  C623  1  0.30330000  0.43830000  0.67880000  1.0 -0.1304589945
C  C624  1  0.68830000  0.50950000  0.63500000  1.0 -0.1304589945
C  C625  1  0.33250000  0.64110000  0.12700000  1.0 0.1990939783
C  C626  1  0.45550000  0.08250000  0.19140000  1.0 0.1990939783
C  C627  1  0.89110000  0.26410000  0.80860000  1.0 0.1990939783
C  C628  1  0.51410000  0.20550000  0.87300000  1.0 0.1990939783
C  C629  1  0.91750000  0.10890000  0.37300000  1.0 0.1990939783
C  C630  1  0.79450000  0.66750000  0.30860000  1.0 0.1990939783
C  C631  1  0.35890000  0.48590000  0.69140000  1.0 0.1990939783
C  C632  1  0.73590000  0.54450000  0.62700000  1.0 0.1990939783
C  C633  1  0.32070000  0.60430000  0.14040000  1.0 -0.4968911569
C  C634  1  0.43030000  0.07070000  0.21640000  1.0 -0.4968911569
C  C635  1  0.85430000  0.21390000  0.78360000  1.0 -0.4968911569
C  C636  1  0.46390000  0.18030000  0.85960000  1.0 -0.4968911569
C  C637  1  0.92930000  0.14570000  0.35960000  1.0 -0.4968911569
C  C638  1  0.81970000  0.67930000  0.28360000  1.0 -0.4968911569
C  C639  1  0.39570000  0.53610000  0.71640000  1.0 -0.4968911569
C  C640  1  0.78610000  0.56970000  0.64040000  1.0 -0.4968911569
C  C641  1  0.20280000  0.44740000  0.07160000  1.0 -0.4887091108
C  C642  1  0.38120000  0.95280000  0.25540000  1.0 -0.4887091108
C  C643  1  0.69740000  0.12580000  0.74460000  1.0 -0.4887091108
C  C644  1  0.37580000  0.13120000  0.92840000  1.0 -0.4887091108
C  C645  1  0.04720000  0.30260000  0.42840000  1.0 -0.4887091108
C  C646  1  0.86880000  0.79720000  0.24460000  1.0 -0.4887091108
C  C647  1  0.55260000  0.62420000  0.75540000  1.0 -0.4887091108
C  C648  1  0.87420000  0.61880000  0.57160000  1.0 -0.4887091108
C  C649  1  0.18460000  0.44370000  0.04110000  1.0 0.1900498243
C  C650  1  0.39350000  0.93460000  0.24090000  1.0 0.1900498243
C  C651  1  0.69370000  0.15260000  0.75910000  1.0 0.1900498243
C  C652  1  0.40260000  0.14350000  0.95890000  1.0 0.1900498243
C  C653  1  0.06540000  0.30630000  0.45890000  1.0 0.1900498243
C  C654  1  0.85650000  0.81540000  0.25910000  1.0 0.1900498243
C  C655  1  0.55630000  0.59740000  0.74090000  1.0 0.1900498243
C  C656  1  0.84740000  0.60650000  0.54110000  1.0 0.1900498243
C  C657  1  0.16740000  0.41340000  0.01260000  1.0 -0.1007166551
C  C658  1  0.40480000  0.91740000  0.25400000  1.0 -0.1007166551
C  C659  1  0.66340000  0.15080000  0.74600000  1.0 -0.1007166551
C  C660  1  0.40080000  0.15480000  0.98740000  1.0 -0.1007166551
C  C661  1  0.08260000  0.33660000  0.48740000  1.0 -0.1007166551
C  C662  1  0.84520000  0.83260000  0.24600000  1.0 -0.1007166551
C  C663  1  0.58660000  0.59920000  0.75400000  1.0 -0.1007166551
C  C664  1  0.84920000  0.59520000  0.51260000  1.0 -0.1007166551
C  C665  1  0.15920000  0.42851000  0.99231000  1.0 0.1714043933
C  C666  1  0.41689000  0.90920000  0.23069000  1.0 0.1714043933
C  C667  1  0.67851000  0.18620000  0.76931000  1.0 0.1714043933
C  C668  1  0.43620000  0.16689000  0.00769000  1.0 0.1714043933
C  C669  1  0.09080000  0.32149000  0.50769000  1.0 0.1714043933
C  C670  1  0.83311000  0.84080000  0.26931000  1.0 0.1714043933
C  C671  1  0.57149000  0.56380000  0.73069000  1.0 0.1714043933
C  C672  1  0.81380000  0.58311000  0.49231000  1.0 0.1714043933
C  C673  1  0.14150000  0.41120000  0.95830000  1.0 -0.4887091108
C  C674  1  0.43320000  0.89150000  0.23030000  1.0 -0.4887091108
C  C675  1  0.66120000  0.20290000  0.76970000  1.0 -0.4887091108
C  C676  1  0.45290000  0.18320000  0.04170000  1.0 -0.4887091108
C  C677  1  0.10850000  0.33880000  0.54170000  1.0 -0.4887091108
C  C678  1  0.81680000  0.85850000  0.26970000  1.0 -0.4887091108
C  C679  1  0.58880000  0.54710000  0.73030000  1.0 -0.4887091108
C  C680  1  0.79710000  0.56680000  0.45830000  1.0 -0.4887091108
C  C681  1  0.17010000  0.54140000  0.93050000  1.0 -0.4804044148
C  C682  1  0.48960000  0.92010000  0.12870000  1.0 -0.4804044148
C  C683  1  0.79140000  0.36090000  0.87130000  1.0 -0.4804044148
C  C684  1  0.61090000  0.23960000  0.06950000  1.0 -0.4804044148
C  C685  1  0.07990000  0.20860000  0.56950000  1.0 -0.4804044148
C  C686  1  0.76040000  0.82990000  0.37130000  1.0 -0.4804044148
C  C687  1  0.45860000  0.38910000  0.62870000  1.0 -0.4804044148
C  C688  1  0.63910000  0.51040000  0.43050000  1.0 -0.4804044148
C  C689  1  0.20570000  0.58570000  0.95940000  1.0 0.1818547681
C  C690  1  0.49630000  0.95570000  0.12000000  1.0 0.1818547681
C  C691  1  0.83570000  0.37630000  0.88000000  1.0 0.1818547681
C  C692  1  0.62630000  0.24630000  0.04060000  1.0 0.1818547681
C  C693  1  0.04430000  0.16430000  0.54060000  1.0 0.1818547681
C  C694  1  0.75370000  0.79430000  0.38000000  1.0 0.1818547681
C  C695  1  0.41430000  0.37370000  0.62000000  1.0 0.1818547681
C  C696  1  0.62370000  0.50370000  0.45940000  1.0 0.1818547681
C  C697  1  0.24050000  0.64000000  0.96310000  1.0 -0.0802497404
C  C698  1  0.52740000  0.99050000  0.10050000  1.0 -0.0802497404
C  C699  1  0.89000000  0.42690000  0.89950000  1.0 -0.0802497404
C  C700  1  0.67690000  0.27740000  0.03690000  1.0 -0.0802497404
C  C701  1  0.00950000  0.11000000  0.53690000  1.0 -0.0802497404
C  C702  1  0.72260000  0.75950000  0.39950000  1.0 -0.0802497404
C  C703  1  0.36000000  0.32310000  0.60050000  1.0 -0.0802497404
C  C704  1  0.57310000  0.47260000  0.46310000  1.0 -0.0802497404
C  C705  1  0.26450000  0.66330000  0.99480000  1.0 0.1818547681
C  C706  1  0.51970000  0.01450000  0.10120000  1.0 0.1818547681
C  C707  1  0.91330000  0.41850000  0.89880000  1.0 0.1818547681
C  C708  1  0.66850000  0.26970000  0.00520000  1.0 0.1818547681
C  C709  1  0.98550000  0.08670000  0.50520000  1.0 0.1818547681
C  C710  1  0.73030000  0.73550000  0.39880000  1.0 0.1818547681
C  C711  1  0.33670000  0.33150000  0.60120000  1.0 0.1818547681
C  C712  1  0.58150000  0.48030000  0.49480000  1.0 0.1818547681
C  C713  1  0.30500000  0.71970000  0.01310000  1.0 -0.4887091108
C  C714  1  0.54190000  0.05500000  0.08530000  1.0 -0.4887091108
C  C715  1  0.96970000  0.45660000  0.91470000  1.0 -0.4887091108
C  C716  1  0.70660000  0.29190000  0.98690000  1.0 -0.4887091108
C  C717  1  0.94500000  0.03030000  0.48690000  1.0 -0.4887091108
C  C718  1  0.70810000  0.69500000  0.41470000  1.0 -0.4887091108
C  C719  1  0.28030000  0.29340000  0.58530000  1.0 -0.4887091108
C  C720  1  0.54340000  0.45810000  0.51310000  1.0 -0.4887091108
C  C721  1  0.88560000  0.72720000  0.52520000  1.0 -0.4703976866
C  C722  1  0.61040000  0.63560000  0.65840000  1.0 -0.4703976866
C  C723  1  0.97720000  0.95200000  0.34160000  1.0 -0.4703976866
C  C724  1  0.20200000  0.36040000  0.47480000  1.0 -0.4703976866
C  C725  1  0.36440000  0.02280000  0.97480000  1.0 -0.4703976866
C  C726  1  0.63960000  0.11440000  0.84160000  1.0 -0.4703976866
C  C727  1  0.27280000  0.79800000  0.15840000  1.0 -0.4703976866
C  C728  1  0.04800000  0.38960000  0.02520000  1.0 -0.4703976866
C  C729  1  0.83290000  0.70039000  0.51989000  1.0 0.1900498243
C  C730  1  0.56301000  0.58290000  0.63251000  1.0 0.1900498243
C  C731  1  0.95039000  0.93050000  0.36749000  1.0 0.1900498243
C  C732  1  0.18050000  0.31301000  0.48011000  1.0 0.1900498243
C  C733  1  0.41710000  0.04961000  0.98011000  1.0 0.1900498243
C  C734  1  0.68699000  0.16710000  0.86749000  1.0 0.1900498243
C  C735  1  0.29961000  0.81950000  0.13251000  1.0 0.1900498243
C  C736  1  0.06950000  0.43699000  0.01989000  1.0 0.1900498243
C  C737  1  0.80600000  0.69360000  0.49560000  1.0 -0.0893664005
C  C738  1  0.56040000  0.55600000  0.61240000  1.0 -0.0893664005
C  C739  1  0.94360000  0.94800000  0.38760000  1.0 -0.0893664005
C  C740  1  0.19800000  0.31040000  0.50440000  1.0 -0.0893664005
C  C741  1  0.44400000  0.05640000  0.00440000  1.0 -0.0893664005
C  C742  1  0.68960000  0.19400000  0.88760000  1.0 -0.0893664005
C  C743  1  0.30640000  0.80200000  0.11240000  1.0 -0.0893664005
C  C744  1  0.05200000  0.43960000  0.99560000  1.0 -0.0893664005
C  C745  1  0.75980000  0.66550000  0.50350000  1.0 0.1818547681
C  C746  1  0.50630000  0.50980000  0.59430000  1.0 0.1818547681
C  C747  1  0.91550000  0.91200000  0.40570000  1.0 0.1818547681
C  C748  1  0.16200000  0.25630000  0.49650000  1.0 0.1818547681
C  C749  1  0.49020000  0.08450000  0.99650000  1.0 0.1818547681
C  C750  1  0.74370000  0.24020000  0.90570000  1.0 0.1818547681
C  C751  1  0.33450000  0.83800000  0.09430000  1.0 0.1818547681
C  C752  1  0.08800000  0.49370000  0.00350000  1.0 0.1818547681
C  C753  1  0.71320000  0.64520000  0.48660000  1.0 -0.4703976866
C  C754  1  0.47660000  0.46320000  0.56800000  1.0 -0.4703976866
C  C755  1  0.89520000  0.90860000  0.43200000  1.0 -0.4703976866
C  C756  1  0.15860000  0.22660000  0.51340000  1.0 -0.4703976866
C  C757  1  0.53680000  0.10480000  0.01340000  1.0 -0.4703976866
C  C758  1  0.77340000  0.28680000  0.93200000  1.0 -0.4703976866
C  C759  1  0.35480000  0.84140000  0.06800000  1.0 -0.4703976866
C  C760  1  0.09140000  0.52340000  0.98660000  1.0 -0.4703976866
C  C761  1  0.83800000  0.78190000  0.48030000  1.0 -0.4703976866
C  C762  1  0.60770000  0.58800000  0.55610000  1.0 -0.4703976866
C  C763  1  0.03190000  0.05160000  0.44390000  1.0 -0.4703976866
C  C764  1  0.30160000  0.35770000  0.51970000  1.0 -0.4703976866
C  C765  1  0.41200000  0.96810000  0.01970000  1.0 -0.4703976866
C  C766  1  0.64230000  0.16200000  0.94390000  1.0 -0.4703976866
C  C767  1  0.21810000  0.69840000  0.05610000  1.0 -0.4703976866
C  C768  1  0.94840000  0.39230000  0.98030000  1.0 -0.4703976866
C  C769  1  0.83707000  0.75384000  0.46271000  1.0 0.1900498243
C  C770  1  0.62436000  0.58707000  0.58323000  1.0 0.1900498243
C  C771  1  0.00384000  0.04113000  0.41677000  1.0 0.1900498243
C  C772  1  0.29113000  0.37436000  0.53729000  1.0 0.1900498243
C  C773  1  0.41293000  0.99616000  0.03729000  1.0 0.1900498243
C  C774  1  0.62564000  0.16293000  0.91677000  1.0 0.1900498243
C  C775  1  0.24616000  0.70887000  0.08323000  1.0 0.1900498243
C  C776  1  0.95887000  0.37564000  0.96271000  1.0 0.1900498243
C  C777  1  0.82340000  0.71480000  0.46860000  1.0 -0.1304589945
C  C778  1  0.60480000  0.57340000  0.60860000  1.0 -0.1304589945
C  C779  1  0.96480000  0.99620000  0.39140000  1.0 -0.1304589945
C  C780  1  0.24620000  0.35480000  0.53140000  1.0 -0.1304589945
C  C781  1  0.42660000  0.03520000  0.03140000  1.0 -0.1304589945
C  C782  1  0.64520000  0.17660000  0.89140000  1.0 -0.1304589945
C  C783  1  0.28520000  0.75380000  0.10860000  1.0 -0.1304589945
C  C784  1  0.00380000  0.39520000  0.96860000  1.0 -0.1304589945
C  C785  1  0.83120000  0.70220000  0.44540000  1.0 0.1990939783
C  C786  1  0.63580000  0.58120000  0.62900000  1.0 0.1990939783
C  C787  1  0.95220000  0.00680000  0.37100000  1.0 0.1990939783
C  C788  1  0.25680000  0.38580000  0.55460000  1.0 0.1990939783
C  C789  1  0.41880000  0.04780000  0.05460000  1.0 0.1990939783
C  C790  1  0.61420000  0.16880000  0.87100000  1.0 0.1990939783
C  C791  1  0.29780000  0.74320000  0.12900000  1.0 0.1990939783
C  C792  1  0.99320000  0.36420000  0.94540000  1.0 0.1990939783
C  C793  1  0.82430000  0.66360000  0.43970000  1.0 -0.4887091108
C  C794  1  0.63460000  0.57430000  0.66070000  1.0 -0.4887091108
C  C795  1  0.91360000  0.97390000  0.33930000  1.0 -0.4887091108
C  C796  1  0.22390000  0.38460000  0.56030000  1.0 -0.4887091108
C  C797  1  0.42570000  0.08640000  0.06030000  1.0 -0.4887091108
C  C798  1  0.61540000  0.17570000  0.83930000  1.0 -0.4887091108
C  C799  1  0.33640000  0.77610000  0.16070000  1.0 -0.4887091108
C  C800  1  0.02610000  0.36540000  0.93970000  1.0 -0.4887091108
C  C801  1  0.82370000  0.67550000  0.70440000  1.0 -0.4804044148
C  C802  1  0.36930000  0.57370000  0.64820000  1.0 -0.4804044148
C  C803  1  0.92550000  0.72110000  0.35180000  1.0 -0.4804044148
C  C804  1  0.97110000  0.11930000  0.29560000  1.0 -0.4804044148
C  C805  1  0.42630000  0.07450000  0.79560000  1.0 -0.4804044148
C  C806  1  0.88070000  0.17630000  0.85180000  1.0 -0.4804044148
C  C807  1  0.32450000  0.02890000  0.14820000  1.0 -0.4804044148
C  C808  1  0.27890000  0.63070000  0.20440000  1.0 -0.4804044148
C  C809  1  0.84610000  0.69080000  0.67730000  1.0 0.2057685129
C  C810  1  0.41880000  0.59610000  0.65530000  1.0 0.2057685129
C  C811  1  0.94080000  0.76350000  0.34470000  1.0 0.2057685129
C  C812  1  0.01350000  0.16880000  0.32270000  1.0 0.2057685129
C  C813  1  0.40390000  0.05920000  0.82270000  1.0 0.2057685129
C  C814  1  0.83120000  0.15390000  0.84470000  1.0 0.2057685129
C  C815  1  0.30920000  0.98650000  0.15530000  1.0 0.2057685129
C  C816  1  0.23650000  0.58120000  0.17730000  1.0 0.2057685129
C  C817  1  0.89802000  0.72440000  0.67502000  1.0 -0.1093917011
C  C818  1  0.47300000  0.64802000  0.67362000  1.0 -0.1093917011
C  C819  1  0.97440000  0.79938000  0.32638000  1.0 -0.1093917011
C  C820  1  0.04938000  0.22300000  0.32498000  1.0 -0.1093917011
C  C821  1  0.35198000  0.02560000  0.82498000  1.0 -0.1093917011
C  C822  1  0.77700000  0.10198000  0.82638000  1.0 -0.1093917011
C  C823  1  0.27560000  0.95062000  0.17362000  1.0 -0.1093917011
C  C824  1  0.20062000  0.52700000  0.17502000  1.0 -0.1093917011
C  C825  1  0.89443000  0.72336000  0.64459000  1.0 0.1900498243
C  C826  1  0.49984000  0.64443000  0.67107000  1.0 0.1900498243
C  C827  1  0.97336000  0.82877000  0.32893000  1.0 0.1900498243
C  C828  1  0.07877000  0.24984000  0.35541000  1.0 0.1900498243
C  C829  1  0.35557000  0.02664000  0.85541000  1.0 0.1900498243
C  C830  1  0.75016000  0.10557000  0.82893000  1.0 0.1900498243
C  C831  1  0.27664000  0.92123000  0.17107000  1.0 0.1900498243
C  C832  1  0.17123000  0.50016000  0.14459000  1.0 0.1900498243
C  C833  1  0.93770000  0.75060000  0.62850000  1.0 -0.4887091108
C  C834  1  0.55920000  0.68770000  0.68710000  1.0 -0.4887091108
C  C835  1  0.00060000  0.87210000  0.31290000  1.0 -0.4887091108
C  C836  1  0.12210000  0.30920000  0.37150000  1.0 -0.4887091108
C  C837  1  0.31230000  0.99940000  0.87150000  1.0 -0.4887091108
C  C838  1  0.69080000  0.06230000  0.81290000  1.0 -0.4887091108
C  C839  1  0.24940000  0.87790000  0.18710000  1.0 -0.4887091108
C  C840  1  0.12790000  0.44080000  0.12850000  1.0 -0.4887091108
C  C841  1  0.30830000  0.23420000  0.46270000  1.0 -0.4804044148
C  C842  1  0.09560000  0.05830000  0.57410000  1.0 -0.4804044148
C  C843  1  0.48420000  0.52150000  0.42590000  1.0 -0.4887091108
C  C844  1  0.77150000  0.84560000  0.53730000  1.0 -0.4887091108
C  C845  1  0.94170000  0.51580000  0.03730000  1.0 -0.4887091108
C  C846  1  0.15440000  0.69170000  0.92590000  1.0 -0.4887091108
C  C847  1  0.76580000  0.22850000  0.07410000  1.0 -0.4887091108
C  C848  1  0.47850000  0.90440000  0.96270000  1.0 -0.4887091108
C  C849  1  0.26250000  0.18800000  0.43470000  1.0 0.1818547681
C  C850  1  0.07780000  0.01250000  0.57450000  1.0 0.1818547681
C  C851  1  0.43800000  0.50330000  0.42550000  1.0 0.1818547681
C  C852  1  0.75330000  0.82780000  0.56530000  1.0 0.1818547681
C  C853  1  0.98750000  0.56200000  0.06530000  1.0 0.1818547681
C  C854  1  0.17220000  0.73750000  0.92550000  1.0 0.1818547681
C  C855  1  0.81200000  0.24670000  0.07450000  1.0 0.1818547681
C  C856  1  0.49670000  0.92220000  0.93470000  1.0 0.1818547681
C  C857  1  0.21940000  0.13250000  0.43130000  1.0 -0.1093917011
C  C858  1  0.03810000  0.96940000  0.58690000  1.0 -0.1093917011
C  C859  1  0.38250000  0.45120000  0.41310000  1.0 -0.1093917011
C  C860  1  0.70120000  0.78810000  0.56870000  1.0 -0.1093917011
C  C861  1  0.03060000  0.61750000  0.06870000  1.0 -0.1093917011
C  C862  1  0.21190000  0.78060000  0.91310000  1.0 -0.1093917011
C  C863  1  0.86750000  0.29880000  0.08690000  1.0 -0.1093917011
C  C864  1  0.54880000  0.96190000  0.93130000  1.0 -0.1093917011
C  C865  1  0.18710000  0.10610000  0.40080000  1.0 0.1990939783
C  C866  1  0.03630000  0.93710000  0.58100000  1.0 0.1990939783
C  C867  1  0.35610000  0.45530000  0.41900000  1.0 0.1990939783
C  C868  1  0.70530000  0.78630000  0.59920000  1.0 0.1990939783
C  C869  1  0.06290000  0.64390000  0.09920000  1.0 0.1990939783
C  C870  1  0.21370000  0.81290000  0.91900000  1.0 0.1990939783
C  C871  1  0.89390000  0.29470000  0.08100000  1.0 0.1990939783
C  C872  1  0.54470000  0.96370000  0.90080000  1.0 0.1990939783
C  C873  1  0.13660000  0.04840000  0.38420000  1.0 -0.4887091108
C  C874  1  0.00240000  0.88660000  0.58820000  1.0 -0.4887091108
C  C875  1  0.29840000  0.41420000  0.41180000  1.0 -0.4887091108
C  C876  1  0.66420000  0.75240000  0.61580000  1.0 -0.4887091108
C  C877  1  0.11340000  0.70160000  0.11580000  1.0 -0.4887091108
C  C878  1  0.24760000  0.86340000  0.91180000  1.0 -0.4887091108
C  C879  1  0.95160000  0.33580000  0.08820000  1.0 -0.4968911569
C  C880  1  0.58580000  0.99760000  0.88420000  1.0 -0.4887091108
C  C881  1  0.06390000  0.02680000  0.28490000  1.0 -0.4968911569
C  C882  1  0.02900000  0.81390000  0.53710000  1.0 -0.4968911569
C  C883  1  0.27680000  0.49190000  0.46290000  1.0 -0.4968911569
C  C884  1  0.74190000  0.77900000  0.71510000  1.0 -0.4968911569
C  C885  1  0.18610000  0.72320000  0.21510000  1.0 -0.4968911569
C  C886  1  0.22100000  0.93610000  0.96290000  1.0 -0.4968911569
C  C887  1  0.97320000  0.25810000  0.03710000  1.0 -0.4968911569
C  C888  1  0.50810000  0.97100000  0.78490000  1.0 -0.4968911569
C  C889  1  0.09820000  0.08190000  0.28530000  1.0 0.1900498243
C  C890  1  0.06290000  0.84820000  0.51630000  1.0 0.1900498243
C  C891  1  0.33190000  0.54660000  0.48370000  1.0 0.1900498243
C  C892  1  0.79660000  0.81290000  0.71470000  1.0 0.1900498243
C  C893  1  0.15180000  0.66810000  0.21470000  1.0 0.1900498243
C  C894  1  0.18710000  0.90180000  0.98370000  1.0 0.1900498243
C  C895  1  0.91810000  0.20340000  0.01630000  1.0 0.1900498243
C  C896  1  0.45340000  0.93710000  0.78530000  1.0 0.1900498243
C  C897  1  0.08905000  0.09530000  0.26495000  1.0 -0.1203576167
C  C898  1  0.07410000  0.83905000  0.49375000  1.0 -0.1203576167
C  C899  1  0.34530000  0.58035000  0.50625000  1.0 -0.1203576167
C  C900  1  0.83035000  0.82410000  0.73505000  1.0 -0.1203576167
C  C901  1  0.16095000  0.65470000  0.23505000  1.0 -0.1203576167
C  C902  1  0.17590000  0.91095000  0.00625000  1.0 -0.1203576167
C  C903  1  0.90470000  0.16965000  0.99375000  1.0 -0.1203576167
C  C904  1  0.41965000  0.92590000  0.76495000  1.0 -0.1203576167
C  C905  1  0.13260000  0.15140000  0.27620000  1.0 0.1900498243
C  C906  1  0.10640000  0.88260000  0.48120000  1.0 0.1900498243
C  C907  1  0.40140000  0.62520000  0.51880000  1.0 0.1900498243
C  C908  1  0.87520000  0.85640000  0.72380000  1.0 0.1900498243
C  C909  1  0.11740000  0.59860000  0.22380000  1.0 0.1900498243
C  C910  1  0.14360000  0.86740000  0.01880000  1.0 0.1900498243
C  C911  1  0.84860000  0.12480000  0.98120000  1.0 0.1900498243
C  C912  1  0.37480000  0.89360000  0.77620000  1.0 0.1900498243
C  C913  1  0.14490000  0.18990000  0.26560000  1.0 -0.459910445
C  C914  1  0.12930000  0.89490000  0.45500000  1.0 -0.459910445
C  C915  1  0.43990000  0.67430000  0.54500000  1.0 -0.459910445
C  C916  1  0.92430000  0.87930000  0.73440000  1.0 -0.459910445
C  C917  1  0.10510000  0.56010000  0.23440000  1.0 -0.459910445
C  C918  1  0.12070000  0.85510000  0.04500000  1.0 -0.459910445
C  C919  1  0.81010000  0.07570000  0.95500000  1.0 -0.459910445
C  C920  1  0.32570000  0.87070000  0.76560000  1.0 -0.459910445
C  C921  1  0.20400000  0.04930000  0.43150000  1.0 -0.4804044148
C  C922  1  0.02250000  0.95400000  0.65470000  1.0 -0.4804044148
C  C923  1  0.29930000  0.36780000  0.34530000  1.0 -0.4804044148
C  C924  1  0.61780000  0.77250000  0.56850000  1.0 -0.4804044148
C  C925  1  0.04600000  0.70070000  0.06850000  1.0 -0.4804044148
C  C926  1  0.22750000  0.79600000  0.84530000  1.0 -0.4804044148
C  C927  1  0.95070000  0.38220000  0.15470000  1.0 -0.4804044148
C  C928  1  0.63220000  0.97750000  0.93150000  1.0 -0.4804044148
C  C929  1  0.19600000  0.06650000  0.45250000  1.0 0.1818547681
C  C930  1  0.99350000  0.94600000  0.62950000  1.0 0.1818547681
C  C931  1  0.31650000  0.36400000  0.37050000  1.0 0.1818547681
C  C932  1  0.61400000  0.74350000  0.54750000  1.0 0.1818547681
C  C933  1  0.05400000  0.68350000  0.04750000  1.0 0.1818547681
C  C934  1  0.25650000  0.80400000  0.87050000  1.0 0.1818547681
C  C935  1  0.93350000  0.38600000  0.12950000  1.0 0.1818547681
C  C936  1  0.63600000  0.00650000  0.95250000  1.0 0.1818547681
C  C937  1  0.20540000  0.10410000  0.45370000  1.0 -0.1007166551
C  C938  1  0.00170000  0.95540000  0.60130000  1.0 -0.1007166551
C  C939  1  0.35410000  0.40040000  0.39870000  1.0 -0.1007166551
C  C940  1  0.65040000  0.75170000  0.54630000  1.0 -0.1007166551
C  C941  1  0.04460000  0.64590000  0.04630000  1.0 -0.1007166551
C  C942  1  0.24830000  0.79460000  0.89870000  1.0 -0.1007166551
C  C943  1  0.89590000  0.34960000  0.10130000  1.0 -0.1007166551
C  C944  1  0.59960000  0.99830000  0.95370000  1.0 -0.1007166551
C  C945  1  0.19250000  0.10460000  0.47990000  1.0 0.1900498243
C  C946  1  0.96260000  0.94250000  0.58790000  1.0 0.1900498243
C  C947  1  0.35460000  0.37470000  0.41210000  1.0 0.1900498243
C  C948  1  0.62470000  0.71260000  0.52010000  1.0 0.1900498243
C  C949  1  0.05750000  0.64540000  0.02010000  1.0 0.1900498243
C  C950  1  0.28740000  0.80750000  0.91210000  1.0 0.1900498243
C  C951  1  0.89540000  0.37530000  0.08790000  1.0 0.1900498243
C  C952  1  0.62530000  0.03740000  0.97990000  1.0 0.1900498243
C  C953  1  0.19290000  0.13560000  0.49310000  1.0 -0.4703976866
C  C954  1  0.94980000  0.94290000  0.55730000  1.0 -0.4703976866
C  C955  1  0.38560000  0.39250000  0.44270000  1.0 -0.4703976866
C  C956  1  0.64250000  0.69980000  0.50690000  1.0 -0.4703976866
C  C957  1  0.05710000  0.61440000  0.00690000  1.0 -0.4703976866
C  C958  1  0.30020000  0.80710000  0.94270000  1.0 -0.4703976866
C  C959  1  0.86440000  0.35750000  0.05730000  1.0 -0.4703976866
C  C960  1  0.60750000  0.05020000  0.99310000  1.0 -0.4703976866
C  C961  1  0.06870000  0.69330000  0.85260000  1.0 -0.4804044148
C  C962  1  0.46610000  0.81870000  0.87540000  1.0 -0.4804044148
C  C963  1  0.94330000  0.59070000  0.12460000  1.0 -0.4804044148
C  C964  1  0.84070000  0.21610000  0.14740000  1.0 -0.4804044148
C  C965  1  0.18130000  0.05670000  0.64740000  1.0 -0.4804044148
C  C966  1  0.78390000  0.93130000  0.62460000  1.0 -0.4804044148
C  C967  1  0.30670000  0.15930000  0.37540000  1.0 -0.4804044148
C  C968  1  0.40930000  0.53390000  0.35260000  1.0 -0.4804044148
C  C969  1  0.06160000  0.71290000  0.87470000  1.0 0.1900498243
C  C970  1  0.43690000  0.81160000  0.84870000  1.0 0.1900498243
C  C971  1  0.96290000  0.58820000  0.15130000  1.0 0.1900498243
C  C972  1  0.83820000  0.18690000  0.12530000  1.0 0.1900498243
C  C973  1  0.18840000  0.03710000  0.62530000  1.0 0.1900498243
C  C974  1  0.81310000  0.93840000  0.65130000  1.0 0.1900498243
C  C975  1  0.28710000  0.16180000  0.34870000  1.0 0.1900498243
C  C976  1  0.41180000  0.56310000  0.37470000  1.0 0.1900498243
C  C977  1  0.06910000  0.74940000  0.87410000  1.0 -0.0893664005
C  C978  1  0.44500000  0.81910000  0.81970000  1.0 -0.0893664005
C  C979  1  0.99940000  0.62530000  0.18030000  1.0 -0.0893664005
C  C980  1  0.87530000  0.19500000  0.12590000  1.0 -0.0893664005
C  C981  1  0.18090000  0.00060000  0.62590000  1.0 -0.0893664005
C  C982  1  0.80500000  0.93090000  0.68030000  1.0 -0.0893664005
C  C983  1  0.25060000  0.12470000  0.31970000  1.0 -0.0893664005
C  C984  1  0.37470000  0.55500000  0.37410000  1.0 -0.0893664005
C  C985  1  0.05640000  0.75110000  0.89970000  1.0 0.1818547681
C  C986  1  0.40670000  0.80640000  0.80530000  1.0 0.1818547681
C  C987  1  0.00110000  0.60140000  0.19470000  1.0 0.1818547681
C  C988  1  0.85140000  0.15670000  0.10030000  1.0 0.1818547681
C  C989  1  0.19360000  0.99890000  0.60030000  1.0 0.1818547681
C  C990  1  0.84330000  0.94360000  0.69470000  1.0 0.1818547681
C  C991  1  0.24890000  0.14860000  0.30530000  1.0 0.1818547681
C  C992  1  0.39860000  0.59330000  0.39970000  1.0 0.1818547681
C  C993  1  0.05730000  0.78260000  0.91150000  1.0 -0.4703976866
C  C994  1  0.39580000  0.80730000  0.77470000  1.0 -0.4703976866
C  C995  1  0.03260000  0.62110000  0.22530000  1.0 -0.4703976866
C  C996  1  0.87110000  0.14580000  0.08850000  1.0 -0.4703976866
C  C997  1  0.19270000  0.96740000  0.58850000  1.0 -0.4703976866
C  C998  1  0.85420000  0.94270000  0.72530000  1.0 -0.4703976866
C  C999  1  0.21740000  0.12890000  0.27470000  1.0 -0.4703976866
C  C1000  1  0.37890000  0.60420000  0.41150000  1.0 -0.4703976866
C  C1001  1  0.97710000  0.72480000  0.99290000  1.0 -0.4703976866
C  C1002  1  0.23420000  0.72710000  0.75230000  1.0 -0.4703976866
C  C1003  1  0.97480000  0.48190000  0.24770000  1.0 -0.4703976866
C  C1004  1  0.73190000  0.98420000  0.00710000  1.0 -0.4703976866
C  C1005  1  0.27290000  0.02520000  0.50710000  1.0 -0.4703976866
C  C1006  1  0.01580000  0.02290000  0.74770000  1.0 -0.4703976866
C  C1007  1  0.27520000  0.26810000  0.25230000  1.0 -0.4703976866
C  C1008  1  0.51810000  0.76580000  0.49290000  1.0 -0.4703976866
C  C1009  1  0.95700000  0.67890000  0.99810000  1.0 0.1714043933
C  C1010  1  0.20890000  0.70700000  0.77810000  1.0 0.1714043933
C  C1011  1  0.92890000  0.43080000  0.22190000  1.0 0.1714043933
C  C1012  1  0.68080000  0.95890000  0.00190000  1.0 0.1714043933
C  C1013  1  0.29300000  0.07110000  0.50190000  1.0 0.1714043933
C  C1014  1  0.04110000  0.04300000  0.72190000  1.0 0.1714043933
C  C1015  1  0.32110000  0.31920000  0.27810000  1.0 0.1714043933
C  C1016  1  0.56920000  0.79110000  0.49810000  1.0 0.1714043933
C  C1017  1  0.91850000  0.64030000  0.01340000  1.0 -0.0893664005
C  C1018  1  0.15510000  0.66850000  0.77820000  1.0 -0.0893664005
C  C1019  1  0.89030000  0.37690000  0.22180000  1.0 -0.0893664005
C  C1020  1  0.62690000  0.90510000  0.98660000  1.0 -0.0893664005
C  C1021  1  0.33150000  0.10970000  0.48660000  1.0 -0.0893664005
C  C1022  1  0.09490000  0.08150000  0.72180000  1.0 -0.0893664005
C  C1023  1  0.35970000  0.37310000  0.27820000  1.0 -0.0893664005
C  C1024  1  0.62310000  0.84490000  0.51340000  1.0 -0.0893664005
C  C1025  1  0.91440000  0.60580000  0.01060000  1.0 0.1900498243
C  C1026  1  0.15380000  0.66440000  0.80860000  1.0 0.1900498243
C  C1027  1  0.85580000  0.34520000  0.19140000  1.0 0.1900498243
C  C1028  1  0.59520000  0.90380000  0.98940000  1.0 0.1900498243
C  C1029  1  0.33560000  0.14420000  0.48940000  1.0 0.1900498243
C  C1030  1  0.09620000  0.08560000  0.69140000  1.0 0.1900498243
C  C1031  1  0.39420000  0.40480000  0.30860000  1.0 0.1900498243
C  C1032  1  0.65480000  0.84620000  0.51060000  1.0 0.1900498243
C  C1033  1  0.88150000  0.55730000  0.02300000  1.0 -0.4804044148
C  C1034  1  0.10850000  0.63150000  0.82420000  1.0 -0.4804044148
C  C1035  1  0.80730000  0.28430000  0.17580000  1.0 -0.4804044148
C  C1036  1  0.53430000  0.85850000  0.97700000  1.0 -0.4804044148
C  C1037  1  0.36850000  0.19270000  0.47700000  1.0 -0.4804044148
C  C1038  1  0.14150000  0.11850000  0.67580000  1.0 -0.4804044148
C  C1039  1  0.44270000  0.46570000  0.32420000  1.0 -0.4804044148
C  C1040  1  0.71570000  0.89150000  0.52300000  1.0 -0.4804044148
C  C1041  1  0.16310000  0.61550000  0.91540000  1.0 -0.4887091108
C  C1042  1  0.49770000  0.91310000  0.04760000  1.0 -0.4887091108
C  C1043  1  0.86550000  0.45010000  0.95240000  1.0 -0.4887091108
C  C1044  1  0.70010000  0.24770000  0.08460000  1.0 -0.4887091108
C  C1045  1  0.08690000  0.13450000  0.58460000  1.0 -0.4887091108
C  C1046  1  0.75230000  0.83690000  0.45240000  1.0 -0.4887091108
C  C1047  1  0.38450000  0.29990000  0.54760000  1.0 -0.4887091108
C  C1048  1  0.54990000  0.50230000  0.41540000  1.0 -0.4887091108
C  C1049  1  0.22134000  0.65781000  0.92015000  1.0 0.1818547681
C  C1050  1  0.55119000  0.97134000  0.06353000  1.0 0.1818547681
C  C1051  1  0.90781000  0.48766000  0.93647000  1.0 0.1818547681
C  C1052  1  0.73766000  0.30119000  0.07985000  1.0 0.1818547681
C  C1053  1  0.02866000  0.09219000  0.57985000  1.0 0.1818547681
C  C1054  1  0.69881000  0.77866000  0.43647000  1.0 0.1818547681
C  C1055  1  0.34219000  0.26234000  0.56353000  1.0 0.1818547681
C  C1056  1  0.51234000  0.44881000  0.42015000  1.0 0.1818547681
C  C1057  1  0.25440000  0.66840000  0.94100000  1.0 -0.1093917011
C  C1058  1  0.56340000  0.00440000  0.08600000  1.0 -0.1093917011
C  C1059  1  0.91840000  0.47740000  0.91400000  1.0 -0.1093917011
C  C1060  1  0.72740000  0.31340000  0.05900000  1.0 -0.1093917011
C  C1061  1  0.99560000  0.08160000  0.55900000  1.0 -0.1093917011
C  C1062  1  0.68660000  0.74560000  0.41400000  1.0 -0.1093917011
C  C1063  1  0.33160000  0.27260000  0.58600000  1.0 -0.1093917011
C  C1064  1  0.52260000  0.43660000  0.44100000  1.0 -0.1093917011
C  C1065  1  0.30600000  0.71230000  0.93510000  1.0 0.1990939783
C  C1066  1  0.62090000  0.05600000  0.09370000  1.0 0.1990939783
C  C1067  1  0.96230000  0.52720000  0.90630000  1.0 0.1990939783
C  C1068  1  0.77720000  0.37090000  0.06490000  1.0 0.1990939783
C  C1069  1  0.94400000  0.03770000  0.56490000  1.0 0.1990939783
C  C1070  1  0.62910000  0.69400000  0.40630000  1.0 0.1990939783
C  C1071  1  0.28770000  0.22280000  0.59370000  1.0 0.1990939783
C  C1072  1  0.47280000  0.37910000  0.43510000  1.0 0.1990939783
C  C1073  1  0.35730000  0.74060000  0.95030000  1.0 -0.4703976866
C  C1074  1  0.65700000  0.10730000  0.11670000  1.0 -0.4703976866
C  C1075  1  0.99060000  0.54030000  0.88330000  1.0 -0.4703976866
C  C1076  1  0.79030000  0.40700000  0.04970000  1.0 -0.4703976866
C  C1077  1  0.89270000  0.00940000  0.54970000  1.0 -0.4703976866
C  C1078  1  0.59300000  0.64270000  0.38330000  1.0 -0.4703976866
C  C1079  1  0.25940000  0.20970000  0.61670000  1.0 -0.4703976866
C  C1080  1  0.45970000  0.34300000  0.45030000  1.0 -0.4703976866
C  C1081  1  0.79560000  0.97720000  0.22360000  1.0 -0.459910445
C  C1082  1  0.82200000  0.54560000  0.31840000  1.0 -0.459910445
C  C1083  1  0.22720000  0.50360000  0.68160000  1.0 -0.459910445
C  C1084  1  0.75360000  0.57200000  0.77640000  1.0 -0.459910445
C  C1085  1  0.45440000  0.77280000  0.27640000  1.0 -0.459910445
C  C1086  1  0.42800000  0.20440000  0.18160000  1.0 -0.459910445
C  C1087  1  0.02280000  0.24640000  0.81840000  1.0 -0.459910445
C  C1088  1  0.49640000  0.17800000  0.72360000  1.0 -0.459910445
C  C1089  1  0.73830000  0.92210000  0.20260000  1.0 0.1714043933
C  C1090  1  0.78570000  0.48830000  0.31620000  1.0 0.1714043933
C  C1091  1  0.17210000  0.46950000  0.68380000  1.0 0.1714043933
C  C1092  1  0.71950000  0.53570000  0.79740000  1.0 0.1714043933
C  C1093  1  0.51170000  0.82790000  0.29740000  1.0 0.1714043933
C  C1094  1  0.46430000  0.26170000  0.18380000  1.0 0.1714043933
C  C1095  1  0.07790000  0.28050000  0.81620000  1.0 0.1714043933
C  C1096  1  0.53050000  0.21430000  0.70260000  1.0 0.1714043933
C  C1097  1  0.72020000  0.88720000  0.17800000  1.0 -0.0707473445
C  C1098  1  0.79220000  0.47020000  0.33300000  1.0 -0.0707473445
C  C1099  1  0.13720000  0.45920000  0.66700000  1.0 -0.0707473445
C  C1100  1  0.70920000  0.54220000  0.82200000  1.0 -0.0707473445
C  C1101  1  0.52980000  0.86280000  0.32200000  1.0 -0.0707473445
C  C1102  1  0.45780000  0.27980000  0.16700000  1.0 -0.0707473445
C  C1103  1  0.11280000  0.29080000  0.83300000  1.0 -0.0707473445
C  C1104  1  0.54080000  0.20780000  0.67800000  1.0 -0.0707473445
C  C1105  1  0.66460000  0.84750000  0.16750000  1.0 0.1818547681
C  C1106  1  0.74710000  0.41460000  0.31710000  1.0 0.1818547681
C  C1107  1  0.09750000  0.43000000  0.68290000  1.0 0.1818547681
C  C1108  1  0.68000000  0.49710000  0.83250000  1.0 0.1818547681
C  C1109  1  0.58540000  0.90250000  0.33250000  1.0 0.1818547681
C  C1110  1  0.50290000  0.33540000  0.18290000  1.0 0.1818547681
C  C1111  1  0.15250000  0.32000000  0.81710000  1.0 0.1818547681
C  C1112  1  0.57000000  0.25290000  0.66750000  1.0 0.1818547681
C  C1113  1  0.62360000  0.79870000  0.14030000  1.0 -0.4887091108
C  C1114  1  0.73330000  0.37360000  0.32490000  1.0 -0.4887091108
C  C1115  1  0.04870000  0.40840000  0.67510000  1.0 -0.4887091108
C  C1116  1  0.65840000  0.48330000  0.85970000  1.0 -0.4887091108
C  C1117  1  0.62640000  0.95130000  0.35970000  1.0 -0.4887091108
C  C1118  1  0.51670000  0.37640000  0.17510000  1.0 -0.4887091108
C  C1119  1  0.20130000  0.34160000  0.82490000  1.0 -0.4887091108
C  C1120  1  0.59160000  0.26670000  0.64030000  1.0 -0.4887091108
C  C1121  1  0.45500000  0.70790000  0.13690000  1.0 -0.4804044148
C  C1122  1  0.56810000  0.20500000  0.24710000  1.0 -0.4804044148
C  C1123  1  0.95790000  0.32100000  0.75290000  1.0 -0.4804044148
C  C1124  1  0.57100000  0.31810000  0.86310000  1.0 -0.4804044148
C  C1125  1  0.79500000  0.04210000  0.36310000  1.0 -0.4804044148
C  C1126  1  0.68190000  0.54500000  0.25290000  1.0 -0.4887091108
C  C1127  1  0.29210000  0.42900000  0.74710000  1.0 -0.4804044148
C  C1128  1  0.67900000  0.43190000  0.63690000  1.0 -0.4804044148
C  C1129  1  0.46170000  0.73980000  0.15790000  1.0 0.1900498243
C  C1130  1  0.55380000  0.21170000  0.22190000  1.0 0.1900498243
C  C1131  1  0.98980000  0.33190000  0.77810000  1.0 0.1900498243
C  C1132  1  0.58190000  0.30380000  0.84210000  1.0 0.1900498243
C  C1133  1  0.78830000  0.01020000  0.34210000  1.0 0.1900498243
C  C1134  1  0.69620000  0.53830000  0.27810000  1.0 0.1900498243
C  C1135  1  0.26020000  0.41810000  0.72190000  1.0 0.1900498243
C  C1136  1  0.66810000  0.44620000  0.65790000  1.0 0.1900498243
C  C1137  1  0.42880000  0.73650000  0.15750000  1.0 -0.0707473445
C  C1138  1  0.52130000  0.17880000  0.19230000  1.0 -0.0707473445
C  C1139  1  0.98650000  0.32900000  0.80770000  1.0 -0.0707473445
C  C1140  1  0.57900000  0.27130000  0.84250000  1.0 -0.0707473445
C  C1141  1  0.82120000  0.01350000  0.34250000  1.0 -0.0707473445
C  C1142  1  0.72870000  0.57120000  0.30770000  1.0 -0.0707473445
C  C1143  1  0.26350000  0.42100000  0.69230000  1.0 -0.0707473445
C  C1144  1  0.67100000  0.47870000  0.65750000  1.0 -0.0707473445
C  C1145  1  0.45820000  0.77940000  0.18280000  1.0 0.1714043933
C  C1146  1  0.52540000  0.20820000  0.17880000  1.0 0.1714043933
C  C1147  1  0.02940000  0.34660000  0.82120000  1.0 0.1714043933
C  C1148  1  0.59660000  0.27540000  0.81720000  1.0 0.1714043933
C  C1149  1  0.79180000  0.97060000  0.31720000  1.0 0.1714043933
C  C1150  1  0.72460000  0.54180000  0.32120000  1.0 0.1714043933
C  C1151  1  0.22060000  0.40340000  0.67880000  1.0 0.1714043933
C  C1152  1  0.65340000  0.47460000  0.68280000  1.0 0.1714043933
C  C1153  1  0.44420000  0.79710000  0.19570000  1.0 -0.4804044148
C  C1154  1  0.49850000  0.19420000  0.14710000  1.0 -0.4804044148
C  C1155  1  0.04710000  0.35140000  0.85290000  1.0 -0.4804044148
C  C1156  1  0.60140000  0.24850000  0.80430000  1.0 -0.4804044148
C  C1157  1  0.80580000  0.95290000  0.30430000  1.0 -0.4804044148
C  C1158  1  0.75150000  0.55580000  0.35290000  1.0 -0.4804044148
C  C1159  1  0.20290000  0.39860000  0.64710000  1.0 -0.4804044148
C  C1160  1  0.64860000  0.50150000  0.69570000  1.0 -0.4804044148
C  C1161  1  0.60240000  0.37390000  0.13870000  1.0 -0.4703976866
C  C1162  1  0.71370000  0.35240000  0.72850000  1.0 -0.4703976866
C  C1163  1  0.62390000  0.98520000  0.27150000  1.0 -0.4703976866
C  C1164  1  0.23520000  0.46370000  0.86130000  1.0 -0.4703976866
C  C1165  1  0.64760000  0.37610000  0.36130000  1.0 -0.4703976866
C  C1166  1  0.53630000  0.39760000  0.77150000  1.0 -0.4703976866
C  C1167  1  0.62610000  0.76480000  0.22850000  1.0 -0.4703976866
C  C1168  1  0.01480000  0.28630000  0.63870000  1.0 -0.4703976866
C  C1169  1  0.64450000  0.41650000  0.16800000  1.0 0.1990939783
C  C1170  1  0.72650000  0.39450000  0.72800000  1.0 0.1990939783
C  C1171  1  0.66650000  0.99850000  0.27200000  1.0 0.1990939783
C  C1172  1  0.24850000  0.47650000  0.83200000  1.0 0.1990939783
C  C1173  1  0.60550000  0.33350000  0.33200000  1.0 0.1990939783
C  C1174  1  0.52350000  0.35550000  0.77200000  1.0 0.1990939783
C  C1175  1  0.58350000  0.75150000  0.22800000  1.0 0.1990939783
C  C1176  1  0.00150000  0.27350000  0.66800000  1.0 0.1990939783
C  C1177  1  0.68990000  0.47420000  0.17590000  1.0 -0.0802497404
C  C1178  1  0.76400000  0.43990000  0.71570000  1.0 -0.0802497404
C  C1179  1  0.72420000  0.04830000  0.28430000  1.0 -0.0802497404
C  C1180  1  0.29830000  0.51400000  0.82410000  1.0 -0.0802497404
C  C1181  1  0.56010000  0.27580000  0.32410000  1.0 -0.0802497404
C  C1182  1  0.48600000  0.31010000  0.78430000  1.0 -0.0802497404
C  C1183  1  0.52580000  0.70170000  0.21570000  1.0 -0.0802497404
C  C1184  1  0.95170000  0.23600000  0.67590000  1.0 -0.0802497404
C  C1185  1  0.71210000  0.48890000  0.20620000  1.0 0.1900498243
C  C1186  1  0.75590000  0.46210000  0.72320000  1.0 0.1900498243
C  C1187  1  0.73890000  0.03270000  0.27680000  1.0 0.1900498243
C  C1188  1  0.28270000  0.50590000  0.79380000  1.0 0.1900498243
C  C1189  1  0.53790000  0.26110000  0.29380000  1.0 0.1900498243
C  C1190  1  0.49410000  0.28790000  0.77680000  1.0 0.1900498243
C  C1191  1  0.51110000  0.71730000  0.22320000  1.0 0.1900498243
C  C1192  1  0.96730000  0.24410000  0.70620000  1.0 0.1900498243
C  C1193  1  0.76340000  0.54705000  0.22765000  1.0 -0.4804044148
C  C1194  1  0.78575000  0.51340000  0.71635000  1.0 -0.4804044148
C  C1195  1  0.79705000  0.06940000  0.28365000  1.0 -0.4804044148
C  C1196  1  0.31940000  0.53575000  0.77235000  1.0 -0.4804044148
C  C1197  1  0.48660000  0.20295000  0.27235000  1.0 -0.4887091108
C  C1198  1  0.46425000  0.23660000  0.78365000  1.0 -0.4804044148
C  C1199  1  0.45295000  0.68060000  0.21635000  1.0 -0.4887091108
C  C1200  1  0.93060000  0.21425000  0.72765000  1.0 -0.4804044148
N  N1  1  0.17874000  0.97377000  0.78451000  1.0 -0.209592823
N  N2  1  0.64423000  0.92874000  0.70497000  1.0 -0.209592823
N  N3  1  0.22377000  0.93926000  0.29503000  1.0 -0.209592823
N  N4  1  0.18926000  0.39423000  0.21549000  1.0 -0.209592823
N  N5  1  0.07126000  0.77623000  0.71549000  1.0 -0.209592823
N  N6  1  0.60577000  0.82126000  0.79503000  1.0 -0.209592823
N  N7  1  0.02623000  0.81074000  0.20497000  1.0 -0.209592823
N  N8  1  0.06074000  0.35577000  0.28451000  1.0 -0.209592823
N  N9  1  0.19998000  0.97824000  0.81142000  1.0 -0.1901419107
N  N10  1  0.63856000  0.94998000  0.72174000  1.0 -0.1901419107
N  N11  1  0.22824000  0.91682000  0.27826000  1.0 -0.1901419107
N  N12  1  0.16682000  0.38856000  0.18858000  1.0 -0.1901419107
N  N13  1  0.05002000  0.77176000  0.68858000  1.0 -0.1901419107
N  N14  1  0.61144000  0.80002000  0.77826000  1.0 -0.1901419107
N  N15  1  0.02176000  0.83318000  0.22174000  1.0 -0.1901419107
N  N16  1  0.08318000  0.36144000  0.31142000  1.0 -0.1901419107
N  N17  1  0.12173000  0.83877000  0.82570000  1.0 -0.2000158383
N  N18  1  0.54603000  0.87173000  0.78296000  1.0 -0.2000158383
N  N19  1  0.08877000  0.76307000  0.21704000  1.0 -0.2000158383
N  N20  1  0.01307000  0.29603000  0.17430000  1.0 -0.2000158383
N  N21  1  0.12827000  0.91123000  0.67430000  1.0 -0.2000158383
N  N22  1  0.70397000  0.87827000  0.71704000  1.0 -0.2000158383
N  N23  1  0.16123000  0.98693000  0.28296000  1.0 -0.2000158383
N  N24  1  0.23693000  0.45397000  0.32570000  1.0 -0.2000158383
N  N25  1  0.07479000  0.78861000  0.80580000  1.0 -0.209592823
N  N26  1  0.51899000  0.82479000  0.78618000  1.0 -0.209592823
N  N27  1  0.03861000  0.73281000  0.21382000  1.0 -0.209592823
N  N28  1  0.98281000  0.26899000  0.19420000  1.0 -0.209592823
N  N29  1  0.17521000  0.96139000  0.69420000  1.0 -0.209592823
N  N30  1  0.73101000  0.92521000  0.71382000  1.0 -0.209592823
N  N31  1  0.21139000  0.01719000  0.28618000  1.0 -0.209592823
N  N32  1  0.26719000  0.48101000  0.30580000  1.0 -0.209592823
N  N33  1  0.99986000  0.77466000  0.73412000  1.0 -0.1901419107
N  N34  1  0.51574000  0.74986000  0.72520000  1.0 -0.1901419107
N  N35  1  0.02466000  0.79054000  0.27480000  1.0 -0.1901419107
N  N36  1  0.04054000  0.26574000  0.26588000  1.0 -0.1901419107
N  N37  1  0.25014000  0.97534000  0.76588000  1.0 -0.1901419107
N  N38  1  0.73426000  0.00014000  0.77480000  1.0 -0.1901419107
N  N39  1  0.22534000  0.95946000  0.22520000  1.0 -0.1901419107
N  N40  1  0.20946000  0.48426000  0.23412000  1.0 -0.1901419107
N  N41  1  0.03046000  0.82309000  0.72915000  1.0 -0.220638271
N  N42  1  0.55131000  0.78046000  0.70737000  1.0 -0.220638271
N  N43  1  0.07309000  0.84394000  0.29263000  1.0 -0.220638271
N  N44  1  0.09394000  0.30131000  0.27085000  1.0 -0.220638271
N  N45  1  0.21954000  0.92691000  0.77085000  1.0 -0.220638271
N  N46  1  0.69869000  0.96954000  0.79263000  1.0 -0.220638271
N  N47  1  0.17691000  0.90606000  0.20737000  1.0 -0.220638271
N  N48  1  0.15606000  0.44869000  0.22915000  1.0 -0.220638271
N  N49  1  0.95957000  0.99360000  0.20457000  1.0 -0.1901419107
N  N50  1  0.00500000  0.70957000  0.46597000  1.0 -0.1901419107
N  N51  1  0.24360000  0.53903000  0.53403000  1.0 -0.1901419107
N  N52  1  0.78903000  0.75500000  0.79543000  1.0 -0.1901419107
N  N53  1  0.29043000  0.75640000  0.29543000  1.0 -0.1901419107
N  N54  1  0.24500000  0.04043000  0.03403000  1.0 -0.1901419107
N  N55  1  0.00640000  0.21097000  0.96597000  1.0 -0.1901419107
N  N56  1  0.46097000  0.99500000  0.70457000  1.0 -0.1901419107
N  N57  1  0.99550000  0.01870000  0.18800000  1.0 -0.209592823
N  N58  1  0.05750000  0.74550000  0.47680000  1.0 -0.209592823
N  N59  1  0.26870000  0.58070000  0.52320000  1.0 -0.209592823
N  N60  1  0.83070000  0.80750000  0.81200000  1.0 -0.209592823
N  N61  1  0.25450000  0.73130000  0.31200000  1.0 -0.209592823
N  N62  1  0.19250000  0.00450000  0.02320000  1.0 -0.209592823
N  N63  1  0.98130000  0.16930000  0.97680000  1.0 -0.209592823
N  N64  1  0.41930000  0.94250000  0.68800000  1.0 -0.209592823
N  N65  1  0.96060000  0.01718000  0.10198000  1.0 -0.220638271
N  N66  1  0.10862000  0.71060000  0.44342000  1.0 -0.209592823
N  N67  1  0.26718000  0.66520000  0.55658000  1.0 -0.209592823
N  N68  1  0.91520000  0.85862000  0.89802000  1.0 -0.209592823
N  N69  1  0.28940000  0.73282000  0.39802000  1.0 -0.209592823
N  N70  1  0.14138000  0.03940000  0.05658000  1.0 -0.209592823
N  N71  1  0.98282000  0.08480000  0.94342000  1.0 -0.209592823
N  N72  1  0.33480000  0.89138000  0.60198000  1.0 -0.209592823
N  N73  1  0.91250000  0.99080000  0.08870000  1.0 -0.2279533491
N  N74  1  0.07380000  0.66250000  0.42170000  1.0 -0.2279533491
N  N75  1  0.24080000  0.65210000  0.57830000  1.0 -0.2279533491
N  N76  1  0.90210000  0.82380000  0.91130000  1.0 -0.2279533491
N  N77  1  0.33750000  0.75920000  0.41130000  1.0 -0.2279533491
N  N78  1  0.17620000  0.08750000  0.07830000  1.0 -0.2279533491
N  N79  1  0.00920000  0.09790000  0.92170000  1.0 -0.2279533491
N  N80  1  0.34790000  0.92620000  0.58870000  1.0 -0.2279533491
N  N81  1  0.79817000  0.90562000  0.13779000  1.0 -0.220638271
N  N82  1  0.91038000  0.54817000  0.39255000  1.0 -0.220638271
N  N83  1  0.15562000  0.51783000  0.60745000  1.0 -0.220638271
N  N84  1  0.76783000  0.66038000  0.86221000  1.0 -0.220638271
N  N85  1  0.45183000  0.84438000  0.36221000  1.0 -0.220638271
N  N86  1  0.33962000  0.20183000  0.10745000  1.0 -0.220638271
N  N87  1  0.09438000  0.23217000  0.89255000  1.0 -0.220638271
N  N88  1  0.48217000  0.08962000  0.63779000  1.0 -0.220638271
N  N89  1  0.80900000  0.90310000  0.16630000  1.0 -0.220638271
N  N90  1  0.89270000  0.55900000  0.40590000  1.0 -0.220638271
N  N91  1  0.15310000  0.48680000  0.59410000  1.0 -0.220638271
N  N92  1  0.73680000  0.64270000  0.83370000  1.0 -0.220638271
N  N93  1  0.44100000  0.84690000  0.33370000  1.0 -0.220638271
N  N94  1  0.35730000  0.19100000  0.09410000  1.0 -0.220638271
N  N95  1  0.09690000  0.26320000  0.90590000  1.0 -0.220638271
N  N96  1  0.51320000  0.10730000  0.66630000  1.0 -0.220638271
N  N97  1  0.05196000  0.16984000  0.03320000  1.0 -0.220638271
N  N98  1  0.26876000  0.80196000  0.38212000  1.0 -0.220638271
N  N99  1  0.41984000  0.88664000  0.61788000  1.0 -0.220638271
N  N100  1  0.13664000  0.01876000  0.96680000  1.0 -0.220638271
N  N101  1  0.19804000  0.58016000  0.46680000  1.0 -0.220638271
N  N102  1  0.98124000  0.94804000  0.11788000  1.0 -0.220638271
N  N103  1  0.83016000  0.86336000  0.88212000  1.0 -0.220638271
N  N104  1  0.11336000  0.73124000  0.53320000  1.0 -0.220638271
N  N105  1  0.05970000  0.14930000  0.01880000  1.0 -0.220638271
N  N106  1  0.29090000  0.80970000  0.41040000  1.0 -0.220638271
N  N107  1  0.39930000  0.88050000  0.58960000  1.0 -0.220638271
N  N108  1  0.13050000  0.04090000  0.98120000  1.0 -0.220638271
N  N109  1  0.19030000  0.60070000  0.48120000  1.0 -0.220638271
N  N110  1  0.95910000  0.94030000  0.08960000  1.0 -0.220638271
N  N111  1  0.85070000  0.86950000  0.91040000  1.0 -0.220638271
N  N112  1  0.11950000  0.70910000  0.51880000  1.0 -0.220638271
N  N113  1  0.15281000  0.21754000  0.95855000  1.0 -0.209592823
N  N114  1  0.44426000  0.90281000  0.43527000  1.0 -0.209592823
N  N115  1  0.46754000  0.00899000  0.56473000  1.0 -0.209592823
N  N116  1  0.25899000  0.19426000  0.04145000  1.0 -0.209592823
N  N117  1  0.09719000  0.53246000  0.54145000  1.0 -0.220638271
N  N118  1  0.80574000  0.84719000  0.06473000  1.0 -0.209592823
N  N119  1  0.78246000  0.74101000  0.93527000  1.0 -0.209592823
N  N120  1  0.99101000  0.55574000  0.45855000  1.0 -0.209592823
N  N121  1  0.17765000  0.26142000  0.95047000  1.0 -0.209592823
N  N122  1  0.47718000  0.92765000  0.41623000  1.0 -0.209592823
N  N123  1  0.51142000  0.06095000  0.58377000  1.0 -0.209592823
N  N124  1  0.31095000  0.22718000  0.04953000  1.0 -0.209592823
N  N125  1  0.07235000  0.48858000  0.54953000  1.0 -0.209592823
N  N126  1  0.77282000  0.82235000  0.08377000  1.0 -0.209592823
N  N127  1  0.73858000  0.68905000  0.91623000  1.0 -0.209592823
N  N128  1  0.93905000  0.52282000  0.45047000  1.0 -0.209592823
N  N129  1  0.16136000  0.32992000  0.99208000  1.0 -0.209592823
N  N130  1  0.41928000  0.91136000  0.33144000  1.0 -0.209592823
N  N131  1  0.57992000  0.08784000  0.66856000  1.0 -0.209592823
N  N132  1  0.33784000  0.16928000  0.00792000  1.0 -0.209592823
N  N133  1  0.08864000  0.42008000  0.50792000  1.0 -0.209592823
N  N134  1  0.83072000  0.83864000  0.16856000  1.0 -0.209592823
N  N135  1  0.67008000  0.66216000  0.83144000  1.0 -0.209592823
N  N136  1  0.91216000  0.58072000  0.49208000  1.0 -0.209592823
N  N137  1  0.12770000  0.30318000  0.01048000  1.0 -0.209592823
N  N138  1  0.36722000  0.87770000  0.32452000  1.0 -0.209592823
N  N139  1  0.55318000  0.04270000  0.67548000  1.0 -0.209592823
N  N140  1  0.29270000  0.11722000  0.98952000  1.0 -0.209592823
N  N141  1  0.12230000  0.44682000  0.48952000  1.0 -0.209592823
N  N142  1  0.88278000  0.87230000  0.17548000  1.0 -0.209592823
N  N143  1  0.69682000  0.70730000  0.82452000  1.0 -0.209592823
N  N144  1  0.95730000  0.63278000  0.51048000  1.0 -0.209592823
N  N145  1  0.26470000  0.23421000  0.89051000  1.0 -0.209592823
N  N146  1  0.62419000  0.01470000  0.53049000  1.0 -0.209592823
N  N147  1  0.48421000  0.09370000  0.46951000  1.0 -0.209592823
N  N148  1  0.34370000  0.37419000  0.10949000  1.0 -0.209592823
N  N149  1  0.98530000  0.51579000  0.60949000  1.0 -0.209592823
N  N150  1  0.62581000  0.73530000  0.96951000  1.0 -0.209592823
N  N151  1  0.76579000  0.65630000  0.03049000  1.0 -0.209592823
N  N152  1  0.90630000  0.37581000  0.39051000  1.0 -0.209592823
N  N153  1  0.31070000  0.28416000  0.91126000  1.0 -0.1901419107
N  N154  1  0.64944000  0.06070000  0.52654000  1.0 -0.1901419107
N  N155  1  0.53416000  0.12290000  0.47346000  1.0 -0.1901419107
N  N156  1  0.37290000  0.39944000  0.08874000  1.0 -0.1901419107
N  N157  1  0.93930000  0.46584000  0.58874000  1.0 -0.1901419107
N  N158  1  0.60056000  0.68930000  0.97346000  1.0 -0.1901419107
N  N159  1  0.71584000  0.62710000  0.02654000  1.0 -0.1901419107
N  N160  1  0.87710000  0.35056000  0.41126000  1.0 -0.1901419107
N  N161  1  0.46136000  0.37188000  0.92904000  1.0 -0.2000158383
N  N162  1  0.78232000  0.21136000  0.58948000  1.0 -0.2000158383
N  N163  1  0.62188000  0.19284000  0.41052000  1.0 -0.2000158383
N  N164  1  0.44284000  0.53232000  0.07096000  1.0 -0.2000158383
N  N165  1  0.78864000  0.37812000  0.57096000  1.0 -0.2000158383
N  N166  1  0.46768000  0.53864000  0.91052000  1.0 -0.2000158383
N  N167  1  0.62812000  0.55716000  0.08948000  1.0 -0.2000158383
N  N168  1  0.80716000  0.21768000  0.42904000  1.0 -0.2000158383
N  N169  1  0.46728000  0.34958000  0.91746000  1.0 -0.209592823
N  N170  1  0.79982000  0.21728000  0.61770000  1.0 -0.209592823
N  N171  1  0.59958000  0.18212000  0.38230000  1.0 -0.209592823
N  N172  1  0.43212000  0.54982000  0.08254000  1.0 -0.209592823
N  N173  1  0.78272000  0.40042000  0.58254000  1.0 -0.209592823
N  N174  1  0.45018000  0.53272000  0.88230000  1.0 -0.209592823
N  N175  1  0.65042000  0.56788000  0.11770000  1.0 -0.209592823
N  N176  1  0.81788000  0.20018000  0.41746000  1.0 -0.209592823
N  N177  1  0.33086000  0.19310000  0.85916000  1.0 -0.1776858249
N  N178  1  0.72170000  0.08086000  0.63776000  1.0 -0.1776858249
N  N179  1  0.44310000  0.08394000  0.36224000  1.0 -0.1776858249
N  N180  1  0.33394000  0.47170000  0.14084000  1.0 -0.1776858249
N  N181  1  0.91914000  0.55690000  0.64084000  1.0 -0.1776858249
N  N182  1  0.52830000  0.66914000  0.86224000  1.0 -0.1776858249
N  N183  1  0.80690000  0.66606000  0.13776000  1.0 -0.1776858249
N  N184  1  0.91606000  0.27830000  0.35916000  1.0 -0.1776858249
N  N185  1  0.28230000  0.16540000  0.85270000  1.0 -0.1901419107
N  N186  1  0.67960000  0.03230000  0.61690000  1.0 -0.1901419107
N  N187  1  0.41540000  0.06270000  0.38310000  1.0 -0.1901419107
N  N188  1  0.31270000  0.42960000  0.14730000  1.0 -0.1901419107
N  N189  1  0.96770000  0.58460000  0.64730000  1.0 -0.1901419107
N  N190  1  0.57040000  0.71770000  0.88310000  1.0 -0.1901419107
N  N191  1  0.83460000  0.68730000  0.11690000  1.0 -0.1901419107
N  N192  1  0.93730000  0.32040000  0.35270000  1.0 -0.1901419107
N  N193  1  0.67784000  0.52787000  0.01011000  1.0 -0.209592823
N  N194  1  0.91773000  0.42784000  0.64997000  1.0 -0.209592823
N  N195  1  0.77787000  0.26776000  0.35003000  1.0 -0.209592823
N  N196  1  0.51776000  0.66773000  0.98989000  1.0 -0.209592823
N  N197  1  0.57216000  0.22213000  0.48989000  1.0 -0.209592823
N  N198  1  0.33227000  0.32216000  0.85003000  1.0 -0.209592823
N  N199  1  0.47213000  0.48224000  0.14997000  1.0 -0.209592823
N  N200  1  0.73224000  0.08227000  0.51011000  1.0 -0.209592823
N  N201  1  0.64583000  0.50581000  0.03004000  1.0 -0.209592823
N  N202  1  0.86579000  0.39583000  0.64002000  1.0 -0.209592823
N  N203  1  0.75581000  0.22577000  0.35998000  1.0 -0.209592823
N  N204  1  0.47577000  0.61579000  0.96996000  1.0 -0.209592823
N  N205  1  0.60417000  0.24419000  0.46996000  1.0 -0.209592823
N  N206  1  0.38421000  0.35417000  0.85998000  1.0 -0.209592823
N  N207  1  0.49419000  0.52423000  0.14002000  1.0 -0.209592823
N  N208  1  0.77423000  0.13421000  0.53004000  1.0 -0.209592823
N  N209  1  0.71019000  0.53478000  0.11717000  1.0 -0.209592823
N  N210  1  0.84302000  0.46019000  0.67541000  1.0 -0.209592823
N  N211  1  0.78478000  0.16761000  0.32459000  1.0 -0.209592823
N  N212  1  0.41761000  0.59302000  0.88283000  1.0 -0.209592823
N  N213  1  0.53981000  0.21522000  0.38283000  1.0 -0.209592823
N  N214  1  0.40698000  0.28981000  0.82459000  1.0 -0.209592823
N  N215  1  0.46522000  0.58239000  0.17541000  1.0 -0.209592823
N  N216  1  0.83239000  0.15698000  0.61717000  1.0 -0.209592823
N  N217  1  0.75822000  0.56015000  0.12437000  1.0 -0.1901419107
N  N218  1  0.88385000  0.50822000  0.69807000  1.0 -0.1901419107
N  N219  1  0.81015000  0.18578000  0.30193000  1.0 -0.1901419107
N  N220  1  0.43578000  0.63385000  0.87563000  1.0 -0.1901419107
N  N221  1  0.49178000  0.18985000  0.37563000  1.0 -0.1901419107
N  N222  1  0.36615000  0.24178000  0.80193000  1.0 -0.1901419107
N  N223  1  0.43985000  0.56422000  0.19807000  1.0 -0.1901419107
N  N224  1  0.81422000  0.11615000  0.62437000  1.0 -0.1901419107
N  N225  1  0.85136000  0.62795000  0.06231000  1.0 -0.1901419107
N  N226  1  0.03905000  0.60136000  0.72341000  1.0 -0.1901419107
N  N227  1  0.87795000  0.31564000  0.27659000  1.0 -0.1901419107
N  N228  1  0.56564000  0.78905000  0.93769000  1.0 -0.1901419107
N  N229  1  0.39864000  0.12205000  0.43769000  1.0 -0.1901419107
N  N230  1  0.21095000  0.14864000  0.77659000  1.0 -0.1901419107
N  N231  1  0.37205000  0.43436000  0.22341000  1.0 -0.1901419107
N  N232  1  0.68436000  0.96095000  0.56231000  1.0 -0.1901419107
N  N233  1  0.83162000  0.62370000  0.03632000  1.0 -0.2000158383
N  N234  1  0.04530000  0.58162000  0.70792000  1.0 -0.2000158383
N  N235  1  0.87370000  0.33738000  0.29208000  1.0 -0.2000158383
N  N236  1  0.58738000  0.79530000  0.96368000  1.0 -0.2000158383
N  N237  1  0.41838000  0.12630000  0.46368000  1.0 -0.2000158383
N  N238  1  0.20470000  0.16838000  0.79208000  1.0 -0.2000158383
N  N239  1  0.37630000  0.41262000  0.20792000  1.0 -0.2000158383
N  N240  1  0.66262000  0.95470000  0.53632000  1.0 -0.2000158383
N  N241  1  0.31517000  0.66105000  0.09482000  1.0 -0.220638271
N  N242  1  0.47035000  0.06517000  0.15412000  1.0 -0.220638271
N  N243  1  0.91105000  0.31623000  0.84588000  1.0 -0.220638271
N  N244  1  0.56623000  0.22035000  0.90518000  1.0 -0.220638271
N  N245  1  0.93483000  0.08895000  0.40518000  1.0 -0.220638271
N  N246  1  0.77965000  0.68483000  0.34588000  1.0 -0.220638271
N  N247  1  0.33895000  0.43377000  0.65412000  1.0 -0.220638271
N  N248  1  0.68377000  0.52965000  0.59482000  1.0 -0.220638271
N  N249  1  0.29462000  0.61792000  0.10274000  1.0 -0.220638271
N  N250  1  0.44188000  0.04462000  0.17670000  1.0 -0.220638271
N  N251  1  0.86792000  0.26518000  0.82330000  1.0 -0.220638271
N  N252  1  0.51518000  0.19188000  0.89726000  1.0 -0.220638271
N  N253  1  0.95538000  0.13208000  0.39726000  1.0 -0.220638271
N  N254  1  0.80812000  0.70538000  0.32330000  1.0 -0.220638271
N  N255  1  0.38208000  0.48482000  0.67670000  1.0 -0.220638271
N  N256  1  0.73482000  0.55812000  0.60274000  1.0 -0.220638271
N  N257  1  0.18836000  0.47521000  0.03837000  1.0 -0.209592823
N  N258  1  0.39999000  0.93836000  0.21315000  1.0 -0.209592823
N  N259  1  0.72521000  0.18684000  0.78685000  1.0 -0.209592823
N  N260  1  0.43684000  0.14999000  0.96163000  1.0 -0.209592823
N  N261  1  0.06164000  0.27479000  0.46163000  1.0 -0.209592823
N  N262  1  0.85001000  0.81164000  0.28685000  1.0 -0.209592823
N  N263  1  0.52479000  0.56316000  0.71315000  1.0 -0.209592823
N  N264  1  0.81316000  0.60001000  0.53837000  1.0 -0.209592823
N  N265  1  0.17112000  0.46574000  0.00826000  1.0 -0.2000158383
N  N266  1  0.41286000  0.92112000  0.20538000  1.0 -0.2000158383
N  N267  1  0.71574000  0.20748000  0.79462000  1.0 -0.2000158383
N  N268  1  0.45748000  0.16286000  0.99174000  1.0 -0.2000158383
N  N269  1  0.07888000  0.28426000  0.49174000  1.0 -0.2000158383
N  N270  1  0.83714000  0.82888000  0.29462000  1.0 -0.2000158383
N  N271  1  0.53426000  0.54252000  0.70538000  1.0 -0.2000158383
N  N272  1  0.79252000  0.58714000  0.50826000  1.0 -0.2000158383
N  N273  1  0.20959000  0.57873000  0.98692000  1.0 -0.2000158383
N  N274  1  0.47267000  0.95959000  0.13086000  1.0 -0.2000158383
N  N275  1  0.82873000  0.34181000  0.86914000  1.0 -0.2000158383
N  N276  1  0.59181000  0.22267000  0.01308000  1.0 -0.2000158383
N  N277  1  0.04041000  0.17127000  0.51308000  1.0 -0.2000158383
N  N278  1  0.77733000  0.79041000  0.36914000  1.0 -0.2000158383
N  N279  1  0.42127000  0.40819000  0.63086000  1.0 -0.2000158383
N  N280  1  0.65819000  0.52733000  0.48692000  1.0 -0.2000158383
N  N281  1  0.24503000  0.62650000  0.00813000  1.0 -0.2000158383
N  N282  1  0.48690000  0.99503000  0.11853000  1.0 -0.2000158383
N  N283  1  0.87650000  0.36837000  0.88147000  1.0 -0.2000158383
N  N284  1  0.61837000  0.23690000  0.99187000  1.0 -0.2000158383
N  N285  1  0.00497000  0.12350000  0.49187000  1.0 -0.2000158383
N  N286  1  0.76310000  0.75497000  0.38147000  1.0 -0.2000158383
N  N287  1  0.37350000  0.38163000  0.61853000  1.0 -0.2000158383
N  N288  1  0.63163000  0.51310000  0.50813000  1.0 -0.2000158383
N  N289  1  0.80611000  0.68011000  0.54162000  1.0 -0.2279533491
N  N290  1  0.51449000  0.55611000  0.62600000  1.0 -0.2279533491
N  N291  1  0.93011000  0.88849000  0.37400000  1.0 -0.2279533491
N  N292  1  0.13849000  0.26449000  0.45838000  1.0 -0.2279533491
N  N293  1  0.44389000  0.06989000  0.95838000  1.0 -0.2279533491
N  N294  1  0.73551000  0.19389000  0.87400000  1.0 -0.2279533491
N  N295  1  0.31989000  0.86151000  0.12600000  1.0 -0.2279533491
N  N296  1  0.11151000  0.48551000  0.04162000  1.0 -0.2279533491
N  N297  1  0.75979000  0.65816000  0.53175000  1.0 -0.209592823
N  N298  1  0.47804000  0.50979000  0.60163000  1.0 -0.209592823
N  N299  1  0.90816000  0.87641000  0.39837000  1.0 -0.209592823
N  N300  1  0.12641000  0.22804000  0.46825000  1.0 -0.209592823
N  N301  1  0.49021000  0.09184000  0.96825000  1.0 -0.209592823
N  N302  1  0.77196000  0.24021000  0.89837000  1.0 -0.209592823
N  N303  1  0.34184000  0.87359000  0.10163000  1.0 -0.209592823
N  N304  1  0.12359000  0.52196000  0.03175000  1.0 -0.209592823
N  N305  1  0.85088000  0.76243000  0.43631000  1.0 -0.220638271
N  N306  1  0.66457000  0.60088000  0.58845000  1.0 -0.220638271
N  N307  1  0.01243000  0.07612000  0.41155000  1.0 -0.220638271
N  N308  1  0.32612000  0.41457000  0.56369000  1.0 -0.220638271
N  N309  1  0.39912000  0.98757000  0.06369000  1.0 -0.220638271
N  N310  1  0.58543000  0.14912000  0.91155000  1.0 -0.220638271
N  N311  1  0.23757000  0.67388000  0.08845000  1.0 -0.220638271
N  N312  1  0.92388000  0.33543000  0.93631000  1.0 -0.220638271
N  N313  1  0.84842000  0.73081000  0.42583000  1.0 -0.209592823
N  N314  1  0.67259000  0.59842000  0.61761000  1.0 -0.209592823
N  N315  1  0.98081000  0.05498000  0.38239000  1.0 -0.209592823
N  N316  1  0.30498000  0.42259000  0.57417000  1.0 -0.209592823
N  N317  1  0.40158000  0.01919000  0.07417000  1.0 -0.209592823
N  N318  1  0.57741000  0.15158000  0.88239000  1.0 -0.209592823
N  N319  1  0.26919000  0.69502000  0.11761000  1.0 -0.209592823
N  N320  1  0.94502000  0.32741000  0.92583000  1.0 -0.209592823
N  N321  1  0.81669000  0.67431000  0.65020000  1.0 -0.2000158383
N  N322  1  0.41649000  0.56669000  0.64238000  1.0 -0.2000158383
N  N323  1  0.92431000  0.77411000  0.35762000  1.0 -0.2000158383
N  N324  1  0.02411000  0.16649000  0.34980000  1.0 -0.2000158383
N  N325  1  0.43331000  0.07569000  0.84980000  1.0 -0.2000158383
N  N326  1  0.83351000  0.18331000  0.85762000  1.0 -0.2000158383
N  N327  1  0.32569000  0.97589000  0.14238000  1.0 -0.2000158383
N  N328  1  0.22589000  0.58351000  0.15020000  1.0 -0.2000158383
N  N329  1  0.84663000  0.69409000  0.62992000  1.0 -0.209592823
N  N330  1  0.46671000  0.59663000  0.65254000  1.0 -0.209592823
N  N331  1  0.94409000  0.81417000  0.34746000  1.0 -0.209592823
N  N332  1  0.06417000  0.21671000  0.37008000  1.0 -0.209592823
N  N333  1  0.40337000  0.05591000  0.87008000  1.0 -0.209592823
N  N334  1  0.78329000  0.15337000  0.84746000  1.0 -0.209592823
N  N335  1  0.30591000  0.93583000  0.15254000  1.0 -0.209592823
N  N336  1  0.18583000  0.53329000  0.12992000  1.0 -0.209592823
N  N337  1  0.25656000  0.19606000  0.40882000  1.0 -0.220638271
N  N338  1  0.09774000  0.00656000  0.56050000  1.0 -0.220638271
N  N339  1  0.44606000  0.53724000  0.43950000  1.0 -0.220638271
N  N340  1  0.78724000  0.84774000  0.59118000  1.0 -0.220638271
N  N341  1  0.99344000  0.55394000  0.09118000  1.0 -0.209592823
N  N342  1  0.15226000  0.74344000  0.93950000  1.0 -0.220638271
N  N343  1  0.80394000  0.21276000  0.06050000  1.0 -0.220638271
N  N344  1  0.46276000  0.90226000  0.90882000  1.0 -0.220638271
N  N345  1  0.21043000  0.14500000  0.38783000  1.0 -0.2000158383
N  N346  1  0.07260000  0.96043000  0.56543000  1.0 -0.2000158383
N  N347  1  0.39500000  0.50717000  0.43457000  1.0 -0.2000158383
N  N348  1  0.75717000  0.82260000  0.61217000  1.0 -0.2000158383
N  N349  1  0.03957000  0.60500000  0.11217000  1.0 -0.2000158383
N  N350  1  0.17740000  0.78957000  0.93457000  1.0 -0.2000158383
N  N351  1  0.85500000  0.24283000  0.06543000  1.0 -0.2000158383
N  N352  1  0.49283000  0.92740000  0.88783000  1.0 -0.2000158383
N  N353  1  0.14567000  0.12690000  0.30677000  1.0 -0.220638271
N  N354  1  0.08890000  0.89567000  0.51877000  1.0 -0.220638271
N  N355  1  0.37690000  0.57013000  0.48123000  1.0 -0.220638271
N  N356  1  0.82013000  0.83890000  0.69323000  1.0 -0.220638271
N  N357  1  0.10433000  0.62310000  0.19323000  1.0 -0.220638271
N  N358  1  0.16110000  0.85433000  0.98123000  1.0 -0.220638271
N  N359  1  0.87310000  0.17987000  0.01877000  1.0 -0.220638271
N  N360  1  0.42987000  0.91110000  0.80677000  1.0 -0.220638271
N  N361  1  0.16760000  0.17140000  0.30100000  1.0 -0.220638271
N  N362  1  0.11660000  0.91760000  0.49620000  1.0 -0.220638271
N  N363  1  0.42140000  0.62040000  0.50380000  1.0 -0.220638271
N  N364  1  0.87040000  0.86660000  0.69900000  1.0 -0.220638271
N  N365  1  0.08240000  0.57860000  0.19900000  1.0 -0.220638271
N  N366  1  0.13340000  0.83240000  0.00380000  1.0 -0.220638271
N  N367  1  0.82860000  0.12960000  0.99620000  1.0 -0.220638271
N  N368  1  0.37960000  0.88340000  0.80100000  1.0 -0.220638271
N  N369  1  0.17980000  0.04590000  0.47710000  1.0 -0.209592823
N  N370  1  0.95270000  0.92980000  0.63390000  1.0 -0.209592823
N  N371  1  0.29590000  0.31880000  0.36610000  1.0 -0.209592823
N  N372  1  0.56880000  0.70270000  0.52290000  1.0 -0.209592823
N  N373  1  0.07020000  0.70410000  0.02290000  1.0 -0.209592823
N  N374  1  0.29730000  0.82020000  0.86610000  1.0 -0.209592823
N  N375  1  0.95410000  0.43120000  0.13390000  1.0 -0.209592823
N  N376  1  0.68120000  0.04730000  0.97710000  1.0 -0.209592823
N  N377  1  0.17760000  0.07080000  0.49420000  1.0 -0.220638271
N  N378  1  0.93340000  0.92760000  0.60680000  1.0 -0.220638271
N  N379  1  0.32080000  0.32660000  0.39320000  1.0 -0.220638271
N  N380  1  0.57660000  0.68340000  0.50580000  1.0 -0.220638271
N  N381  1  0.07240000  0.67920000  0.00580000  1.0 -0.220638271
N  N382  1  0.31660000  0.82240000  0.89320000  1.0 -0.220638271
N  N383  1  0.92920000  0.42340000  0.10680000  1.0 -0.220638271
N  N384  1  0.67340000  0.06660000  0.99420000  1.0 -0.220638271
N  N385  1  0.04647000  0.69426000  0.90013000  1.0 -0.220638271
N  N386  1  0.39634000  0.79647000  0.85221000  1.0 -0.220638271
N  N387  1  0.94426000  0.54413000  0.14779000  1.0 -0.220638271
N  N388  1  0.79413000  0.14634000  0.09987000  1.0 -0.220638271
N  N389  1  0.20353000  0.05574000  0.59987000  1.0 -0.2279533491
N  N390  1  0.85366000  0.95353000  0.64779000  1.0 -0.220638271
N  N391  1  0.30574000  0.20587000  0.35221000  1.0 -0.2279533491
N  N392  1  0.45587000  0.60366000  0.40013000  1.0 -0.2279533491
N  N393  1  0.04587000  0.72132000  0.91599000  1.0 -0.209592823
N  N394  1  0.37988000  0.79587000  0.82455000  1.0 -0.209592823
N  N395  1  0.97132000  0.55533000  0.17545000  1.0 -0.209592823
N  N396  1  0.80533000  0.12988000  0.08401000  1.0 -0.209592823
N  N397  1  0.20413000  0.02868000  0.58401000  1.0 -0.209592823
N  N398  1  0.87012000  0.95413000  0.67545000  1.0 -0.209592823
N  N399  1  0.27868000  0.19467000  0.32455000  1.0 -0.209592823
N  N400  1  0.44467000  0.62012000  0.41599000  1.0 -0.209592823
N  N401  1  0.97124000  0.66580000  0.98504000  1.0 -0.209592823
N  N402  1  0.23620000  0.72124000  0.80544000  1.0 -0.209592823
N  N403  1  0.91580000  0.43076000  0.19456000  1.0 -0.209592823
N  N404  1  0.68076000  0.98620000  0.01496000  1.0 -0.209592823
N  N405  1  0.27876000  0.08420000  0.51496000  1.0 -0.209592823
N  N406  1  0.01380000  0.02876000  0.69456000  1.0 -0.209592823
N  N407  1  0.33420000  0.31924000  0.30544000  1.0 -0.209592823
N  N408  1  0.56924000  0.76380000  0.48504000  1.0 -0.209592823
N  N409  1  0.94750000  0.62251000  0.99341000  1.0 -0.209592823
N  N410  1  0.20409000  0.69750000  0.82499000  1.0 -0.209592823
N  N411  1  0.87251000  0.37910000  0.17501000  1.0 -0.209592823
N  N412  1  0.62910000  0.95409000  0.00659000  1.0 -0.209592823
N  N413  1  0.30250000  0.12749000  0.50659000  1.0 -0.209592823
N  N414  1  0.04591000  0.05250000  0.67501000  1.0 -0.209592823
N  N415  1  0.37749000  0.37090000  0.32499000  1.0 -0.209592823
N  N416  1  0.62090000  0.79591000  0.49341000  1.0 -0.209592823
N  N417  1  0.25013000  0.69300000  0.90273000  1.0 -0.209592823
N  N418  1  0.59740000  0.00013000  0.05713000  1.0 -0.209592823
N  N419  1  0.94300000  0.54027000  0.94287000  1.0 -0.209592823
N  N420  1  0.79027000  0.34740000  0.09727000  1.0 -0.209592823
N  N421  1  0.99987000  0.05700000  0.59727000  1.0 -0.209592823
N  N422  1  0.65260000  0.74987000  0.44287000  1.0 -0.209592823
N  N423  1  0.30700000  0.20973000  0.55713000  1.0 -0.209592823
N  N424  1  0.45973000  0.40260000  0.40273000  1.0 -0.209592823
N  N425  1  0.30293000  0.72600000  0.91173000  1.0 -0.220638271
N  N426  1  0.64120000  0.05293000  0.07693000  1.0 -0.220638271
N  N427  1  0.97600000  0.56427000  0.92307000  1.0 -0.220638271
N  N428  1  0.81427000  0.39120000  0.08827000  1.0 -0.220638271
N  N429  1  0.94707000  0.02400000  0.58827000  1.0 -0.220638271
N  N430  1  0.60880000  0.69707000  0.42307000  1.0 -0.220638271
N  N431  1  0.27400000  0.18573000  0.57693000  1.0 -0.220638271
N  N432  1  0.43573000  0.35880000  0.41173000  1.0 -0.220638271
N  N433  1  0.69690000  0.90540000  0.20870000  1.0 -0.220638271
N  N434  1  0.73820000  0.44690000  0.29150000  1.0 -0.220638271
N  N435  1  0.15540000  0.44670000  0.70850000  1.0 -0.220638271
N  N436  1  0.69670000  0.48820000  0.79130000  1.0 -0.220638271
N  N437  1  0.55310000  0.84460000  0.29130000  1.0 -0.220638271
N  N438  1  0.51180000  0.30310000  0.20850000  1.0 -0.220638271
N  N439  1  0.09460000  0.30330000  0.79150000  1.0 -0.220638271
N  N440  1  0.55330000  0.26180000  0.70870000  1.0 -0.220638271
N  N441  1  0.65070000  0.85700000  0.18610000  1.0 -0.2000158383
N  N442  1  0.71460000  0.40070000  0.29370000  1.0 -0.2000158383
N  N443  1  0.10700000  0.42090000  0.70630000  1.0 -0.2000158383
N  N444  1  0.67090000  0.46460000  0.81390000  1.0 -0.2000158383
N  N445  1  0.59930000  0.89300000  0.31390000  1.0 -0.2000158383
N  N446  1  0.53540000  0.34930000  0.20630000  1.0 -0.2000158383
N  N447  1  0.14300000  0.32910000  0.79370000  1.0 -0.2000158383
N  N448  1  0.57910000  0.28540000  0.68610000  1.0 -0.2000158383
N  N449  1  0.50730000  0.78160000  0.18130000  1.0 -0.2000158383
N  N450  1  0.57600000  0.25730000  0.22570000  1.0 -0.2000158383
N  N451  1  0.03160000  0.35030000  0.77430000  1.0 -0.2000158383
N  N452  1  0.60030000  0.32600000  0.81870000  1.0 -0.2000158383
N  N453  1  0.74270000  0.96840000  0.31870000  1.0 -0.2000158383
N  N454  1  0.67400000  0.49270000  0.27430000  1.0 -0.2000158383
N  N455  1  0.21840000  0.39970000  0.72570000  1.0 -0.2000158383
N  N456  1  0.64970000  0.42400000  0.68130000  1.0 -0.2000158383
N  N457  1  0.50740000  0.80840000  0.19740000  1.0 -0.2279533491
N  N458  1  0.56000000  0.25740000  0.19900000  1.0 -0.2279533491
N  N459  1  0.05840000  0.36100000  0.80100000  1.0 -0.2279533491
N  N460  1  0.61100000  0.31000000  0.80260000  1.0 -0.2279533491
N  N461  1  0.74260000  0.94160000  0.30260000  1.0 -0.2279533491
N  N462  1  0.69000000  0.49260000  0.30100000  1.0 -0.2279533491
N  N463  1  0.19160000  0.38900000  0.69900000  1.0 -0.2279533491
N  N464  1  0.63900000  0.44000000  0.69740000  1.0 -0.2279533491
N  N465  1  0.64050000  0.39950000  0.19240000  1.0 -0.220638271
N  N466  1  0.69810000  0.39050000  0.74100000  1.0 -0.220638271
N  N467  1  0.64950000  0.95710000  0.25900000  1.0 -0.220638271
N  N468  1  0.20710000  0.44810000  0.80760000  1.0 -0.220638271
N  N469  1  0.60950000  0.35050000  0.30760000  1.0 -0.220638271
N  N470  1  0.55190000  0.35950000  0.75900000  1.0 -0.220638271
N  N471  1  0.60050000  0.79290000  0.24100000  1.0 -0.220638271
N  N472  1  0.04290000  0.30190000  0.69240000  1.0 -0.220638271
N  N473  1  0.68602000  0.44752000  0.21690000  1.0 -0.220638271
N  N474  1  0.71912000  0.43602000  0.73850000  1.0 -0.220638271
N  N475  1  0.69752000  0.98062000  0.26150000  1.0 -0.220638271
N  N476  1  0.23062000  0.46912000  0.78310000  1.0 -0.220638271
N  N477  1  0.56398000  0.30248000  0.28310000  1.0 -0.220638271
N  N478  1  0.53088000  0.31398000  0.76150000  1.0 -0.220638271
N  N479  1  0.55248000  0.76938000  0.23850000  1.0 -0.220638271
N  N480  1  0.01938000  0.28088000  0.71690000  1.0 -0.220638271
