# DDEC6 charges by PACMAN v1.1 (https://github.com/mtap-research/PACMAN-charge/)
data_YIBMON_FSR_pacman
_symmetry_space_group_name_H-M   'P 1'
_cell_length_a   8.22600000
_cell_length_b   16.85840000
_cell_length_c   13.63630000
_cell_angle_alpha   90.00000000
_cell_angle_beta   99.15900000
_cell_angle_gamma   90.00000000
_symmetry_Int_Tables_number   1
_chemical_formula_structural   ZnH7C16O7
_chemical_formula_sum   'Zn4 H28 C64 O28'
_cell_volume   1866.93386701
_cell_formula_units_Z   4
loop_
 _symmetry_equiv_pos_site_id
 _symmetry_equiv_pos_as_xyz
  1  'x, y, z'
loop_
 _atom_site_type_symbol
 _atom_site_label
 _atom_site_symmetry_multiplicity
 _atom_site_fract_x
 _atom_site_fract_y
 _atom_site_fract_z
 _atom_site_occupancy
 _atom_site_charge
Zn  Zn1  1  0.62931000  0.97745000  0.63666000  1.0 0.8977222566
Zn  Zn2  1  0.87069000  0.47745000  0.36334000  1.0 0.8977222566
Zn  Zn3  1  0.37069000  0.02255000  0.36334000  1.0 0.8977222566
Zn  Zn4  1  0.12931000  0.52255000  0.63666000  1.0 0.8977222566
H  H1  1  0.51380000  0.06490000  0.07450000  1.0 0.1206329067
H  H2  1  0.98620000  0.56490000  0.92550000  1.0 0.1206329067
H  H3  1  0.48620000  0.93510000  0.92550000  1.0 0.1206329067
H  H4  1  0.01380000  0.43510000  0.07450000  1.0 0.1206329067
H  H5  1  0.51140000  0.09210000  0.90880000  1.0 0.1294264892
H  H6  1  0.98860000  0.59210000  0.09120000  1.0 0.1294264892
H  H7  1  0.48860000  0.90790000  0.09120000  1.0 0.1294264892
H  H8  1  0.01140000  0.40790000  0.90880000  1.0 0.1294264892
H  H9  1  0.15910000  0.25660000  0.91810000  1.0 0.1206329067
H  H10  1  0.34090000  0.75660000  0.08190000  1.0 0.1206329067
H  H11  1  0.84090000  0.74340000  0.08190000  1.0 0.1206329067
H  H12  1  0.65910000  0.24340000  0.91810000  1.0 0.1206329067
H  H13  1  0.14960000  0.22250000  0.08060000  1.0 0.1294264892
H  H14  1  0.35040000  0.72250000  0.91940000  1.0 0.1294264892
H  H15  1  0.85040000  0.77750000  0.91940000  1.0 0.1294264892
H  H16  1  0.64960000  0.27750000  0.08060000  1.0 0.1294264892
H  H17  1  0.36980000  0.08510000  0.74260000  1.0 0.1387876396
H  H18  1  0.13020000  0.58510000  0.25740000  1.0 0.1387876396
H  H19  1  0.63020000  0.91490000  0.25740000  1.0 0.1387876396
H  H20  1  0.86980000  0.41490000  0.74260000  1.0 0.1387876396
H  H21  1  0.31470000  0.24310000  0.52020000  1.0 0.1294264892
H  H22  1  0.18530000  0.74310000  0.47980000  1.0 0.1294264892
H  H23  1  0.68530000  0.75690000  0.47980000  1.0 0.1294264892
H  H24  1  0.81470000  0.25690000  0.52020000  1.0 0.1294264892
H  H25  1  0.29870000  0.31480000  0.79850000  1.0 0.1206329067
H  H26  1  0.20130000  0.81480000  0.20150000  1.0 0.1206329067
H  H27  1  0.70130000  0.68520000  0.20150000  1.0 0.1206329067
H  H28  1  0.79870000  0.18520000  0.79850000  1.0 0.1206329067
C  C1  1  0.31200000  0.11310000  0.19750000  1.0 0.5543436532
C  C2  1  0.18800000  0.61310000  0.80250000  1.0 0.5543436532
C  C3  1  0.68800000  0.88690000  0.80250000  1.0 0.5543436532
C  C4  1  0.81200000  0.38690000  0.19750000  1.0 0.5543436532
C  C5  1  0.35920000  0.08850000  0.54900000  1.0 0.5940486316
C  C6  1  0.14080000  0.58850000  0.45100000  1.0 0.5940486316
C  C7  1  0.64080000  0.91150000  0.45100000  1.0 0.5940486316
C  C8  1  0.85920000  0.41150000  0.54900000  1.0 0.5940486316
C  C9  1  0.31640000  0.38360000  0.61850000  1.0 0.2699937816
C  C10  1  0.18360000  0.88360000  0.38150000  1.0 0.2699937816
C  C11  1  0.68360000  0.61640000  0.38150000  1.0 0.2699937816
C  C12  1  0.81640000  0.11640000  0.61850000  1.0 0.2699937816
C  C13  1  0.32720000  0.13880000  0.09400000  1.0 -0.0158172694
C  C14  1  0.17280000  0.63880000  0.90600000  1.0 -0.0158172694
C  C15  1  0.67280000  0.86120000  0.90600000  1.0 -0.0158172694
C  C16  1  0.82720000  0.36120000  0.09400000  1.0 -0.0158172694
C  C17  1  0.43930000  0.10160000  0.04230000  1.0 -0.0808880168
C  C18  1  0.06070000  0.60160000  0.95770000  1.0 -0.0808880168
C  C19  1  0.56070000  0.89840000  0.95770000  1.0 -0.0808880168
C  C20  1  0.93930000  0.39840000  0.04230000  1.0 -0.0808880168
C  C21  1  0.43990000  0.11903000  0.94350000  1.0 -0.1418459143
C  C22  1  0.06010000  0.61903000  0.05650000  1.0 -0.1418459143
C  C23  1  0.56010000  0.88097000  0.05650000  1.0 -0.1418459143
C  C24  1  0.93990000  0.38097000  0.94350000  1.0 -0.1418459143
C  C25  1  0.33310000  0.17731000  0.89460000  1.0 0.0923708727
C  C26  1  0.16690000  0.67731000  0.10540000  1.0 0.0923708727
C  C27  1  0.66690000  0.82269000  0.10540000  1.0 0.0923708727
C  C28  1  0.83310000  0.32269000  0.89460000  1.0 0.0923708727
C  C29  1  0.22740000  0.21670000  0.94820000  1.0 -0.1418459143
C  C30  1  0.27260000  0.71670000  0.05180000  1.0 -0.1418459143
C  C31  1  0.77260000  0.78330000  0.05180000  1.0 -0.1418459143
C  C32  1  0.72740000  0.28330000  0.94820000  1.0 -0.1418459143
C  C33  1  0.22320000  0.19670000  0.04620000  1.0 -0.0808880168
C  C34  1  0.27680000  0.69670000  0.95380000  1.0 -0.0808880168
C  C35  1  0.77680000  0.80330000  0.95380000  1.0 -0.0808880168
C  C36  1  0.72320000  0.30330000  0.04620000  1.0 -0.0808880168
C  C37  1  0.33260000  0.19646000  0.78810000  1.0 0.0755915915
C  C38  1  0.16740000  0.69646000  0.21190000  1.0 0.0755915915
C  C39  1  0.66740000  0.80354000  0.21190000  1.0 0.0755915915
C  C40  1  0.83260000  0.30354000  0.78810000  1.0 0.0755915915
C  C41  1  0.35140000  0.13700000  0.72050000  1.0 -0.1133780523
C  C42  1  0.14860000  0.63700000  0.27950000  1.0 -0.1133780523
C  C43  1  0.64860000  0.86300000  0.27950000  1.0 -0.1133780523
C  C44  1  0.85140000  0.36300000  0.72050000  1.0 -0.1133780523
C  C45  1  0.34310000  0.15410000  0.62020000  1.0 -0.0015343962
C  C46  1  0.15690000  0.65410000  0.37980000  1.0 -0.0015343962
C  C47  1  0.65690000  0.84590000  0.37980000  1.0 -0.0015343962
C  C48  1  0.84310000  0.34590000  0.62020000  1.0 -0.0015343962
C  C49  1  0.32040000  0.23160000  0.58740000  1.0 -0.1279553349
C  C50  1  0.17960000  0.73160000  0.41260000  1.0 -0.1279553349
C  C51  1  0.67960000  0.76840000  0.41260000  1.0 -0.1279553349
C  C52  1  0.82040000  0.26840000  0.58740000  1.0 -0.1279553349
C  C53  1  0.30610000  0.29240000  0.65410000  1.0 -0.0015343962
C  C54  1  0.19390000  0.79240000  0.34590000  1.0 -0.0015343962
C  C55  1  0.69390000  0.70760000  0.34590000  1.0 -0.0015343962
C  C56  1  0.80610000  0.20760000  0.65410000  1.0 0.0006018209
C  C57  1  0.31060000  0.27430000  0.75380000  1.0 -0.1535427447
C  C58  1  0.18940000  0.77430000  0.24620000  1.0 -0.1535427447
C  C59  1  0.68940000  0.72570000  0.24620000  1.0 -0.1535427447
C  C60  1  0.81060000  0.22570000  0.75380000  1.0 -0.1535427447
C  C61  1  0.24340000  0.36890000  0.61620000  1.0 0.2699937816
C  C62  1  0.25660000  0.86890000  0.38380000  1.0 0.2699937816
C  C63  1  0.75660000  0.63110000  0.38380000  1.0 0.2699937816
C  C64  1  0.74340000  0.13110000  0.61620000  1.0 0.2634092395
O  O1  1  0.40300000  0.02121000  0.58194000  1.0 -0.5413150068
O  O2  1  0.09700000  0.52121000  0.41806000  1.0 -0.5413150068
O  O3  1  0.59700000  0.97879000  0.41806000  1.0 -0.5413150068
O  O4  1  0.90300000  0.47879000  0.58194000  1.0 -0.5413150068
O  O5  1  0.32270000  0.10417000  0.45650000  1.0 -0.4875741477
O  O6  1  0.17730000  0.60417000  0.54350000  1.0 -0.4875741477
O  O7  1  0.67730000  0.89583000  0.54350000  1.0 -0.4875741477
O  O8  1  0.82270000  0.39583000  0.45650000  1.0 -0.4875741477
O  O9  1  0.35680000  0.40140000  0.53850000  1.0 -0.1584567248
O  O10  1  0.14320000  0.90140000  0.46150000  1.0 -0.1584567248
O  O11  1  0.64320000  0.59860000  0.46150000  1.0 -0.1584567248
O  O12  1  0.85680000  0.09860000  0.53850000  1.0 -0.1584567248
O  O13  1  0.25930000  0.42802000  0.67943000  1.0 -0.3765519734
O  O14  1  0.24070000  0.92802000  0.32057000  1.0 -0.3765519734
O  O15  1  0.74070000  0.57198000  0.32057000  1.0 -0.3765519734
O  O16  1  0.75930000  0.07198000  0.67943000  1.0 -0.3765519734
O  O17  1  0.18890000  0.13354000  0.23371000  1.0 -0.4967937867
O  O18  1  0.31110000  0.63354000  0.76629000  1.0 -0.4967937867
O  O19  1  0.81110000  0.86646000  0.76629000  1.0 -0.4967937867
O  O20  1  0.68890000  0.36646000  0.23371000  1.0 -0.4967937867
O  O21  1  0.42960000  0.06808000  0.24243000  1.0 -0.563539895
O  O22  1  0.07040000  0.56808000  0.75757000  1.0 -0.563539895
O  O23  1  0.57040000  0.93192000  0.75757000  1.0 -0.563539895
O  O24  1  0.92960000  0.43192000  0.24243000  1.0 -0.563539895
O  O25  1  0.19670000  0.37650000  0.52560000  1.0 -0.1584567248
O  O26  1  0.30330000  0.87650000  0.47440000  1.0 -0.1584567248
O  O27  1  0.80330000  0.62350000  0.47440000  1.0 -0.1584567248
O  O28  1  0.69670000  0.12350000  0.52560000  1.0 -0.1584567248
