# DDEC6 charges by PACMAN v1.1 (https://github.com/mtap-research/PACMAN-charge/)
data_YICQOU_ASR_pacman
_symmetry_space_group_name_H-M   'P 1'
_cell_length_a   30.53420000
_cell_length_b   30.53420000
_cell_length_c   30.53420000
_cell_angle_alpha   60.86600000
_cell_angle_beta   60.86600000
_cell_angle_gamma   60.86600000
_symmetry_Int_Tables_number   1
_chemical_formula_structural   ZnH14C16NO2
_chemical_formula_sum   'Zn36 H504 C576 N36 O72'
_cell_volume   20523.06216253
_cell_formula_units_Z   36
loop_
 _symmetry_equiv_pos_site_id
 _symmetry_equiv_pos_as_xyz
  1  'x, y, z'
loop_
 _atom_site_type_symbol
 _atom_site_label
 _atom_site_symmetry_multiplicity
 _atom_site_fract_x
 _atom_site_fract_y
 _atom_site_fract_z
 _atom_site_occupancy
 _atom_site_charge
Zn  Zn1  1  0.87657000  0.42095000  0.33087000  1.0 0.7357679213
Zn  Zn2  1  0.33087000  0.87657000  0.42095000  1.0 0.7357679213
Zn  Zn3  1  0.42095000  0.33087000  0.87657000  1.0 0.7346317674
Zn  Zn4  1  0.37657000  0.83087000  0.92095000  1.0 0.7357679213
Zn  Zn5  1  0.83087000  0.92095000  0.37657000  1.0 0.7357679213
Zn  Zn6  1  0.92095000  0.37657000  0.83087000  1.0 0.7357679213
Zn  Zn7  1  0.70632000  0.96541000  0.34744000  1.0 0.5082672469
Zn  Zn8  1  0.34744000  0.70632000  0.96541000  1.0 0.5082672469
Zn  Zn9  1  0.96541000  0.34744000  0.70632000  1.0 0.5082672469
Zn  Zn10  1  0.20632000  0.84744000  0.46541000  1.0 0.5082672469
Zn  Zn11  1  0.84744000  0.46541000  0.20632000  1.0 0.5082672469
Zn  Zn12  1  0.46541000  0.20632000  0.84744000  1.0 0.5082672469
Zn  Zn13  1  0.71950000  0.96110000  0.36140000  1.0 0.4558703904
Zn  Zn14  1  0.36140000  0.71950000  0.96110000  1.0 0.4558703904
Zn  Zn15  1  0.96110000  0.36140000  0.71950000  1.0 0.4510198836
Zn  Zn16  1  0.21950000  0.86140000  0.46110000  1.0 0.4558703904
Zn  Zn17  1  0.86140000  0.46110000  0.21950000  1.0 0.4558703904
Zn  Zn18  1  0.46110000  0.21950000  0.86140000  1.0 0.4558703904
Zn  Zn19  1  0.62343000  0.16913000  0.07905000  1.0 0.7346317674
Zn  Zn20  1  0.16913000  0.07905000  0.62343000  1.0 0.7346317674
Zn  Zn21  1  0.07905000  0.62343000  0.16913000  1.0 0.7346317674
Zn  Zn22  1  0.12343000  0.57905000  0.66913000  1.0 0.7357679213
Zn  Zn23  1  0.66913000  0.12343000  0.57905000  1.0 0.7357679213
Zn  Zn24  1  0.57905000  0.66913000  0.12343000  1.0 0.7357679213
Zn  Zn25  1  0.79368000  0.15256000  0.53459000  1.0 0.5047665144
Zn  Zn26  1  0.15256000  0.53459000  0.79368000  1.0 0.5082672469
Zn  Zn27  1  0.53459000  0.79368000  0.15256000  1.0 0.5082672469
Zn  Zn28  1  0.29368000  0.03459000  0.65256000  1.0 0.5082672469
Zn  Zn29  1  0.65256000  0.29368000  0.03459000  1.0 0.5082672469
Zn  Zn30  1  0.03459000  0.65256000  0.29368000  1.0 0.5082672469
Zn  Zn31  1  0.78050000  0.13860000  0.53890000  1.0 0.4510198836
Zn  Zn32  1  0.13860000  0.53890000  0.78050000  1.0 0.4558703904
Zn  Zn33  1  0.53890000  0.78050000  0.13860000  1.0 0.4510198836
Zn  Zn34  1  0.28050000  0.03890000  0.63860000  1.0 0.4558703904
Zn  Zn35  1  0.63860000  0.28050000  0.03890000  1.0 0.4558703904
Zn  Zn36  1  0.03890000  0.63860000  0.28050000  1.0 0.4558703904
H  H1  1  0.77945000  0.45563000  0.44750000  1.0 0.100987546
H  H2  1  0.44750000  0.77945000  0.45563000  1.0 0.100987546
H  H3  1  0.45563000  0.44750000  0.77945000  1.0 0.100987546
H  H4  1  0.27945000  0.94750000  0.95563000  1.0 0.100987546
H  H5  1  0.94750000  0.95563000  0.27945000  1.0 0.100987546
H  H6  1  0.95563000  0.27945000  0.94750000  1.0 0.100987546
H  H7  1  0.82810000  0.41608000  0.46911000  1.0 0.100987546
H  H8  1  0.46911000  0.82810000  0.41608000  1.0 0.100987546
H  H9  1  0.41608000  0.46911000  0.82810000  1.0 0.100987546
H  H10  1  0.32810000  0.96911000  0.91608000  1.0 0.100987546
H  H11  1  0.96911000  0.91608000  0.32810000  1.0 0.100987546
H  H12  1  0.91608000  0.32810000  0.96911000  1.0 0.100987546
H  H13  1  0.81853000  0.51043000  0.39156000  1.0 0.100987546
H  H14  1  0.39156000  0.81853000  0.51043000  1.0 0.100987546
H  H15  1  0.51043000  0.39156000  0.81853000  1.0 0.100987546
H  H16  1  0.31853000  0.89156000  0.01043000  1.0 0.100987546
H  H17  1  0.89156000  0.01043000  0.31853000  1.0 0.100987546
H  H18  1  0.01043000  0.31853000  0.89156000  1.0 0.100987546
H  H19  1  0.85742000  0.47922000  0.42567000  1.0 0.100987546
H  H20  1  0.42567000  0.85742000  0.47922000  1.0 0.100987546
H  H21  1  0.47922000  0.42567000  0.85742000  1.0 0.100987546
H  H22  1  0.35742000  0.92567000  0.97922000  1.0 0.100987546
H  H23  1  0.92567000  0.97922000  0.35742000  1.0 0.100987546
H  H24  1  0.97922000  0.35742000  0.92567000  1.0 0.100987546
H  H25  1  0.92967000  0.43079000  0.41029000  1.0 0.100987546
H  H26  1  0.41029000  0.92967000  0.43079000  1.0 0.100987546
H  H27  1  0.43079000  0.41029000  0.92967000  1.0 0.100987546
H  H28  1  0.42967000  0.91029000  0.93079000  1.0 0.100987546
H  H29  1  0.91029000  0.93079000  0.42967000  1.0 0.100987546
H  H30  1  0.93079000  0.42967000  0.91029000  1.0 0.100987546
H  H31  1  0.96464000  0.45577000  0.35134000  1.0 0.100987546
H  H32  1  0.35134000  0.96464000  0.45577000  1.0 0.100987546
H  H33  1  0.45577000  0.35134000  0.96464000  1.0 0.100987546
H  H34  1  0.46464000  0.85134000  0.95577000  1.0 0.100987546
H  H35  1  0.85134000  0.95577000  0.46464000  1.0 0.100987546
H  H36  1  0.95577000  0.46464000  0.85134000  1.0 0.100987546
H  H37  1  0.99787000  0.38745000  0.33362000  1.0 0.100987546
H  H38  1  0.33362000  0.99787000  0.38745000  1.0 0.100987546
H  H39  1  0.38745000  0.33362000  0.99787000  1.0 0.100987546
H  H40  1  0.49787000  0.83362000  0.88745000  1.0 0.100987546
H  H41  1  0.83362000  0.88745000  0.49787000  1.0 0.100987546
H  H42  1  0.88745000  0.49787000  0.83362000  1.0 0.100987546
H  H43  1  0.98303000  0.36111000  0.39641000  1.0 0.100987546
H  H44  1  0.39641000  0.98303000  0.36111000  1.0 0.100987546
H  H45  1  0.36111000  0.39641000  0.98303000  1.0 0.100987546
H  H46  1  0.48303000  0.89641000  0.86111000  1.0 0.100987546
H  H47  1  0.89641000  0.86111000  0.48303000  1.0 0.100987546
H  H48  1  0.86111000  0.48303000  0.89641000  1.0 0.100987546
H  H49  1  0.92733000  0.32711000  0.44460000  1.0 0.100987546
H  H50  1  0.44460000  0.92733000  0.32711000  1.0 0.100987546
H  H51  1  0.32711000  0.44460000  0.92733000  1.0 0.100987546
H  H52  1  0.42733000  0.94460000  0.82711000  1.0 0.100987546
H  H53  1  0.94460000  0.82711000  0.42733000  1.0 0.100987546
H  H54  1  0.82711000  0.42733000  0.94460000  1.0 0.100987546
H  H55  1  0.92528000  0.29079000  0.42232000  1.0 0.100987546
H  H56  1  0.42232000  0.92528000  0.29079000  1.0 0.100987546
H  H57  1  0.29079000  0.42232000  0.92528000  1.0 0.100987546
H  H58  1  0.42528000  0.92232000  0.79079000  1.0 0.100987546
H  H59  1  0.92232000  0.79079000  0.42528000  1.0 0.100987546
H  H60  1  0.79079000  0.42528000  0.92232000  1.0 0.100987546
H  H61  1  0.84546000  0.32039000  0.44290000  1.0 0.100987546
H  H62  1  0.44290000  0.84546000  0.32039000  1.0 0.100987546
H  H63  1  0.32039000  0.44290000  0.84546000  1.0 0.100987546
H  H64  1  0.34546000  0.94290000  0.82039000  1.0 0.100987546
H  H65  1  0.94290000  0.82039000  0.34546000  1.0 0.100987546
H  H66  1  0.82039000  0.34546000  0.94290000  1.0 0.100987546
H  H67  1  0.84786000  0.34363000  0.47797000  1.0 0.100987546
H  H68  1  0.47797000  0.84786000  0.34363000  1.0 0.100987546
H  H69  1  0.34363000  0.47797000  0.84786000  1.0 0.100987546
H  H70  1  0.34786000  0.97797000  0.84363000  1.0 0.100987546
H  H71  1  0.97797000  0.84363000  0.34786000  1.0 0.100987546
H  H72  1  0.84363000  0.34786000  0.97797000  1.0 0.100987546
H  H73  1  0.75908000  0.43606000  0.40212000  1.0 0.1077392784
H  H74  1  0.40212000  0.75908000  0.43606000  1.0 0.1077392784
H  H75  1  0.43606000  0.40212000  0.75908000  1.0 0.1077392784
H  H76  1  0.25908000  0.90212000  0.93606000  1.0 0.1077392784
H  H77  1  0.90212000  0.93606000  0.25908000  1.0 0.1077392784
H  H78  1  0.93606000  0.25908000  0.90212000  1.0 0.1077392784
H  H79  1  0.78523000  0.37642000  0.40222000  1.0 0.1077392784
H  H80  1  0.40222000  0.78523000  0.37642000  1.0 0.1077392784
H  H81  1  0.37642000  0.40222000  0.78523000  1.0 0.1077392784
H  H82  1  0.28523000  0.90222000  0.87642000  1.0 0.1077392784
H  H83  1  0.90222000  0.87642000  0.28523000  1.0 0.1077392784
H  H84  1  0.87642000  0.28523000  0.90222000  1.0 0.1077392784
H  H85  1  0.69521000  0.45734000  0.48027000  1.0 0.1077392784
H  H86  1  0.48027000  0.69521000  0.45734000  1.0 0.1077392784
H  H87  1  0.45734000  0.48027000  0.69521000  1.0 0.1077392784
H  H88  1  0.19521000  0.98027000  0.95734000  1.0 0.1077392784
H  H89  1  0.98027000  0.95734000  0.19521000  1.0 0.1176560243
H  H90  1  0.95734000  0.19521000  0.98027000  1.0 0.1077392784
H  H91  1  0.63404000  0.43234000  0.56438000  1.0 0.100987546
H  H92  1  0.56438000  0.63404000  0.43234000  1.0 0.100987546
H  H93  1  0.43234000  0.56438000  0.63404000  1.0 0.100987546
H  H94  1  0.13404000  0.06438000  0.93234000  1.0 0.100987546
H  H95  1  0.06438000  0.93234000  0.13404000  1.0 0.100987546
H  H96  1  0.93234000  0.13404000  0.06438000  1.0 0.100987546
H  H97  1  0.71077000  0.27799000  0.57271000  1.0 0.1077392784
H  H98  1  0.57271000  0.71077000  0.27799000  1.0 0.1077392784
H  H99  1  0.27799000  0.57271000  0.71077000  1.0 0.1077392784
H  H100  1  0.21077000  0.07271000  0.77799000  1.0 0.1077392784
H  H101  1  0.07271000  0.77799000  0.21077000  1.0 0.1077392784
H  H102  1  0.77799000  0.21077000  0.07271000  1.0 0.1077392784
H  H103  1  0.77193000  0.30298000  0.48860000  1.0 0.1077392784
H  H104  1  0.48860000  0.77193000  0.30298000  1.0 0.1077392784
H  H105  1  0.30298000  0.48860000  0.77193000  1.0 0.1077392784
H  H106  1  0.27193000  0.98860000  0.80298000  1.0 0.1077392784
H  H107  1  0.98860000  0.80298000  0.27193000  1.0 0.1077392784
H  H108  1  0.80298000  0.27193000  0.98860000  1.0 0.1077392784
H  H109  1  0.60344000  0.40202000  0.64987000  1.0 0.1077392784
H  H110  1  0.64987000  0.60344000  0.40202000  1.0 0.1077392784
H  H111  1  0.40202000  0.64987000  0.60344000  1.0 0.1077392784
H  H112  1  0.10344000  0.14987000  0.90202000  1.0 0.1077392784
H  H113  1  0.14987000  0.90202000  0.10344000  1.0 0.1077392784
H  H114  1  0.90202000  0.10344000  0.14987000  1.0 0.1077392784
H  H115  1  0.54084000  0.37620000  0.73250000  1.0 0.1077392784
H  H116  1  0.73250000  0.54084000  0.37620000  1.0 0.1077392784
H  H117  1  0.37620000  0.73250000  0.54084000  1.0 0.1077392784
H  H118  1  0.04084000  0.23250000  0.87620000  1.0 0.1077392784
H  H119  1  0.23250000  0.87620000  0.04084000  1.0 0.1077392784
H  H120  1  0.87620000  0.04084000  0.23250000  1.0 0.1077392784
H  H121  1  0.57886000  0.23963000  0.71064000  1.0 0.1077392784
H  H122  1  0.71064000  0.57886000  0.23963000  1.0 0.1077392784
H  H123  1  0.23963000  0.71064000  0.57886000  1.0 0.1077392784
H  H124  1  0.07886000  0.21064000  0.73963000  1.0 0.1077392784
H  H125  1  0.21064000  0.73963000  0.07886000  1.0 0.1077392784
H  H126  1  0.73963000  0.07886000  0.21064000  1.0 0.1077392784
H  H127  1  0.64146000  0.26544000  0.62800000  1.0 0.100987546
H  H128  1  0.62800000  0.64146000  0.26544000  1.0 0.100987546
H  H129  1  0.26544000  0.62800000  0.64146000  1.0 0.100987546
H  H130  1  0.14146000  0.12800000  0.76544000  1.0 0.100987546
H  H131  1  0.12800000  0.76544000  0.14146000  1.0 0.100987546
H  H132  1  0.76544000  0.14146000  0.12800000  1.0 0.100987546
H  H133  1  0.93313000  0.50720000  0.28701000  1.0 0.1077392784
H  H134  1  0.28701000  0.93313000  0.50720000  1.0 0.1077392784
H  H135  1  0.50720000  0.28701000  0.93313000  1.0 0.1077392784
H  H136  1  0.43313000  0.78701000  0.00720000  1.0 0.1077392784
H  H137  1  0.78701000  0.00720000  0.43313000  1.0 0.1077392784
H  H138  1  0.00720000  0.43313000  0.78701000  1.0 0.1077392784
H  H139  1  0.87408000  0.52233000  0.28982000  1.0 0.100987546
H  H140  1  0.28982000  0.87408000  0.52233000  1.0 0.100987546
H  H141  1  0.52233000  0.28982000  0.87408000  1.0 0.100987546
H  H142  1  0.37408000  0.78982000  0.02233000  1.0 0.100987546
H  H143  1  0.78982000  0.02233000  0.37408000  1.0 0.100987546
H  H144  1  0.02233000  0.37408000  0.78982000  1.0 0.100987546
H  H145  1  0.92203000  0.62811000  0.34536000  1.0 0.0940316672
H  H146  1  0.34536000  0.92203000  0.62811000  1.0 0.0940316672
H  H147  1  0.62811000  0.34536000  0.92203000  1.0 0.0940316672
H  H148  1  0.42203000  0.84536000  0.12811000  1.0 0.0940316672
H  H149  1  0.84536000  0.12811000  0.42203000  1.0 0.0940316672
H  H150  1  0.12811000  0.42203000  0.84536000  1.0 0.0940316672
H  H151  1  0.78097000  0.67582000  0.32708000  1.0 0.100987546
H  H152  1  0.32708000  0.78097000  0.67582000  1.0 0.100987546
H  H153  1  0.67582000  0.32708000  0.78097000  1.0 0.100987546
H  H154  1  0.28097000  0.82708000  0.17582000  1.0 0.100987546
H  H155  1  0.82708000  0.17582000  0.28097000  1.0 0.100987546
H  H156  1  0.17582000  0.28097000  0.82708000  1.0 0.100987546
H  H157  1  0.80578000  0.59571000  0.31528000  1.0 0.1176560243
H  H158  1  0.31528000  0.80578000  0.59571000  1.0 0.1176560243
H  H159  1  0.59571000  0.31528000  0.80578000  1.0 0.1176560243
H  H160  1  0.30578000  0.81528000  0.09571000  1.0 0.1176560243
H  H161  1  0.81528000  0.09571000  0.30578000  1.0 0.1176560243
H  H162  1  0.09571000  0.30578000  0.81528000  1.0 0.1176560243
H  H163  1  0.94685000  0.54800000  0.33356000  1.0 0.1077392784
H  H164  1  0.33356000  0.94685000  0.54800000  1.0 0.1077392784
H  H165  1  0.54800000  0.33356000  0.94685000  1.0 0.1077392784
H  H166  1  0.44685000  0.83356000  0.04800000  1.0 0.1077392784
H  H167  1  0.83356000  0.04800000  0.44685000  1.0 0.1077392784
H  H168  1  0.04800000  0.44685000  0.83356000  1.0 0.1077392784
H  H169  1  0.74323000  0.82879000  0.32843000  1.0 0.1176560243
H  H170  1  0.32843000  0.74323000  0.82879000  1.0 0.1176560243
H  H171  1  0.82879000  0.32843000  0.74323000  1.0 0.1176560243
H  H172  1  0.24323000  0.82843000  0.32879000  1.0 0.1176560243
H  H173  1  0.82843000  0.32879000  0.24323000  1.0 0.1176560243
H  H174  1  0.32879000  0.24323000  0.82843000  1.0 0.1176560243
H  H175  1  0.76761000  0.74657000  0.32103000  1.0 0.1077392784
H  H176  1  0.32103000  0.76761000  0.74657000  1.0 0.1077392784
H  H177  1  0.74657000  0.32103000  0.76761000  1.0 0.1077392784
H  H178  1  0.26761000  0.82103000  0.24657000  1.0 0.1077392784
H  H179  1  0.82103000  0.24657000  0.26761000  1.0 0.1077392784
H  H180  1  0.24657000  0.26761000  0.82103000  1.0 0.1077392784
H  H181  1  0.89334000  0.69094000  0.36872000  1.0 0.100987546
H  H182  1  0.36872000  0.89334000  0.69094000  1.0 0.100987546
H  H183  1  0.69094000  0.36872000  0.89334000  1.0 0.100987546
H  H184  1  0.39334000  0.86872000  0.19094000  1.0 0.100987546
H  H185  1  0.86872000  0.19094000  0.39334000  1.0 0.100987546
H  H186  1  0.19094000  0.39334000  0.86872000  1.0 0.100987546
H  H187  1  0.86895000  0.77315000  0.37611000  1.0 0.1077392784
H  H188  1  0.37611000  0.86895000  0.77315000  1.0 0.1077392784
H  H189  1  0.77315000  0.37611000  0.86895000  1.0 0.1077392784
H  H190  1  0.36895000  0.87611000  0.27315000  1.0 0.1077392784
H  H191  1  0.87611000  0.27315000  0.36895000  1.0 0.1077392784
H  H192  1  0.27315000  0.36895000  0.87611000  1.0 0.1077392784
H  H193  1  0.95026000  0.31765000  0.32145000  1.0 0.1077392784
H  H194  1  0.32145000  0.95026000  0.31765000  1.0 0.1077392784
H  H195  1  0.31765000  0.32145000  0.95026000  1.0 0.1077392784
H  H196  1  0.45026000  0.82145000  0.81765000  1.0 0.1077392784
H  H197  1  0.82145000  0.81765000  0.45026000  1.0 0.1077392784
H  H198  1  0.81765000  0.45026000  0.82145000  1.0 0.1077392784
H  H199  1  0.99598000  0.34237000  0.29792000  1.0 0.100987546
H  H200  1  0.29792000  0.99598000  0.34237000  1.0 0.100987546
H  H201  1  0.34237000  0.29792000  0.99598000  1.0 0.100987546
H  H202  1  0.49598000  0.79792000  0.84237000  1.0 0.100987546
H  H203  1  0.79792000  0.84237000  0.49598000  1.0 0.100987546
H  H204  1  0.84237000  0.49598000  0.79792000  1.0 0.100987546
H  H205  1  0.96364000  0.22770000  0.37283000  1.0 0.1176560243
H  H206  1  0.37283000  0.96364000  0.22770000  1.0 0.1176560243
H  H207  1  0.22770000  0.37283000  0.96364000  1.0 0.1176560243
H  H208  1  0.46364000  0.87283000  0.72770000  1.0 0.1176560243
H  H209  1  0.87283000  0.72770000  0.46364000  1.0 0.1176560243
H  H210  1  0.72770000  0.46364000  0.87283000  1.0 0.1176560243
H  H211  1  0.02088000  0.14260000  0.40318000  1.0 0.100987546
H  H212  1  0.40318000  0.02088000  0.14260000  1.0 0.100987546
H  H213  1  0.14260000  0.40318000  0.02088000  1.0 0.100987546
H  H214  1  0.52088000  0.90318000  0.64260000  1.0 0.100987546
H  H215  1  0.90318000  0.64260000  0.52088000  1.0 0.100987546
H  H216  1  0.64260000  0.52088000  0.90318000  1.0 0.100987546
H  H217  1  0.12440000  0.20662000  0.37642000  1.0 0.100987546
H  H218  1  0.37642000  0.12440000  0.20662000  1.0 0.100987546
H  H219  1  0.20662000  0.37642000  0.12440000  1.0 0.100987546
H  H220  1  0.62440000  0.87642000  0.70662000  1.0 0.100987546
H  H221  1  0.87642000  0.70662000  0.62440000  1.0 0.100987546
H  H222  1  0.70662000  0.62440000  0.87642000  1.0 0.100987546
H  H223  1  0.06716000  0.29171000  0.34605000  1.0 0.1077392784
H  H224  1  0.34605000  0.06716000  0.29171000  1.0 0.1077392784
H  H225  1  0.29171000  0.34605000  0.06716000  1.0 0.1077392784
H  H226  1  0.56716000  0.84605000  0.79171000  1.0 0.1077392784
H  H227  1  0.84605000  0.79171000  0.56716000  1.0 0.1077392784
H  H228  1  0.79171000  0.56716000  0.84605000  1.0 0.1077392784
H  H229  1  0.18020000  0.12744000  0.38608000  1.0 0.100987546
H  H230  1  0.38608000  0.18020000  0.12744000  1.0 0.100987546
H  H231  1  0.12744000  0.38608000  0.18020000  1.0 0.100987546
H  H232  1  0.68020000  0.88608000  0.62744000  1.0 0.100987546
H  H233  1  0.88608000  0.62744000  0.68020000  1.0 0.1077392784
H  H234  1  0.62744000  0.68020000  0.88608000  1.0 0.100987546
H  H235  1  0.05544000  0.07874000  0.44057000  1.0 0.100987546
H  H236  1  0.44057000  0.05544000  0.07874000  1.0 0.100987546
H  H237  1  0.07874000  0.44057000  0.05544000  1.0 0.100987546
H  H238  1  0.55544000  0.94057000  0.57874000  1.0 0.100987546
H  H239  1  0.94057000  0.57874000  0.55544000  1.0 0.100987546
H  H240  1  0.57874000  0.55544000  0.94057000  1.0 0.100987546
H  H241  1  0.10997000  0.99026000  0.46353000  1.0 0.1176560243
H  H242  1  0.46353000  0.10997000  0.99026000  1.0 0.1176560243
H  H243  1  0.99026000  0.46353000  0.10997000  1.0 0.1176560243
H  H244  1  0.60997000  0.96353000  0.49026000  1.0 0.1176560243
H  H245  1  0.96353000  0.49026000  0.60997000  1.0 0.1176560243
H  H246  1  0.49026000  0.60997000  0.96353000  1.0 0.1176560243
H  H247  1  0.23473000  0.03896000  0.40904000  1.0 0.1077392784
H  H248  1  0.40904000  0.23473000  0.03896000  1.0 0.1077392784
H  H249  1  0.03896000  0.40904000  0.23473000  1.0 0.1077392784
H  H250  1  0.73473000  0.90904000  0.53896000  1.0 0.1077392784
H  H251  1  0.90904000  0.53896000  0.73473000  1.0 0.1077392784
H  H252  1  0.53896000  0.73473000  0.90904000  1.0 0.1077392784
H  H253  1  0.72055000  0.05250000  0.04437000  1.0 0.100987546
H  H254  1  0.05250000  0.04437000  0.72055000  1.0 0.100987546
H  H255  1  0.04437000  0.72055000  0.05250000  1.0 0.100987546
H  H256  1  0.22055000  0.54437000  0.55250000  1.0 0.100987546
H  H257  1  0.55250000  0.22055000  0.54437000  1.0 0.100987546
H  H258  1  0.54437000  0.55250000  0.22055000  1.0 0.100987546
H  H259  1  0.67190000  0.03089000  0.08392000  1.0 0.100987546
H  H260  1  0.03089000  0.08392000  0.67190000  1.0 0.100987546
H  H261  1  0.08392000  0.67190000  0.03089000  1.0 0.100987546
H  H262  1  0.17190000  0.58392000  0.53089000  1.0 0.100987546
H  H263  1  0.53089000  0.17190000  0.58392000  1.0 0.100987546
H  H264  1  0.58392000  0.53089000  0.17190000  1.0 0.100987546
H  H265  1  0.68147000  0.10844000  0.98957000  1.0 0.100987546
H  H266  1  0.10844000  0.98957000  0.68147000  1.0 0.100987546
H  H267  1  0.98957000  0.68147000  0.10844000  1.0 0.100987546
H  H268  1  0.18147000  0.48957000  0.60844000  1.0 0.100987546
H  H269  1  0.60844000  0.18147000  0.48957000  1.0 0.100987546
H  H270  1  0.48957000  0.60844000  0.18147000  1.0 0.100987546
H  H271  1  0.64258000  0.07433000  0.02078000  1.0 0.100987546
H  H272  1  0.07433000  0.02078000  0.64258000  1.0 0.100987546
H  H273  1  0.02078000  0.64258000  0.07433000  1.0 0.100987546
H  H274  1  0.14258000  0.52078000  0.57433000  1.0 0.100987546
H  H275  1  0.57433000  0.14258000  0.52078000  1.0 0.100987546
H  H276  1  0.52078000  0.57433000  0.14258000  1.0 0.100987546
H  H277  1  0.57033000  0.08971000  0.06921000  1.0 0.100987546
H  H278  1  0.08971000  0.06921000  0.57033000  1.0 0.100987546
H  H279  1  0.06921000  0.57033000  0.08971000  1.0 0.100987546
H  H280  1  0.07033000  0.56921000  0.58971000  1.0 0.100987546
H  H281  1  0.58971000  0.07033000  0.56921000  1.0 0.100987546
H  H282  1  0.56921000  0.58971000  0.07033000  1.0 0.100987546
H  H283  1  0.53536000  0.14866000  0.04423000  1.0 0.100987546
H  H284  1  0.14866000  0.04423000  0.53536000  1.0 0.100987546
H  H285  1  0.04423000  0.53536000  0.14866000  1.0 0.100987546
H  H286  1  0.03536000  0.54423000  0.64866000  1.0 0.100987546
H  H287  1  0.64866000  0.03536000  0.54423000  1.0 0.100987546
H  H288  1  0.54423000  0.64866000  0.03536000  1.0 0.100987546
H  H289  1  0.50213000  0.16638000  0.11255000  1.0 0.100987546
H  H290  1  0.16638000  0.11255000  0.50213000  1.0 0.100987546
H  H291  1  0.11255000  0.50213000  0.16638000  1.0 0.100987546
H  H292  1  0.00213000  0.61255000  0.66638000  1.0 0.100987546
H  H293  1  0.66638000  0.00213000  0.61255000  1.0 0.100987546
H  H294  1  0.61255000  0.66638000  0.00213000  1.0 0.100987546
H  H295  1  0.51697000  0.10359000  0.13889000  1.0 0.100987546
H  H296  1  0.10359000  0.13889000  0.51697000  1.0 0.100987546
H  H297  1  0.13889000  0.51697000  0.10359000  1.0 0.100987546
H  H298  1  0.01697000  0.63889000  0.60359000  1.0 0.100987546
H  H299  1  0.60359000  0.01697000  0.63889000  1.0 0.100987546
H  H300  1  0.63889000  0.60359000  0.01697000  1.0 0.100987546
H  H301  1  0.57267000  0.05540000  0.17289000  1.0 0.100987546
H  H302  1  0.05540000  0.17289000  0.57267000  1.0 0.100987546
H  H303  1  0.17289000  0.57267000  0.05540000  1.0 0.100987546
H  H304  1  0.07267000  0.67289000  0.55540000  1.0 0.100987546
H  H305  1  0.55540000  0.07267000  0.67289000  1.0 0.100987546
H  H306  1  0.67289000  0.55540000  0.07267000  1.0 0.100987546
H  H307  1  0.57472000  0.07768000  0.20921000  1.0 0.100987546
H  H308  1  0.07768000  0.20921000  0.57472000  1.0 0.100987546
H  H309  1  0.20921000  0.57472000  0.07768000  1.0 0.100987546
H  H310  1  0.07472000  0.70921000  0.57768000  1.0 0.100987546
H  H311  1  0.57768000  0.07472000  0.70921000  1.0 0.100987546
H  H312  1  0.70921000  0.57768000  0.07472000  1.0 0.100987546
H  H313  1  0.65454000  0.05710000  0.17961000  1.0 0.100987546
H  H314  1  0.05710000  0.17961000  0.65454000  1.0 0.100987546
H  H315  1  0.17961000  0.65454000  0.05710000  1.0 0.100987546
H  H316  1  0.15454000  0.67961000  0.55710000  1.0 0.100987546
H  H317  1  0.55710000  0.15454000  0.67961000  1.0 0.100987546
H  H318  1  0.67961000  0.55710000  0.15454000  1.0 0.100987546
H  H319  1  0.65214000  0.02203000  0.15637000  1.0 0.100987546
H  H320  1  0.02203000  0.15637000  0.65214000  1.0 0.100987546
H  H321  1  0.15637000  0.65214000  0.02203000  1.0 0.100987546
H  H322  1  0.15214000  0.65637000  0.52203000  1.0 0.100987546
H  H323  1  0.52203000  0.15214000  0.65637000  1.0 0.100987546
H  H324  1  0.65637000  0.52203000  0.15214000  1.0 0.100987546
H  H325  1  0.74092000  0.09788000  0.06394000  1.0 0.1077392784
H  H326  1  0.09788000  0.06394000  0.74092000  1.0 0.1077392784
H  H327  1  0.06394000  0.74092000  0.09788000  1.0 0.1077392784
H  H328  1  0.24092000  0.56394000  0.59788000  1.0 0.1077392784
H  H329  1  0.59788000  0.24092000  0.56394000  1.0 0.1077392784
H  H330  1  0.56394000  0.59788000  0.24092000  1.0 0.1077392784
H  H331  1  0.71477000  0.09778000  0.12358000  1.0 0.1077392784
H  H332  1  0.09778000  0.12358000  0.71477000  1.0 0.1077392784
H  H333  1  0.12358000  0.71477000  0.09778000  1.0 0.1077392784
H  H334  1  0.21477000  0.62358000  0.59778000  1.0 0.1077392784
H  H335  1  0.59778000  0.21477000  0.62358000  1.0 0.1077392784
H  H336  1  0.62358000  0.59778000  0.21477000  1.0 0.1077392784
H  H337  1  0.80479000  0.01973000  0.04266000  1.0 0.1077392784
H  H338  1  0.01973000  0.04266000  0.80479000  1.0 0.1176560243
H  H339  1  0.04266000  0.80479000  0.01973000  1.0 0.1176560243
H  H340  1  0.30479000  0.54266000  0.51973000  1.0 0.1077392784
H  H341  1  0.51973000  0.30479000  0.54266000  1.0 0.1077392784
H  H342  1  0.54266000  0.51973000  0.30479000  1.0 0.1176560243
H  H343  1  0.86596000  0.93562000  0.06766000  1.0 0.100987546
H  H344  1  0.93562000  0.06766000  0.86596000  1.0 0.100987546
H  H345  1  0.06766000  0.86596000  0.93562000  1.0 0.100987546
H  H346  1  0.36596000  0.56766000  0.43562000  1.0 0.100987546
H  H347  1  0.43562000  0.36596000  0.56766000  1.0 0.100987546
H  H348  1  0.56766000  0.43562000  0.36596000  1.0 0.100987546
H  H349  1  0.78923000  0.92729000  0.22201000  1.0 0.1077392784
H  H350  1  0.92729000  0.22201000  0.78923000  1.0 0.1077392784
H  H351  1  0.22201000  0.78923000  0.92729000  1.0 0.1077392784
H  H352  1  0.28923000  0.72201000  0.42729000  1.0 0.1077392784
H  H353  1  0.42729000  0.28923000  0.72201000  1.0 0.1077392784
H  H354  1  0.72201000  0.42729000  0.28923000  1.0 0.1077392784
H  H355  1  0.72807000  0.01140000  0.19702000  1.0 0.1077392784
H  H356  1  0.01140000  0.19702000  0.72807000  1.0 0.1077392784
H  H357  1  0.19702000  0.72807000  0.01140000  1.0 0.1077392784
H  H358  1  0.22807000  0.69702000  0.51140000  1.0 0.1077392784
H  H359  1  0.51140000  0.22807000  0.69702000  1.0 0.1077392784
H  H360  1  0.69702000  0.51140000  0.22807000  1.0 0.1077392784
H  H361  1  0.89656000  0.85013000  0.09798000  1.0 0.1077392784
H  H362  1  0.85013000  0.09798000  0.89656000  1.0 0.1077392784
H  H363  1  0.09798000  0.89656000  0.85013000  1.0 0.1077392784
H  H364  1  0.39656000  0.59798000  0.35013000  1.0 0.1077392784
H  H365  1  0.35013000  0.39656000  0.59798000  1.0 0.1077392784
H  H366  1  0.59798000  0.35013000  0.39656000  1.0 0.1077392784
H  H367  1  0.95916000  0.76750000  0.12380000  1.0 0.1077392784
H  H368  1  0.76750000  0.12380000  0.95916000  1.0 0.1077392784
H  H369  1  0.12380000  0.95916000  0.76750000  1.0 0.1077392784
H  H370  1  0.45916000  0.62380000  0.26750000  1.0 0.1077392784
H  H371  1  0.26750000  0.45916000  0.62380000  1.0 0.1077392784
H  H372  1  0.62380000  0.26750000  0.45916000  1.0 0.1077392784
H  H373  1  0.92114000  0.78936000  0.26037000  1.0 0.1077392784
H  H374  1  0.78936000  0.26037000  0.92114000  1.0 0.1077392784
H  H375  1  0.26037000  0.92114000  0.78936000  1.0 0.1077392784
H  H376  1  0.42114000  0.76037000  0.28936000  1.0 0.1077392784
H  H377  1  0.28936000  0.42114000  0.76037000  1.0 0.1077392784
H  H378  1  0.76037000  0.28936000  0.42114000  1.0 0.1077392784
H  H379  1  0.85854000  0.87200000  0.23456000  1.0 0.100987546
H  H380  1  0.87200000  0.23456000  0.85854000  1.0 0.100987546
H  H381  1  0.23456000  0.85854000  0.87200000  1.0 0.100987546
H  H382  1  0.35854000  0.73456000  0.37200000  1.0 0.100987546
H  H383  1  0.37200000  0.35854000  0.73456000  1.0 0.100987546
H  H384  1  0.73456000  0.37200000  0.35854000  1.0 0.100987546
H  H385  1  0.56687000  0.21299000  0.99280000  1.0 0.1077392784
H  H386  1  0.21299000  0.99280000  0.56687000  1.0 0.1077392784
H  H387  1  0.99280000  0.56687000  0.21299000  1.0 0.1077392784
H  H388  1  0.06687000  0.49280000  0.71299000  1.0 0.1077392784
H  H389  1  0.71299000  0.06687000  0.49280000  1.0 0.1077392784
H  H390  1  0.49280000  0.71299000  0.06687000  1.0 0.1077392784
H  H391  1  0.62592000  0.21018000  0.97767000  1.0 0.100987546
H  H392  1  0.21018000  0.97767000  0.62592000  1.0 0.100987546
H  H393  1  0.97767000  0.62592000  0.21018000  1.0 0.100987546
H  H394  1  0.12592000  0.47767000  0.71018000  1.0 0.100987546
H  H395  1  0.71018000  0.12592000  0.47767000  1.0 0.100987546
H  H396  1  0.47767000  0.71018000  0.12592000  1.0 0.100987546
H  H397  1  0.57797000  0.15464000  0.87189000  1.0 0.0940316672
H  H398  1  0.15464000  0.87189000  0.57797000  1.0 0.0940316672
H  H399  1  0.87189000  0.57797000  0.15464000  1.0 0.0940316672
H  H400  1  0.07797000  0.37189000  0.65464000  1.0 0.0940316672
H  H401  1  0.65464000  0.07797000  0.37189000  1.0 0.0940316672
H  H402  1  0.37189000  0.65464000  0.07797000  1.0 0.0940316672
H  H403  1  0.71903000  0.17292000  0.82418000  1.0 0.100987546
H  H404  1  0.17292000  0.82418000  0.71903000  1.0 0.100987546
H  H405  1  0.82418000  0.71903000  0.17292000  1.0 0.100987546
H  H406  1  0.21903000  0.32418000  0.67292000  1.0 0.100987546
H  H407  1  0.67292000  0.21903000  0.32418000  1.0 0.100987546
H  H408  1  0.32418000  0.67292000  0.21903000  1.0 0.100987546
H  H409  1  0.69422000  0.18472000  0.90429000  1.0 0.1176560243
H  H410  1  0.18472000  0.90429000  0.69422000  1.0 0.1176560243
H  H411  1  0.90429000  0.69422000  0.18472000  1.0 0.1176560243
H  H412  1  0.19422000  0.40429000  0.68472000  1.0 0.1176560243
H  H413  1  0.68472000  0.19422000  0.40429000  1.0 0.1176560243
H  H414  1  0.40429000  0.68472000  0.19422000  1.0 0.1176560243
H  H415  1  0.55315000  0.16644000  0.95200000  1.0 0.1077392784
H  H416  1  0.16644000  0.95200000  0.55315000  1.0 0.1077392784
H  H417  1  0.95200000  0.55315000  0.16644000  1.0 0.1077392784
H  H418  1  0.05315000  0.45200000  0.66644000  1.0 0.1077392784
H  H419  1  0.66644000  0.05315000  0.45200000  1.0 0.1077392784
H  H420  1  0.45200000  0.66644000  0.05315000  1.0 0.1077392784
H  H421  1  0.75677000  0.17157000  0.67121000  1.0 0.1176560243
H  H422  1  0.17157000  0.67121000  0.75677000  1.0 0.1176560243
H  H423  1  0.67121000  0.75677000  0.17157000  1.0 0.1176560243
H  H424  1  0.25677000  0.17121000  0.67157000  1.0 0.1176560243
H  H425  1  0.67157000  0.25677000  0.17121000  1.0 0.1176560243
H  H426  1  0.17121000  0.67157000  0.25677000  1.0 0.1176560243
H  H427  1  0.73239000  0.17897000  0.75343000  1.0 0.1077392784
H  H428  1  0.17897000  0.75343000  0.73239000  1.0 0.1077392784
H  H429  1  0.75343000  0.73239000  0.17897000  1.0 0.1077392784
H  H430  1  0.23239000  0.25343000  0.67897000  1.0 0.1077392784
H  H431  1  0.67897000  0.23239000  0.25343000  1.0 0.1077392784
H  H432  1  0.25343000  0.67897000  0.23239000  1.0 0.1077392784
H  H433  1  0.60666000  0.13128000  0.80906000  1.0 0.100987546
H  H434  1  0.13128000  0.80906000  0.60666000  1.0 0.100987546
H  H435  1  0.80906000  0.60666000  0.13128000  1.0 0.100987546
H  H436  1  0.10666000  0.30906000  0.63128000  1.0 0.100987546
H  H437  1  0.63128000  0.10666000  0.30906000  1.0 0.100987546
H  H438  1  0.30906000  0.63128000  0.10666000  1.0 0.100987546
H  H439  1  0.63105000  0.12389000  0.72685000  1.0 0.1077392784
H  H440  1  0.12389000  0.72685000  0.63105000  1.0 0.1077392784
H  H441  1  0.72685000  0.63105000  0.12389000  1.0 0.1077392784
H  H442  1  0.13105000  0.22685000  0.62389000  1.0 0.1077392784
H  H443  1  0.62389000  0.13105000  0.22685000  1.0 0.1077392784
H  H444  1  0.22685000  0.62389000  0.13105000  1.0 0.1077392784
H  H445  1  0.54974000  0.17855000  0.18235000  1.0 0.1077392784
H  H446  1  0.17855000  0.18235000  0.54974000  1.0 0.1077392784
H  H447  1  0.18235000  0.54974000  0.17855000  1.0 0.1077392784
H  H448  1  0.04974000  0.68235000  0.67855000  1.0 0.1077392784
H  H449  1  0.67855000  0.04974000  0.68235000  1.0 0.1077392784
H  H450  1  0.68235000  0.67855000  0.04974000  1.0 0.1077392784
H  H451  1  0.50402000  0.20208000  0.15763000  1.0 0.100987546
H  H452  1  0.20208000  0.15763000  0.50402000  1.0 0.100987546
H  H453  1  0.15763000  0.50402000  0.20208000  1.0 0.100987546
H  H454  1  0.00402000  0.65763000  0.70208000  1.0 0.100987546
H  H455  1  0.70208000  0.00402000  0.65763000  1.0 0.100987546
H  H456  1  0.65763000  0.70208000  0.00402000  1.0 0.100987546
H  H457  1  0.53636000  0.12717000  0.27230000  1.0 0.1176560243
H  H458  1  0.12717000  0.27230000  0.53636000  1.0 0.1176560243
H  H459  1  0.27230000  0.53636000  0.12717000  1.0 0.1176560243
H  H460  1  0.03636000  0.77230000  0.62717000  1.0 0.1176560243
H  H461  1  0.62717000  0.03636000  0.77230000  1.0 0.1176560243
H  H462  1  0.77230000  0.62717000  0.03636000  1.0 0.1176560243
H  H463  1  0.47912000  0.09682000  0.35740000  1.0 0.100987546
H  H464  1  0.09682000  0.35740000  0.47912000  1.0 0.100987546
H  H465  1  0.35740000  0.47912000  0.09682000  1.0 0.100987546
H  H466  1  0.97912000  0.85740000  0.59682000  1.0 0.100987546
H  H467  1  0.59682000  0.97912000  0.85740000  1.0 0.100987546
H  H468  1  0.85740000  0.59682000  0.97912000  1.0 0.100987546
H  H469  1  0.37560000  0.12358000  0.29338000  1.0 0.100987546
H  H470  1  0.12358000  0.29338000  0.37560000  1.0 0.100987546
H  H471  1  0.29338000  0.37560000  0.12358000  1.0 0.100987546
H  H472  1  0.87560000  0.79338000  0.62358000  1.0 0.100987546
H  H473  1  0.62358000  0.87560000  0.79338000  1.0 0.100987546
H  H474  1  0.79338000  0.62358000  0.87560000  1.0 0.100987546
H  H475  1  0.43284000  0.15395000  0.20829000  1.0 0.1077392784
H  H476  1  0.15395000  0.20829000  0.43284000  1.0 0.1077392784
H  H477  1  0.20829000  0.43284000  0.15395000  1.0 0.1077392784
H  H478  1  0.93284000  0.70829000  0.65395000  1.0 0.1077392784
H  H479  1  0.65395000  0.93284000  0.70829000  1.0 0.1077392784
H  H480  1  0.70829000  0.65395000  0.93284000  1.0 0.1077392784
H  H481  1  0.31980000  0.11392000  0.37256000  1.0 0.100987546
H  H482  1  0.11392000  0.37256000  0.31980000  1.0 0.100987546
H  H483  1  0.37256000  0.31980000  0.11392000  1.0 0.100987546
H  H484  1  0.81980000  0.87256000  0.61392000  1.0 0.100987546
H  H485  1  0.61392000  0.81980000  0.87256000  1.0 0.100987546
H  H486  1  0.87256000  0.61392000  0.81980000  1.0 0.100987546
H  H487  1  0.44456000  0.05943000  0.42126000  1.0 0.100987546
H  H488  1  0.05943000  0.42126000  0.44456000  1.0 0.100987546
H  H489  1  0.42126000  0.44456000  0.05943000  1.0 0.100987546
H  H490  1  0.94456000  0.92126000  0.55943000  1.0 0.100987546
H  H491  1  0.55943000  0.94456000  0.92126000  1.0 0.100987546
H  H492  1  0.92126000  0.55943000  0.94456000  1.0 0.100987546
H  H493  1  0.39003000  0.03647000  0.50974000  1.0 0.1176560243
H  H494  1  0.03647000  0.50974000  0.39003000  1.0 0.1176560243
H  H495  1  0.50974000  0.39003000  0.03647000  1.0 0.1176560243
H  H496  1  0.89003000  0.00974000  0.53647000  1.0 0.1176560243
H  H497  1  0.53647000  0.89003000  0.00974000  1.0 0.1176560243
H  H498  1  0.00974000  0.53647000  0.89003000  1.0 0.1176560243
H  H499  1  0.26527000  0.09096000  0.46104000  1.0 0.1077392784
H  H500  1  0.09096000  0.46104000  0.26527000  1.0 0.1077392784
H  H501  1  0.46104000  0.26527000  0.09096000  1.0 0.1077392784
H  H502  1  0.76527000  0.96104000  0.59096000  1.0 0.1077392784
H  H503  1  0.59096000  0.76527000  0.96104000  1.0 0.1077392784
H  H504  1  0.96104000  0.59096000  0.76527000  1.0 0.1077392784
C  C1  1  0.81796000  0.43636000  0.43656000  1.0 -0.1599349022
C  C2  1  0.43656000  0.81796000  0.43636000  1.0 -0.1599349022
C  C3  1  0.43636000  0.43656000  0.81796000  1.0 -0.1599349022
C  C4  1  0.31796000  0.93656000  0.93636000  1.0 -0.1599349022
C  C5  1  0.93656000  0.93636000  0.31796000  1.0 -0.1599349022
C  C6  1  0.93636000  0.31796000  0.93656000  1.0 -0.1599349022
C  C7  1  0.84505000  0.47585000  0.40325000  1.0 -0.1511577221
C  C8  1  0.40325000  0.84505000  0.47585000  1.0 -0.1511577221
C  C9  1  0.47585000  0.40325000  0.84505000  1.0 -0.1511577221
C  C10  1  0.34505000  0.90325000  0.97585000  1.0 -0.1511577221
C  C11  1  0.90325000  0.97585000  0.34505000  1.0 -0.1511577221
C  C12  1  0.97585000  0.34505000  0.90325000  1.0 -0.1511577221
C  C13  1  0.94017000  0.43477000  0.37267000  1.0 -0.1599349022
C  C14  1  0.37267000  0.94017000  0.43477000  1.0 -0.1599349022
C  C15  1  0.43477000  0.37267000  0.94017000  1.0 -0.1599349022
C  C16  1  0.44017000  0.87267000  0.93477000  1.0 -0.1599349022
C  C17  1  0.87267000  0.93477000  0.44017000  1.0 -0.1599349022
C  C18  1  0.93477000  0.44017000  0.87267000  1.0 -0.1599349022
C  C19  1  0.96769000  0.38449000  0.36729000  1.0 -0.1599349022
C  C20  1  0.36729000  0.96769000  0.38449000  1.0 -0.1599349022
C  C21  1  0.38449000  0.36729000  0.96769000  1.0 -0.1599349022
C  C22  1  0.46769000  0.86729000  0.88449000  1.0 -0.1599349022
C  C23  1  0.86729000  0.88449000  0.46769000  1.0 -0.1599349022
C  C24  1  0.88449000  0.46769000  0.86729000  1.0 -0.1599349022
C  C25  1  0.91370000  0.32790000  0.42060000  1.0 -0.1511577221
C  C26  1  0.42060000  0.91370000  0.32790000  1.0 -0.1511577221
C  C27  1  0.32790000  0.42060000  0.91370000  1.0 -0.1511577221
C  C28  1  0.41370000  0.92060000  0.82790000  1.0 -0.1511577221
C  C29  1  0.92060000  0.82790000  0.41370000  1.0 -0.1511577221
C  C30  1  0.82790000  0.41370000  0.92060000  1.0 -0.1511577221
C  C31  1  0.85770000  0.34610000  0.44100000  1.0 -0.1599349022
C  C32  1  0.44100000  0.85770000  0.34610000  1.0 -0.1599349022
C  C33  1  0.34610000  0.44100000  0.85770000  1.0 -0.1599349022
C  C34  1  0.35770000  0.94100000  0.84610000  1.0 -0.1599349022
C  C35  1  0.94100000  0.84610000  0.35770000  1.0 -0.1599349022
C  C36  1  0.84610000  0.35770000  0.94100000  1.0 -0.1599349022
C  C37  1  0.77763000  0.39943000  0.42103000  1.0 -0.1988730103
C  C38  1  0.42103000  0.77763000  0.39943000  1.0 -0.1988730103
C  C39  1  0.39943000  0.42103000  0.77763000  1.0 -0.1988730103
C  C40  1  0.27763000  0.92103000  0.89943000  1.0 -0.1988730103
C  C41  1  0.92103000  0.89943000  0.27763000  1.0 -0.1988730103
C  C42  1  0.89943000  0.27763000  0.92103000  1.0 -0.1988730103
C  C43  1  0.69836000  0.42092000  0.49903000  1.0 -0.1703656786
C  C44  1  0.49903000  0.69836000  0.42092000  1.0 -0.1703656786
C  C45  1  0.42092000  0.49903000  0.69836000  1.0 -0.1703656786
C  C46  1  0.19836000  0.99903000  0.92092000  1.0 -0.1703656786
C  C47  1  0.99903000  0.92092000  0.19836000  1.0 -0.1703656786
C  C48  1  0.92092000  0.19836000  0.99903000  1.0 -0.1703656786
C  C49  1  0.66203000  0.40608000  0.54900000  1.0 -0.1511577221
C  C50  1  0.54900000  0.66203000  0.40608000  1.0 -0.1511577221
C  C51  1  0.40608000  0.54900000  0.66203000  1.0 -0.1511577221
C  C52  1  0.16203000  0.04900000  0.90608000  1.0 -0.1511577221
C  C53  1  0.04900000  0.90608000  0.16203000  1.0 -0.1511577221
C  C54  1  0.90608000  0.16203000  0.04900000  1.0 -0.1511577221
C  C55  1  0.66666667  0.35281000  0.57646000  1.0 0.0607849638
C  C56  1  0.57646000  0.66666667  0.35281000  1.0 0.0607849638
C  C57  1  0.35281000  0.57646000  0.66666667  1.0 0.0607849638
C  C58  1  0.16666000  0.07646000  0.85281000  1.0 0.0607849638
C  C59  1  0.07646000  0.85281000  0.16666000  1.0 0.0607849638
C  C60  1  0.85281000  0.16666000  0.07646000  1.0 0.0607849638
C  C61  1  0.70766000  0.31435000  0.55394000  1.0 -0.1511577221
C  C62  1  0.55394000  0.70766000  0.31435000  1.0 -0.1511577221
C  C63  1  0.31435000  0.55394000  0.70766000  1.0 -0.1511577221
C  C64  1  0.20766000  0.05394000  0.81435000  1.0 -0.1511577221
C  C65  1  0.05394000  0.81435000  0.20766000  1.0 -0.1511577221
C  C66  1  0.81435000  0.20766000  0.05394000  1.0 -0.1511577221
C  C67  1  0.74393000  0.32925000  0.50397000  1.0 -0.1599349022
C  C68  1  0.50397000  0.74393000  0.32925000  1.0 -0.1599349022
C  C69  1  0.32925000  0.50397000  0.74393000  1.0 -0.1599349022
C  C70  1  0.24393000  0.00397000  0.82925000  1.0 -0.1599349022
C  C71  1  0.00397000  0.82925000  0.24393000  1.0 -0.1599349022
C  C72  1  0.82925000  0.24393000  0.00397000  1.0 -0.1599349022
C  C73  1  0.73932000  0.38252000  0.47652000  1.0 0.0811989382
C  C74  1  0.47652000  0.73932000  0.38252000  1.0 0.0811989382
C  C75  1  0.38252000  0.47652000  0.73932000  1.0 0.0811989382
C  C76  1  0.23932000  0.97652000  0.88252000  1.0 0.0811989382
C  C77  1  0.97652000  0.88252000  0.23932000  1.0 0.0811989382
C  C78  1  0.88252000  0.23932000  0.97652000  1.0 0.0811989382
C  C79  1  0.59843000  0.36907000  0.66221000  1.0 -0.1703656786
C  C80  1  0.66221000  0.59843000  0.36907000  1.0 -0.1703656786
C  C81  1  0.36907000  0.66221000  0.59843000  1.0 -0.1703656786
C  C82  1  0.09843000  0.16221000  0.86907000  1.0 -0.1703656786
C  C83  1  0.16221000  0.86907000  0.09843000  1.0 -0.1703656786
C  C84  1  0.86907000  0.09843000  0.16221000  1.0 -0.1703656786
C  C85  1  0.56125000  0.35372000  0.71129000  1.0 -0.1198203545
C  C86  1  0.71129000  0.56125000  0.35372000  1.0 -0.1198203545
C  C87  1  0.35372000  0.71129000  0.56125000  1.0 -0.1198203545
C  C88  1  0.06125000  0.21129000  0.85372000  1.0 -0.1198203545
C  C89  1  0.21129000  0.85372000  0.06125000  1.0 -0.1198203545
C  C90  1  0.85372000  0.06125000  0.21129000  1.0 -0.1198203545
C  C91  1  0.55396000  0.30549000  0.72934000  1.0 -0.0472511983
C  C92  1  0.72934000  0.55396000  0.30549000  1.0 -0.0472511983
C  C93  1  0.30549000  0.72934000  0.55396000  1.0 -0.0472511983
C  C94  1  0.05396000  0.22934000  0.80549000  1.0 -0.0472511983
C  C95  1  0.22934000  0.80549000  0.05396000  1.0 -0.0472511983
C  C96  1  0.80549000  0.05396000  0.22934000  1.0 -0.0472511983
C  C97  1  0.58386000  0.27258000  0.69830000  1.0 -0.1055599328
C  C98  1  0.69830000  0.58386000  0.27258000  1.0 -0.1055599328
C  C99  1  0.27258000  0.69830000  0.58386000  1.0 -0.1055599328
C  C100  1  0.08386000  0.19830000  0.77258000  1.0 -0.1055599328
C  C101  1  0.19830000  0.77258000  0.08386000  1.0 -0.1055599328
C  C102  1  0.77258000  0.08386000  0.19830000  1.0 -0.1055599328
C  C103  1  0.62103000  0.28792000  0.64921000  1.0 -0.1599349022
C  C104  1  0.64921000  0.62103000  0.28792000  1.0 -0.1599349022
C  C105  1  0.28792000  0.64921000  0.62103000  1.0 -0.1599349022
C  C106  1  0.12103000  0.14921000  0.78792000  1.0 -0.1599349022
C  C107  1  0.14921000  0.78792000  0.12103000  1.0 -0.1599349022
C  C108  1  0.78792000  0.12103000  0.14921000  1.0 -0.1599349022
C  C109  1  0.62837000  0.33612000  0.63117000  1.0 0.0811989382
C  C110  1  0.63117000  0.62837000  0.33612000  1.0 0.0811989382
C  C111  1  0.33612000  0.63117000  0.62837000  1.0 0.0811989382
C  C112  1  0.12837000  0.13117000  0.83612000  1.0 0.0811989382
C  C113  1  0.13117000  0.83612000  0.12837000  1.0 0.0811989382
C  C114  1  0.83612000  0.12837000  0.13117000  1.0 0.0811989382
C  C115  1  0.51395000  0.28777000  0.78089000  1.0 0.5375447775
C  C116  1  0.78089000  0.51395000  0.28777000  1.0 0.5375447775
C  C117  1  0.28777000  0.78089000  0.51395000  1.0 0.5375447775
C  C118  1  0.01395000  0.28089000  0.78777000  1.0 0.5375447775
C  C119  1  0.28089000  0.78777000  0.01395000  1.0 0.5375447775
C  C120  1  0.78777000  0.01395000  0.28089000  1.0 0.5375447775
C  C121  1  0.89560000  0.51450000  0.31030000  1.0 -0.1988730103
C  C122  1  0.31030000  0.89560000  0.51450000  1.0 -0.1988730103
C  C123  1  0.51450000  0.31030000  0.89560000  1.0 -0.1988730103
C  C124  1  0.39560000  0.81030000  0.01450000  1.0 -0.1988730103
C  C125  1  0.81030000  0.01450000  0.39560000  1.0 -0.1988730103
C  C126  1  0.01450000  0.39560000  0.81030000  1.0 -0.1988730103
C  C127  1  0.89838000  0.62158000  0.33928000  1.0 -0.1511577221
C  C128  1  0.33928000  0.89838000  0.62158000  1.0 -0.1511577221
C  C129  1  0.62158000  0.33928000  0.89838000  1.0 -0.1511577221
C  C130  1  0.39838000  0.83928000  0.12158000  1.0 -0.1511577221
C  C131  1  0.83928000  0.12158000  0.39838000  1.0 -0.1511577221
C  C132  1  0.12158000  0.39838000  0.83928000  1.0 -0.1511577221
C  C133  1  0.84914000  0.65950000  0.33737000  1.0 0.0607849638
C  C134  1  0.33737000  0.84914000  0.65950000  1.0 0.0607849638
C  C135  1  0.65950000  0.33737000  0.84914000  1.0 0.0607849638
C  C136  1  0.34914000  0.83737000  0.15950000  1.0 0.0607849638
C  C137  1  0.83737000  0.15950000  0.34914000  1.0 0.0607849638
C  C138  1  0.15950000  0.34914000  0.83737000  1.0 0.0607849638
C  C139  1  0.81467000  0.64987000  0.32837000  1.0 -0.1511577221
C  C140  1  0.32837000  0.81467000  0.64987000  1.0 -0.1511577221
C  C141  1  0.64987000  0.32837000  0.81467000  1.0 -0.1511577221
C  C142  1  0.31467000  0.82837000  0.14987000  1.0 -0.1511577221
C  C143  1  0.82837000  0.14987000  0.31467000  1.0 -0.1511577221
C  C144  1  0.14987000  0.31467000  0.82837000  1.0 -0.1511577221
C  C145  1  0.82939000  0.60229000  0.32139000  1.0 -0.1599349022
C  C146  1  0.32139000  0.82939000  0.60229000  1.0 -0.1599349022
C  C147  1  0.60229000  0.32139000  0.82939000  1.0 -0.1599349022
C  C148  1  0.32939000  0.82139000  0.10229000  1.0 -0.1599349022
C  C149  1  0.82139000  0.10229000  0.32939000  1.0 -0.1599349022
C  C150  1  0.10229000  0.32939000  0.82139000  1.0 -0.1599349022
C  C151  1  0.87869000  0.56429000  0.32329000  1.0 0.100987546
C  C152  1  0.32329000  0.87869000  0.56429000  1.0 0.100987546
C  C153  1  0.56429000  0.32329000  0.87869000  1.0 0.100987546
C  C154  1  0.37869000  0.82329000  0.06429000  1.0 0.100987546
C  C155  1  0.82329000  0.06429000  0.37869000  1.0 0.100987546
C  C156  1  0.06429000  0.37869000  0.82329000  1.0 0.100987546
C  C157  1  0.91314000  0.57394000  0.33229000  1.0 -0.1599349022
C  C158  1  0.33229000  0.91314000  0.57394000  1.0 -0.1599349022
C  C159  1  0.57394000  0.33229000  0.91314000  1.0 -0.1599349022
C  C160  1  0.41314000  0.83229000  0.07394000  1.0 -0.1599349022
C  C161  1  0.83229000  0.07394000  0.41314000  1.0 -0.1599349022
C  C162  1  0.07394000  0.41314000  0.83229000  1.0 -0.1599349022
C  C163  1  0.80378000  0.80870000  0.35299000  1.0 -0.0472511983
C  C164  1  0.35299000  0.80378000  0.80870000  1.0 -0.0472511983
C  C165  1  0.80870000  0.35299000  0.80378000  1.0 -0.0472511983
C  C166  1  0.30378000  0.85299000  0.30870000  1.0 -0.0472511983
C  C167  1  0.85299000  0.30870000  0.30378000  1.0 -0.0472511983
C  C168  1  0.30870000  0.30378000  0.85299000  1.0 -0.0472511983
C  C169  1  0.77373000  0.80081000  0.33657000  1.0 -0.1055599328
C  C170  1  0.33657000  0.77373000  0.80081000  1.0 -0.1055599328
C  C171  1  0.80081000  0.33657000  0.77373000  1.0 -0.1055599328
C  C172  1  0.27373000  0.83657000  0.30081000  1.0 -0.1055599328
C  C173  1  0.83657000  0.30081000  0.27373000  1.0 -0.1055599328
C  C174  1  0.30081000  0.27373000  0.83657000  1.0 -0.1055599328
C  C175  1  0.78816000  0.75196000  0.33226000  1.0 -0.1599349022
C  C176  1  0.33226000  0.78816000  0.75196000  1.0 -0.1599349022
C  C177  1  0.75196000  0.33226000  0.78816000  1.0 -0.1599349022
C  C178  1  0.28816000  0.83226000  0.25196000  1.0 -0.1599349022
C  C179  1  0.83226000  0.25196000  0.28816000  1.0 -0.1599349022
C  C180  1  0.25196000  0.28816000  0.83226000  1.0 -0.1599349022
C  C181  1  0.83279000  0.71103000  0.34416000  1.0 0.0811989382
C  C182  1  0.34416000  0.83279000  0.71103000  1.0 0.0811989382
C  C183  1  0.71103000  0.34416000  0.83279000  1.0 0.0811989382
C  C184  1  0.33279000  0.84416000  0.21103000  1.0 0.0811989382
C  C185  1  0.84416000  0.21103000  0.33279000  1.0 0.0811989382
C  C186  1  0.21103000  0.33279000  0.84416000  1.0 0.0811989382
C  C187  1  0.86288000  0.71892000  0.36054000  1.0 -0.1599349022
C  C188  1  0.36054000  0.86288000  0.71892000  1.0 -0.1599349022
C  C189  1  0.71892000  0.36054000  0.86288000  1.0 -0.1599349022
C  C190  1  0.36288000  0.86054000  0.21892000  1.0 -0.1599349022
C  C191  1  0.86054000  0.21892000  0.36288000  1.0 -0.1599349022
C  C192  1  0.21892000  0.36288000  0.86054000  1.0 -0.1599349022
C  C193  1  0.84838000  0.76776000  0.36493000  1.0 -0.1198203545
C  C194  1  0.36493000  0.84838000  0.76776000  1.0 -0.1198203545
C  C195  1  0.76776000  0.36493000  0.84838000  1.0 -0.1198203545
C  C196  1  0.34838000  0.86493000  0.26776000  1.0 -0.1198203545
C  C197  1  0.86493000  0.26776000  0.34838000  1.0 -0.1198203545
C  C198  1  0.26776000  0.34838000  0.86493000  1.0 -0.1198203545
C  C199  1  0.78893000  0.86123000  0.35623000  1.0 0.5490218754
C  C200  1  0.35623000  0.78893000  0.86123000  1.0 0.5490218754
C  C201  1  0.86123000  0.35623000  0.78893000  1.0 0.5490218754
C  C202  1  0.28893000  0.85623000  0.36123000  1.0 0.5490218754
C  C203  1  0.85623000  0.36123000  0.28893000  1.0 0.5490218754
C  C204  1  0.36123000  0.28893000  0.85623000  1.0 0.5490218754
C  C205  1  0.97356000  0.32296000  0.33106000  1.0 -0.1988730103
C  C206  1  0.33106000  0.97356000  0.32296000  1.0 -0.1988730103
C  C207  1  0.32296000  0.33106000  0.97356000  1.0 -0.1988730103
C  C208  1  0.47356000  0.83106000  0.82296000  1.0 -0.1988730103
C  C209  1  0.83106000  0.82296000  0.47356000  1.0 -0.1988730103
C  C210  1  0.82296000  0.47356000  0.83106000  1.0 -0.1988730103
C  C211  1  0.99631000  0.22341000  0.37351000  1.0 -0.1775256142
C  C212  1  0.37351000  0.99631000  0.22341000  1.0 -0.1775256142
C  C213  1  0.22341000  0.37351000  0.99631000  1.0 -0.1775256142
C  C214  1  0.49631000  0.87351000  0.72341000  1.0 -0.1775256142
C  C215  1  0.87351000  0.72341000  0.49631000  1.0 -0.1775256142
C  C216  1  0.72341000  0.49631000  0.87351000  1.0 -0.1775256142
C  C217  1  0.03021000  0.17291000  0.39161000  1.0 -0.1511577221
C  C218  1  0.39161000  0.03021000  0.17291000  1.0 -0.1511577221
C  C219  1  0.17291000  0.39161000  0.03021000  1.0 -0.1511577221
C  C220  1  0.53021000  0.89161000  0.67291000  1.0 -0.1511577221
C  C221  1  0.89161000  0.67291000  0.53021000  1.0 -0.1511577221
C  C222  1  0.67291000  0.53021000  0.89161000  1.0 -0.1511577221
C  C223  1  0.07799000  0.16661000  0.39270000  1.0 0.0506190401
C  C224  1  0.39270000  0.07799000  0.16661000  1.0 0.0506190401
C  C225  1  0.16661000  0.39270000  0.07799000  1.0 0.0506190401
C  C226  1  0.57799000  0.89270000  0.66666667  1.0 0.0506190401
C  C227  1  0.89270000  0.66666667  0.57799000  1.0 0.0506190401
C  C228  1  0.66666667  0.57799000  0.89270000  1.0 0.0506190401
C  C229  1  0.09177000  0.21089000  0.37568000  1.0 -0.1599349022
C  C230  1  0.37568000  0.09177000  0.21089000  1.0 -0.1599349022
C  C231  1  0.21089000  0.37568000  0.09177000  1.0 -0.1599349022
C  C232  1  0.59177000  0.87568000  0.71089000  1.0 -0.1599349022
C  C233  1  0.87568000  0.71089000  0.59177000  1.0 -0.1599349022
C  C234  1  0.71089000  0.59177000  0.87568000  1.0 -0.1599349022
C  C235  1  0.05773000  0.26145000  0.35769000  1.0 -0.1775256142
C  C236  1  0.35769000  0.05773000  0.26145000  1.0 -0.1775256142
C  C237  1  0.26145000  0.35769000  0.05773000  1.0 -0.1775256142
C  C238  1  0.55773000  0.85769000  0.76145000  1.0 -0.1775256142
C  C239  1  0.85769000  0.76145000  0.55773000  1.0 -0.1775256142
C  C240  1  0.76145000  0.55773000  0.85769000  1.0 -0.1775256142
C  C241  1  0.01000000  0.26770000  0.35660000  1.0 0.1077392784
C  C242  1  0.35660000  0.01000000  0.26770000  1.0 0.1077392784
C  C243  1  0.26770000  0.35660000  0.01000000  1.0 0.1077392784
C  C244  1  0.51000000  0.85660000  0.76770000  1.0 0.1077392784
C  C245  1  0.85660000  0.76770000  0.51000000  1.0 0.1077392784
C  C246  1  0.76770000  0.51000000  0.85660000  1.0 0.1077392784
C  C247  1  0.16594000  0.09960000  0.40182000  1.0 -0.1703656786
C  C248  1  0.40182000  0.16594000  0.09960000  1.0 -0.1703656786
C  C249  1  0.09960000  0.40182000  0.16594000  1.0 -0.1703656786
C  C250  1  0.66594000  0.90182000  0.59960000  1.0 -0.1703656786
C  C251  1  0.90182000  0.59960000  0.66594000  1.0 -0.1703656786
C  C252  1  0.59960000  0.66594000  0.90182000  1.0 -0.1703656786
C  C253  1  0.11274000  0.11142000  0.41113000  1.0 0.0697996317
C  C254  1  0.41113000  0.11274000  0.11142000  1.0 0.0697996317
C  C255  1  0.11142000  0.41113000  0.11274000  1.0 0.0697996317
C  C256  1  0.61274000  0.91113000  0.61142000  1.0 0.0697996317
C  C257  1  0.91113000  0.61142000  0.61274000  1.0 0.0697996317
C  C258  1  0.61142000  0.61274000  0.91113000  1.0 0.0697996317
C  C259  1  0.09186000  0.07066000  0.43416000  1.0 -0.1703656786
C  C260  1  0.43416000  0.09186000  0.07066000  1.0 -0.1703656786
C  C261  1  0.07066000  0.43416000  0.09186000  1.0 -0.1703656786
C  C262  1  0.59186000  0.93416000  0.57066000  1.0 -0.1703656786
C  C263  1  0.93416000  0.57066000  0.59186000  1.0 -0.1703656786
C  C264  1  0.57066000  0.59186000  0.93416000  1.0 -0.1703656786
C  C265  1  0.12428000  0.01808000  0.44778000  1.0 -0.1198203545
C  C266  1  0.44778000  0.12428000  0.01808000  1.0 -0.1198203545
C  C267  1  0.01808000  0.44778000  0.12428000  1.0 -0.1198203545
C  C268  1  0.62428000  0.94778000  0.51808000  1.0 -0.1198203545
C  C269  1  0.94778000  0.51808000  0.62428000  1.0 -0.1198203545
C  C270  1  0.51808000  0.62428000  0.94778000  1.0 -0.1198203545
C  C271  1  0.17745000  0.00629000  0.43847000  1.0 -0.0222513565
C  C272  1  0.43847000  0.17745000  0.00629000  1.0 -0.0222513565
C  C273  1  0.00629000  0.43847000  0.17745000  1.0 -0.0222513565
C  C274  1  0.67745000  0.93847000  0.50629000  1.0 -0.0222513565
C  C275  1  0.93847000  0.50629000  0.67745000  1.0 -0.0222513565
C  C276  1  0.50629000  0.67745000  0.93847000  1.0 -0.0222513565
C  C277  1  0.19835000  0.04703000  0.41544000  1.0 -0.1358990154
C  C278  1  0.41544000  0.19835000  0.04703000  1.0 -0.1358990154
C  C279  1  0.04703000  0.41544000  0.19835000  1.0 -0.1358990154
C  C280  1  0.69835000  0.91544000  0.54703000  1.0 -0.134785304
C  C281  1  0.91544000  0.54703000  0.69835000  1.0 -0.1358990154
C  C282  1  0.54703000  0.69835000  0.91544000  1.0 -0.1358990154
C  C283  1  0.21440000  0.94960000  0.44690000  1.0 0.3838389123
C  C284  1  0.44690000  0.21440000  0.94960000  1.0 0.3874330277
C  C285  1  0.94960000  0.44690000  0.21440000  1.0 0.3838389123
C  C286  1  0.71440000  0.94690000  0.44960000  1.0 0.3838389123
C  C287  1  0.94690000  0.44960000  0.71440000  1.0 0.3874330277
C  C288  1  0.44960000  0.71440000  0.94690000  1.0 0.3874330277
C  C289  1  0.68204000  0.06344000  0.06364000  1.0 -0.1599349022
C  C290  1  0.06344000  0.06364000  0.68204000  1.0 -0.1599349022
C  C291  1  0.06364000  0.68204000  0.06344000  1.0 -0.1599349022
C  C292  1  0.18204000  0.56364000  0.56344000  1.0 -0.1599349022
C  C293  1  0.56344000  0.18204000  0.56364000  1.0 -0.1599349022
C  C294  1  0.56364000  0.56344000  0.18204000  1.0 -0.1599349022
C  C295  1  0.65495000  0.09675000  0.02415000  1.0 -0.1511577221
C  C296  1  0.09675000  0.02415000  0.65495000  1.0 -0.1511577221
C  C297  1  0.02415000  0.65495000  0.09675000  1.0 -0.1511577221
C  C298  1  0.15495000  0.52415000  0.59675000  1.0 -0.1511577221
C  C299  1  0.59675000  0.15495000  0.52415000  1.0 -0.1511577221
C  C300  1  0.52415000  0.59675000  0.15495000  1.0 -0.1511577221
C  C301  1  0.55983000  0.12733000  0.06523000  1.0 -0.1599349022
C  C302  1  0.12733000  0.06523000  0.55983000  1.0 -0.1599349022
C  C303  1  0.06523000  0.55983000  0.12733000  1.0 -0.1599349022
C  C304  1  0.05983000  0.56523000  0.62733000  1.0 -0.1599349022
C  C305  1  0.62733000  0.05983000  0.56523000  1.0 -0.1599349022
C  C306  1  0.56523000  0.62733000  0.05983000  1.0 -0.1599349022
C  C307  1  0.53231000  0.13271000  0.11551000  1.0 -0.1599349022
C  C308  1  0.13271000  0.11551000  0.53231000  1.0 -0.1599349022
C  C309  1  0.11551000  0.53231000  0.13271000  1.0 -0.1599349022
C  C310  1  0.03231000  0.61551000  0.63271000  1.0 -0.1599349022
C  C311  1  0.63271000  0.03231000  0.61551000  1.0 -0.1599349022
C  C312  1  0.61551000  0.63271000  0.03231000  1.0 -0.1599349022
C  C313  1  0.58630000  0.07940000  0.17210000  1.0 -0.1511577221
C  C314  1  0.07940000  0.17210000  0.58630000  1.0 -0.1511577221
C  C315  1  0.17210000  0.58630000  0.07940000  1.0 -0.1511577221
C  C316  1  0.08630000  0.67210000  0.57940000  1.0 -0.1511577221
C  C317  1  0.57940000  0.08630000  0.67210000  1.0 -0.1511577221
C  C318  1  0.67210000  0.57940000  0.08630000  1.0 -0.1511577221
C  C319  1  0.64230000  0.05900000  0.15390000  1.0 -0.1599349022
C  C320  1  0.05900000  0.15390000  0.64230000  1.0 -0.1599349022
C  C321  1  0.15390000  0.64230000  0.05900000  1.0 -0.1599349022
C  C322  1  0.14230000  0.65390000  0.55900000  1.0 -0.1599349022
C  C323  1  0.55900000  0.14230000  0.65390000  1.0 -0.1599349022
C  C324  1  0.65390000  0.55900000  0.14230000  1.0 -0.1599349022
C  C325  1  0.72237000  0.07897000  0.10057000  1.0 -0.1988730103
C  C326  1  0.07897000  0.10057000  0.72237000  1.0 -0.1988730103
C  C327  1  0.10057000  0.72237000  0.07897000  1.0 -0.1988730103
C  C328  1  0.22237000  0.60057000  0.57897000  1.0 -0.1988730103
C  C329  1  0.57897000  0.22237000  0.60057000  1.0 -0.1988730103
C  C330  1  0.60057000  0.57897000  0.22237000  1.0 -0.1988730103
C  C331  1  0.80164000  0.00097000  0.07908000  1.0 -0.1703656786
C  C332  1  0.00097000  0.07908000  0.80164000  1.0 -0.1703656786
C  C333  1  0.07908000  0.80164000  0.00097000  1.0 -0.1703656786
C  C334  1  0.30164000  0.57908000  0.50097000  1.0 -0.1703656786
C  C335  1  0.50097000  0.30164000  0.57908000  1.0 -0.1703656786
C  C336  1  0.57908000  0.50097000  0.30164000  1.0 -0.1703656786
C  C337  1  0.83797000  0.95100000  0.09392000  1.0 -0.1511577221
C  C338  1  0.95100000  0.09392000  0.83797000  1.0 -0.1511577221
C  C339  1  0.09392000  0.83797000  0.95100000  1.0 -0.1511577221
C  C340  1  0.33797000  0.59392000  0.45100000  1.0 -0.1511577221
C  C341  1  0.45100000  0.33797000  0.59392000  1.0 -0.1511577221
C  C342  1  0.59392000  0.45100000  0.33797000  1.0 -0.1511577221
C  C343  1  0.83334000  0.92354000  0.14719000  1.0 0.0607849638
C  C344  1  0.92354000  0.14719000  0.83334000  1.0 0.0607849638
C  C345  1  0.14719000  0.83334000  0.92354000  1.0 0.0607849638
C  C346  1  0.33333333  0.64719000  0.42354000  1.0 0.0607849638
C  C347  1  0.42354000  0.33333333  0.64719000  1.0 0.0607849638
C  C348  1  0.64719000  0.42354000  0.33333333  1.0 0.0607849638
C  C349  1  0.79234000  0.94606000  0.18565000  1.0 -0.1511577221
C  C350  1  0.94606000  0.18565000  0.79234000  1.0 -0.1511577221
C  C351  1  0.18565000  0.79234000  0.94606000  1.0 -0.1511577221
C  C352  1  0.29234000  0.68565000  0.44606000  1.0 -0.1511577221
C  C353  1  0.44606000  0.29234000  0.68565000  1.0 -0.1511577221
C  C354  1  0.68565000  0.44606000  0.29234000  1.0 -0.1511577221
C  C355  1  0.75607000  0.99603000  0.17075000  1.0 -0.1599349022
C  C356  1  0.99603000  0.17075000  0.75607000  1.0 -0.1599349022
C  C357  1  0.17075000  0.75607000  0.99603000  1.0 -0.1599349022
C  C358  1  0.25607000  0.67075000  0.49603000  1.0 -0.1599349022
C  C359  1  0.49603000  0.25607000  0.67075000  1.0 -0.1599349022
C  C360  1  0.67075000  0.49603000  0.25607000  1.0 -0.1599349022
C  C361  1  0.76068000  0.02348000  0.11748000  1.0 0.0811989382
C  C362  1  0.02348000  0.11748000  0.76068000  1.0 0.0811989382
C  C363  1  0.11748000  0.76068000  0.02348000  1.0 0.0811989382
C  C364  1  0.26068000  0.61748000  0.52348000  1.0 0.0811989382
C  C365  1  0.52348000  0.26068000  0.61748000  1.0 0.0811989382
C  C366  1  0.61748000  0.52348000  0.26068000  1.0 0.0811989382
C  C367  1  0.90157000  0.83779000  0.13093000  1.0 -0.1703656786
C  C368  1  0.83779000  0.13093000  0.90157000  1.0 -0.1703656786
C  C369  1  0.13093000  0.90157000  0.83779000  1.0 -0.1703656786
C  C370  1  0.40157000  0.63093000  0.33779000  1.0 -0.1703656786
C  C371  1  0.33779000  0.40157000  0.63093000  1.0 -0.1703656786
C  C372  1  0.63093000  0.33779000  0.40157000  1.0 -0.1703656786
C  C373  1  0.93875000  0.78871000  0.14628000  1.0 -0.1198203545
C  C374  1  0.78871000  0.14628000  0.93875000  1.0 -0.1198203545
C  C375  1  0.14628000  0.93875000  0.78871000  1.0 -0.1198203545
C  C376  1  0.43875000  0.64628000  0.28871000  1.0 -0.1198203545
C  C377  1  0.28871000  0.43875000  0.64628000  1.0 -0.1198203545
C  C378  1  0.64628000  0.28871000  0.43875000  1.0 -0.1198203545
C  C379  1  0.94604000  0.77066000  0.19451000  1.0 -0.0472511983
C  C380  1  0.77066000  0.19451000  0.94604000  1.0 -0.0472511983
C  C381  1  0.19451000  0.94604000  0.77066000  1.0 -0.0472511983
C  C382  1  0.44604000  0.69451000  0.27066000  1.0 -0.0472511983
C  C383  1  0.27066000  0.44604000  0.69451000  1.0 -0.0472511983
C  C384  1  0.69451000  0.27066000  0.44604000  1.0 -0.0472511983
C  C385  1  0.91614000  0.80170000  0.22742000  1.0 -0.1055599328
C  C386  1  0.80170000  0.22742000  0.91614000  1.0 -0.1055599328
C  C387  1  0.22742000  0.91614000  0.80170000  1.0 -0.1055599328
C  C388  1  0.41614000  0.72742000  0.30170000  1.0 -0.1055599328
C  C389  1  0.30170000  0.41614000  0.72742000  1.0 -0.1055599328
C  C390  1  0.72742000  0.30170000  0.41614000  1.0 -0.1055599328
C  C391  1  0.87897000  0.85079000  0.21208000  1.0 -0.1599349022
C  C392  1  0.85079000  0.21208000  0.87897000  1.0 -0.1599349022
C  C393  1  0.21208000  0.87897000  0.85079000  1.0 -0.1599349022
C  C394  1  0.37897000  0.71208000  0.35079000  1.0 -0.1599349022
C  C395  1  0.35079000  0.37897000  0.71208000  1.0 -0.1599349022
C  C396  1  0.71208000  0.35079000  0.37897000  1.0 -0.1599349022
C  C397  1  0.87163000  0.86883000  0.16388000  1.0 0.0811989382
C  C398  1  0.86883000  0.16388000  0.87163000  1.0 0.0811989382
C  C399  1  0.16388000  0.87163000  0.86883000  1.0 0.0811989382
C  C400  1  0.37163000  0.66388000  0.36883000  1.0 0.0811989382
C  C401  1  0.36883000  0.37163000  0.66388000  1.0 0.0811989382
C  C402  1  0.66388000  0.36883000  0.37163000  1.0 0.0811989382
C  C403  1  0.98605000  0.71911000  0.21223000  1.0 0.5375447775
C  C404  1  0.71911000  0.21223000  0.98605000  1.0 0.5375447775
C  C405  1  0.21223000  0.98605000  0.71911000  1.0 0.5375447775
C  C406  1  0.48605000  0.71223000  0.21911000  1.0 0.5375447775
C  C407  1  0.21911000  0.48605000  0.71223000  1.0 0.5375447775
C  C408  1  0.71223000  0.21911000  0.48605000  1.0 0.5375447775
C  C409  1  0.60440000  0.18970000  0.98550000  1.0 -0.1988730103
C  C410  1  0.18970000  0.98550000  0.60440000  1.0 -0.1988730103
C  C411  1  0.98550000  0.60440000  0.18970000  1.0 -0.1988730103
C  C412  1  0.10440000  0.48550000  0.68970000  1.0 -0.1988730103
C  C413  1  0.68970000  0.10440000  0.48550000  1.0 -0.1988730103
C  C414  1  0.48550000  0.68970000  0.10440000  1.0 -0.1988730103
C  C415  1  0.60162000  0.16072000  0.87842000  1.0 -0.1511577221
C  C416  1  0.16072000  0.87842000  0.60162000  1.0 -0.1511577221
C  C417  1  0.87842000  0.60162000  0.16072000  1.0 -0.1511577221
C  C418  1  0.10162000  0.37842000  0.66072000  1.0 -0.1511577221
C  C419  1  0.66072000  0.10162000  0.37842000  1.0 -0.1511577221
C  C420  1  0.37842000  0.66072000  0.10162000  1.0 -0.1511577221
C  C421  1  0.65086000  0.16263000  0.84050000  1.0 0.0607849638
C  C422  1  0.16263000  0.84050000  0.65086000  1.0 0.0607849638
C  C423  1  0.84050000  0.65086000  0.16263000  1.0 0.0607849638
C  C424  1  0.15086000  0.34050000  0.66263000  1.0 0.0607849638
C  C425  1  0.66263000  0.15086000  0.34050000  1.0 0.0607849638
C  C426  1  0.34050000  0.66263000  0.15086000  1.0 0.0607849638
C  C427  1  0.68533000  0.17163000  0.85013000  1.0 -0.1511577221
C  C428  1  0.17163000  0.85013000  0.68533000  1.0 -0.1511577221
C  C429  1  0.85013000  0.68533000  0.17163000  1.0 -0.1511577221
C  C430  1  0.18533000  0.35013000  0.67163000  1.0 -0.1511577221
C  C431  1  0.67163000  0.18533000  0.35013000  1.0 -0.1511577221
C  C432  1  0.35013000  0.67163000  0.18533000  1.0 -0.1511577221
C  C433  1  0.67061000  0.17861000  0.89771000  1.0 -0.1599349022
C  C434  1  0.17861000  0.89771000  0.67061000  1.0 -0.1599349022
C  C435  1  0.89771000  0.67061000  0.17861000  1.0 -0.1599349022
C  C436  1  0.17061000  0.39771000  0.67861000  1.0 -0.1599349022
C  C437  1  0.67861000  0.17061000  0.39771000  1.0 -0.1599349022
C  C438  1  0.39771000  0.67861000  0.17061000  1.0 -0.1599349022
C  C439  1  0.62131000  0.17671000  0.93571000  1.0 0.100987546
C  C440  1  0.17671000  0.93571000  0.62131000  1.0 0.100987546
C  C441  1  0.93571000  0.62131000  0.17671000  1.0 0.100987546
C  C442  1  0.12131000  0.43571000  0.67671000  1.0 0.100987546
C  C443  1  0.67671000  0.12131000  0.43571000  1.0 0.100987546
C  C444  1  0.43571000  0.67671000  0.12131000  1.0 0.100987546
C  C445  1  0.58686000  0.16771000  0.92606000  1.0 -0.1599349022
C  C446  1  0.16771000  0.92606000  0.58686000  1.0 -0.1599349022
C  C447  1  0.92606000  0.58686000  0.16771000  1.0 -0.1599349022
C  C448  1  0.08686000  0.42606000  0.66771000  1.0 -0.1599349022
C  C449  1  0.66771000  0.08686000  0.42606000  1.0 -0.1599349022
C  C450  1  0.42606000  0.66771000  0.08686000  1.0 -0.1599349022
C  C451  1  0.69622000  0.14701000  0.69130000  1.0 -0.0472511983
C  C452  1  0.14701000  0.69130000  0.69622000  1.0 -0.0472511983
C  C453  1  0.69130000  0.69622000  0.14701000  1.0 -0.0472511983
C  C454  1  0.19622000  0.19130000  0.64701000  1.0 -0.0472511983
C  C455  1  0.64701000  0.19622000  0.19130000  1.0 -0.0472511983
C  C456  1  0.19130000  0.64701000  0.19622000  1.0 -0.0472511983
C  C457  1  0.72627000  0.16343000  0.69919000  1.0 -0.1055599328
C  C458  1  0.16343000  0.69919000  0.72627000  1.0 -0.1055599328
C  C459  1  0.69919000  0.72627000  0.16343000  1.0 -0.1055599328
C  C460  1  0.22627000  0.19919000  0.66343000  1.0 -0.1055599328
C  C461  1  0.66343000  0.22627000  0.19919000  1.0 -0.1055599328
C  C462  1  0.19919000  0.66343000  0.22627000  1.0 -0.1055599328
C  C463  1  0.71184000  0.16774000  0.74804000  1.0 -0.1599349022
C  C464  1  0.16774000  0.74804000  0.71184000  1.0 -0.1599349022
C  C465  1  0.74804000  0.71184000  0.16774000  1.0 -0.1599349022
C  C466  1  0.21184000  0.24804000  0.66774000  1.0 -0.1599349022
C  C467  1  0.66774000  0.21184000  0.24804000  1.0 -0.1599349022
C  C468  1  0.24804000  0.66774000  0.21184000  1.0 -0.1599349022
C  C469  1  0.66721000  0.15584000  0.78897000  1.0 0.0811989382
C  C470  1  0.15584000  0.78897000  0.66721000  1.0 0.0811989382
C  C471  1  0.78897000  0.66721000  0.15584000  1.0 0.0811989382
C  C472  1  0.16721000  0.28897000  0.65584000  1.0 0.0811989382
C  C473  1  0.65584000  0.16721000  0.28897000  1.0 0.0811989382
C  C474  1  0.28897000  0.65584000  0.16721000  1.0 0.0811989382
C  C475  1  0.63712000  0.13946000  0.78108000  1.0 -0.1599349022
C  C476  1  0.13946000  0.78108000  0.63712000  1.0 -0.1599349022
C  C477  1  0.78108000  0.63712000  0.13946000  1.0 -0.1599349022
C  C478  1  0.13712000  0.28108000  0.63946000  1.0 -0.1599349022
C  C479  1  0.63946000  0.13712000  0.28108000  1.0 -0.1599349022
C  C480  1  0.28108000  0.63946000  0.13712000  1.0 -0.1599349022
C  C481  1  0.65162000  0.13507000  0.73224000  1.0 -0.1198203545
C  C482  1  0.13507000  0.73224000  0.65162000  1.0 -0.1198203545
C  C483  1  0.73224000  0.65162000  0.13507000  1.0 -0.1198203545
C  C484  1  0.15162000  0.23224000  0.63507000  1.0 -0.1198203545
C  C485  1  0.63507000  0.15162000  0.23224000  1.0 -0.1198203545
C  C486  1  0.23224000  0.63507000  0.15162000  1.0 -0.1198203545
C  C487  1  0.71107000  0.14377000  0.63877000  1.0 0.5490218754
C  C488  1  0.14377000  0.63877000  0.71107000  1.0 0.5490218754
C  C489  1  0.63877000  0.71107000  0.14377000  1.0 0.5490218754
C  C490  1  0.21107000  0.13877000  0.64377000  1.0 0.5490218754
C  C491  1  0.64377000  0.21107000  0.13877000  1.0 0.5490218754
C  C492  1  0.13877000  0.64377000  0.21107000  1.0 0.5490218754
C  C493  1  0.52644000  0.16894000  0.17704000  1.0 -0.1988730103
C  C494  1  0.16894000  0.17704000  0.52644000  1.0 -0.1988730103
C  C495  1  0.17704000  0.52644000  0.16894000  1.0 -0.1988730103
C  C496  1  0.02644000  0.67704000  0.66894000  1.0 -0.1988730103
C  C497  1  0.66894000  0.02644000  0.67704000  1.0 -0.1988730103
C  C498  1  0.67704000  0.66894000  0.02644000  1.0 -0.1988730103
C  C499  1  0.50369000  0.12649000  0.27659000  1.0 -0.1775256142
C  C500  1  0.12649000  0.27659000  0.50369000  1.0 -0.1775256142
C  C501  1  0.27659000  0.50369000  0.12649000  1.0 -0.1775256142
C  C502  1  0.00369000  0.77659000  0.62649000  1.0 -0.1775256142
C  C503  1  0.62649000  0.00369000  0.77659000  1.0 -0.1775256142
C  C504  1  0.77659000  0.62649000  0.00369000  1.0 -0.1775256142
C  C505  1  0.46979000  0.10839000  0.32709000  1.0 -0.1511577221
C  C506  1  0.10839000  0.32709000  0.46979000  1.0 -0.1511577221
C  C507  1  0.32709000  0.46979000  0.10839000  1.0 -0.1511577221
C  C508  1  0.96979000  0.82709000  0.60839000  1.0 -0.1511577221
C  C509  1  0.60839000  0.96979000  0.82709000  1.0 -0.1511577221
C  C510  1  0.82709000  0.60839000  0.96979000  1.0 -0.1511577221
C  C511  1  0.42201000  0.10730000  0.33339000  1.0 0.0506190401
C  C512  1  0.10730000  0.33339000  0.42201000  1.0 0.0506190401
C  C513  1  0.33339000  0.42201000  0.10730000  1.0 0.0506190401
C  C514  1  0.92201000  0.83339000  0.60730000  1.0 0.0506190401
C  C515  1  0.60730000  0.92201000  0.83339000  1.0 0.0506190401
C  C516  1  0.83339000  0.60730000  0.92201000  1.0 0.0506190401
C  C517  1  0.40823000  0.12432000  0.28911000  1.0 -0.1599349022
C  C518  1  0.12432000  0.28911000  0.40823000  1.0 -0.1599349022
C  C519  1  0.28911000  0.40823000  0.12432000  1.0 -0.1599349022
C  C520  1  0.90823000  0.78911000  0.62432000  1.0 -0.1599349022
C  C521  1  0.62432000  0.90823000  0.78911000  1.0 -0.1599349022
C  C522  1  0.78911000  0.62432000  0.90823000  1.0 -0.1599349022
C  C523  1  0.44227000  0.14231000  0.23855000  1.0 -0.1775256142
C  C524  1  0.14231000  0.23855000  0.44227000  1.0 -0.1775256142
C  C525  1  0.23855000  0.44227000  0.14231000  1.0 -0.1775256142
C  C526  1  0.94227000  0.73855000  0.64231000  1.0 -0.1775256142
C  C527  1  0.64231000  0.94227000  0.73855000  1.0 -0.1775256142
C  C528  1  0.73855000  0.64231000  0.94227000  1.0 -0.1775256142
C  C529  1  0.49000000  0.14340000  0.23230000  1.0 0.1077392784
C  C530  1  0.14340000  0.23230000  0.49000000  1.0 0.1077392784
C  C531  1  0.23230000  0.49000000  0.14340000  1.0 0.1077392784
C  C532  1  0.99000000  0.73230000  0.64340000  1.0 0.1077392784
C  C533  1  0.64340000  0.99000000  0.73230000  1.0 0.1077392784
C  C534  1  0.73230000  0.64340000  0.99000000  1.0 0.1077392784
C  C535  1  0.33406000  0.09818000  0.40040000  1.0 -0.1703656786
C  C536  1  0.09818000  0.40040000  0.33406000  1.0 -0.1703656786
C  C537  1  0.40040000  0.33406000  0.09818000  1.0 -0.1703656786
C  C538  1  0.83406000  0.90040000  0.59818000  1.0 -0.1703656786
C  C539  1  0.59818000  0.83406000  0.90040000  1.0 -0.1703656786
C  C540  1  0.90040000  0.59818000  0.83406000  1.0 -0.1703656786
C  C541  1  0.38726000  0.08887000  0.38858000  1.0 0.0697996317
C  C542  1  0.08887000  0.38858000  0.38726000  1.0 0.0697996317
C  C543  1  0.38858000  0.38726000  0.08887000  1.0 0.0697996317
C  C544  1  0.88726000  0.88858000  0.58887000  1.0 0.0697996317
C  C545  1  0.58887000  0.88726000  0.88858000  1.0 0.0697996317
C  C546  1  0.88858000  0.58887000  0.88726000  1.0 0.0697996317
C  C547  1  0.40814000  0.06584000  0.42934000  1.0 -0.1703656786
C  C548  1  0.06584000  0.42934000  0.40814000  1.0 -0.1703656786
C  C549  1  0.42934000  0.40814000  0.06584000  1.0 -0.1703656786
C  C550  1  0.90814000  0.92934000  0.56584000  1.0 -0.1703656786
C  C551  1  0.56584000  0.90814000  0.92934000  1.0 -0.1703656786
C  C552  1  0.92934000  0.56584000  0.90814000  1.0 -0.1703656786
C  C553  1  0.37572000  0.05222000  0.48192000  1.0 -0.1198203545
C  C554  1  0.05222000  0.48192000  0.37572000  1.0 -0.1198203545
C  C555  1  0.48192000  0.37572000  0.05222000  1.0 -0.1198203545
C  C556  1  0.87572000  0.98192000  0.55222000  1.0 -0.1198203545
C  C557  1  0.55222000  0.87572000  0.98192000  1.0 -0.1198203545
C  C558  1  0.98192000  0.55222000  0.87572000  1.0 -0.1198203545
C  C559  1  0.32255000  0.06153000  0.49371000  1.0 -0.0222513565
C  C560  1  0.06153000  0.49371000  0.32255000  1.0 -0.0222513565
C  C561  1  0.49371000  0.32255000  0.06153000  1.0 -0.0222513565
C  C562  1  0.82255000  0.99371000  0.56153000  1.0 -0.0222513565
C  C563  1  0.56153000  0.82255000  0.99371000  1.0 -0.0222513565
C  C564  1  0.99371000  0.56153000  0.82255000  1.0 -0.0222513565
C  C565  1  0.30165000  0.08456000  0.45297000  1.0 -0.1358990154
C  C566  1  0.08456000  0.45297000  0.30165000  1.0 -0.1358990154
C  C567  1  0.45297000  0.30165000  0.08456000  1.0 -0.1358990154
C  C568  1  0.80165000  0.95297000  0.58456000  1.0 -0.1358990154
C  C569  1  0.58456000  0.80165000  0.95297000  1.0 -0.1358990154
C  C570  1  0.95297000  0.58456000  0.80165000  1.0 -0.1358990154
C  C571  1  0.28560000  0.05310000  0.55040000  1.0 0.3874330277
C  C572  1  0.05310000  0.55040000  0.28560000  1.0 0.3874330277
C  C573  1  0.55040000  0.28560000  0.05310000  1.0 0.3874330277
C  C574  1  0.78560000  0.05040000  0.55310000  1.0 0.3874330277
C  C575  1  0.55310000  0.78560000  0.05040000  1.0 0.3838389123
C  C576  1  0.05040000  0.55310000  0.78560000  1.0 0.3874330277
N  N1  1  0.82662000  0.39831000  0.41558000  1.0 -0.0886194682
N  N2  1  0.41558000  0.82662000  0.39831000  1.0 -0.0886194682
N  N3  1  0.39831000  0.41558000  0.82662000  1.0 -0.0886194682
N  N4  1  0.32662000  0.91558000  0.89831000  1.0 -0.0886194682
N  N5  1  0.91558000  0.89831000  0.32662000  1.0 -0.0886194682
N  N6  1  0.89831000  0.32662000  0.91558000  1.0 -0.0886194682
N  N7  1  0.89038000  0.46653000  0.35605000  1.0 -0.0966563133
N  N8  1  0.35605000  0.89038000  0.46653000  1.0 -0.0966563133
N  N9  1  0.46653000  0.35605000  0.89038000  1.0 -0.0966563133
N  N10  1  0.39038000  0.85605000  0.96653000  1.0 -0.0966563133
N  N11  1  0.85605000  0.96653000  0.39038000  1.0 -0.0966563133
N  N12  1  0.96653000  0.39038000  0.85605000  1.0 -0.0966563133
N  N13  1  0.93885000  0.35725000  0.36730000  1.0 -0.0886194682
N  N14  1  0.36730000  0.93885000  0.35725000  1.0 -0.0886194682
N  N15  1  0.35725000  0.36730000  0.93885000  1.0 -0.0886194682
N  N16  1  0.43885000  0.86730000  0.85725000  1.0 -0.0886194682
N  N17  1  0.86730000  0.85725000  0.43885000  1.0 -0.0886194682
N  N18  1  0.85725000  0.43885000  0.86730000  1.0 -0.0886194682
N  N19  1  0.67338000  0.08442000  0.10169000  1.0 -0.0886194682
N  N20  1  0.08442000  0.10169000  0.67338000  1.0 -0.0886194682
N  N21  1  0.10169000  0.67338000  0.08442000  1.0 -0.0886194682
N  N22  1  0.17338000  0.60169000  0.58442000  1.0 -0.0886194682
N  N23  1  0.58442000  0.17338000  0.60169000  1.0 -0.0886194682
N  N24  1  0.60169000  0.58442000  0.17338000  1.0 -0.0886194682
N  N25  1  0.60962000  0.14395000  0.03347000  1.0 -0.0966563133
N  N26  1  0.14395000  0.03347000  0.60962000  1.0 -0.0966563133
N  N27  1  0.03347000  0.60962000  0.14395000  1.0 -0.0966563133
N  N28  1  0.10962000  0.53347000  0.64395000  1.0 -0.0966563133
N  N29  1  0.64395000  0.10962000  0.53347000  1.0 -0.0966563133
N  N30  1  0.53347000  0.64395000  0.10962000  1.0 -0.0966563133
N  N31  1  0.56115000  0.13270000  0.14275000  1.0 -0.0886194682
N  N32  1  0.13270000  0.14275000  0.56115000  1.0 -0.0886194682
N  N33  1  0.14275000  0.56115000  0.13270000  1.0 -0.0886194682
N  N34  1  0.06115000  0.64275000  0.63270000  1.0 -0.0886194682
N  N35  1  0.63270000  0.06115000  0.64275000  1.0 -0.0886194682
N  N36  1  0.64275000  0.63270000  0.06115000  1.0 -0.0886194682
O  O1  1  0.51358000  0.24285000  0.79402000  1.0 -0.4035051411
O  O2  1  0.79402000  0.51358000  0.24285000  1.0 -0.4035051411
O  O3  1  0.24285000  0.79402000  0.51358000  1.0 -0.4035051411
O  O4  1  0.01358000  0.29402000  0.74285000  1.0 -0.4035051411
O  O5  1  0.29402000  0.74285000  0.01358000  1.0 -0.4035051411
O  O6  1  0.74285000  0.01358000  0.29402000  1.0 -0.4035051411
O  O7  1  0.48537000  0.31593000  0.80891000  1.0 -0.5299369986
O  O8  1  0.80891000  0.48537000  0.31593000  1.0 -0.5299369986
O  O9  1  0.31593000  0.80891000  0.48537000  1.0 -0.5299369986
O  O10  1  0.98537000  0.30891000  0.81593000  1.0 -0.5299369986
O  O11  1  0.30891000  0.81593000  0.98537000  1.0 -0.5299369986
O  O12  1  0.81593000  0.98537000  0.30891000  1.0 -0.5299369986
O  O13  1  0.74597000  0.89417000  0.34897000  1.0 -0.4067097431
O  O14  1  0.34897000  0.74597000  0.89417000  1.0 -0.4035051411
O  O15  1  0.89417000  0.34897000  0.74597000  1.0 -0.4067097431
O  O16  1  0.24597000  0.84897000  0.39417000  1.0 -0.4067097431
O  O17  1  0.84897000  0.39417000  0.24597000  1.0 -0.4067097431
O  O18  1  0.39417000  0.24597000  0.84897000  1.0 -0.4067097431
O  O19  1  0.25984000  0.93698000  0.43541000  1.0 -0.4541049396
O  O20  1  0.43541000  0.25984000  0.93698000  1.0 -0.4541049396
O  O21  1  0.93698000  0.43541000  0.25984000  1.0 -0.4541049396
O  O22  1  0.75984000  0.93541000  0.43698000  1.0 -0.4541049396
O  O23  1  0.93541000  0.43698000  0.75984000  1.0 -0.4541049396
O  O24  1  0.43698000  0.75984000  0.93541000  1.0 -0.4541049396
O  O25  1  0.18909000  0.91589000  0.46539000  1.0 -0.3872171274
O  O26  1  0.46539000  0.18909000  0.91589000  1.0 -0.3872171274
O  O27  1  0.91589000  0.46539000  0.18909000  1.0 -0.3872171274
O  O28  1  0.68909000  0.96539000  0.41589000  1.0 -0.3872171274
O  O29  1  0.96539000  0.41589000  0.68909000  1.0 -0.3872171274
O  O30  1  0.41589000  0.68909000  0.96539000  1.0 -0.3872171274
O  O31  1  0.81909000  0.86892000  0.36575000  1.0 -0.5432810083
O  O32  1  0.36575000  0.81909000  0.86892000  1.0 -0.5432810083
O  O33  1  0.86892000  0.36575000  0.81909000  1.0 -0.5432810083
O  O34  1  0.31909000  0.86575000  0.36892000  1.0 -0.5432810083
O  O35  1  0.86575000  0.36892000  0.31909000  1.0 -0.5432810083
O  O36  1  0.36892000  0.31909000  0.86575000  1.0 -0.5432810083
O  O37  1  0.98642000  0.70598000  0.25715000  1.0 -0.4035051411
O  O38  1  0.70598000  0.25715000  0.98642000  1.0 -0.4035051411
O  O39  1  0.25715000  0.98642000  0.70598000  1.0 -0.4035051411
O  O40  1  0.48642000  0.75715000  0.20598000  1.0 -0.4035051411
O  O41  1  0.20598000  0.48642000  0.75715000  1.0 -0.4035051411
O  O42  1  0.75715000  0.20598000  0.48642000  1.0 -0.4035051411
O  O43  1  0.01463000  0.69109000  0.18407000  1.0 -0.5299369986
O  O44  1  0.69109000  0.18407000  0.01463000  1.0 -0.5299369986
O  O45  1  0.18407000  0.01463000  0.69109000  1.0 -0.5299369986
O  O46  1  0.51463000  0.68407000  0.19109000  1.0 -0.5299369986
O  O47  1  0.19109000  0.51463000  0.68407000  1.0 -0.5299369986
O  O48  1  0.68407000  0.19109000  0.51463000  1.0 -0.5299369986
O  O49  1  0.75403000  0.15103000  0.60583000  1.0 -0.4035051411
O  O50  1  0.15103000  0.60583000  0.75403000  1.0 -0.4067097431
O  O51  1  0.60583000  0.75403000  0.15103000  1.0 -0.4067097431
O  O52  1  0.25403000  0.10583000  0.65103000  1.0 -0.4067097431
O  O53  1  0.65103000  0.25403000  0.10583000  1.0 -0.4067097431
O  O54  1  0.10583000  0.65103000  0.25403000  1.0 -0.4067097431
O  O55  1  0.24016000  0.06459000  0.56302000  1.0 -0.4541049396
O  O56  1  0.06459000  0.56302000  0.24016000  1.0 -0.4541049396
O  O57  1  0.56302000  0.24016000  0.06459000  1.0 -0.4541049396
O  O58  1  0.74016000  0.06302000  0.56459000  1.0 -0.4541049396
O  O59  1  0.56459000  0.74016000  0.06302000  1.0 -0.4541049396
O  O60  1  0.06302000  0.56459000  0.74016000  1.0 -0.4541049396
O  O61  1  0.31091000  0.03461000  0.58411000  1.0 -0.3872171274
O  O62  1  0.03461000  0.58411000  0.31091000  1.0 -0.3872171274
O  O63  1  0.58411000  0.31091000  0.03461000  1.0 -0.3872171274
O  O64  1  0.81091000  0.08411000  0.53461000  1.0 -0.3835882937
O  O65  1  0.53461000  0.81091000  0.08411000  1.0 -0.3872171274
O  O66  1  0.08411000  0.53461000  0.81091000  1.0 -0.3872171274
O  O67  1  0.68091000  0.13425000  0.63108000  1.0 -0.5432810083
O  O68  1  0.13425000  0.63108000  0.68091000  1.0 -0.5432810083
O  O69  1  0.63108000  0.68091000  0.13425000  1.0 -0.5432810083
O  O70  1  0.18091000  0.13108000  0.63425000  1.0 -0.5432810083
O  O71  1  0.63425000  0.18091000  0.13108000  1.0 -0.5432810083
O  O72  1  0.13108000  0.63425000  0.18091000  1.0 -0.5432810083
