# DDEC6 charges by PACMAN v1.1 (https://github.com/mtap-research/PACMAN-charge/)
data_YIGLIM_ASR_pacman
_symmetry_space_group_name_H-M   'P 1'
_cell_length_a   19.25170000
_cell_length_b   19.25170000
_cell_length_c   33.03520000
_cell_angle_alpha   90.00000000
_cell_angle_beta   90.00000000
_cell_angle_gamma   120.00000000
_symmetry_Int_Tables_number   1
_chemical_formula_structural   CuH7(C3O)4
_chemical_formula_sum   'Cu24 H168 C288 O96'
_cell_volume   10603.41460176
_cell_formula_units_Z   24
loop_
 _symmetry_equiv_pos_site_id
 _symmetry_equiv_pos_as_xyz
  1  'x, y, z'
loop_
 _atom_site_type_symbol
 _atom_site_label
 _atom_site_symmetry_multiplicity
 _atom_site_fract_x
 _atom_site_fract_y
 _atom_site_fract_z
 _atom_site_occupancy
 _atom_site_charge
Cu  Cu1  1  0.32272000  0.91773000  0.61831000  1.0 0.8386213997
Cu  Cu2  1  0.20575000  0.80685000  0.66035000  1.0 0.8095125624
Cu  Cu3  1  0.59501000  0.67728000  0.28497000  1.0 0.8386213997
Cu  Cu4  1  0.60110000  0.79425000  0.32701000  1.0 0.8095125624
Cu  Cu5  1  0.08227000  0.40499000  0.95164000  1.0 0.8386213997
Cu  Cu6  1  0.19315000  0.39890000  0.99368000  1.0 0.8095125624
Cu  Cu7  1  0.67728000  0.08227000  0.11831000  1.0 0.8386213997
Cu  Cu8  1  0.79425000  0.19315000  0.16035000  1.0 0.8095125624
Cu  Cu9  1  0.40499000  0.32272000  0.78497000  1.0 0.8386213997
Cu  Cu10  1  0.39890000  0.20575000  0.82701000  1.0 0.8095125624
Cu  Cu11  1  0.91773000  0.59501000  0.45164000  1.0 0.8386213997
Cu  Cu12  1  0.80685000  0.60110000  0.49368000  1.0 0.8095125624
Cu  Cu13  1  0.40499000  0.08227000  0.38169000  1.0 0.8386213997
Cu  Cu14  1  0.39890000  0.19315000  0.33965000  1.0 0.8095125624
Cu  Cu15  1  0.91773000  0.32272000  0.71503000  1.0 0.8386213997
Cu  Cu16  1  0.80685000  0.20575000  0.67299000  1.0 0.8095125624
Cu  Cu17  1  0.67728000  0.59501000  0.04836000  1.0 0.8386213997
Cu  Cu18  1  0.79425000  0.60110000  0.00632000  1.0 0.8095125624
Cu  Cu19  1  0.59501000  0.91773000  0.88169000  1.0 0.8386213997
Cu  Cu20  1  0.60110000  0.80685000  0.83965000  1.0 0.8095125624
Cu  Cu21  1  0.08227000  0.67728000  0.21503000  1.0 0.8386213997
Cu  Cu22  1  0.19315000  0.79425000  0.17299000  1.0 0.8095125624
Cu  Cu23  1  0.32272000  0.40499000  0.54836000  1.0 0.8386213997
Cu  Cu24  1  0.20575000  0.39890000  0.50632000  1.0 0.8095125624
H  H1  1  0.20450000  0.89030000  0.50387000  1.0 0.0994686835
H  H2  1  0.16160000  0.80390000  0.48397000  1.0 0.0994686835
H  H3  1  0.99730000  0.78520000  0.60637000  1.0 0.1281000625
H  H4  1  0.97870000  0.71590000  0.57577000  1.0 0.1281000625
H  H5  1  0.93480000  0.76560000  0.57157000  1.0 0.1281000625
H  H6  1  0.14980000  0.94380000  0.55277000  1.0 0.1099496664
H  H7  1  0.10700000  0.91580000  0.59487000  1.0 0.1177403978
H  H8  1  0.06860000  0.94200000  0.56057000  1.0 0.1177403978
H  H9  1  0.07490000  0.83190000  0.45637000  1.0 0.1099496664
H  H10  1  0.11250000  0.91380000  0.47947000  1.0 0.0937252038
H  H11  1  0.08660000  0.74520000  0.53837000  1.0 0.1099496664
H  H12  1  0.91790000  0.84430000  0.50207000  1.0 0.1281000625
H  H13  1  0.99210000  0.90310000  0.47577000  1.0 0.1099496664
H  H14  1  0.99210000  0.91690000  0.52257000  1.0 0.1177403978
H  H15  1  0.68580000  0.79550000  0.17053000  1.0 0.0994686835
H  H16  1  0.64230000  0.83840000  0.15063000  1.0 0.0994686835
H  H17  1  0.78790000  0.00270000  0.27303000  1.0 0.1281000625
H  H18  1  0.73720000  0.02130000  0.24243000  1.0 0.1281000625
H  H19  1  0.83080000  0.06520000  0.23823000  1.0 0.1281000625
H  H20  1  0.79400000  0.85020000  0.21943000  1.0 0.1099496664
H  H21  1  0.80880000  0.89300000  0.26153000  1.0 0.1177403978
H  H22  1  0.87340000  0.93140000  0.22723000  1.0 0.1177403978
H  H23  1  0.75700000  0.92510000  0.12303000  1.0 0.1099496664
H  H24  1  0.80130000  0.88750000  0.14613000  1.0 0.0937252038
H  H25  1  0.65860000  0.91340000  0.20503000  1.0 0.1099496664
H  H26  1  0.92640000  0.08210000  0.16873000  1.0 0.1281000625
H  H27  1  0.91100000  0.00790000  0.14243000  1.0 0.1099496664
H  H28  1  0.92480000  0.00790000  0.18923000  1.0 0.1177403978
H  H29  1  0.10970000  0.31420000  0.83720000  1.0 0.0994686835
H  H30  1  0.19610000  0.35770000  0.81730000  1.0 0.0994686835
H  H31  1  0.21480000  0.21210000  0.93970000  1.0 0.1281000625
H  H32  1  0.28410000  0.26280000  0.90910000  1.0 0.1281000625
H  H33  1  0.23440000  0.16920000  0.90490000  1.0 0.1281000625
H  H34  1  0.05620000  0.20600000  0.88610000  1.0 0.1099496664
H  H35  1  0.08420000  0.19120000  0.92820000  1.0 0.1177403978
H  H36  1  0.05800000  0.12660000  0.89390000  1.0 0.1177403978
H  H37  1  0.16810000  0.24300000  0.78970000  1.0 0.1099496664
H  H38  1  0.08620000  0.19870000  0.81280000  1.0 0.0937252038
H  H39  1  0.25480000  0.34140000  0.87170000  1.0 0.1099496664
H  H40  1  0.15570000  0.07360000  0.83540000  1.0 0.1281000625
H  H41  1  0.09690000  0.08900000  0.80910000  1.0 0.1099496664
H  H42  1  0.08310000  0.07520000  0.85590000  1.0 0.1177403978
H  H43  1  0.79550000  0.10970000  0.00387000  1.0 0.0994686835
H  H44  1  0.83840000  0.19610000  0.98397000  1.0 0.0994686835
H  H45  1  0.00270000  0.21480000  0.10637000  1.0 0.1281000625
H  H46  1  0.02130000  0.28410000  0.07577000  1.0 0.1281000625
H  H47  1  0.06520000  0.23440000  0.07157000  1.0 0.1281000625
H  H48  1  0.85020000  0.05620000  0.05277000  1.0 0.1099496664
H  H49  1  0.89300000  0.08420000  0.09487000  1.0 0.1177403978
H  H50  1  0.93140000  0.05800000  0.06057000  1.0 0.1177403978
H  H51  1  0.92510000  0.16810000  0.95637000  1.0 0.1099496664
H  H52  1  0.88750000  0.08620000  0.97947000  1.0 0.0937252038
H  H53  1  0.91340000  0.25480000  0.03837000  1.0 0.1099496664
H  H54  1  0.08210000  0.15570000  0.00207000  1.0 0.1281000625
H  H55  1  0.00790000  0.09690000  0.97577000  1.0 0.1099496664
H  H56  1  0.00790000  0.08310000  0.02257000  1.0 0.1177403978
H  H57  1  0.31420000  0.20450000  0.67053000  1.0 0.0994686835
H  H58  1  0.35770000  0.16160000  0.65063000  1.0 0.0994686835
H  H59  1  0.21210000  0.99730000  0.77303000  1.0 0.1281000625
H  H60  1  0.26280000  0.97870000  0.74243000  1.0 0.1281000625
H  H61  1  0.16920000  0.93480000  0.73823000  1.0 0.1281000625
H  H62  1  0.20600000  0.14980000  0.71943000  1.0 0.1099496664
H  H63  1  0.19120000  0.10700000  0.76153000  1.0 0.1177403978
H  H64  1  0.12660000  0.06860000  0.72723000  1.0 0.1177403978
H  H65  1  0.24300000  0.07490000  0.62303000  1.0 0.1099496664
H  H66  1  0.19870000  0.11250000  0.64613000  1.0 0.0937252038
H  H67  1  0.34140000  0.08660000  0.70503000  1.0 0.1099496664
H  H68  1  0.07360000  0.91790000  0.66873000  1.0 0.1281000625
H  H69  1  0.08900000  0.99210000  0.64243000  1.0 0.1099496664
H  H70  1  0.07520000  0.99210000  0.68923000  1.0 0.1177403978
H  H71  1  0.89030000  0.68580000  0.33720000  1.0 0.0994686835
H  H72  1  0.80390000  0.64230000  0.31730000  1.0 0.0994686835
H  H73  1  0.78520000  0.78790000  0.43970000  1.0 0.1281000625
H  H74  1  0.71590000  0.73720000  0.40910000  1.0 0.1281000625
H  H75  1  0.76560000  0.83080000  0.40490000  1.0 0.1281000625
H  H76  1  0.94380000  0.79400000  0.38610000  1.0 0.1099496664
H  H77  1  0.91580000  0.80880000  0.42820000  1.0 0.1177403978
H  H78  1  0.94200000  0.87340000  0.39390000  1.0 0.1177403978
H  H79  1  0.83190000  0.75700000  0.28970000  1.0 0.1099496664
H  H80  1  0.91380000  0.80130000  0.31280000  1.0 0.0937252038
H  H81  1  0.74520000  0.65860000  0.37170000  1.0 0.1099496664
H  H82  1  0.84430000  0.92640000  0.33540000  1.0 0.1281000625
H  H83  1  0.90310000  0.91100000  0.30910000  1.0 0.1099496664
H  H84  1  0.91690000  0.92480000  0.35590000  1.0 0.1177403978
H  H85  1  0.31420000  0.10970000  0.49613000  1.0 0.0994686835
H  H86  1  0.35770000  0.19610000  0.51603000  1.0 0.0994686835
H  H87  1  0.21210000  0.21480000  0.39363000  1.0 0.1281000625
H  H88  1  0.26280000  0.28410000  0.42423000  1.0 0.1281000625
H  H89  1  0.16920000  0.23440000  0.42843000  1.0 0.1281000625
H  H90  1  0.20600000  0.05620000  0.44723000  1.0 0.1099496664
H  H91  1  0.19120000  0.08420000  0.40513000  1.0 0.1177403978
H  H92  1  0.12660000  0.05800000  0.43943000  1.0 0.1177403978
H  H93  1  0.24300000  0.16810000  0.54363000  1.0 0.1099496664
H  H94  1  0.19870000  0.08620000  0.52053000  1.0 0.0937252038
H  H95  1  0.34140000  0.25480000  0.46163000  1.0 0.1099496664
H  H96  1  0.07360000  0.15570000  0.49793000  1.0 0.1281000625
H  H97  1  0.08900000  0.09690000  0.52423000  1.0 0.1099496664
H  H98  1  0.07520000  0.08310000  0.47743000  1.0 0.1177403978
H  H99  1  0.89030000  0.20450000  0.82947000  1.0 0.0994686835
H  H100  1  0.80390000  0.16160000  0.84937000  1.0 0.0994686835
H  H101  1  0.78520000  0.99730000  0.72697000  1.0 0.1281000625
H  H102  1  0.71590000  0.97870000  0.75757000  1.0 0.1281000625
H  H103  1  0.76560000  0.93480000  0.76177000  1.0 0.1281000625
H  H104  1  0.94380000  0.14980000  0.78057000  1.0 0.1099496664
H  H105  1  0.91580000  0.10700000  0.73847000  1.0 0.1177403978
H  H106  1  0.94200000  0.06860000  0.77277000  1.0 0.1177403978
H  H107  1  0.83190000  0.07490000  0.87697000  1.0 0.1099496664
H  H108  1  0.91380000  0.11250000  0.85387000  1.0 0.0937252038
H  H109  1  0.74520000  0.08660000  0.79497000  1.0 0.1099496664
H  H110  1  0.84430000  0.91790000  0.83127000  1.0 0.1281000625
H  H111  1  0.90310000  0.99210000  0.85757000  1.0 0.1099496664
H  H112  1  0.91690000  0.99210000  0.81077000  1.0 0.1177403978
H  H113  1  0.79550000  0.68580000  0.16280000  1.0 0.0994686835
H  H114  1  0.83840000  0.64230000  0.18270000  1.0 0.0994686835
H  H115  1  0.00270000  0.78790000  0.06030000  1.0 0.1281000625
H  H116  1  0.02130000  0.73720000  0.09090000  1.0 0.1281000625
H  H117  1  0.06520000  0.83080000  0.09510000  1.0 0.1281000625
H  H118  1  0.85020000  0.79400000  0.11390000  1.0 0.1099496664
H  H119  1  0.89300000  0.80880000  0.07180000  1.0 0.1177403978
H  H120  1  0.93140000  0.87340000  0.10610000  1.0 0.1177403978
H  H121  1  0.92510000  0.75700000  0.21030000  1.0 0.1099496664
H  H122  1  0.88750000  0.80130000  0.18720000  1.0 0.0937252038
H  H123  1  0.91340000  0.65860000  0.12830000  1.0 0.1099496664
H  H124  1  0.08210000  0.92640000  0.16460000  1.0 0.1281000625
H  H125  1  0.00790000  0.91100000  0.19090000  1.0 0.1099496664
H  H126  1  0.00790000  0.92480000  0.14410000  1.0 0.1177403978
H  H127  1  0.68580000  0.89030000  0.99613000  1.0 0.0994686835
H  H128  1  0.64230000  0.80390000  0.01603000  1.0 0.0994686835
H  H129  1  0.78790000  0.78520000  0.89363000  1.0 0.1281000625
H  H130  1  0.73720000  0.71590000  0.92423000  1.0 0.1281000625
H  H131  1  0.83080000  0.76560000  0.92843000  1.0 0.1281000625
H  H132  1  0.79400000  0.94380000  0.94723000  1.0 0.1099496664
H  H133  1  0.80880000  0.91580000  0.90513000  1.0 0.1177403978
H  H134  1  0.87340000  0.94200000  0.93943000  1.0 0.1177403978
H  H135  1  0.75700000  0.83190000  0.04363000  1.0 0.1099496664
H  H136  1  0.80130000  0.91380000  0.02053000  1.0 0.0937252038
H  H137  1  0.65860000  0.74520000  0.96163000  1.0 0.1099496664
H  H138  1  0.92640000  0.84430000  0.99793000  1.0 0.1281000625
H  H139  1  0.91100000  0.90310000  0.02423000  1.0 0.1099496664
H  H140  1  0.92480000  0.91690000  0.97743000  1.0 0.1177403978
H  H141  1  0.10970000  0.79550000  0.32947000  1.0 0.0994686835
H  H142  1  0.19610000  0.83840000  0.34937000  1.0 0.0994686835
H  H143  1  0.21480000  0.00270000  0.22697000  1.0 0.1281000625
H  H144  1  0.28410000  0.02130000  0.25757000  1.0 0.1281000625
H  H145  1  0.23440000  0.06520000  0.26177000  1.0 0.1281000625
H  H146  1  0.05620000  0.85020000  0.28057000  1.0 0.1099496664
H  H147  1  0.08420000  0.89300000  0.23847000  1.0 0.1177403978
H  H148  1  0.05800000  0.93140000  0.27277000  1.0 0.1177403978
H  H149  1  0.16810000  0.92510000  0.37697000  1.0 0.1099496664
H  H150  1  0.08620000  0.88750000  0.35387000  1.0 0.0937252038
H  H151  1  0.25480000  0.91340000  0.29497000  1.0 0.1099496664
H  H152  1  0.15570000  0.08210000  0.33127000  1.0 0.1281000625
H  H153  1  0.09690000  0.00790000  0.35757000  1.0 0.1099496664
H  H154  1  0.08310000  0.00790000  0.31077000  1.0 0.1177403978
H  H155  1  0.20450000  0.31420000  0.66280000  1.0 0.0994686835
H  H156  1  0.16160000  0.35770000  0.68270000  1.0 0.0994686835
H  H157  1  0.99730000  0.21210000  0.56030000  1.0 0.1281000625
H  H158  1  0.97870000  0.26280000  0.59090000  1.0 0.1281000625
H  H159  1  0.93480000  0.16920000  0.59510000  1.0 0.1281000625
H  H160  1  0.14980000  0.20600000  0.61390000  1.0 0.1099496664
H  H161  1  0.10700000  0.19120000  0.57180000  1.0 0.1177403978
H  H162  1  0.06860000  0.12660000  0.60610000  1.0 0.1177403978
H  H163  1  0.07490000  0.24300000  0.71030000  1.0 0.1099496664
H  H164  1  0.11250000  0.19870000  0.68720000  1.0 0.0937252038
H  H165  1  0.08660000  0.34140000  0.62830000  1.0 0.1099496664
H  H166  1  0.91790000  0.07360000  0.66460000  1.0 0.1281000625
H  H167  1  0.99210000  0.08900000  0.69090000  1.0 0.1099496664
H  H168  1  0.99210000  0.07520000  0.64410000  1.0 0.1177403978
C  C1  1  0.96090000  0.73890000  0.49307000  1.0 0.5242125212
C  C2  1  0.17530000  0.82340000  0.57807000  1.0 0.5742058822
C  C3  1  0.35690000  0.90820000  0.70047000  1.0 0.5035550961
C  C4  1  0.15380000  0.84100000  0.50057000  1.0 -0.1937418809
C  C5  1  0.05200000  0.82820000  0.55077000  1.0 0.2051319345
C  C6  1  0.98430000  0.76800000  0.57877000  1.0 -0.4714734089
C  C7  1  0.09880000  0.91580000  0.56627000  1.0 -0.4714734089
C  C8  1  0.08960000  0.85640000  0.48297000  1.0 -0.2263293669
C  C9  1  0.11540000  0.80350000  0.54187000  1.0 -0.1801081529
C  C10  1  0.30390000  0.76160000  0.62797000  1.0 0.4532610445
C  C11  1  0.01310000  0.82460000  0.50877000  1.0 0.0407347583
C  C12  1  0.97530000  0.87710000  0.50167000  1.0 -0.4596344661
C  C13  1  0.29620000  0.66790000  0.57367000  1.0 0.0315281102
C  C14  1  0.34110000  0.71200000  0.61257000  1.0 0.0315281102
C  C15  1  0.42300000  0.74950000  0.59087000  1.0 0.0407347583
C  C16  1  0.35500000  0.67500000  0.64977000  1.0 -0.0526526891
C  C17  1  0.30000000  0.72400000  0.53887000  1.0 0.1099496664
C  C18  1  0.38660000  0.91960000  0.74887000  1.0 -0.0100681761
C  C19  1  0.44500000  0.00940000  0.75217000  1.0 -0.0526526891
C  C20  1  0.38540000  0.82420000  0.78537000  1.0 0.1281000625
C  C21  1  0.31480000  0.89580000  0.77667000  1.0 0.2495326835
C  C22  1  0.52400000  0.94080000  0.76537000  1.0 -0.098701875
C  C23  1  0.51200000  0.01030000  0.77817000  1.0 0.0063522907
C  C24  1  0.77800000  0.03910000  0.15973000  1.0 0.5242125212
C  C25  1  0.64810000  0.82470000  0.24473000  1.0 0.5742058822
C  C26  1  0.55130000  0.64310000  0.36713000  1.0 0.5035550961
C  C27  1  0.68720000  0.84620000  0.16723000  1.0 -0.1937418809
C  C28  1  0.77620000  0.94800000  0.21743000  1.0 0.2051319345
C  C29  1  0.78370000  0.01570000  0.24543000  1.0 -0.4714734089
C  C30  1  0.81700000  0.90120000  0.23293000  1.0 -0.4714734089
C  C31  1  0.76680000  0.91040000  0.14963000  1.0 -0.2263293669
C  C32  1  0.68810000  0.88460000  0.20853000  1.0 -0.1801081529
C  C33  1  0.45770000  0.69610000  0.29463000  1.0 0.4532610445
C  C34  1  0.81150000  0.98690000  0.17543000  1.0 0.0407347583
C  C35  1  0.90180000  0.02470000  0.16833000  1.0 -0.4596344661
C  C36  1  0.37170000  0.70380000  0.24033000  1.0 0.0315281102
C  C37  1  0.37090000  0.65890000  0.27923000  1.0 0.0315281102
C  C38  1  0.32650000  0.57700000  0.25753000  1.0 0.0407347583
C  C39  1  0.32000000  0.64500000  0.31643000  1.0 -0.0526526891
C  C40  1  0.42400000  0.70000000  0.20553000  1.0 0.1099496664
C  C41  1  0.53300000  0.61340000  0.41553000  1.0 -0.0100681761
C  C42  1  0.56440000  0.55500000  0.41883000  1.0 -0.0526526891
C  C43  1  0.43880000  0.61460000  0.45203000  1.0 0.1281000625
C  C44  1  0.58100000  0.68520000  0.44333000  1.0 0.2495326835
C  C45  1  0.41680000  0.47600000  0.43203000  1.0 -0.098701875
C  C46  1  0.49830000  0.48800000  0.44483000  1.0 0.0063522907
C  C47  1  0.26110000  0.22200000  0.82640000  1.0 0.5242125212
C  C48  1  0.17660000  0.35190000  0.91140000  1.0 0.5742058822
C  C49  1  0.09180000  0.44870000  0.03380000  1.0 0.5035550961
C  C50  1  0.15900000  0.31280000  0.83390000  1.0 -0.1937418809
C  C51  1  0.17180000  0.22380000  0.88410000  1.0 0.2051319345
C  C52  1  0.23200000  0.21630000  0.91210000  1.0 -0.4714734089
C  C53  1  0.08420000  0.18300000  0.89960000  1.0 -0.4714734089
C  C54  1  0.14360000  0.23320000  0.81630000  1.0 -0.2263293669
C  C55  1  0.19650000  0.31190000  0.87520000  1.0 -0.1801081529
C  C56  1  0.23840000  0.54230000  0.96130000  1.0 0.4532610445
C  C57  1  0.17540000  0.18850000  0.84210000  1.0 0.0407347583
C  C58  1  0.12290000  0.09820000  0.83500000  1.0 -0.4596344661
C  C59  1  0.33210000  0.62830000  0.90700000  1.0 0.0315281102
C  C60  1  0.28800000  0.62910000  0.94590000  1.0 0.0315281102
C  C61  1  0.25050000  0.67350000  0.92420000  1.0 0.0407347583
C  C62  1  0.32500000  0.68000000  0.98310000  1.0 -0.0526526891
C  C63  1  0.27600000  0.57600000  0.87220000  1.0 0.1099496664
C  C64  1  0.08040000  0.46700000  0.08220000  1.0 -0.0100681761
C  C65  1  0.99060000  0.43560000  0.08550000  1.0 -0.0526526891
C  C66  1  0.17580000  0.56120000  0.11870000  1.0 0.1281000625
C  C67  1  0.10420000  0.41900000  0.11000000  1.0 0.2495326835
C  C68  1  0.05920000  0.58320000  0.09870000  1.0 -0.098701875
C  C69  1  0.98970000  0.50170000  0.11150000  1.0 0.0063522907
C  C70  1  0.03910000  0.26110000  0.99307000  1.0 0.5242125212
C  C71  1  0.82470000  0.17660000  0.07807000  1.0 0.5742058822
C  C72  1  0.64310000  0.09180000  0.20047000  1.0 0.5035550961
C  C73  1  0.84620000  0.15900000  0.00057000  1.0 -0.1937418809
C  C74  1  0.94800000  0.17180000  0.05077000  1.0 0.2051319345
C  C75  1  0.01570000  0.23200000  0.07877000  1.0 -0.4714734089
C  C76  1  0.90120000  0.08420000  0.06627000  1.0 -0.4714734089
C  C77  1  0.91040000  0.14360000  0.98297000  1.0 -0.2263293669
C  C78  1  0.88460000  0.19650000  0.04187000  1.0 -0.1801081529
C  C79  1  0.69610000  0.23840000  0.12797000  1.0 0.4532610445
C  C80  1  0.98690000  0.17540000  0.00877000  1.0 0.0407347583
C  C81  1  0.02470000  0.12290000  0.00167000  1.0 -0.4596344661
C  C82  1  0.70380000  0.33210000  0.07367000  1.0 0.0315281102
C  C83  1  0.65890000  0.28800000  0.11257000  1.0 0.0315281102
C  C84  1  0.57700000  0.25050000  0.09087000  1.0 0.0407347583
C  C85  1  0.64500000  0.32500000  0.14977000  1.0 -0.0526526891
C  C86  1  0.70000000  0.27600000  0.03887000  1.0 0.1099496664
C  C87  1  0.61340000  0.08040000  0.24887000  1.0 -0.0100681761
C  C88  1  0.55500000  0.99060000  0.25217000  1.0 -0.0526526891
C  C89  1  0.61460000  0.17580000  0.28537000  1.0 0.1281000625
C  C90  1  0.68520000  0.10420000  0.27667000  1.0 0.2495326835
C  C91  1  0.47600000  0.05920000  0.26537000  1.0 -0.098701875
C  C92  1  0.48800000  0.98970000  0.27817000  1.0 0.0063522907
C  C93  1  0.22200000  0.96090000  0.65973000  1.0 0.5242125212
C  C94  1  0.35190000  0.17530000  0.74473000  1.0 0.5742058822
C  C95  1  0.44870000  0.35690000  0.86713000  1.0 0.5035550961
C  C96  1  0.31280000  0.15380000  0.66723000  1.0 -0.1937418809
C  C97  1  0.22380000  0.05200000  0.71743000  1.0 0.2051319345
C  C98  1  0.21630000  0.98430000  0.74543000  1.0 -0.4714734089
C  C99  1  0.18300000  0.09880000  0.73293000  1.0 -0.4714734089
C  C100  1  0.23320000  0.08960000  0.64963000  1.0 -0.2263293669
C  C101  1  0.31190000  0.11540000  0.70853000  1.0 -0.1801081529
C  C102  1  0.54230000  0.30390000  0.79463000  1.0 0.4532610445
C  C103  1  0.18850000  0.01310000  0.67543000  1.0 0.0407347583
C  C104  1  0.09820000  0.97530000  0.66833000  1.0 -0.4596344661
C  C105  1  0.62830000  0.29620000  0.74033000  1.0 0.0407347583
C  C106  1  0.62910000  0.34110000  0.77923000  1.0 0.0315281102
C  C107  1  0.67350000  0.42300000  0.75753000  1.0 0.0407347583
C  C108  1  0.68000000  0.35500000  0.81643000  1.0 -0.0526526891
C  C109  1  0.57600000  0.30000000  0.70553000  1.0 0.1099496664
C  C110  1  0.46700000  0.38660000  0.91553000  1.0 -0.0100681761
C  C111  1  0.43560000  0.44500000  0.91883000  1.0 -0.0526526891
C  C112  1  0.56120000  0.38540000  0.95203000  1.0 0.1281000625
C  C113  1  0.41900000  0.31480000  0.94333000  1.0 0.2495326835
C  C114  1  0.58320000  0.52400000  0.93203000  1.0 -0.098701875
C  C115  1  0.50170000  0.51200000  0.94483000  1.0 0.0063522907
C  C116  1  0.73890000  0.77800000  0.32640000  1.0 0.5242125212
C  C117  1  0.82340000  0.64810000  0.41140000  1.0 0.5742058822
C  C118  1  0.90820000  0.55130000  0.53380000  1.0 0.5035550961
C  C119  1  0.84100000  0.68720000  0.33390000  1.0 -0.1937418809
C  C120  1  0.82820000  0.77620000  0.38410000  1.0 0.2051319345
C  C121  1  0.76800000  0.78370000  0.41210000  1.0 -0.4714734089
C  C122  1  0.91580000  0.81700000  0.39960000  1.0 -0.4714734089
C  C123  1  0.85640000  0.76680000  0.31630000  1.0 -0.2263293669
C  C124  1  0.80350000  0.68810000  0.37520000  1.0 -0.1801081529
C  C125  1  0.76160000  0.45770000  0.46130000  1.0 0.4532610445
C  C126  1  0.82460000  0.81150000  0.34210000  1.0 0.0407347583
C  C127  1  0.87710000  0.90180000  0.33500000  1.0 -0.4596344661
C  C128  1  0.66790000  0.37170000  0.40700000  1.0 0.0315281102
C  C129  1  0.71200000  0.37090000  0.44590000  1.0 0.0315281102
C  C130  1  0.74950000  0.32650000  0.42420000  1.0 0.0407347583
C  C131  1  0.67500000  0.32000000  0.48310000  1.0 -0.0526526891
C  C132  1  0.72400000  0.42400000  0.37220000  1.0 0.1099496664
C  C133  1  0.91960000  0.53300000  0.58220000  1.0 -0.0100681761
C  C134  1  0.00940000  0.56440000  0.58550000  1.0 -0.0526526891
C  C135  1  0.82420000  0.43880000  0.61870000  1.0 0.1281000625
C  C136  1  0.89580000  0.58100000  0.61000000  1.0 0.2495326835
C  C137  1  0.94080000  0.41680000  0.59870000  1.0 -0.098701875
C  C138  1  0.01030000  0.49830000  0.61150000  1.0 0.0039070559
C  C139  1  0.22200000  0.26110000  0.50693000  1.0 0.5242125212
C  C140  1  0.35190000  0.17660000  0.42193000  1.0 0.5742058822
C  C141  1  0.44870000  0.09180000  0.29953000  1.0 0.5035550961
C  C142  1  0.31280000  0.15900000  0.49943000  1.0 -0.1937418809
C  C143  1  0.22380000  0.17180000  0.44923000  1.0 0.2051319345
C  C144  1  0.21630000  0.23200000  0.42123000  1.0 -0.4714734089
C  C145  1  0.18300000  0.08420000  0.43373000  1.0 -0.4714734089
C  C146  1  0.23320000  0.14360000  0.51703000  1.0 -0.2263293669
C  C147  1  0.31190000  0.19650000  0.45813000  1.0 -0.1801081529
C  C148  1  0.54230000  0.23840000  0.37203000  1.0 0.4532610445
C  C149  1  0.18850000  0.17540000  0.49123000  1.0 0.0407347583
C  C150  1  0.09820000  0.12290000  0.49833000  1.0 -0.4596344661
C  C151  1  0.62830000  0.33210000  0.42633000  1.0 0.0315281102
C  C152  1  0.62910000  0.28800000  0.38743000  1.0 0.0315281102
C  C153  1  0.67350000  0.25050000  0.40913000  1.0 0.0407347583
C  C154  1  0.68000000  0.32500000  0.35023000  1.0 -0.0526526891
C  C155  1  0.57600000  0.27600000  0.46113000  1.0 0.1099496664
C  C156  1  0.46700000  0.08040000  0.25113000  1.0 -0.0100681761
C  C157  1  0.43560000  0.99060000  0.24783000  1.0 -0.0526526891
C  C158  1  0.56120000  0.17580000  0.21463000  1.0 0.1281000625
C  C159  1  0.41900000  0.10420000  0.22333000  1.0 0.2495326835
C  C160  1  0.58320000  0.05920000  0.23463000  1.0 -0.098701875
C  C161  1  0.50170000  0.98970000  0.22183000  1.0 0.0063522907
C  C162  1  0.73890000  0.96090000  0.84027000  1.0 0.5242125212
C  C163  1  0.82340000  0.17530000  0.75527000  1.0 0.5742058822
C  C164  1  0.90820000  0.35690000  0.63287000  1.0 0.5035550961
C  C165  1  0.84100000  0.15380000  0.83277000  1.0 -0.1937418809
C  C166  1  0.82820000  0.05200000  0.78257000  1.0 0.2051319345
C  C167  1  0.76800000  0.98430000  0.75457000  1.0 -0.4714734089
C  C168  1  0.91580000  0.09880000  0.76707000  1.0 -0.4714734089
C  C169  1  0.85640000  0.08960000  0.85037000  1.0 -0.2263293669
C  C170  1  0.80350000  0.11540000  0.79147000  1.0 -0.1801081529
C  C171  1  0.76160000  0.30390000  0.70537000  1.0 0.4532610445
C  C172  1  0.82460000  0.01310000  0.82457000  1.0 0.0407347583
C  C173  1  0.87710000  0.97530000  0.83167000  1.0 -0.4596344661
C  C174  1  0.66790000  0.29620000  0.75967000  1.0 0.0315281102
C  C175  1  0.71200000  0.34110000  0.72077000  1.0 0.0315281102
C  C176  1  0.74950000  0.42300000  0.74247000  1.0 0.0407347583
C  C177  1  0.67500000  0.35500000  0.68357000  1.0 -0.0526526891
C  C178  1  0.72400000  0.30000000  0.79447000  1.0 0.1099496664
C  C179  1  0.91960000  0.38660000  0.58447000  1.0 -0.0100681761
C  C180  1  0.00940000  0.44500000  0.58117000  1.0 -0.0526526891
C  C181  1  0.82420000  0.38540000  0.54797000  1.0 0.1281000625
C  C182  1  0.89580000  0.31480000  0.55667000  1.0 0.2495326835
C  C183  1  0.94080000  0.52400000  0.56797000  1.0 -0.098701875
C  C184  1  0.01030000  0.51200000  0.55517000  1.0 0.0039070559
C  C185  1  0.03910000  0.77800000  0.17360000  1.0 0.5242125212
C  C186  1  0.82470000  0.64810000  0.08860000  1.0 0.5742058822
C  C187  1  0.64310000  0.55130000  0.96620000  1.0 0.5035550961
C  C188  1  0.84620000  0.68720000  0.16610000  1.0 -0.1937418809
C  C189  1  0.94800000  0.77620000  0.11590000  1.0 0.2051319345
C  C190  1  0.01570000  0.78370000  0.08790000  1.0 -0.4714734089
C  C191  1  0.90120000  0.81700000  0.10040000  1.0 -0.4714734089
C  C192  1  0.91040000  0.76680000  0.18370000  1.0 -0.2263293669
C  C193  1  0.88460000  0.68810000  0.12480000  1.0 -0.1801081529
C  C194  1  0.69610000  0.45770000  0.03870000  1.0 0.4532610445
C  C195  1  0.98690000  0.81150000  0.15790000  1.0 0.0407347583
C  C196  1  0.02470000  0.90180000  0.16500000  1.0 -0.4596344661
C  C197  1  0.70380000  0.37170000  0.09300000  1.0 0.0315281102
C  C198  1  0.65890000  0.37090000  0.05410000  1.0 0.0315281102
C  C199  1  0.57700000  0.32650000  0.07580000  1.0 0.0315281102
C  C200  1  0.64500000  0.32000000  0.01690000  1.0 -0.0526526891
C  C201  1  0.70000000  0.42400000  0.12780000  1.0 0.1099496664
C  C202  1  0.61340000  0.53300000  0.91780000  1.0 -0.0100681761
C  C203  1  0.55500000  0.56440000  0.91450000  1.0 -0.0526526891
C  C204  1  0.61460000  0.43880000  0.88130000  1.0 0.1281000625
C  C205  1  0.68520000  0.58100000  0.89000000  1.0 0.2495326835
C  C206  1  0.47600000  0.41680000  0.90130000  1.0 -0.098701875
C  C207  1  0.48800000  0.49830000  0.88850000  1.0 0.0063522907
C  C208  1  0.77800000  0.73890000  0.00693000  1.0 0.5242125212
C  C209  1  0.64810000  0.82340000  0.92193000  1.0 0.5742058822
C  C210  1  0.55130000  0.90820000  0.79953000  1.0 0.5035550961
C  C211  1  0.68720000  0.84100000  0.99943000  1.0 -0.1937418809
C  C212  1  0.77620000  0.82820000  0.94923000  1.0 0.204373292
C  C213  1  0.78370000  0.76800000  0.92123000  1.0 -0.4714734089
C  C214  1  0.81700000  0.91580000  0.93373000  1.0 -0.4714734089
C  C215  1  0.76680000  0.85640000  0.01703000  1.0 -0.2263293669
C  C216  1  0.68810000  0.80350000  0.95813000  1.0 -0.1801081529
C  C217  1  0.45770000  0.76160000  0.87203000  1.0 0.4532610445
C  C218  1  0.81150000  0.82460000  0.99123000  1.0 0.0407347583
C  C219  1  0.90180000  0.87710000  0.99833000  1.0 -0.4596344661
C  C220  1  0.37170000  0.66790000  0.92633000  1.0 0.0315281102
C  C221  1  0.37090000  0.71200000  0.88743000  1.0 0.0315281102
C  C222  1  0.32650000  0.74950000  0.90913000  1.0 0.0407347583
C  C223  1  0.32000000  0.67500000  0.85023000  1.0 -0.0526526891
C  C224  1  0.42400000  0.72400000  0.96113000  1.0 0.1099496664
C  C225  1  0.53300000  0.91960000  0.75113000  1.0 -0.0100681761
C  C226  1  0.56440000  0.00940000  0.74783000  1.0 -0.0526526891
C  C227  1  0.43880000  0.82420000  0.71463000  1.0 0.1281000625
C  C228  1  0.58100000  0.89580000  0.72333000  1.0 0.2495326835
C  C229  1  0.41680000  0.94080000  0.73463000  1.0 -0.098701875
C  C230  1  0.49830000  0.01030000  0.72183000  1.0 0.0063522907
C  C231  1  0.26110000  0.03910000  0.34027000  1.0 0.5242125212
C  C232  1  0.17660000  0.82470000  0.25527000  1.0 0.5742058822
C  C233  1  0.09180000  0.64310000  0.13287000  1.0 0.5035550961
C  C234  1  0.15900000  0.84620000  0.33277000  1.0 -0.1937418809
C  C235  1  0.17180000  0.94800000  0.28257000  1.0 0.2051319345
C  C236  1  0.23200000  0.01570000  0.25457000  1.0 -0.4714734089
C  C237  1  0.08420000  0.90120000  0.26707000  1.0 -0.4714734089
C  C238  1  0.14360000  0.91040000  0.35037000  1.0 -0.2263293669
C  C239  1  0.19650000  0.88460000  0.29147000  1.0 -0.1801081529
C  C240  1  0.23840000  0.69610000  0.20537000  1.0 0.4532610445
C  C241  1  0.17540000  0.98690000  0.32457000  1.0 0.0407347583
C  C242  1  0.12290000  0.02470000  0.33167000  1.0 -0.4596344661
C  C243  1  0.33210000  0.70380000  0.25967000  1.0 0.0315281102
C  C244  1  0.28800000  0.65890000  0.22077000  1.0 0.0315281102
C  C245  1  0.25050000  0.57700000  0.24247000  1.0 0.0407347583
C  C246  1  0.32500000  0.64500000  0.18357000  1.0 -0.0526526891
C  C247  1  0.27600000  0.70000000  0.29447000  1.0 0.1099496664
C  C248  1  0.08040000  0.61340000  0.08447000  1.0 -0.0100681761
C  C249  1  0.99060000  0.55500000  0.08117000  1.0 -0.0526526891
C  C250  1  0.17580000  0.61460000  0.04797000  1.0 0.1281000625
C  C251  1  0.10420000  0.68520000  0.05667000  1.0 0.2495326835
C  C252  1  0.05920000  0.47600000  0.06797000  1.0 -0.098701875
C  C253  1  0.98970000  0.48800000  0.05517000  1.0 0.0063522907
C  C254  1  0.96090000  0.22200000  0.67360000  1.0 0.5242125212
C  C255  1  0.17530000  0.35190000  0.58860000  1.0 0.5742058822
C  C256  1  0.35690000  0.44870000  0.46620000  1.0 0.5035550961
C  C257  1  0.15380000  0.31280000  0.66610000  1.0 -0.1937418809
C  C258  1  0.05200000  0.22380000  0.61590000  1.0 0.2051319345
C  C259  1  0.98430000  0.21630000  0.58790000  1.0 -0.4714734089
C  C260  1  0.09880000  0.18300000  0.60040000  1.0 -0.4714734089
C  C261  1  0.08960000  0.23320000  0.68370000  1.0 -0.2263293669
C  C262  1  0.11540000  0.31190000  0.62480000  1.0 -0.1801081529
C  C263  1  0.30390000  0.54230000  0.53870000  1.0 0.4532610445
C  C264  1  0.01310000  0.18850000  0.65790000  1.0 0.0407347583
C  C265  1  0.97530000  0.09820000  0.66500000  1.0 -0.4596344661
C  C266  1  0.29620000  0.62830000  0.59300000  1.0 0.0315281102
C  C267  1  0.34110000  0.62910000  0.55410000  1.0 0.0315281102
C  C268  1  0.42300000  0.67350000  0.57580000  1.0 0.0407347583
C  C269  1  0.35500000  0.68000000  0.51690000  1.0 -0.0526526891
C  C270  1  0.30000000  0.57600000  0.62780000  1.0 0.1099496664
C  C271  1  0.38660000  0.46700000  0.41780000  1.0 -0.0100681761
C  C272  1  0.44500000  0.43560000  0.41450000  1.0 -0.0526526891
C  C273  1  0.38540000  0.56120000  0.38130000  1.0 0.1281000625
C  C274  1  0.31480000  0.41900000  0.39000000  1.0 0.2495326835
C  C275  1  0.52400000  0.58320000  0.40130000  1.0 -0.098701875
C  C276  1  0.51200000  0.50170000  0.38850000  1.0 0.0063522907
C  C277  1  0.20940000  0.60470000  0.58333000  1.0 0.1693825194
C  C278  1  0.39530000  0.79060000  0.25000000  1.0 0.1693825194
C  C279  1  0.39530000  0.60470000  0.91667000  1.0 0.1693825194
C  C280  1  0.79060000  0.39530000  0.08333000  1.0 0.1693825194
C  C281  1  0.60470000  0.20940000  0.75000000  1.0 0.1693825194
C  C282  1  0.60470000  0.39530000  0.41667000  1.0 0.1693825194
C  C283  1  0.43940000  0.87880000  0.75000000  1.0 0.2383388886
C  C284  1  0.43940000  0.56060000  0.41667000  1.0 0.2383388886
C  C285  1  0.12120000  0.56060000  0.08333000  1.0 0.2383388886
C  C286  1  0.56060000  0.12120000  0.25000000  1.0 0.2495326835
C  C287  1  0.56060000  0.43940000  0.91667000  1.0 0.2383388886
C  C288  1  0.87880000  0.43940000  0.58333000  1.0 0.2383388886
O  O1  1  0.14740000  0.78020000  0.60857000  1.0 -0.5186229131
O  O2  1  0.98550000  0.70390000  0.47327000  1.0 -0.4714734089
O  O3  1  0.24560000  0.88090000  0.57437000  1.0 -0.5296371561
O  O4  1  0.88910000  0.71280000  0.50337000  1.0 -0.5092048055
O  O5  1  0.34940000  0.83570000  0.60487000  1.0 -0.6049753359
O  O6  1  0.24990000  0.73870000  0.64527000  1.0 -0.4761856353
O  O7  1  0.38590000  0.94080000  0.66797000  1.0 -0.4927057407
O  O8  1  0.28250000  0.85290000  0.70607000  1.0 -0.5296371561
O  O9  1  0.63280000  0.85260000  0.27523000  1.0 -0.5186229131
O  O10  1  0.71840000  0.01450000  0.13993000  1.0 -0.4714734089
O  O11  1  0.63530000  0.75440000  0.24103000  1.0 -0.5296371561
O  O12  1  0.82370000  0.11090000  0.17003000  1.0 -0.5092048055
O  O13  1  0.48630000  0.65060000  0.27153000  1.0 -0.6049753359
O  O14  1  0.48880000  0.75010000  0.31193000  1.0 -0.4761856353
O  O15  1  0.55490000  0.61410000  0.33463000  1.0 -0.4927057407
O  O16  1  0.57040000  0.71750000  0.37273000  1.0 -0.5296371561
O  O17  1  0.21980000  0.36720000  0.94190000  1.0 -0.5186229131
O  O18  1  0.29610000  0.28160000  0.80660000  1.0 -0.4714734089
O  O19  1  0.11910000  0.36470000  0.90770000  1.0 -0.5296371561
O  O20  1  0.28720000  0.17630000  0.83670000  1.0 -0.5092048055
O  O21  1  0.16430000  0.51370000  0.93820000  1.0 -0.6049753359
O  O22  1  0.26130000  0.51120000  0.97860000  1.0 -0.4761856353
O  O23  1  0.05920000  0.44510000  0.00130000  1.0 -0.4927057407
O  O24  1  0.14710000  0.42960000  0.03940000  1.0 -0.5296371561
O  O25  1  0.85260000  0.21980000  0.10857000  1.0 -0.5186229131
O  O26  1  0.01450000  0.29610000  0.97327000  1.0 -0.4714734089
O  O27  1  0.75440000  0.11910000  0.07437000  1.0 -0.5296371561
O  O28  1  0.11090000  0.28720000  0.00337000  1.0 -0.5092048055
O  O29  1  0.65060000  0.16430000  0.10487000  1.0 -0.6049753359
O  O30  1  0.75010000  0.26130000  0.14527000  1.0 -0.4761856353
O  O31  1  0.61410000  0.05920000  0.16797000  1.0 -0.4927057407
O  O32  1  0.71750000  0.14710000  0.20607000  1.0 -0.5296371561
O  O33  1  0.36720000  0.14740000  0.77523000  1.0 -0.5186229131
O  O34  1  0.28160000  0.98550000  0.63993000  1.0 -0.4714734089
O  O35  1  0.36470000  0.24560000  0.74103000  1.0 -0.5296371561
O  O36  1  0.17630000  0.88910000  0.67003000  1.0 -0.5092048055
O  O37  1  0.51370000  0.34940000  0.77153000  1.0 -0.6049753359
O  O38  1  0.51120000  0.24990000  0.81193000  1.0 -0.4761856353
O  O39  1  0.44510000  0.38590000  0.83463000  1.0 -0.4927057407
O  O40  1  0.42960000  0.28250000  0.87273000  1.0 -0.5296371561
O  O41  1  0.78020000  0.63280000  0.44190000  1.0 -0.5186229131
O  O42  1  0.70390000  0.71840000  0.30660000  1.0 -0.4714734089
O  O43  1  0.88090000  0.63530000  0.40770000  1.0 -0.5296371561
O  O44  1  0.71280000  0.82370000  0.33670000  1.0 -0.5092048055
O  O45  1  0.83570000  0.48630000  0.43820000  1.0 -0.6049753359
O  O46  1  0.73870000  0.48880000  0.47860000  1.0 -0.4761856353
O  O47  1  0.94080000  0.55490000  0.50130000  1.0 -0.4927057407
O  O48  1  0.85290000  0.57040000  0.53940000  1.0 -0.5296371561
O  O49  1  0.36720000  0.21980000  0.39143000  1.0 -0.5186229131
O  O50  1  0.28160000  0.29610000  0.52673000  1.0 -0.4714734089
O  O51  1  0.36470000  0.11910000  0.42563000  1.0 -0.5296371561
O  O52  1  0.17630000  0.28720000  0.49663000  1.0 -0.5092048055
O  O53  1  0.51370000  0.16430000  0.39513000  1.0 -0.6049753359
O  O54  1  0.51120000  0.26130000  0.35473000  1.0 -0.4761856353
O  O55  1  0.44510000  0.05920000  0.33203000  1.0 -0.4927057407
O  O56  1  0.42960000  0.14710000  0.29393000  1.0 -0.5296371561
O  O57  1  0.78020000  0.14740000  0.72477000  1.0 -0.5186229131
O  O58  1  0.70390000  0.98550000  0.86007000  1.0 -0.4714734089
O  O59  1  0.88090000  0.24560000  0.75897000  1.0 -0.5296371561
O  O60  1  0.71280000  0.88910000  0.82997000  1.0 -0.5092048055
O  O61  1  0.83570000  0.34940000  0.72847000  1.0 -0.6060320071
O  O62  1  0.73870000  0.24990000  0.68807000  1.0 -0.4761856353
O  O63  1  0.94080000  0.38590000  0.66537000  1.0 -0.4927057407
O  O64  1  0.85290000  0.28250000  0.62727000  1.0 -0.5296371561
O  O65  1  0.85260000  0.63280000  0.05810000  1.0 -0.5186229131
O  O66  1  0.01450000  0.71840000  0.19340000  1.0 -0.4714734089
O  O67  1  0.75440000  0.63530000  0.09230000  1.0 -0.5296371561
O  O68  1  0.11090000  0.82370000  0.16330000  1.0 -0.5092048055
O  O69  1  0.65060000  0.48630000  0.06180000  1.0 -0.6049753359
O  O70  1  0.75010000  0.48880000  0.02140000  1.0 -0.4761856353
O  O71  1  0.61410000  0.55490000  0.99870000  1.0 -0.4927057407
O  O72  1  0.71750000  0.57040000  0.96060000  1.0 -0.5296371561
O  O73  1  0.63280000  0.78020000  0.89143000  1.0 -0.5186229131
O  O74  1  0.71840000  0.70390000  0.02673000  1.0 -0.4714734089
O  O75  1  0.63530000  0.88090000  0.92563000  1.0 -0.5296371561
O  O76  1  0.82370000  0.71280000  0.99663000  1.0 -0.5092048055
O  O77  1  0.48630000  0.83570000  0.89513000  1.0 -0.6049753359
O  O78  1  0.48880000  0.73870000  0.85473000  1.0 -0.4761856353
O  O79  1  0.55490000  0.94080000  0.83203000  1.0 -0.4927057407
O  O80  1  0.57040000  0.85290000  0.79393000  1.0 -0.5296371561
O  O81  1  0.21980000  0.85260000  0.22477000  1.0 -0.5186229131
O  O82  1  0.29610000  0.01450000  0.36007000  1.0 -0.4714734089
O  O83  1  0.11910000  0.75440000  0.25897000  1.0 -0.5296371561
O  O84  1  0.28720000  0.11090000  0.32997000  1.0 -0.5092048055
O  O85  1  0.16430000  0.65060000  0.22847000  1.0 -0.6049753359
O  O86  1  0.26130000  0.75010000  0.18807000  1.0 -0.4761856353
O  O87  1  0.05920000  0.61410000  0.16537000  1.0 -0.4927057407
O  O88  1  0.14710000  0.71750000  0.12727000  1.0 -0.5296371561
O  O89  1  0.14740000  0.36720000  0.55810000  1.0 -0.5186229131
O  O90  1  0.98550000  0.28160000  0.69340000  1.0 -0.4714734089
O  O91  1  0.24560000  0.36470000  0.59230000  1.0 -0.5296371561
O  O92  1  0.88910000  0.17630000  0.66330000  1.0 -0.5092048055
O  O93  1  0.34940000  0.51370000  0.56180000  1.0 -0.6049753359
O  O94  1  0.24990000  0.51120000  0.52140000  1.0 -0.4761856353
O  O95  1  0.38590000  0.44510000  0.49870000  1.0 -0.4927057407
O  O96  1  0.28250000  0.42960000  0.46060000  1.0 -0.5296371561
