# DDEC6 charges by PACMAN v1.1 (https://github.com/mtap-research/PACMAN-charge/)
data_YIHREP_FSR_pacman
_symmetry_space_group_name_H-M   'P 1'
_cell_length_a   11.55800000
_cell_length_b   16.81500000
_cell_length_c   52.77500000
_cell_angle_alpha   90.00000000
_cell_angle_beta   90.00000000
_cell_angle_gamma   90.00000000
_symmetry_Int_Tables_number   1
_chemical_formula_structural   Cd3H53C59(NO3)5
_chemical_formula_sum   'Cd24 H424 C472 N40 O120'
_cell_volume   10256.70356175
_cell_formula_units_Z   8
loop_
 _symmetry_equiv_pos_site_id
 _symmetry_equiv_pos_as_xyz
  1  'x, y, z'
loop_
 _atom_site_type_symbol
 _atom_site_label
 _atom_site_symmetry_multiplicity
 _atom_site_fract_x
 _atom_site_fract_y
 _atom_site_fract_z
 _atom_site_occupancy
 _atom_site_charge
Cd  Cd1  1  0.51849000  0.67210000  0.38273000  1.0 1.1339016061
Cd  Cd2  1  0.41036000  0.66139000  0.31884000  1.0 0.9031003218
Cd  Cd3  1  0.43124000  0.68973000  0.44874000  1.0 0.8182960253
Cd  Cd4  1  0.98151000  0.82790000  0.88273000  1.0 1.1358331343
Cd  Cd5  1  0.08964000  0.83861000  0.81884000  1.0 0.9031003218
Cd  Cd6  1  0.06876000  0.81027000  0.94874000  1.0 0.8182960253
Cd  Cd7  1  0.51849000  0.32790000  0.88273000  1.0 1.1358331343
Cd  Cd8  1  0.41036000  0.33861000  0.81884000  1.0 0.9031003218
Cd  Cd9  1  0.43124000  0.31027000  0.94874000  1.0 0.8182960253
Cd  Cd10  1  0.98151000  0.17210000  0.38273000  1.0 1.1358331343
Cd  Cd11  1  0.08964000  0.16139000  0.31884000  1.0 0.9031003218
Cd  Cd12  1  0.06876000  0.18973000  0.44874000  1.0 0.8182960253
Cd  Cd13  1  0.48151000  0.67210000  0.11727000  1.0 1.1339016061
Cd  Cd14  1  0.58964000  0.66139000  0.18116000  1.0 0.9031003218
Cd  Cd15  1  0.56876000  0.68973000  0.05126000  1.0 0.8182960253
Cd  Cd16  1  0.01849000  0.82790000  0.61727000  1.0 1.1358331343
Cd  Cd17  1  0.91036000  0.83861000  0.68116000  1.0 0.9031003218
Cd  Cd18  1  0.93124000  0.81027000  0.55126000  1.0 0.8182960253
Cd  Cd19  1  0.48151000  0.32790000  0.61727000  1.0 1.1358331343
Cd  Cd20  1  0.58964000  0.33861000  0.68116000  1.0 0.9031003218
Cd  Cd21  1  0.56876000  0.31027000  0.55126000  1.0 0.8182960253
Cd  Cd22  1  0.01849000  0.17210000  0.11727000  1.0 1.1358331343
Cd  Cd23  1  0.91036000  0.16139000  0.18116000  1.0 0.9031003218
Cd  Cd24  1  0.93124000  0.18973000  0.05126000  1.0 0.8182960253
H  H1  1  0.34500000  0.53220000  0.40260000  1.0 0.1115783735
H  H2  1  0.29300000  0.42450000  0.42760000  1.0 0.1115783735
H  H3  1  0.11490000  0.33490000  0.36910000  1.0 0.1187512417
H  H4  1  0.17060000  0.44090000  0.34450000  1.0 0.1187512417
H  H5  1  0.73050000  0.49740000  0.46520000  1.0 0.1115783735
H  H6  1  0.84730000  0.38920000  0.45820000  1.0 0.1187512417
H  H7  1  0.67410000  0.33970000  0.39510000  1.0 0.1115783735
H  H8  1  0.56260000  0.45080000  0.40080000  1.0 0.1187512417
H  H9  1  0.60770000  0.87580000  0.36760000  1.0 0.1187512417
H  H10  1  0.73020000  0.98230000  0.37270000  1.0 0.1115783735
H  H11  1  0.81900000  0.97080000  0.29970000  1.0 0.1187512417
H  H12  1  0.68720000  0.86930000  0.29380000  1.0 0.1187512417
H  H13  1  0.25390000  0.54170000  0.28560000  1.0 0.1187512417
H  H14  1  0.15930000  0.53140000  0.24820000  1.0 0.1304900834
H  H15  1  0.31870000  0.72670000  0.22560000  1.0 0.1390059407
H  H16  1  0.41180000  0.73020000  0.26320000  1.0 0.1115783735
H  H17  1  0.03420000  0.55040000  0.21860000  1.0 0.1115783735
H  H18  1  0.93830000  0.54270000  0.18090000  1.0 0.1390059407
H  H19  1  0.15810000  0.70050000  0.15100000  1.0 0.1304900834
H  H20  1  0.25460000  0.70580000  0.18900000  1.0 0.1115783735
H  H21  1  0.16970000  0.61260000  0.11500000  1.0 0.1390059407
H  H22  1  0.19590000  0.65320000  0.07380000  1.0 0.1115783735
H  H23  1  0.86440000  0.72030000  0.07070000  1.0 0.0982733767
H  H24  1  0.83630000  0.67350000  0.11100000  1.0 0.1304900834
H  H25  1  0.21750000  0.73270000  0.03890000  1.0 0.0806744294
H  H26  1  0.22470000  0.78220000  0.99870000  1.0 0.0389557546
H  H27  1  0.89750000  0.75450000  0.99010000  1.0 0.0806744294
H  H28  1  0.88030000  0.70030000  0.02970000  1.0 0.0982733767
H  H29  1  0.35220000  0.54010000  0.47820000  1.0 0.1390059407
H  H30  1  0.04300000  0.54300000  0.46880000  1.0 0.0877327315
H  H31  1  0.05230000  0.45650000  0.45800000  1.0 0.0982733767
H  H32  1  0.10650000  0.52790000  0.44300000  1.0 0.1115783735
H  H33  1  0.29290000  0.42700000  0.49400000  1.0 0.0982733767
H  H34  1  0.20000000  0.38100000  0.47800000  1.0 0.0806744294
H  H35  1  0.16240000  0.42930000  0.50210000  1.0 0.0806744294
H  H36  1  0.19650000  0.74350000  0.35040000  1.0 0.1115783735
H  H37  1  0.95010000  0.83680000  0.34960000  1.0 0.1390059407
H  H38  1  0.04420000  0.89630000  0.35950000  1.0 0.1390059407
H  H39  1  0.04580000  0.80730000  0.36840000  1.0 0.1304900834
H  H40  1  0.15580000  0.85560000  0.29990000  1.0 0.1390059407
H  H41  1  0.08330000  0.92040000  0.31420000  1.0 0.1390059407
H  H42  1  0.02110000  0.84680000  0.30200000  1.0 0.1304900834
H  H43  1  0.19790000  0.66980000  0.03310000  1.0 0.0806744294
H  H44  1  0.21300000  0.71720000  0.99360000  1.0 0.0504625093
H  H45  1  0.92980000  0.83320000  0.00000000  1.0 0.0877327315
H  H46  1  0.90340000  0.78780000  0.04040000  1.0 0.1115783735
H  H47  1  0.19600000  0.58230000  0.43080000  1.0 0.1187512417
H  H48  1  0.04170000  0.51820000  0.42380000  1.0 0.0982733767
H  H49  1  0.96210000  0.49640000  0.44680000  1.0 0.0982733767
H  H50  1  0.05480000  0.43550000  0.43720000  1.0 0.1115783735
H  H51  1  0.15300000  0.45380000  0.48580000  1.0 0.1115783735
H  H52  1  0.03410000  0.49830000  0.48780000  1.0 0.0218929041
H  H53  1  0.14960000  0.54430000  0.49300000  1.0 0.0877327315
H  H54  1  0.15500000  0.96780000  0.90260000  1.0 0.1115783735
H  H55  1  0.20700000  0.07550000  0.92760000  1.0 0.1115783735
H  H56  1  0.38510000  0.16510000  0.86910000  1.0 0.1187512417
H  H57  1  0.32940000  0.05910000  0.84450000  1.0 0.1187512417
H  H58  1  0.76950000  0.00260000  0.96520000  1.0 0.1115783735
H  H59  1  0.65270000  0.11080000  0.95820000  1.0 0.1187512417
H  H60  1  0.82590000  0.16030000  0.89510000  1.0 0.1115783735
H  H61  1  0.93740000  0.04920000  0.90080000  1.0 0.1187512417
H  H62  1  0.89230000  0.62420000  0.86760000  1.0 0.1187512417
H  H63  1  0.76980000  0.51770000  0.87270000  1.0 0.1115783735
H  H64  1  0.68100000  0.52920000  0.79970000  1.0 0.1187512417
H  H65  1  0.81280000  0.63070000  0.79380000  1.0 0.1187512417
H  H66  1  0.24610000  0.95830000  0.78560000  1.0 0.1187512417
H  H67  1  0.34070000  0.96860000  0.74820000  1.0 0.1304900834
H  H68  1  0.18130000  0.77330000  0.72560000  1.0 0.1390059407
H  H69  1  0.08820000  0.76980000  0.76320000  1.0 0.1115783735
H  H70  1  0.46580000  0.94960000  0.71860000  1.0 0.1115783735
H  H71  1  0.56170000  0.95730000  0.68090000  1.0 0.1390059407
H  H72  1  0.34190000  0.79950000  0.65100000  1.0 0.1304900834
H  H73  1  0.24540000  0.79420000  0.68900000  1.0 0.1115783735
H  H74  1  0.33030000  0.88740000  0.61500000  1.0 0.1390059407
H  H75  1  0.30410000  0.84680000  0.57380000  1.0 0.1115783735
H  H76  1  0.63560000  0.77970000  0.57070000  1.0 0.0982733767
H  H77  1  0.66370000  0.82650000  0.61100000  1.0 0.1304900834
H  H78  1  0.28250000  0.76730000  0.53890000  1.0 0.0806744294
H  H79  1  0.27530000  0.71780000  0.49870000  1.0 0.0389557546
H  H80  1  0.60250000  0.74550000  0.49010000  1.0 0.0806744294
H  H81  1  0.61970000  0.79970000  0.52970000  1.0 0.0877327315
H  H82  1  0.14780000  0.95990000  0.97820000  1.0 0.1390059407
H  H83  1  0.45700000  0.95700000  0.96880000  1.0 0.0877327315
H  H84  1  0.44770000  0.04350000  0.95800000  1.0 0.0982733767
H  H85  1  0.39350000  0.97210000  0.94300000  1.0 0.1115783735
H  H86  1  0.20710000  0.07300000  0.99400000  1.0 0.0982733767
H  H87  1  0.30000000  0.11900000  0.97800000  1.0 0.0806744294
H  H88  1  0.33760000  0.07070000  0.00210000  1.0 0.0806744294
H  H89  1  0.30350000  0.75650000  0.85040000  1.0 0.1115783735
H  H90  1  0.54990000  0.66320000  0.84960000  1.0 0.1390059407
H  H91  1  0.45580000  0.60370000  0.85950000  1.0 0.1390059407
H  H92  1  0.45420000  0.69270000  0.86840000  1.0 0.1304900834
H  H93  1  0.34420000  0.64440000  0.79990000  1.0 0.1390059407
H  H94  1  0.41670000  0.57960000  0.81420000  1.0 0.1390059407
H  H95  1  0.47890000  0.65320000  0.80200000  1.0 0.1304900834
H  H96  1  0.30210000  0.83020000  0.53310000  1.0 0.0806744294
H  H97  1  0.28700000  0.78280000  0.49360000  1.0 0.0504625093
H  H98  1  0.57020000  0.66680000  0.50000000  1.0 0.0877327315
H  H99  1  0.59660000  0.71220000  0.54040000  1.0 0.1115783735
H  H100  1  0.30400000  0.91770000  0.93080000  1.0 0.1187512417
H  H101  1  0.45830000  0.98180000  0.92380000  1.0 0.0982733767
H  H102  1  0.53790000  0.00360000  0.94680000  1.0 0.0982733767
H  H103  1  0.44520000  0.06450000  0.93720000  1.0 0.1115783735
H  H104  1  0.34700000  0.04620000  0.98580000  1.0 0.1115783735
H  H105  1  0.46590000  0.00170000  0.98780000  1.0 0.0218929041
H  H106  1  0.35040000  0.95570000  0.99300000  1.0 0.0877327315
H  H107  1  0.34500000  0.46780000  0.90260000  1.0 0.1115783735
H  H108  1  0.29300000  0.57550000  0.92760000  1.0 0.1115783735
H  H109  1  0.11490000  0.66510000  0.86910000  1.0 0.1187512417
H  H110  1  0.17060000  0.55910000  0.84450000  1.0 0.1187512417
H  H111  1  0.73050000  0.50260000  0.96520000  1.0 0.1115783735
H  H112  1  0.84730000  0.61080000  0.95820000  1.0 0.1187512417
H  H113  1  0.67410000  0.66030000  0.89510000  1.0 0.1115783735
H  H114  1  0.56260000  0.54920000  0.90080000  1.0 0.1187512417
H  H115  1  0.60770000  0.12420000  0.86760000  1.0 0.1187512417
H  H116  1  0.73020000  0.01770000  0.87270000  1.0 0.1115783735
H  H117  1  0.81900000  0.02920000  0.79970000  1.0 0.1187512417
H  H118  1  0.68720000  0.13070000  0.79380000  1.0 0.1187512417
H  H119  1  0.25390000  0.45830000  0.78560000  1.0 0.1187512417
H  H120  1  0.15930000  0.46860000  0.74820000  1.0 0.1304900834
H  H121  1  0.31870000  0.27330000  0.72560000  1.0 0.1390059407
H  H122  1  0.41180000  0.26980000  0.76320000  1.0 0.1115783735
H  H123  1  0.03420000  0.44960000  0.71860000  1.0 0.1115783735
H  H124  1  0.93830000  0.45730000  0.68090000  1.0 0.1390059407
H  H125  1  0.15810000  0.29950000  0.65100000  1.0 0.1304900834
H  H126  1  0.25460000  0.29420000  0.68900000  1.0 0.1115783735
H  H127  1  0.16970000  0.38740000  0.61500000  1.0 0.1390059407
H  H128  1  0.19590000  0.34680000  0.57380000  1.0 0.1115783735
H  H129  1  0.86440000  0.27970000  0.57070000  1.0 0.0982733767
H  H130  1  0.83630000  0.32650000  0.61100000  1.0 0.1304900834
H  H131  1  0.21750000  0.26730000  0.53890000  1.0 0.0806744294
H  H132  1  0.22470000  0.21780000  0.49870000  1.0 0.0389557546
H  H133  1  0.89750000  0.24550000  0.49010000  1.0 0.0806744294
H  H134  1  0.88030000  0.29970000  0.52970000  1.0 0.0982733767
H  H135  1  0.35220000  0.45990000  0.97820000  1.0 0.1390059407
H  H136  1  0.04300000  0.45700000  0.96880000  1.0 0.0877327315
H  H137  1  0.05230000  0.54350000  0.95800000  1.0 0.0982733767
H  H138  1  0.10650000  0.47210000  0.94300000  1.0 0.1115783735
H  H139  1  0.29290000  0.57300000  0.99400000  1.0 0.0982733767
H  H140  1  0.20000000  0.61900000  0.97800000  1.0 0.0806744294
H  H141  1  0.16240000  0.57070000  0.00210000  1.0 0.0806744294
H  H142  1  0.19650000  0.25650000  0.85040000  1.0 0.1115783735
H  H143  1  0.95010000  0.16320000  0.84960000  1.0 0.1390059407
H  H144  1  0.04420000  0.10370000  0.85950000  1.0 0.1390059407
H  H145  1  0.04580000  0.19270000  0.86840000  1.0 0.1304900834
H  H146  1  0.15580000  0.14440000  0.79990000  1.0 0.1390059407
H  H147  1  0.08330000  0.07960000  0.81420000  1.0 0.1390059407
H  H148  1  0.02110000  0.15320000  0.80200000  1.0 0.1304900834
H  H149  1  0.19790000  0.33020000  0.53310000  1.0 0.0806744294
H  H150  1  0.21300000  0.28280000  0.49360000  1.0 0.0504625093
H  H151  1  0.92980000  0.16680000  0.50000000  1.0 0.0877327315
H  H152  1  0.90340000  0.21220000  0.54040000  1.0 0.1115783735
H  H153  1  0.19600000  0.41770000  0.93080000  1.0 0.1187512417
H  H154  1  0.04170000  0.48180000  0.92380000  1.0 0.0982733767
H  H155  1  0.96210000  0.50360000  0.94680000  1.0 0.0982733767
H  H156  1  0.05480000  0.56450000  0.93720000  1.0 0.1115783735
H  H157  1  0.15300000  0.54620000  0.98580000  1.0 0.1115783735
H  H158  1  0.03410000  0.50170000  0.98780000  1.0 0.0218929041
H  H159  1  0.14960000  0.45570000  0.99300000  1.0 0.0877327315
H  H160  1  0.15500000  0.03220000  0.40260000  1.0 0.1115783735
H  H161  1  0.20700000  0.92450000  0.42760000  1.0 0.1115783735
H  H162  1  0.38510000  0.83490000  0.36910000  1.0 0.1187512417
H  H163  1  0.32940000  0.94090000  0.34450000  1.0 0.1187512417
H  H164  1  0.76950000  0.99740000  0.46520000  1.0 0.1115783735
H  H165  1  0.65270000  0.88920000  0.45820000  1.0 0.1187512417
H  H166  1  0.82590000  0.83970000  0.39510000  1.0 0.1115783735
H  H167  1  0.93740000  0.95080000  0.40080000  1.0 0.1187512417
H  H168  1  0.89230000  0.37580000  0.36760000  1.0 0.1187512417
H  H169  1  0.76980000  0.48230000  0.37270000  1.0 0.1115783735
H  H170  1  0.68100000  0.47080000  0.29970000  1.0 0.1187512417
H  H171  1  0.81280000  0.36930000  0.29380000  1.0 0.1187512417
H  H172  1  0.24610000  0.04170000  0.28560000  1.0 0.1187512417
H  H173  1  0.34070000  0.03140000  0.24820000  1.0 0.1304900834
H  H174  1  0.18130000  0.22670000  0.22560000  1.0 0.1390059407
H  H175  1  0.08820000  0.23020000  0.26320000  1.0 0.1115783735
H  H176  1  0.46580000  0.05040000  0.21860000  1.0 0.1115783735
H  H177  1  0.56170000  0.04270000  0.18090000  1.0 0.1390059407
H  H178  1  0.34190000  0.20050000  0.15100000  1.0 0.1304900834
H  H179  1  0.24540000  0.20580000  0.18900000  1.0 0.1115783735
H  H180  1  0.33030000  0.11260000  0.11500000  1.0 0.1390059407
H  H181  1  0.30410000  0.15320000  0.07380000  1.0 0.1115783735
H  H182  1  0.63560000  0.22030000  0.07070000  1.0 0.0982733767
H  H183  1  0.66370000  0.17350000  0.11100000  1.0 0.1304900834
H  H184  1  0.28250000  0.23270000  0.03890000  1.0 0.0806744294
H  H185  1  0.27530000  0.28220000  0.99870000  1.0 0.0389557546
H  H186  1  0.60250000  0.25450000  0.99010000  1.0 0.0806744294
H  H187  1  0.61970000  0.20030000  0.02970000  1.0 0.0877327315
H  H188  1  0.14780000  0.04010000  0.47820000  1.0 0.1390059407
H  H189  1  0.45700000  0.04300000  0.46880000  1.0 0.0877327315
H  H190  1  0.44770000  0.95650000  0.45800000  1.0 0.0982733767
H  H191  1  0.39350000  0.02790000  0.44300000  1.0 0.1115783735
H  H192  1  0.20710000  0.92700000  0.49400000  1.0 0.0982733767
H  H193  1  0.30000000  0.88100000  0.47800000  1.0 0.0806744294
H  H194  1  0.33760000  0.92930000  0.50210000  1.0 0.0806744294
H  H195  1  0.30350000  0.24350000  0.35040000  1.0 0.1115783735
H  H196  1  0.54990000  0.33680000  0.34960000  1.0 0.1390059407
H  H197  1  0.45580000  0.39630000  0.35950000  1.0 0.1390059407
H  H198  1  0.45420000  0.30730000  0.36840000  1.0 0.1304900834
H  H199  1  0.34420000  0.35560000  0.29990000  1.0 0.1390059407
H  H200  1  0.41670000  0.42040000  0.31420000  1.0 0.1390059407
H  H201  1  0.47890000  0.34680000  0.30200000  1.0 0.1304900834
H  H202  1  0.30210000  0.16980000  0.03310000  1.0 0.0806744294
H  H203  1  0.28700000  0.21720000  0.99360000  1.0 0.0504625093
H  H204  1  0.57020000  0.33320000  0.00000000  1.0 0.0877327315
H  H205  1  0.59660000  0.28780000  0.04040000  1.0 0.1115783735
H  H206  1  0.30400000  0.08230000  0.43080000  1.0 0.1187512417
H  H207  1  0.45830000  0.01820000  0.42380000  1.0 0.0982733767
H  H208  1  0.53790000  0.99640000  0.44680000  1.0 0.0982733767
H  H209  1  0.44520000  0.93550000  0.43720000  1.0 0.1115783735
H  H210  1  0.34700000  0.95380000  0.48580000  1.0 0.1115783735
H  H211  1  0.46590000  0.99830000  0.48780000  1.0 0.0218929041
H  H212  1  0.35040000  0.04430000  0.49300000  1.0 0.0877327315
H  H213  1  0.65500000  0.53220000  0.09740000  1.0 0.1115783735
H  H214  1  0.70700000  0.42450000  0.07240000  1.0 0.1115783735
H  H215  1  0.88510000  0.33490000  0.13090000  1.0 0.1187512417
H  H216  1  0.82940000  0.44090000  0.15550000  1.0 0.1187512417
H  H217  1  0.26950000  0.49740000  0.03480000  1.0 0.1115783735
H  H218  1  0.15270000  0.38920000  0.04180000  1.0 0.1187512417
H  H219  1  0.32590000  0.33970000  0.10490000  1.0 0.1115783735
H  H220  1  0.43740000  0.45080000  0.09920000  1.0 0.1187512417
H  H221  1  0.39230000  0.87580000  0.13240000  1.0 0.1187512417
H  H222  1  0.26980000  0.98230000  0.12730000  1.0 0.1115783735
H  H223  1  0.18100000  0.97080000  0.20030000  1.0 0.1187512417
H  H224  1  0.31280000  0.86930000  0.20620000  1.0 0.1187512417
H  H225  1  0.74610000  0.54170000  0.21440000  1.0 0.1187512417
H  H226  1  0.84070000  0.53140000  0.25180000  1.0 0.1304900834
H  H227  1  0.68130000  0.72670000  0.27440000  1.0 0.1390059407
H  H228  1  0.58820000  0.73020000  0.23680000  1.0 0.1115783735
H  H229  1  0.96580000  0.55040000  0.28140000  1.0 0.1115783735
H  H230  1  0.06170000  0.54270000  0.31910000  1.0 0.1390059407
H  H231  1  0.84190000  0.70050000  0.34900000  1.0 0.1304900834
H  H232  1  0.74540000  0.70580000  0.31100000  1.0 0.1115783735
H  H233  1  0.83030000  0.61260000  0.38500000  1.0 0.1390059407
H  H234  1  0.80410000  0.65320000  0.42620000  1.0 0.1115783735
H  H235  1  0.13560000  0.72030000  0.42930000  1.0 0.0982733767
H  H236  1  0.16370000  0.67350000  0.38900000  1.0 0.1304900834
H  H237  1  0.78250000  0.73270000  0.46110000  1.0 0.0806744294
H  H238  1  0.77530000  0.78220000  0.50130000  1.0 0.0389557546
H  H239  1  0.10250000  0.75450000  0.50990000  1.0 0.0806744294
H  H240  1  0.11970000  0.70030000  0.47030000  1.0 0.0982733767
H  H241  1  0.64780000  0.54010000  0.02180000  1.0 0.1390059407
H  H242  1  0.95700000  0.54300000  0.03120000  1.0 0.0877327315
H  H243  1  0.94770000  0.45650000  0.04200000  1.0 0.0982733767
H  H244  1  0.89350000  0.52790000  0.05700000  1.0 0.1115783735
H  H245  1  0.70710000  0.42700000  0.00600000  1.0 0.0982733767
H  H246  1  0.80000000  0.38100000  0.02200000  1.0 0.0806744294
H  H247  1  0.83760000  0.42930000  0.99790000  1.0 0.0806744294
H  H248  1  0.80350000  0.74350000  0.14960000  1.0 0.1115783735
H  H249  1  0.04990000  0.83680000  0.15040000  1.0 0.1390059407
H  H250  1  0.95580000  0.89630000  0.14050000  1.0 0.1390059407
H  H251  1  0.95420000  0.80730000  0.13160000  1.0 0.1304900834
H  H252  1  0.84420000  0.85560000  0.20010000  1.0 0.1390059407
H  H253  1  0.91670000  0.92040000  0.18580000  1.0 0.1390059407
H  H254  1  0.97890000  0.84680000  0.19800000  1.0 0.1304900834
H  H255  1  0.80210000  0.66980000  0.46690000  1.0 0.0806744294
H  H256  1  0.78700000  0.71720000  0.50640000  1.0 0.0504625093
H  H257  1  0.07020000  0.83320000  0.50000000  1.0 0.0877327315
H  H258  1  0.09660000  0.78780000  0.45960000  1.0 0.1115783735
H  H259  1  0.80400000  0.58230000  0.06920000  1.0 0.1187512417
H  H260  1  0.95830000  0.51820000  0.07620000  1.0 0.0982733767
H  H261  1  0.03790000  0.49640000  0.05320000  1.0 0.0982733767
H  H262  1  0.94520000  0.43550000  0.06280000  1.0 0.1115783735
H  H263  1  0.84700000  0.45380000  0.01420000  1.0 0.1115783735
H  H264  1  0.96590000  0.49830000  0.01220000  1.0 0.0218929041
H  H265  1  0.85040000  0.54430000  0.00700000  1.0 0.0877327315
H  H266  1  0.84500000  0.96780000  0.59740000  1.0 0.1115783735
H  H267  1  0.79300000  0.07550000  0.57240000  1.0 0.1115783735
H  H268  1  0.61490000  0.16510000  0.63090000  1.0 0.1187512417
H  H269  1  0.67060000  0.05910000  0.65550000  1.0 0.1187512417
H  H270  1  0.23050000  0.00260000  0.53480000  1.0 0.1115783735
H  H271  1  0.34730000  0.11080000  0.54180000  1.0 0.1187512417
H  H272  1  0.17410000  0.16030000  0.60490000  1.0 0.1115783735
H  H273  1  0.06260000  0.04920000  0.59920000  1.0 0.1187512417
H  H274  1  0.10770000  0.62420000  0.63240000  1.0 0.1187512417
H  H275  1  0.23020000  0.51770000  0.62730000  1.0 0.1115783735
H  H276  1  0.31900000  0.52920000  0.70030000  1.0 0.1187512417
H  H277  1  0.18720000  0.63070000  0.70620000  1.0 0.1187512417
H  H278  1  0.75390000  0.95830000  0.71440000  1.0 0.1187512417
H  H279  1  0.65930000  0.96860000  0.75180000  1.0 0.1304900834
H  H280  1  0.81870000  0.77330000  0.77440000  1.0 0.1390059407
H  H281  1  0.91180000  0.76980000  0.73680000  1.0 0.1115783735
H  H282  1  0.53420000  0.94960000  0.78140000  1.0 0.1115783735
H  H283  1  0.43830000  0.95730000  0.81910000  1.0 0.1390059407
H  H284  1  0.65810000  0.79950000  0.84900000  1.0 0.1304900834
H  H285  1  0.75460000  0.79420000  0.81100000  1.0 0.1115783735
H  H286  1  0.66970000  0.88740000  0.88500000  1.0 0.1390059407
H  H287  1  0.69590000  0.84680000  0.92620000  1.0 0.1115783735
H  H288  1  0.36440000  0.77970000  0.92930000  1.0 0.0982733767
H  H289  1  0.33630000  0.82650000  0.88900000  1.0 0.1304900834
H  H290  1  0.71750000  0.76730000  0.96110000  1.0 0.0806744294
H  H291  1  0.72470000  0.71780000  0.00130000  1.0 0.0389557546
H  H292  1  0.39750000  0.74550000  0.00990000  1.0 0.0806744294
H  H293  1  0.38030000  0.79970000  0.97030000  1.0 0.0877327315
H  H294  1  0.85220000  0.95990000  0.52180000  1.0 0.1390059407
H  H295  1  0.54300000  0.95700000  0.53120000  1.0 0.0877327315
H  H296  1  0.55230000  0.04350000  0.54200000  1.0 0.0982733767
H  H297  1  0.60650000  0.97210000  0.55700000  1.0 0.1115783735
H  H298  1  0.79290000  0.07300000  0.50600000  1.0 0.0982733767
H  H299  1  0.70000000  0.11900000  0.52200000  1.0 0.0806744294
H  H300  1  0.66240000  0.07070000  0.49790000  1.0 0.0806744294
H  H301  1  0.69650000  0.75650000  0.64960000  1.0 0.1115783735
H  H302  1  0.45010000  0.66320000  0.65040000  1.0 0.1390059407
H  H303  1  0.54420000  0.60370000  0.64050000  1.0 0.1390059407
H  H304  1  0.54580000  0.69270000  0.63160000  1.0 0.1304900834
H  H305  1  0.65580000  0.64440000  0.70010000  1.0 0.1390059407
H  H306  1  0.58330000  0.57960000  0.68580000  1.0 0.1390059407
H  H307  1  0.52110000  0.65320000  0.69800000  1.0 0.1304900834
H  H308  1  0.69790000  0.83020000  0.96690000  1.0 0.0806744294
H  H309  1  0.71300000  0.78280000  0.00640000  1.0 0.0504625093
H  H310  1  0.42980000  0.66680000  0.00000000  1.0 0.0877327315
H  H311  1  0.40340000  0.71220000  0.95960000  1.0 0.1115783735
H  H312  1  0.69600000  0.91770000  0.56920000  1.0 0.1187512417
H  H313  1  0.54170000  0.98180000  0.57620000  1.0 0.0982733767
H  H314  1  0.46210000  0.00360000  0.55320000  1.0 0.0982733767
H  H315  1  0.55480000  0.06450000  0.56280000  1.0 0.1115783735
H  H316  1  0.65300000  0.04620000  0.51420000  1.0 0.1115783735
H  H317  1  0.53410000  0.00170000  0.51220000  1.0 0.0218929041
H  H318  1  0.64960000  0.95570000  0.50700000  1.0 0.0877327315
H  H319  1  0.65500000  0.46780000  0.59740000  1.0 0.1115783735
H  H320  1  0.70700000  0.57550000  0.57240000  1.0 0.1115783735
H  H321  1  0.88510000  0.66510000  0.63090000  1.0 0.1187512417
H  H322  1  0.82940000  0.55910000  0.65550000  1.0 0.1187512417
H  H323  1  0.26950000  0.50260000  0.53480000  1.0 0.1115783735
H  H324  1  0.15270000  0.61080000  0.54180000  1.0 0.1187512417
H  H325  1  0.32590000  0.66030000  0.60490000  1.0 0.1115783735
H  H326  1  0.43740000  0.54920000  0.59920000  1.0 0.1187512417
H  H327  1  0.39230000  0.12420000  0.63240000  1.0 0.1187512417
H  H328  1  0.26980000  0.01770000  0.62730000  1.0 0.1115783735
H  H329  1  0.18100000  0.02920000  0.70030000  1.0 0.1187512417
H  H330  1  0.31280000  0.13070000  0.70620000  1.0 0.1187512417
H  H331  1  0.74610000  0.45830000  0.71440000  1.0 0.1187512417
H  H332  1  0.84070000  0.46860000  0.75180000  1.0 0.1304900834
H  H333  1  0.68130000  0.27330000  0.77440000  1.0 0.1390059407
H  H334  1  0.58820000  0.26980000  0.73680000  1.0 0.1115783735
H  H335  1  0.96580000  0.44960000  0.78140000  1.0 0.1115783735
H  H336  1  0.06170000  0.45730000  0.81910000  1.0 0.1390059407
H  H337  1  0.84190000  0.29950000  0.84900000  1.0 0.1304900834
H  H338  1  0.74540000  0.29420000  0.81100000  1.0 0.1115783735
H  H339  1  0.83030000  0.38740000  0.88500000  1.0 0.1390059407
H  H340  1  0.80410000  0.34680000  0.92620000  1.0 0.1115783735
H  H341  1  0.13560000  0.27970000  0.92930000  1.0 0.0982733767
H  H342  1  0.16370000  0.32650000  0.88900000  1.0 0.1304900834
H  H343  1  0.78250000  0.26730000  0.96110000  1.0 0.0806744294
H  H344  1  0.77530000  0.21780000  0.00130000  1.0 0.0389557546
H  H345  1  0.10250000  0.24550000  0.00990000  1.0 0.0806744294
H  H346  1  0.11970000  0.29970000  0.97030000  1.0 0.0982733767
H  H347  1  0.64780000  0.45990000  0.52180000  1.0 0.1390059407
H  H348  1  0.95700000  0.45700000  0.53120000  1.0 0.0877327315
H  H349  1  0.94770000  0.54350000  0.54200000  1.0 0.0982733767
H  H350  1  0.89350000  0.47210000  0.55700000  1.0 0.1115783735
H  H351  1  0.70710000  0.57300000  0.50600000  1.0 0.0982733767
H  H352  1  0.80000000  0.61900000  0.52200000  1.0 0.0806744294
H  H353  1  0.83760000  0.57070000  0.49790000  1.0 0.0806744294
H  H354  1  0.80350000  0.25650000  0.64960000  1.0 0.1115783735
H  H355  1  0.04990000  0.16320000  0.65040000  1.0 0.1390059407
H  H356  1  0.95580000  0.10370000  0.64050000  1.0 0.1390059407
H  H357  1  0.95420000  0.19270000  0.63160000  1.0 0.1304900834
H  H358  1  0.84420000  0.14440000  0.70010000  1.0 0.1390059407
H  H359  1  0.91670000  0.07960000  0.68580000  1.0 0.1390059407
H  H360  1  0.97890000  0.15320000  0.69800000  1.0 0.1304900834
H  H361  1  0.80210000  0.33020000  0.96690000  1.0 0.0806744294
H  H362  1  0.78700000  0.28280000  0.00640000  1.0 0.0504625093
H  H363  1  0.07020000  0.16680000  0.00000000  1.0 0.0877327315
H  H364  1  0.09660000  0.21220000  0.95960000  1.0 0.1115783735
H  H365  1  0.80400000  0.41770000  0.56920000  1.0 0.1187512417
H  H366  1  0.95830000  0.48180000  0.57620000  1.0 0.0982733767
H  H367  1  0.03790000  0.50360000  0.55320000  1.0 0.0982733767
H  H368  1  0.94520000  0.56450000  0.56280000  1.0 0.1115783735
H  H369  1  0.84700000  0.54620000  0.51420000  1.0 0.1115783735
H  H370  1  0.96590000  0.50170000  0.51220000  1.0 0.0218929041
H  H371  1  0.85040000  0.45570000  0.50700000  1.0 0.0877327315
H  H372  1  0.84500000  0.03220000  0.09740000  1.0 0.1115783735
H  H373  1  0.79300000  0.92450000  0.07240000  1.0 0.1115783735
H  H374  1  0.61490000  0.83490000  0.13090000  1.0 0.1187512417
H  H375  1  0.67060000  0.94090000  0.15550000  1.0 0.1187512417
H  H376  1  0.23050000  0.99740000  0.03480000  1.0 0.1115783735
H  H377  1  0.34730000  0.88920000  0.04180000  1.0 0.1187512417
H  H378  1  0.17410000  0.83970000  0.10490000  1.0 0.1115783735
H  H379  1  0.06260000  0.95080000  0.09920000  1.0 0.1187512417
H  H380  1  0.10770000  0.37580000  0.13240000  1.0 0.1187512417
H  H381  1  0.23020000  0.48230000  0.12730000  1.0 0.1115783735
H  H382  1  0.31900000  0.47080000  0.20030000  1.0 0.1187512417
H  H383  1  0.18720000  0.36930000  0.20620000  1.0 0.1187512417
H  H384  1  0.75390000  0.04170000  0.21440000  1.0 0.1187512417
H  H385  1  0.65930000  0.03140000  0.25180000  1.0 0.1304900834
H  H386  1  0.81870000  0.22670000  0.27440000  1.0 0.1390059407
H  H387  1  0.91180000  0.23020000  0.23680000  1.0 0.1115783735
H  H388  1  0.53420000  0.05040000  0.28140000  1.0 0.1115783735
H  H389  1  0.43830000  0.04270000  0.31910000  1.0 0.1390059407
H  H390  1  0.65810000  0.20050000  0.34900000  1.0 0.1304900834
H  H391  1  0.75460000  0.20580000  0.31100000  1.0 0.1115783735
H  H392  1  0.66970000  0.11260000  0.38500000  1.0 0.1390059407
H  H393  1  0.69590000  0.15320000  0.42620000  1.0 0.1115783735
H  H394  1  0.36440000  0.22030000  0.42930000  1.0 0.0982733767
H  H395  1  0.33630000  0.17350000  0.38900000  1.0 0.1304900834
H  H396  1  0.71750000  0.23270000  0.46110000  1.0 0.0806744294
H  H397  1  0.72470000  0.28220000  0.50130000  1.0 0.0389557546
H  H398  1  0.39750000  0.25450000  0.50990000  1.0 0.0806744294
H  H399  1  0.38030000  0.20030000  0.47030000  1.0 0.0877327315
H  H400  1  0.85220000  0.04010000  0.02180000  1.0 0.1390059407
H  H401  1  0.54300000  0.04300000  0.03120000  1.0 0.0877327315
H  H402  1  0.55230000  0.95650000  0.04200000  1.0 0.0982733767
H  H403  1  0.60650000  0.02790000  0.05700000  1.0 0.1115783735
H  H404  1  0.79290000  0.92700000  0.00600000  1.0 0.0982733767
H  H405  1  0.70000000  0.88100000  0.02200000  1.0 0.0806744294
H  H406  1  0.66240000  0.92930000  0.99790000  1.0 0.0806744294
H  H407  1  0.69650000  0.24350000  0.14960000  1.0 0.1115783735
H  H408  1  0.45010000  0.33680000  0.15040000  1.0 0.1390059407
H  H409  1  0.54420000  0.39630000  0.14050000  1.0 0.1390059407
H  H410  1  0.54580000  0.30730000  0.13160000  1.0 0.1304900834
H  H411  1  0.65580000  0.35560000  0.20010000  1.0 0.1390059407
H  H412  1  0.58330000  0.42040000  0.18580000  1.0 0.1390059407
H  H413  1  0.52110000  0.34680000  0.19800000  1.0 0.1304900834
H  H414  1  0.69790000  0.16980000  0.46690000  1.0 0.0806744294
H  H415  1  0.71300000  0.21720000  0.50640000  1.0 0.0504625093
H  H416  1  0.42980000  0.33320000  0.50000000  1.0 0.0877327315
H  H417  1  0.40340000  0.28780000  0.45960000  1.0 0.1115783735
H  H418  1  0.69600000  0.08230000  0.06920000  1.0 0.1187512417
H  H419  1  0.54170000  0.01820000  0.07620000  1.0 0.0982733767
H  H420  1  0.46210000  0.99640000  0.05320000  1.0 0.0982733767
H  H421  1  0.55480000  0.93550000  0.06280000  1.0 0.1115783735
H  H422  1  0.65300000  0.95380000  0.01420000  1.0 0.1115783735
H  H423  1  0.53410000  0.99830000  0.01220000  1.0 0.0218929041
H  H424  1  0.64960000  0.04430000  0.00700000  1.0 0.0877327315
C  C1  1  0.85350000  0.28380000  0.42166000  1.0 0.5588832449
C  C2  1  0.30690000  0.56240000  0.35430000  1.0 0.5588832449
C  C3  1  0.26560000  0.49670000  0.37115000  1.0 -0.0262585931
C  C4  1  0.29980000  0.49190000  0.39573000  1.0 -0.1477292359
C  C5  1  0.26840000  0.42750000  0.41082000  1.0 -0.190566794
C  C6  1  0.20040000  0.36800000  0.40065000  1.0 -0.022618519
C  C7  1  0.16270000  0.37410000  0.37588000  1.0 -0.1093616315
C  C8  1  0.19550000  0.43750000  0.36124000  1.0 -0.0990176659
C  C9  1  0.16660000  0.29840000  0.41689000  1.0 0.5323701005
C  C10  1  0.56480000  0.55890000  0.43782000  1.0 0.5520179819
C  C11  1  0.63580000  0.48680000  0.43338000  1.0 -0.022618519
C  C12  1  0.72030000  0.46670000  0.45071000  1.0 -0.2356338848
C  C13  1  0.78940000  0.40140000  0.44662000  1.0 -0.2535449301
C  C14  1  0.77430000  0.35400000  0.42568000  1.0 -0.022618519
C  C15  1  0.68740000  0.37240000  0.40900000  1.0 -0.0910913955
C  C16  1  0.61980000  0.43850000  0.41259000  1.0 -0.0799557094
C  C17  1  0.55410000  0.79120000  0.32674000  1.0 0.5588832449
C  C18  1  0.63530000  0.86090000  0.33027000  1.0 -0.022618519
C  C19  1  0.64890000  0.89530000  0.35377000  1.0 -0.0990176659
C  C20  1  0.72360000  0.95860000  0.35682000  1.0 -0.1093616315
C  C21  1  0.78880000  0.98740000  0.33689000  1.0 -0.0262585931
C  C22  1  0.77550000  0.95260000  0.31332000  1.0 -0.1093616315
C  C23  1  0.69770000  0.89090000  0.30990000  1.0 -0.1242295356
C  C24  1  0.87460000  0.05420000  0.34121000  1.0 0.5746708613
C  C25  1  0.26730000  0.58020000  0.27336000  1.0 0.0806744294
C  C26  1  0.20890000  0.57420000  0.25088000  1.0 -0.2122991147
C  C27  1  0.22260000  0.63050000  0.23225000  1.0 0.1187512417
C  C28  1  0.30230000  0.68800000  0.23762000  1.0 -0.190566794
C  C29  1  0.35850000  0.68980000  0.26041000  1.0 0.0806744294
C  C30  1  0.15710000  0.62810000  0.20804000  1.0 0.0504625093
C  C31  1  0.06040000  0.58030000  0.20497000  1.0 -0.1242295356
C  C32  1  0.00260000  0.57570000  0.18249000  1.0 -0.190566794
C  C33  1  0.03960000  0.62000000  0.16214000  1.0 0.2382877868
C  C34  1  0.13360000  0.66950000  0.16460000  1.0 -0.2122991147
C  C35  1  0.19070000  0.67250000  0.18741000  1.0 -0.1093616315
C  C36  1  0.00090000  0.63990000  0.11703000  1.0 0.2309730079
C  C37  1  0.10790000  0.63370000  0.10594000  1.0 -0.190566794
C  C38  1  0.12360000  0.65890000  0.08128000  1.0 -0.190566794
C  C39  1  0.03380000  0.69260000  0.06739000  1.0 -0.0990176659
C  C40  1  0.92620000  0.69790000  0.07938000  1.0 -0.2122991147
C  C41  1  0.90930000  0.67090000  0.10365000  1.0 -0.2180451412
C  C42  1  0.04760000  0.71980000  0.04119000  1.0 0.0504625093
C  C43  1  0.14890000  0.73870000  0.02990000  1.0 -0.0403018139
C  C44  1  0.15320000  0.76700000  0.00510000  1.0 0.0389557546
C  C45  1  0.96290000  0.75010000  0.00030000  1.0 -0.022618519
C  C46  1  0.95120000  0.72030000  0.02440000  1.0 -0.0990176659
C  C47  1  0.28290000  0.55000000  0.46984000  1.0 -0.0910913955
C  C48  1  0.09110000  0.50670000  0.45960000  1.0 -0.0120047035
C  C49  1  0.21460000  0.42790000  0.48790000  1.0 -0.3402785691
C  C50  1  0.18880000  0.77000000  0.33505000  1.0 0.2699787233
C  C51  1  0.02970000  0.84240000  0.35449000  1.0 -0.334504028
C  C52  1  0.08980000  0.86460000  0.31050000  1.0 -0.3035055001
C  C53  1  0.13910000  0.70170000  0.02670000  1.0 -0.0631988516
C  C54  1  0.14630000  0.72960000  0.00270000  1.0 0.0108549125
C  C55  1  0.98260000  0.79640000  0.00630000  1.0 0.033441535
C  C56  1  0.96680000  0.77100000  0.03090000  1.0 -0.0631988516
C  C57  1  0.20130000  0.57370000  0.44820000  1.0 0.1115783735
C  C58  1  0.03800000  0.49100000  0.43970000  1.0 -0.2535449301
C  C59  1  0.11400000  0.50300000  0.48300000  1.0 -0.0799557094
C  C60  1  0.64650000  0.21620000  0.92166000  1.0 0.5588832449
C  C61  1  0.19310000  0.93760000  0.85430000  1.0 0.5588832449
C  C62  1  0.23440000  0.00330000  0.87115000  1.0 -0.0262585931
C  C63  1  0.20020000  0.00810000  0.89573000  1.0 -0.1477292359
C  C64  1  0.23160000  0.07250000  0.91082000  1.0 -0.190566794
C  C65  1  0.29960000  0.13200000  0.90065000  1.0 -0.022618519
C  C66  1  0.33730000  0.12590000  0.87588000  1.0 -0.1093616315
C  C67  1  0.30450000  0.06250000  0.86124000  1.0 -0.0990176659
C  C68  1  0.33340000  0.20160000  0.91689000  1.0 0.5323701005
C  C69  1  0.93520000  0.94110000  0.93782000  1.0 0.5520179819
C  C70  1  0.86420000  0.01320000  0.93338000  1.0 -0.022618519
C  C71  1  0.77970000  0.03330000  0.95071000  1.0 -0.2356338848
C  C72  1  0.71060000  0.09860000  0.94662000  1.0 -0.2557038505
C  C73  1  0.72570000  0.14600000  0.92568000  1.0 -0.0262585931
C  C74  1  0.81260000  0.12760000  0.90900000  1.0 -0.0910913955
C  C75  1  0.88020000  0.06150000  0.91259000  1.0 -0.0799557094
C  C76  1  0.94590000  0.70880000  0.82674000  1.0 0.5588832449
C  C77  1  0.86470000  0.63910000  0.83027000  1.0 -0.022618519
C  C78  1  0.85110000  0.60470000  0.85377000  1.0 -0.0990176659
C  C79  1  0.77640000  0.54140000  0.85682000  1.0 -0.1093616315
C  C80  1  0.71120000  0.51260000  0.83689000  1.0 -0.0262585931
C  C81  1  0.72450000  0.54740000  0.81332000  1.0 -0.1093616315
C  C82  1  0.80230000  0.60910000  0.80990000  1.0 -0.1242295356
C  C83  1  0.62540000  0.44580000  0.84121000  1.0 0.5746708613
C  C84  1  0.23270000  0.91980000  0.77336000  1.0 0.0806744294
C  C85  1  0.29110000  0.92580000  0.75088000  1.0 -0.2180451412
C  C86  1  0.27740000  0.86950000  0.73225000  1.0 0.1187512417
C  C87  1  0.19770000  0.81200000  0.73762000  1.0 -0.190566794
C  C88  1  0.14150000  0.81020000  0.76041000  1.0 0.0806744294
C  C89  1  0.34290000  0.87190000  0.70804000  1.0 0.0504625093
C  C90  1  0.43960000  0.91970000  0.70497000  1.0 -0.1242295356
C  C91  1  0.49740000  0.92430000  0.68249000  1.0 -0.190566794
C  C92  1  0.46040000  0.88000000  0.66214000  1.0 0.2382877868
C  C93  1  0.36640000  0.83050000  0.66460000  1.0 -0.2122991147
C  C94  1  0.30930000  0.82750000  0.68741000  1.0 -0.1093616315
C  C95  1  0.49910000  0.86010000  0.61703000  1.0 0.2309730079
C  C96  1  0.39210000  0.86630000  0.60594000  1.0 -0.190566794
C  C97  1  0.37640000  0.84110000  0.58128000  1.0 -0.190566794
C  C98  1  0.46620000  0.80740000  0.56739000  1.0 -0.0990176659
C  C99  1  0.57380000  0.80210000  0.57938000  1.0 -0.2122991147
C  C100  1  0.59070000  0.82910000  0.60365000  1.0 -0.2180451412
C  C101  1  0.45240000  0.78020000  0.54119000  1.0 0.0504625093
C  C102  1  0.35110000  0.76130000  0.52990000  1.0 -0.0403018139
C  C103  1  0.34680000  0.73300000  0.50510000  1.0 0.0389557546
C  C104  1  0.53710000  0.74990000  0.50030000  1.0 -0.022618519
C  C105  1  0.54880000  0.77970000  0.52440000  1.0 -0.0990176659
C  C106  1  0.21710000  0.95000000  0.96984000  1.0 -0.0910913955
C  C107  1  0.40890000  0.99330000  0.95960000  1.0 -0.0120047035
C  C108  1  0.28540000  0.07210000  0.98790000  1.0 -0.3402785691
C  C109  1  0.31120000  0.73000000  0.83505000  1.0 0.2699787233
C  C110  1  0.47030000  0.65760000  0.85449000  1.0 -0.334504028
C  C111  1  0.41020000  0.63540000  0.81050000  1.0 -0.3035055001
C  C112  1  0.36090000  0.79830000  0.52670000  1.0 -0.0631988516
C  C113  1  0.35370000  0.77040000  0.50270000  1.0 0.0108549125
C  C114  1  0.51740000  0.70360000  0.50630000  1.0 0.033441535
C  C115  1  0.53320000  0.72900000  0.53090000  1.0 -0.0631988516
C  C116  1  0.29870000  0.92630000  0.94820000  1.0 0.1115783735
C  C117  1  0.46200000  0.00900000  0.93970000  1.0 -0.2535449301
C  C118  1  0.38600000  0.99700000  0.98300000  1.0 -0.0799557094
C  C119  1  0.85350000  0.71620000  0.92166000  1.0 0.5588832449
C  C120  1  0.30690000  0.43760000  0.85430000  1.0 0.5588832449
C  C121  1  0.26560000  0.50330000  0.87115000  1.0 -0.0262585931
C  C122  1  0.29980000  0.50810000  0.89573000  1.0 -0.1477292359
C  C123  1  0.26840000  0.57250000  0.91082000  1.0 -0.190566794
C  C124  1  0.20040000  0.63200000  0.90065000  1.0 -0.022618519
C  C125  1  0.16270000  0.62590000  0.87588000  1.0 -0.1093616315
C  C126  1  0.19550000  0.56250000  0.86124000  1.0 -0.0990176659
C  C127  1  0.16660000  0.70160000  0.91689000  1.0 0.5323701005
C  C128  1  0.56480000  0.44110000  0.93782000  1.0 0.5520179819
C  C129  1  0.63580000  0.51320000  0.93338000  1.0 -0.022618519
C  C130  1  0.72030000  0.53330000  0.95071000  1.0 -0.2356338848
C  C131  1  0.78940000  0.59860000  0.94662000  1.0 -0.2557038505
C  C132  1  0.77430000  0.64600000  0.92568000  1.0 -0.0262585931
C  C133  1  0.68740000  0.62760000  0.90900000  1.0 -0.0910913955
C  C134  1  0.61980000  0.56150000  0.91259000  1.0 -0.0799557094
C  C135  1  0.55410000  0.20880000  0.82674000  1.0 0.5588832449
C  C136  1  0.63530000  0.13910000  0.83027000  1.0 -0.022618519
C  C137  1  0.64890000  0.10470000  0.85377000  1.0 -0.0990176659
C  C138  1  0.72360000  0.04140000  0.85682000  1.0 -0.1093616315
C  C139  1  0.78880000  0.01260000  0.83689000  1.0 -0.0262585931
C  C140  1  0.77550000  0.04740000  0.81332000  1.0 -0.1093616315
C  C141  1  0.69770000  0.10910000  0.80990000  1.0 -0.1242295356
C  C142  1  0.87460000  0.94580000  0.84121000  1.0 0.5751413804
C  C143  1  0.26730000  0.41980000  0.77336000  1.0 0.0806744294
C  C144  1  0.20890000  0.42580000  0.75088000  1.0 -0.2122991147
C  C145  1  0.22260000  0.36950000  0.73225000  1.0 0.1187512417
C  C146  1  0.30230000  0.31200000  0.73762000  1.0 -0.190566794
C  C147  1  0.35850000  0.31020000  0.76041000  1.0 0.0806744294
C  C148  1  0.15710000  0.37190000  0.70804000  1.0 0.0504625093
C  C149  1  0.06040000  0.41970000  0.70497000  1.0 -0.1242295356
C  C150  1  0.00260000  0.42430000  0.68249000  1.0 -0.190566794
C  C151  1  0.03960000  0.38000000  0.66214000  1.0 0.2382877868
C  C152  1  0.13360000  0.33050000  0.66460000  1.0 -0.2122991147
C  C153  1  0.19070000  0.32750000  0.68741000  1.0 -0.1093616315
C  C154  1  0.00090000  0.36010000  0.61703000  1.0 0.2309730079
C  C155  1  0.10790000  0.36630000  0.60594000  1.0 -0.190566794
C  C156  1  0.12360000  0.34110000  0.58128000  1.0 -0.190566794
C  C157  1  0.03380000  0.30740000  0.56739000  1.0 -0.0990176659
C  C158  1  0.92620000  0.30210000  0.57938000  1.0 -0.2122991147
C  C159  1  0.90930000  0.32910000  0.60365000  1.0 -0.2180451412
C  C160  1  0.04760000  0.28020000  0.54119000  1.0 0.0504625093
C  C161  1  0.14890000  0.26130000  0.52990000  1.0 -0.0403018139
C  C162  1  0.15320000  0.23300000  0.50510000  1.0 0.0389557546
C  C163  1  0.96290000  0.24990000  0.50030000  1.0 -0.022618519
C  C164  1  0.95120000  0.27970000  0.52440000  1.0 -0.0990176659
C  C165  1  0.28290000  0.45000000  0.96984000  1.0 -0.0910913955
C  C166  1  0.09110000  0.49330000  0.95960000  1.0 -0.0120047035
C  C167  1  0.21460000  0.57210000  0.98790000  1.0 -0.3402785691
C  C168  1  0.18880000  0.23000000  0.83505000  1.0 0.2699787233
C  C169  1  0.02970000  0.15760000  0.85449000  1.0 -0.334504028
C  C170  1  0.08980000  0.13540000  0.81050000  1.0 -0.3035055001
C  C171  1  0.13910000  0.29830000  0.52670000  1.0 -0.0631988516
C  C172  1  0.14630000  0.27040000  0.50270000  1.0 0.0108549125
C  C173  1  0.98260000  0.20360000  0.50630000  1.0 0.033441535
C  C174  1  0.96680000  0.22900000  0.53090000  1.0 -0.0631988516
C  C175  1  0.20130000  0.42630000  0.94820000  1.0 0.1115783735
C  C176  1  0.03800000  0.50900000  0.93970000  1.0 -0.2535449301
C  C177  1  0.11400000  0.49700000  0.98300000  1.0 -0.0799557094
C  C178  1  0.64650000  0.78380000  0.42166000  1.0 0.5588832449
C  C179  1  0.19310000  0.06240000  0.35430000  1.0 0.5588832449
C  C180  1  0.23440000  0.99670000  0.37115000  1.0 -0.0262585931
C  C181  1  0.20020000  0.99190000  0.39573000  1.0 -0.1477292359
C  C182  1  0.23160000  0.92750000  0.41082000  1.0 -0.190566794
C  C183  1  0.29960000  0.86800000  0.40065000  1.0 -0.0262585931
C  C184  1  0.33730000  0.87410000  0.37588000  1.0 -0.1093616315
C  C185  1  0.30450000  0.93750000  0.36124000  1.0 -0.0990176659
C  C186  1  0.33340000  0.79840000  0.41689000  1.0 0.5323701005
C  C187  1  0.93520000  0.05890000  0.43782000  1.0 0.5520179819
C  C188  1  0.86420000  0.98680000  0.43338000  1.0 -0.022618519
C  C189  1  0.77970000  0.96670000  0.45071000  1.0 -0.2356338848
C  C190  1  0.71060000  0.90140000  0.44662000  1.0 -0.2535449301
C  C191  1  0.72570000  0.85400000  0.42568000  1.0 -0.0262585931
C  C192  1  0.81260000  0.87240000  0.40900000  1.0 -0.0910913955
C  C193  1  0.88020000  0.93850000  0.41259000  1.0 -0.0799557094
C  C194  1  0.94590000  0.29120000  0.32674000  1.0 0.5588832449
C  C195  1  0.86470000  0.36090000  0.33027000  1.0 -0.022618519
C  C196  1  0.85110000  0.39530000  0.35377000  1.0 -0.0990176659
C  C197  1  0.77640000  0.45860000  0.35682000  1.0 -0.1093616315
C  C198  1  0.71120000  0.48740000  0.33689000  1.0 -0.0262585931
C  C199  1  0.72450000  0.45260000  0.31332000  1.0 -0.1093616315
C  C200  1  0.80230000  0.39090000  0.30990000  1.0 -0.1242295356
C  C201  1  0.62540000  0.55420000  0.34121000  1.0 0.5746708613
C  C202  1  0.23270000  0.08020000  0.27336000  1.0 0.0806744294
C  C203  1  0.29110000  0.07420000  0.25088000  1.0 -0.2122991147
C  C204  1  0.27740000  0.13050000  0.23225000  1.0 0.1187512417
C  C205  1  0.19770000  0.18800000  0.23762000  1.0 -0.190566794
C  C206  1  0.14150000  0.18980000  0.26041000  1.0 0.0806744294
C  C207  1  0.34290000  0.12810000  0.20804000  1.0 0.0504625093
C  C208  1  0.43960000  0.08030000  0.20497000  1.0 -0.1242295356
C  C209  1  0.49740000  0.07570000  0.18249000  1.0 -0.190566794
C  C210  1  0.46040000  0.12000000  0.16214000  1.0 0.2382877868
C  C211  1  0.36640000  0.16950000  0.16460000  1.0 -0.2122991147
C  C212  1  0.30930000  0.17250000  0.18741000  1.0 -0.1093616315
C  C213  1  0.49910000  0.13990000  0.11703000  1.0 0.2309730079
C  C214  1  0.39210000  0.13370000  0.10594000  1.0 -0.1953253049
C  C215  1  0.37640000  0.15890000  0.08128000  1.0 -0.190566794
C  C216  1  0.46620000  0.19260000  0.06739000  1.0 -0.0990176659
C  C217  1  0.57380000  0.19790000  0.07938000  1.0 -0.2122991147
C  C218  1  0.59070000  0.17090000  0.10365000  1.0 -0.2180451412
C  C219  1  0.45240000  0.21980000  0.04119000  1.0 0.0504625093
C  C220  1  0.35110000  0.23870000  0.02990000  1.0 -0.0403018139
C  C221  1  0.34680000  0.26700000  0.00510000  1.0 0.0389557546
C  C222  1  0.53710000  0.25010000  0.00030000  1.0 -0.022618519
C  C223  1  0.54880000  0.22030000  0.02440000  1.0 -0.0990176659
C  C224  1  0.21710000  0.05000000  0.46984000  1.0 -0.0910913955
C  C225  1  0.40890000  0.00670000  0.45960000  1.0 -0.0120047035
C  C226  1  0.28540000  0.92790000  0.48790000  1.0 -0.3402785691
C  C227  1  0.31120000  0.27000000  0.33505000  1.0 0.2699787233
C  C228  1  0.47030000  0.34240000  0.35449000  1.0 -0.334504028
C  C229  1  0.41020000  0.36460000  0.31050000  1.0 -0.3035055001
C  C230  1  0.36090000  0.20170000  0.02670000  1.0 -0.0631988516
C  C231  1  0.35370000  0.22960000  0.00270000  1.0 0.0108549125
C  C232  1  0.51740000  0.29640000  0.00630000  1.0 0.033441535
C  C233  1  0.53320000  0.27100000  0.03090000  1.0 -0.0631988516
C  C234  1  0.29870000  0.07370000  0.44820000  1.0 0.1115783735
C  C235  1  0.46200000  0.99100000  0.43970000  1.0 -0.2535449301
C  C236  1  0.38600000  0.00300000  0.48300000  1.0 -0.0799557094
C  C237  1  0.14650000  0.28380000  0.07834000  1.0 0.5588832449
C  C238  1  0.69310000  0.56240000  0.14570000  1.0 0.5588832449
C  C239  1  0.73440000  0.49670000  0.12885000  1.0 -0.0262585931
C  C240  1  0.70020000  0.49190000  0.10427000  1.0 -0.1477292359
C  C241  1  0.73160000  0.42750000  0.08918000  1.0 -0.190566794
C  C242  1  0.79960000  0.36800000  0.09935000  1.0 -0.022618519
C  C243  1  0.83730000  0.37410000  0.12412000  1.0 -0.1093616315
C  C244  1  0.80450000  0.43750000  0.13876000  1.0 -0.0990176659
C  C245  1  0.83340000  0.29840000  0.08311000  1.0 0.5323701005
C  C246  1  0.43520000  0.55890000  0.06218000  1.0 0.5520179819
C  C247  1  0.36420000  0.48680000  0.06662000  1.0 -0.022618519
C  C248  1  0.27970000  0.46670000  0.04929000  1.0 -0.2356338848
C  C249  1  0.21060000  0.40140000  0.05338000  1.0 -0.2557038505
C  C250  1  0.22570000  0.35400000  0.07432000  1.0 -0.022618519
C  C251  1  0.31260000  0.37240000  0.09100000  1.0 -0.0910913955
C  C252  1  0.38020000  0.43850000  0.08741000  1.0 -0.0799557094
C  C253  1  0.44590000  0.79120000  0.17326000  1.0 0.5588832449
C  C254  1  0.36470000  0.86090000  0.16973000  1.0 -0.022618519
C  C255  1  0.35110000  0.89530000  0.14623000  1.0 -0.0990176659
C  C256  1  0.27640000  0.95860000  0.14318000  1.0 -0.1093616315
C  C257  1  0.21120000  0.98740000  0.16311000  1.0 -0.0262585931
C  C258  1  0.22450000  0.95260000  0.18668000  1.0 -0.1093616315
C  C259  1  0.30230000  0.89090000  0.19010000  1.0 -0.1242295356
C  C260  1  0.12540000  0.05420000  0.15879000  1.0 0.5746708613
C  C261  1  0.73270000  0.58020000  0.22664000  1.0 0.0806744294
C  C262  1  0.79110000  0.57420000  0.24912000  1.0 -0.2122991147
C  C263  1  0.77740000  0.63050000  0.26775000  1.0 0.1187512417
C  C264  1  0.69770000  0.68800000  0.26238000  1.0 -0.190566794
C  C265  1  0.64150000  0.68980000  0.23959000  1.0 0.0806744294
C  C266  1  0.84290000  0.62810000  0.29196000  1.0 0.0504625093
C  C267  1  0.93960000  0.58030000  0.29503000  1.0 -0.1242295356
C  C268  1  0.99740000  0.57570000  0.31751000  1.0 -0.190566794
C  C269  1  0.96040000  0.62000000  0.33786000  1.0 0.2382877868
C  C270  1  0.86640000  0.66950000  0.33540000  1.0 -0.2122991147
C  C271  1  0.80930000  0.67250000  0.31259000  1.0 -0.1093616315
C  C272  1  0.99910000  0.63990000  0.38297000  1.0 0.2309730079
C  C273  1  0.89210000  0.63370000  0.39406000  1.0 -0.190566794
C  C274  1  0.87640000  0.65890000  0.41872000  1.0 -0.1847070057
C  C275  1  0.96620000  0.69260000  0.43261000  1.0 -0.0990176659
C  C276  1  0.07380000  0.69790000  0.42062000  1.0 -0.2122991147
C  C277  1  0.09070000  0.67090000  0.39635000  1.0 -0.2180451412
C  C278  1  0.95240000  0.71980000  0.45881000  1.0 0.0504625093
C  C279  1  0.85110000  0.73870000  0.47010000  1.0 -0.0403018139
C  C280  1  0.84680000  0.76700000  0.49490000  1.0 0.0389557546
C  C281  1  0.03710000  0.75010000  0.49970000  1.0 -0.022618519
C  C282  1  0.04880000  0.72030000  0.47560000  1.0 -0.0990176659
C  C283  1  0.71710000  0.55000000  0.03016000  1.0 -0.0910913955
C  C284  1  0.90890000  0.50670000  0.04040000  1.0 -0.0120047035
C  C285  1  0.78540000  0.42790000  0.01210000  1.0 -0.3402785691
C  C286  1  0.81120000  0.77000000  0.16495000  1.0 0.2699787233
C  C287  1  0.97030000  0.84240000  0.14551000  1.0 -0.334504028
C  C288  1  0.91020000  0.86460000  0.18950000  1.0 -0.3035055001
C  C289  1  0.86090000  0.70170000  0.47330000  1.0 -0.0631988516
C  C290  1  0.85370000  0.72960000  0.49730000  1.0 0.0108549125
C  C291  1  0.01740000  0.79640000  0.49370000  1.0 0.033441535
C  C292  1  0.03320000  0.77100000  0.46910000  1.0 -0.0631988516
C  C293  1  0.79870000  0.57370000  0.05180000  1.0 0.1115783735
C  C294  1  0.96200000  0.49100000  0.06030000  1.0 -0.2535449301
C  C295  1  0.88600000  0.50300000  0.01700000  1.0 -0.0799557094
C  C296  1  0.35350000  0.21620000  0.57834000  1.0 0.5588832449
C  C297  1  0.80690000  0.93760000  0.64570000  1.0 0.5588832449
C  C298  1  0.76560000  0.00330000  0.62885000  1.0 -0.022618519
C  C299  1  0.79980000  0.00810000  0.60427000  1.0 -0.1477292359
C  C300  1  0.76840000  0.07250000  0.58918000  1.0 -0.190566794
C  C301  1  0.70040000  0.13200000  0.59935000  1.0 -0.022618519
C  C302  1  0.66270000  0.12590000  0.62412000  1.0 -0.1093616315
C  C303  1  0.69550000  0.06250000  0.63876000  1.0 -0.0990176659
C  C304  1  0.66666667  0.20160000  0.58311000  1.0 0.5323701005
C  C305  1  0.06480000  0.94110000  0.56218000  1.0 0.5520179819
C  C306  1  0.13580000  0.01320000  0.56662000  1.0 -0.022618519
C  C307  1  0.22030000  0.03330000  0.54929000  1.0 -0.2356338848
C  C308  1  0.28940000  0.09860000  0.55338000  1.0 -0.2557038505
C  C309  1  0.27430000  0.14600000  0.57432000  1.0 -0.0262585931
C  C310  1  0.18740000  0.12760000  0.59100000  1.0 -0.0910913955
C  C311  1  0.11980000  0.06150000  0.58741000  1.0 -0.0799557094
C  C312  1  0.05410000  0.70880000  0.67326000  1.0 0.5588832449
C  C313  1  0.13530000  0.63910000  0.66973000  1.0 -0.022618519
C  C314  1  0.14890000  0.60470000  0.64623000  1.0 -0.0990176659
C  C315  1  0.22360000  0.54140000  0.64318000  1.0 -0.1093616315
C  C316  1  0.28880000  0.51260000  0.66311000  1.0 -0.0262585931
C  C317  1  0.27550000  0.54740000  0.68668000  1.0 -0.1093616315
C  C318  1  0.19770000  0.60910000  0.69010000  1.0 -0.1242295356
C  C319  1  0.37460000  0.44580000  0.65879000  1.0 0.5746708613
C  C320  1  0.76730000  0.91980000  0.72664000  1.0 0.0806744294
C  C321  1  0.70890000  0.92580000  0.74912000  1.0 -0.2180451412
C  C322  1  0.72260000  0.86950000  0.76775000  1.0 0.1187512417
C  C323  1  0.80230000  0.81200000  0.76238000  1.0 -0.190566794
C  C324  1  0.85850000  0.81020000  0.73959000  1.0 0.0806744294
C  C325  1  0.65710000  0.87190000  0.79196000  1.0 0.0504625093
C  C326  1  0.56040000  0.91970000  0.79503000  1.0 -0.1242295356
C  C327  1  0.50260000  0.92430000  0.81751000  1.0 -0.190566794
C  C328  1  0.53960000  0.88000000  0.83786000  1.0 0.2382877868
C  C329  1  0.63360000  0.83050000  0.83540000  1.0 -0.2122991147
C  C330  1  0.69070000  0.82750000  0.81259000  1.0 -0.1093616315
C  C331  1  0.50090000  0.86010000  0.88297000  1.0 0.2309730079
C  C332  1  0.60790000  0.86630000  0.89406000  1.0 -0.190566794
C  C333  1  0.62360000  0.84110000  0.91872000  1.0 -0.190566794
C  C334  1  0.53380000  0.80740000  0.93261000  1.0 -0.0990176659
C  C335  1  0.42620000  0.80210000  0.92062000  1.0 -0.2122991147
C  C336  1  0.40930000  0.82910000  0.89635000  1.0 -0.2180451412
C  C337  1  0.54760000  0.78020000  0.95881000  1.0 0.0504625093
C  C338  1  0.64890000  0.76130000  0.97010000  1.0 -0.0403018139
C  C339  1  0.65320000  0.73300000  0.99490000  1.0 0.0389557546
C  C340  1  0.46290000  0.74990000  0.99970000  1.0 -0.022618519
C  C341  1  0.45120000  0.77970000  0.97560000  1.0 -0.0990176659
C  C342  1  0.78290000  0.95000000  0.53016000  1.0 -0.0910913955
C  C343  1  0.59110000  0.99330000  0.54040000  1.0 -0.0120047035
C  C344  1  0.71460000  0.07210000  0.51210000  1.0 -0.3402785691
C  C345  1  0.68880000  0.73000000  0.66495000  1.0 0.2699787233
C  C346  1  0.52970000  0.65760000  0.64551000  1.0 -0.334504028
C  C347  1  0.58980000  0.63540000  0.68950000  1.0 -0.3035055001
C  C348  1  0.63910000  0.79830000  0.97330000  1.0 -0.0631988516
C  C349  1  0.64630000  0.77040000  0.99730000  1.0 0.0108549125
C  C350  1  0.48260000  0.70360000  0.99370000  1.0 0.033441535
C  C351  1  0.46680000  0.72900000  0.96910000  1.0 -0.0631988516
C  C352  1  0.70130000  0.92630000  0.55180000  1.0 0.1115783735
C  C353  1  0.53800000  0.00900000  0.56030000  1.0 -0.2535449301
C  C354  1  0.61400000  0.99700000  0.51700000  1.0 -0.0799557094
C  C355  1  0.14650000  0.71620000  0.57834000  1.0 0.5588832449
C  C356  1  0.69310000  0.43760000  0.64570000  1.0 0.5588832449
C  C357  1  0.73440000  0.50330000  0.62885000  1.0 -0.0262585931
C  C358  1  0.70020000  0.50810000  0.60427000  1.0 -0.1477292359
C  C359  1  0.73160000  0.57250000  0.58918000  1.0 -0.190566794
C  C360  1  0.79960000  0.63200000  0.59935000  1.0 -0.022618519
C  C361  1  0.83730000  0.62590000  0.62412000  1.0 -0.1093616315
C  C362  1  0.80450000  0.56250000  0.63876000  1.0 -0.0990176659
C  C363  1  0.83340000  0.70160000  0.58311000  1.0 0.5323701005
C  C364  1  0.43520000  0.44110000  0.56218000  1.0 0.5520179819
C  C365  1  0.36420000  0.51320000  0.56662000  1.0 -0.022618519
C  C366  1  0.27970000  0.53330000  0.54929000  1.0 -0.2356338848
C  C367  1  0.21060000  0.59860000  0.55338000  1.0 -0.2557038505
C  C368  1  0.22570000  0.64600000  0.57432000  1.0 -0.0262585931
C  C369  1  0.31260000  0.62760000  0.59100000  1.0 -0.0910913955
C  C370  1  0.38020000  0.56150000  0.58741000  1.0 -0.0799557094
C  C371  1  0.44590000  0.20880000  0.67326000  1.0 0.5588832449
C  C372  1  0.36470000  0.13910000  0.66973000  1.0 -0.022618519
C  C373  1  0.35110000  0.10470000  0.64623000  1.0 -0.0990176659
C  C374  1  0.27640000  0.04140000  0.64318000  1.0 -0.1093616315
C  C375  1  0.21120000  0.01260000  0.66311000  1.0 -0.0262585931
C  C376  1  0.22450000  0.04740000  0.68668000  1.0 -0.1093616315
C  C377  1  0.30230000  0.10910000  0.69010000  1.0 -0.1242295356
C  C378  1  0.12540000  0.94580000  0.65879000  1.0 0.5751413804
C  C379  1  0.73270000  0.41980000  0.72664000  1.0 0.0806744294
C  C380  1  0.79110000  0.42580000  0.74912000  1.0 -0.2122991147
C  C381  1  0.77740000  0.36950000  0.76775000  1.0 0.1187512417
C  C382  1  0.69770000  0.31200000  0.76238000  1.0 -0.190566794
C  C383  1  0.64150000  0.31020000  0.73959000  1.0 0.0806744294
C  C384  1  0.84290000  0.37190000  0.79196000  1.0 0.0504625093
C  C385  1  0.93960000  0.41970000  0.79503000  1.0 -0.1242295356
C  C386  1  0.99740000  0.42430000  0.81751000  1.0 -0.190566794
C  C387  1  0.96040000  0.38000000  0.83786000  1.0 0.2382877868
C  C388  1  0.86640000  0.33050000  0.83540000  1.0 -0.2122991147
C  C389  1  0.80930000  0.32750000  0.81259000  1.0 -0.1093616315
C  C390  1  0.99910000  0.36010000  0.88297000  1.0 0.2309730079
C  C391  1  0.89210000  0.36630000  0.89406000  1.0 -0.190566794
C  C392  1  0.87640000  0.34110000  0.91872000  1.0 -0.190566794
C  C393  1  0.96620000  0.30740000  0.93261000  1.0 -0.0990176659
C  C394  1  0.07380000  0.30210000  0.92062000  1.0 -0.2122991147
C  C395  1  0.09070000  0.32910000  0.89635000  1.0 -0.2180451412
C  C396  1  0.95240000  0.28020000  0.95881000  1.0 0.0504625093
C  C397  1  0.85110000  0.26130000  0.97010000  1.0 -0.0403018139
C  C398  1  0.84680000  0.23300000  0.99490000  1.0 0.0389557546
C  C399  1  0.03710000  0.24990000  0.99970000  1.0 -0.022618519
C  C400  1  0.04880000  0.27970000  0.97560000  1.0 -0.0990176659
C  C401  1  0.71710000  0.45000000  0.53016000  1.0 -0.0910913955
C  C402  1  0.90890000  0.49330000  0.54040000  1.0 -0.0120047035
C  C403  1  0.78540000  0.57210000  0.51210000  1.0 -0.3402785691
C  C404  1  0.81120000  0.23000000  0.66495000  1.0 0.2699787233
C  C405  1  0.97030000  0.15760000  0.64551000  1.0 -0.334504028
C  C406  1  0.91020000  0.13540000  0.68950000  1.0 -0.3035055001
C  C407  1  0.86090000  0.29830000  0.97330000  1.0 -0.0631988516
C  C408  1  0.85370000  0.27040000  0.99730000  1.0 0.0108549125
C  C409  1  0.01740000  0.20360000  0.99370000  1.0 0.033441535
C  C410  1  0.03320000  0.22900000  0.96910000  1.0 -0.0631988516
C  C411  1  0.79870000  0.42630000  0.55180000  1.0 0.1115783735
C  C412  1  0.96200000  0.50900000  0.56030000  1.0 -0.2535449301
C  C413  1  0.88600000  0.49700000  0.51700000  1.0 -0.0799557094
C  C414  1  0.35350000  0.78380000  0.07834000  1.0 0.5588832449
C  C415  1  0.80690000  0.06240000  0.14570000  1.0 0.5588832449
C  C416  1  0.76560000  0.99670000  0.12885000  1.0 -0.0262585931
C  C417  1  0.79980000  0.99190000  0.10427000  1.0 -0.1477292359
C  C418  1  0.76840000  0.92750000  0.08918000  1.0 -0.190566794
C  C419  1  0.70040000  0.86800000  0.09935000  1.0 -0.0262585931
C  C420  1  0.66270000  0.87410000  0.12412000  1.0 -0.1093616315
C  C421  1  0.69550000  0.93750000  0.13876000  1.0 -0.0990176659
C  C422  1  0.66666667  0.79840000  0.08311000  1.0 0.5323701005
C  C423  1  0.06480000  0.05890000  0.06218000  1.0 0.5520179819
C  C424  1  0.13580000  0.98680000  0.06662000  1.0 -0.022618519
C  C425  1  0.22030000  0.96670000  0.04929000  1.0 -0.2356338848
C  C426  1  0.28940000  0.90140000  0.05338000  1.0 -0.2535449301
C  C427  1  0.27430000  0.85400000  0.07432000  1.0 -0.0262585931
C  C428  1  0.18740000  0.87240000  0.09100000  1.0 -0.0910913955
C  C429  1  0.11980000  0.93850000  0.08741000  1.0 -0.0799557094
C  C430  1  0.05410000  0.29120000  0.17326000  1.0 0.5588832449
C  C431  1  0.13530000  0.36090000  0.16973000  1.0 -0.022618519
C  C432  1  0.14890000  0.39530000  0.14623000  1.0 -0.0990176659
C  C433  1  0.22360000  0.45860000  0.14318000  1.0 -0.1093616315
C  C434  1  0.28880000  0.48740000  0.16311000  1.0 -0.0262585931
C  C435  1  0.27550000  0.45260000  0.18668000  1.0 -0.1093616315
C  C436  1  0.19770000  0.39090000  0.19010000  1.0 -0.1242295356
C  C437  1  0.37460000  0.55420000  0.15879000  1.0 0.5746708613
C  C438  1  0.76730000  0.08020000  0.22664000  1.0 0.0806744294
C  C439  1  0.70890000  0.07420000  0.24912000  1.0 -0.2122991147
C  C440  1  0.72260000  0.13050000  0.26775000  1.0 0.1187512417
C  C441  1  0.80230000  0.18800000  0.26238000  1.0 -0.190566794
C  C442  1  0.85850000  0.18980000  0.23959000  1.0 0.0806744294
C  C443  1  0.65710000  0.12810000  0.29196000  1.0 0.0504625093
C  C444  1  0.56040000  0.08030000  0.29503000  1.0 -0.1242295356
C  C445  1  0.50260000  0.07570000  0.31751000  1.0 -0.190566794
C  C446  1  0.53960000  0.12000000  0.33786000  1.0 0.2382877868
C  C447  1  0.63360000  0.16950000  0.33540000  1.0 -0.2122991147
C  C448  1  0.69070000  0.17250000  0.31259000  1.0 -0.1093616315
C  C449  1  0.50090000  0.13990000  0.38297000  1.0 0.2309730079
C  C450  1  0.60790000  0.13370000  0.39406000  1.0 -0.1953253049
C  C451  1  0.62360000  0.15890000  0.41872000  1.0 -0.1847070057
C  C452  1  0.53380000  0.19260000  0.43261000  1.0 -0.0990176659
C  C453  1  0.42620000  0.19790000  0.42062000  1.0 -0.2122991147
C  C454  1  0.40930000  0.17090000  0.39635000  1.0 -0.2180451412
C  C455  1  0.54760000  0.21980000  0.45881000  1.0 0.0504625093
C  C456  1  0.64890000  0.23870000  0.47010000  1.0 -0.0403018139
C  C457  1  0.65320000  0.26700000  0.49490000  1.0 0.0389557546
C  C458  1  0.46290000  0.25010000  0.49970000  1.0 -0.022618519
C  C459  1  0.45120000  0.22030000  0.47560000  1.0 -0.0990176659
C  C460  1  0.78290000  0.05000000  0.03016000  1.0 -0.0910913955
C  C461  1  0.59110000  0.00670000  0.04040000  1.0 -0.0120047035
C  C462  1  0.71460000  0.92790000  0.01210000  1.0 -0.3402785691
C  C463  1  0.68880000  0.27000000  0.16495000  1.0 0.2699787233
C  C464  1  0.52970000  0.34240000  0.14551000  1.0 -0.3402785691
C  C465  1  0.58980000  0.36460000  0.18950000  1.0 -0.3035055001
C  C466  1  0.63910000  0.20170000  0.47330000  1.0 -0.0631988516
C  C467  1  0.64630000  0.22960000  0.49730000  1.0 0.0108549125
C  C468  1  0.48260000  0.29640000  0.49370000  1.0 0.033441535
C  C469  1  0.46680000  0.27100000  0.46910000  1.0 -0.0631988516
C  C470  1  0.70130000  0.07370000  0.05180000  1.0 0.1115783735
C  C471  1  0.53800000  0.99100000  0.06030000  1.0 -0.2535449301
C  C472  1  0.61400000  0.00300000  0.01700000  1.0 -0.0799557094
N  N1  1  0.34140000  0.63730000  0.27865000  1.0 -0.2282205198
N  N2  1  0.06620000  0.77330000  0.99085000  1.0 -0.190566794
N  N3  1  0.19760000  0.49580000  0.47281000  1.0 0.1304900834
N  N4  1  0.10340000  0.82220000  0.33333333  1.0 0.0389557546
N  N5  1  0.12100000  0.52400000  0.45670000  1.0 0.0389557546
N  N6  1  0.15860000  0.86270000  0.77865000  1.0 -0.2282205198
N  N7  1  0.43380000  0.72670000  0.49085000  1.0 -0.1953253049
N  N8  1  0.30240000  0.00420000  0.97281000  1.0 0.1304900834
N  N9  1  0.39660000  0.67780000  0.83330000  1.0 0.0389557546
N  N10  1  0.37900000  0.97600000  0.95670000  1.0 0.0389557546
N  N11  1  0.34140000  0.36270000  0.77865000  1.0 -0.2282205198
N  N12  1  0.06620000  0.22670000  0.49085000  1.0 -0.1953253049
N  N13  1  0.19760000  0.50420000  0.97281000  1.0 0.1304900834
N  N14  1  0.10340000  0.17780000  0.83330000  1.0 0.0389557546
N  N15  1  0.12100000  0.47600000  0.95670000  1.0 0.0389557546
N  N16  1  0.15860000  0.13730000  0.27865000  1.0 -0.2282205198
N  N17  1  0.43380000  0.27330000  0.99085000  1.0 -0.190566794
N  N18  1  0.30240000  0.99580000  0.47281000  1.0 0.1304900834
N  N19  1  0.39660000  0.32220000  0.33333333  1.0 0.0389557546
N  N20  1  0.37900000  0.02400000  0.45670000  1.0 0.0389557546
N  N21  1  0.65860000  0.63730000  0.22135000  1.0 -0.2282205198
N  N22  1  0.93380000  0.77330000  0.50915000  1.0 -0.190566794
N  N23  1  0.80240000  0.49580000  0.02719000  1.0 0.1304900834
N  N24  1  0.89660000  0.82220000  0.16670000  1.0 0.0389557546
N  N25  1  0.87900000  0.52400000  0.04330000  1.0 0.0389557546
N  N26  1  0.84140000  0.86270000  0.72135000  1.0 -0.2282205198
N  N27  1  0.56620000  0.72670000  0.00915000  1.0 -0.190566794
N  N28  1  0.69760000  0.00420000  0.52719000  1.0 0.1304900834
N  N29  1  0.60340000  0.67780000  0.66666667  1.0 0.0389557546
N  N30  1  0.62100000  0.97600000  0.54330000  1.0 0.0389557546
N  N31  1  0.65860000  0.36270000  0.72135000  1.0 -0.2282205198
N  N32  1  0.93380000  0.22670000  0.00915000  1.0 -0.190566794
N  N33  1  0.80240000  0.50420000  0.52719000  1.0 0.1304900834
N  N34  1  0.89660000  0.17780000  0.66666667  1.0 0.0389557546
N  N35  1  0.87900000  0.47600000  0.54330000  1.0 0.0389557546
N  N36  1  0.84140000  0.13730000  0.22135000  1.0 -0.2282205198
N  N37  1  0.56620000  0.27330000  0.50915000  1.0 -0.190566794
N  N38  1  0.69760000  0.99580000  0.02719000  1.0 0.1304900834
N  N39  1  0.60340000  0.32220000  0.16670000  1.0 0.0389557546
N  N40  1  0.62100000  0.02400000  0.04330000  1.0 0.0389557546
O  O1  1  0.35710000  0.62210000  0.36396000  1.0 -0.5895501424
O  O2  1  0.29290000  0.55590000  0.33107000  1.0 -0.5264092583
O  O3  1  0.12150000  0.23810000  0.40640000  1.0 -0.5710654084
O  O4  1  0.18250000  0.30160000  0.44017000  1.0 -0.5385956897
O  O5  1  0.51030000  0.59070000  0.41976000  1.0 -0.5895501424
O  O6  1  0.55810000  0.58610000  0.45994000  1.0 -0.5385956897
O  O7  1  0.90910000  0.26180000  0.44070000  1.0 -0.5587546725
O  O8  1  0.85590000  0.25400000  0.39994000  1.0 -0.5587546725
O  O9  1  0.51710000  0.75470000  0.34602000  1.0 -0.5895501424
O  O10  1  0.52580000  0.77110000  0.30490000  1.0 -0.5385956897
O  O11  1  0.93780000  0.07380000  0.32307000  1.0 -0.5587546725
O  O12  1  0.87380000  0.08480000  0.36294000  1.0 -0.5895501424
O  O13  1  0.97150000  0.61200000  0.14076000  1.0 -0.2282205198
O  O14  1  0.27740000  0.60920000  0.45754000  1.0 -0.190566794
O  O15  1  0.25810000  0.75340000  0.31857000  1.0 -0.4348637957
O  O16  1  0.14290000  0.87790000  0.86396000  1.0 -0.5895501424
O  O17  1  0.20710000  0.94410000  0.83107000  1.0 -0.5264092583
O  O18  1  0.37850000  0.26190000  0.90640000  1.0 -0.5710654084
O  O19  1  0.31750000  0.19840000  0.94017000  1.0 -0.5385956897
O  O20  1  0.98970000  0.90930000  0.91976000  1.0 -0.5895501424
O  O21  1  0.94190000  0.91390000  0.95994000  1.0 -0.5385956897
O  O22  1  0.59090000  0.23820000  0.94070000  1.0 -0.5587546725
O  O23  1  0.64410000  0.24600000  0.89994000  1.0 -0.5587546725
O  O24  1  0.98290000  0.74530000  0.84602000  1.0 -0.5895501424
O  O25  1  0.97420000  0.72890000  0.80490000  1.0 -0.5451462764
O  O26  1  0.56220000  0.42620000  0.82307000  1.0 -0.5587546725
O  O27  1  0.62620000  0.41520000  0.86294000  1.0 -0.5895501424
O  O28  1  0.52850000  0.88800000  0.64076000  1.0 -0.2282205198
O  O29  1  0.22260000  0.89080000  0.95754000  1.0 -0.190566794
O  O30  1  0.24190000  0.74660000  0.81857000  1.0 -0.4352336127
O  O31  1  0.35710000  0.37790000  0.86396000  1.0 -0.5895501424
O  O32  1  0.29290000  0.44410000  0.83107000  1.0 -0.5264092583
O  O33  1  0.12150000  0.76190000  0.90640000  1.0 -0.5710654084
O  O34  1  0.18250000  0.69840000  0.94017000  1.0 -0.5385956897
O  O35  1  0.51030000  0.40930000  0.91976000  1.0 -0.5895501424
O  O36  1  0.55810000  0.41390000  0.95994000  1.0 -0.5385956897
O  O37  1  0.90910000  0.73820000  0.94070000  1.0 -0.5587546725
O  O38  1  0.85590000  0.74600000  0.89994000  1.0 -0.5587546725
O  O39  1  0.51710000  0.24530000  0.84602000  1.0 -0.5895501424
O  O40  1  0.52580000  0.22890000  0.80490000  1.0 -0.5385956897
O  O41  1  0.93780000  0.92620000  0.82307000  1.0 -0.5587546725
O  O42  1  0.87380000  0.91520000  0.86294000  1.0 -0.5895501424
O  O43  1  0.97150000  0.38800000  0.64076000  1.0 -0.2282205198
O  O44  1  0.27740000  0.39080000  0.95754000  1.0 -0.190566794
O  O45  1  0.25810000  0.24660000  0.81857000  1.0 -0.4348637957
O  O46  1  0.14290000  0.12210000  0.36396000  1.0 -0.5895501424
O  O47  1  0.20710000  0.05590000  0.33107000  1.0 -0.5264092583
O  O48  1  0.37850000  0.73810000  0.40640000  1.0 -0.5710654084
O  O49  1  0.31750000  0.80160000  0.44017000  1.0 -0.5385956897
O  O50  1  0.98970000  0.09070000  0.41976000  1.0 -0.5895501424
O  O51  1  0.94190000  0.08610000  0.45994000  1.0 -0.5385956897
O  O52  1  0.59090000  0.76180000  0.44070000  1.0 -0.5587546725
O  O53  1  0.64410000  0.75400000  0.39994000  1.0 -0.5587546725
O  O54  1  0.98290000  0.25470000  0.34602000  1.0 -0.5895501424
O  O55  1  0.97420000  0.27110000  0.30490000  1.0 -0.5385956897
O  O56  1  0.56220000  0.57380000  0.32307000  1.0 -0.5587546725
O  O57  1  0.62620000  0.58480000  0.36294000  1.0 -0.5895501424
O  O58  1  0.52850000  0.11200000  0.14076000  1.0 -0.2282205198
O  O59  1  0.22260000  0.10920000  0.45754000  1.0 -0.190566794
O  O60  1  0.24190000  0.25340000  0.31857000  1.0 -0.4352336127
O  O61  1  0.64290000  0.62210000  0.13604000  1.0 -0.5895501424
O  O62  1  0.70710000  0.55590000  0.16893000  1.0 -0.5264092583
O  O63  1  0.87850000  0.23810000  0.09360000  1.0 -0.5710654084
O  O64  1  0.81750000  0.30160000  0.05983000  1.0 -0.5385956897
O  O65  1  0.48970000  0.59070000  0.08024000  1.0 -0.5895501424
O  O66  1  0.44190000  0.58610000  0.04006000  1.0 -0.5385956897
O  O67  1  0.09090000  0.26180000  0.05930000  1.0 -0.5587546725
O  O68  1  0.14410000  0.25400000  0.10006000  1.0 -0.5587546725
O  O69  1  0.48290000  0.75470000  0.15398000  1.0 -0.5895501424
O  O70  1  0.47420000  0.77110000  0.19510000  1.0 -0.5385956897
O  O71  1  0.06220000  0.07380000  0.17693000  1.0 -0.5587546725
O  O72  1  0.12620000  0.08480000  0.13706000  1.0 -0.5895501424
O  O73  1  0.02850000  0.61200000  0.35924000  1.0 -0.2282205198
O  O74  1  0.72260000  0.60920000  0.04246000  1.0 -0.190566794
O  O75  1  0.74190000  0.75340000  0.18143000  1.0 -0.4348637957
O  O76  1  0.85710000  0.87790000  0.63604000  1.0 -0.5895501424
O  O77  1  0.79290000  0.94410000  0.66893000  1.0 -0.5264092583
O  O78  1  0.62150000  0.26190000  0.59360000  1.0 -0.5710654084
O  O79  1  0.68250000  0.19840000  0.55983000  1.0 -0.5385956897
O  O80  1  0.01030000  0.90930000  0.58024000  1.0 -0.5895501424
O  O81  1  0.05810000  0.91390000  0.54006000  1.0 -0.5385956897
O  O82  1  0.40910000  0.23820000  0.55930000  1.0 -0.5587546725
O  O83  1  0.35590000  0.24600000  0.60006000  1.0 -0.5587546725
O  O84  1  0.01710000  0.74530000  0.65398000  1.0 -0.5895501424
O  O85  1  0.02580000  0.72890000  0.69510000  1.0 -0.5385956897
O  O86  1  0.43780000  0.42620000  0.67693000  1.0 -0.5587546725
O  O87  1  0.37380000  0.41520000  0.63706000  1.0 -0.5895501424
O  O88  1  0.47150000  0.88800000  0.85924000  1.0 -0.2282205198
O  O89  1  0.77740000  0.89080000  0.54246000  1.0 -0.190566794
O  O90  1  0.75810000  0.74660000  0.68143000  1.0 -0.4352336127
O  O91  1  0.64290000  0.37790000  0.63604000  1.0 -0.5895501424
O  O92  1  0.70710000  0.44410000  0.66893000  1.0 -0.5264092583
O  O93  1  0.87850000  0.76190000  0.59360000  1.0 -0.5710654084
O  O94  1  0.81750000  0.69840000  0.55983000  1.0 -0.5385956897
O  O95  1  0.48970000  0.40930000  0.58024000  1.0 -0.5895501424
O  O96  1  0.44190000  0.41390000  0.54006000  1.0 -0.5385956897
O  O97  1  0.09090000  0.73820000  0.55930000  1.0 -0.5587546725
O  O98  1  0.14410000  0.74600000  0.60006000  1.0 -0.5587546725
O  O99  1  0.48290000  0.24530000  0.65398000  1.0 -0.5895501424
O  O100  1  0.47420000  0.22890000  0.69510000  1.0 -0.5385956897
O  O101  1  0.06220000  0.92620000  0.67693000  1.0 -0.5587546725
O  O102  1  0.12620000  0.91520000  0.63706000  1.0 -0.5895501424
O  O103  1  0.02850000  0.38800000  0.85924000  1.0 -0.2282205198
O  O104  1  0.72260000  0.39080000  0.54246000  1.0 -0.190566794
O  O105  1  0.74190000  0.24660000  0.68143000  1.0 -0.4348637957
O  O106  1  0.85710000  0.12210000  0.13604000  1.0 -0.5895501424
O  O107  1  0.79290000  0.05590000  0.16893000  1.0 -0.5264092583
O  O108  1  0.62150000  0.73810000  0.09360000  1.0 -0.5710654084
O  O109  1  0.68250000  0.80160000  0.05983000  1.0 -0.5385956897
O  O110  1  0.01030000  0.09070000  0.08024000  1.0 -0.5895501424
O  O111  1  0.05810000  0.08610000  0.04006000  1.0 -0.5385956897
O  O112  1  0.40910000  0.76180000  0.05930000  1.0 -0.5587546725
O  O113  1  0.35590000  0.75400000  0.10006000  1.0 -0.5587546725
O  O114  1  0.01710000  0.25470000  0.15398000  1.0 -0.5895501424
O  O115  1  0.02580000  0.27110000  0.19510000  1.0 -0.5385956897
O  O116  1  0.43780000  0.57380000  0.17693000  1.0 -0.5587546725
O  O117  1  0.37380000  0.58480000  0.13706000  1.0 -0.5895501424
O  O118  1  0.47150000  0.11200000  0.35924000  1.0 -0.2282205198
O  O119  1  0.77740000  0.10920000  0.04246000  1.0 -0.190566794
O  O120  1  0.75810000  0.25340000  0.18143000  1.0 -0.4352336127
