# DDEC6 charges by PACMAN v1.1 (https://github.com/mtap-research/PACMAN-charge/)
data_YIJCEB_FSR_pacman
_symmetry_space_group_name_H-M   'P 1'
_cell_length_a   13.59410000
_cell_length_b   14.36210000
_cell_length_c   14.25610000
_cell_angle_alpha   90.00000000
_cell_angle_beta   96.14100000
_cell_angle_gamma   90.00000000
_symmetry_Int_Tables_number   1
_chemical_formula_structural   Ni2H15C22N7
_chemical_formula_sum   'Ni8 H60 C88 N28'
_cell_volume   2767.38656047
_cell_formula_units_Z   4
loop_
 _symmetry_equiv_pos_site_id
 _symmetry_equiv_pos_as_xyz
  1  'x, y, z'
loop_
 _atom_site_type_symbol
 _atom_site_label
 _atom_site_symmetry_multiplicity
 _atom_site_fract_x
 _atom_site_fract_y
 _atom_site_fract_z
 _atom_site_occupancy
 _atom_site_charge
Ni  Ni1  1  0.00000000  0.50000000  0.50000000  1.0 0.5495851361
Ni  Ni2  1  0.00000000  0.00000000  0.50000000  1.0 0.5495851361
Ni  Ni3  1  0.00000000  0.50000000  0.00000000  1.0 0.7307834946
Ni  Ni4  1  0.00000000  0.00000000  0.00000000  1.0 0.7307834946
Ni  Ni5  1  0.99073000  0.25000000  0.74895000  1.0 0.1313793198
Ni  Ni6  1  0.00927000  0.75000000  0.25105000  1.0 0.1313793198
Ni  Ni7  1  0.98992000  0.75000000  0.74995000  1.0 0.1313793198
Ni  Ni8  1  0.01008000  0.25000000  0.25005000  1.0 0.1313793198
H  H1  1  0.82280000  0.51480000  0.35170000  1.0 0.0704015896
H  H2  1  0.17720000  0.01480000  0.64830000  1.0 0.0704015896
H  H3  1  0.17720000  0.48520000  0.64830000  1.0 0.0704015896
H  H4  1  0.82280000  0.98520000  0.35170000  1.0 0.0704015896
H  H5  1  0.65190000  0.51440000  0.33740000  1.0 0.0704015896
H  H6  1  0.34810000  0.01440000  0.66260000  1.0 0.0704015896
H  H7  1  0.34810000  0.48560000  0.66260000  1.0 0.0704015896
H  H8  1  0.65190000  0.98560000  0.33740000  1.0 0.0704015896
H  H9  1  0.66350000  0.49900000  0.62120000  1.0 0.0789765888
H  H10  1  0.33650000  0.99900000  0.37880000  1.0 0.0789765888
H  H11  1  0.33650000  0.50100000  0.37880000  1.0 0.0789765888
H  H12  1  0.66350000  0.00100000  0.62120000  1.0 0.0789765888
H  H13  1  0.83390000  0.49720000  0.62800000  1.0 0.098993449
H  H14  1  0.16610000  0.99720000  0.37200000  1.0 0.098993449
H  H15  1  0.16610000  0.50280000  0.37200000  1.0 0.098993449
H  H16  1  0.83390000  0.00280000  0.62800000  1.0 0.098993449
H  H17  1  0.49650000  0.51280000  0.40440000  1.0 0.0882862881
H  H18  1  0.50350000  0.01280000  0.59560000  1.0 0.0882862881
H  H19  1  0.50350000  0.48720000  0.59560000  1.0 0.0882862881
H  H20  1  0.49650000  0.98720000  0.40440000  1.0 0.0882862881
H  H21  1  0.85580000  0.48850000  0.15130000  1.0 0.1069250875
H  H22  1  0.14420000  0.98850000  0.84870000  1.0 0.1069250875
H  H23  1  0.14420000  0.51150000  0.84870000  1.0 0.1069250875
H  H24  1  0.85580000  0.01150000  0.15130000  1.0 0.1069250875
H  H25  1  0.68820000  0.48480000  0.16510000  1.0 0.1069250875
H  H26  1  0.31180000  0.98480000  0.83490000  1.0 0.1069250875
H  H27  1  0.31180000  0.51520000  0.83490000  1.0 0.1069250875
H  H28  1  0.68820000  0.01520000  0.16510000  1.0 0.1069250875
H  H29  1  0.63710000  0.51330000  0.88170000  1.0 0.1069250875
H  H30  1  0.36290000  0.01330000  0.11830000  1.0 0.1069250875
H  H31  1  0.36290000  0.48670000  0.11830000  1.0 0.1069250875
H  H32  1  0.63710000  0.98670000  0.88170000  1.0 0.1069250875
H  H33  1  0.80640000  0.51550000  0.87600000  1.0 0.098993449
H  H34  1  0.19360000  0.01550000  0.12400000  1.0 0.098993449
H  H35  1  0.19360000  0.48450000  0.12400000  1.0 0.098993449
H  H36  1  0.80640000  0.98450000  0.87600000  1.0 0.098993449
H  H37  1  0.51660000  0.48760000  0.09670000  1.0 0.1069250875
H  H38  1  0.48340000  0.98760000  0.90330000  1.0 0.1069250875
H  H39  1  0.48340000  0.51240000  0.90330000  1.0 0.1069250875
H  H40  1  0.51660000  0.01240000  0.09670000  1.0 0.1069250875
H  H41  1  0.85720000  0.49480000  0.65110000  1.0 0.0704015896
H  H42  1  0.14280000  0.99480000  0.34890000  1.0 0.0704015896
H  H43  1  0.14280000  0.50520000  0.34890000  1.0 0.0704015896
H  H44  1  0.85720000  0.00520000  0.65110000  1.0 0.0704015896
H  H45  1  0.68880000  0.47890000  0.66540000  1.0 0.0704015896
H  H46  1  0.31120000  0.97890000  0.33460000  1.0 0.0704015896
H  H47  1  0.31120000  0.52110000  0.33460000  1.0 0.0704015896
H  H48  1  0.68880000  0.02110000  0.66540000  1.0 0.0704015896
H  H49  1  0.63460000  0.51590000  0.38300000  1.0 0.0704015896
H  H50  1  0.36540000  0.01590000  0.61700000  1.0 0.0704015896
H  H51  1  0.36540000  0.48410000  0.61700000  1.0 0.0704015896
H  H52  1  0.63460000  0.98410000  0.38300000  1.0 0.0704015896
H  H53  1  0.80520000  0.51450000  0.37550000  1.0 0.0882862881
H  H54  1  0.19480000  0.01450000  0.62450000  1.0 0.0882862881
H  H55  1  0.19480000  0.48550000  0.62450000  1.0 0.0882862881
H  H56  1  0.80520000  0.98550000  0.37550000  1.0 0.0882862881
H  H57  1  0.51680000  0.49250000  0.59710000  1.0 0.0882862881
H  H58  1  0.48320000  0.99250000  0.40290000  1.0 0.0882862881
H  H59  1  0.48320000  0.50750000  0.40290000  1.0 0.0882862881
H  H60  1  0.51680000  0.00750000  0.59710000  1.0 0.0882862881
C  C1  1  0.00012000  0.34110000  0.65800000  1.0 0.0508628131
C  C2  1  0.99988000  0.84110000  0.34200000  1.0 0.0508628131
C  C3  1  0.99988000  0.65890000  0.34200000  1.0 0.0508628131
C  C4  1  0.00012000  0.15890000  0.65800000  1.0 0.0508628131
C  C5  1  0.98141000  0.65900000  0.84147000  1.0 0.0284260744
C  C6  1  0.01859000  0.15900000  0.15853000  1.0 0.0284260744
C  C7  1  0.01859000  0.34100000  0.15853000  1.0 0.0284260744
C  C8  1  0.98141000  0.84100000  0.84147000  1.0 0.0284260744
C  C9  1  0.98338000  0.34237000  0.83988000  1.0 0.0284260744
C  C10  1  0.01662000  0.84237000  0.16012000  1.0 0.0284260744
C  C11  1  0.01662000  0.65763000  0.16012000  1.0 0.0284260744
C  C12  1  0.98338000  0.15763000  0.83988000  1.0 0.0284260744
C  C13  1  0.00125000  0.65786000  0.66007000  1.0 0.0508628131
C  C14  1  0.99875000  0.15786000  0.33993000  1.0 0.0508628131
C  C15  1  0.99875000  0.34214000  0.33993000  1.0 0.0508628131
C  C16  1  0.00125000  0.84214000  0.66007000  1.0 0.0508628131
C  C17  1  0.79003000  0.51117000  0.40726000  1.0 0.0621063107
C  C18  1  0.20997000  0.01117000  0.59274000  1.0 0.0621063107
C  C19  1  0.20997000  0.48883000  0.59274000  1.0 0.0621063107
C  C20  1  0.79003000  0.98883000  0.40726000  1.0 0.0621063107
C  C21  1  0.68777000  0.51087000  0.39820000  1.0 -0.1251725755
C  C22  1  0.31223000  0.01087000  0.60180000  1.0 -0.1251725755
C  C23  1  0.31223000  0.48913000  0.60180000  1.0 -0.1251725755
C  C24  1  0.68777000  0.98913000  0.39820000  1.0 -0.1251725755
C  C25  1  0.63733000  0.50530000  0.47780000  1.0 0.0284260744
C  C26  1  0.36267000  0.00530000  0.52220000  1.0 0.0284260744
C  C27  1  0.36267000  0.49470000  0.52220000  1.0 0.0284260744
C  C28  1  0.63733000  0.99470000  0.47780000  1.0 0.0284260744
C  C29  1  0.69440000  0.50150000  0.56450000  1.0 -0.0293391626
C  C30  1  0.30560000  0.00150000  0.43550000  1.0 -0.0293391626
C  C31  1  0.30560000  0.49850000  0.43550000  1.0 -0.0293391626
C  C32  1  0.69440000  0.99850000  0.56450000  1.0 -0.0293391626
C  C33  1  0.79630000  0.50130000  0.56800000  1.0 0.0621063107
C  C34  1  0.20370000  0.00130000  0.43200000  1.0 0.0621063107
C  C35  1  0.20370000  0.49870000  0.43200000  1.0 0.0621063107
C  C36  1  0.79630000  0.99870000  0.56800000  1.0 0.0621063107
C  C37  1  0.52830000  0.50500000  0.46650000  1.0 -0.084139002
C  C38  1  0.47170000  0.00500000  0.53350000  1.0 -0.084139002
C  C39  1  0.47170000  0.49500000  0.53350000  1.0 -0.084139002
C  C40  1  0.52830000  0.99500000  0.46650000  1.0 -0.084139002
C  C41  1  0.81070000  0.49291000  0.09579000  1.0 0.0882862881
C  C42  1  0.18930000  0.99291000  0.90421000  1.0 0.0882862881
C  C43  1  0.18930000  0.50709000  0.90421000  1.0 0.0882862881
C  C44  1  0.81070000  0.00709000  0.09579000  1.0 0.0882862881
C  C45  1  0.71056000  0.49121000  0.10455000  1.0 -0.2188700079
C  C46  1  0.28944000  0.99121000  0.89545000  1.0 -0.2188700079
C  C47  1  0.28944000  0.50879000  0.89545000  1.0 -0.2188700079
C  C48  1  0.71056000  0.00879000  0.10455000  1.0 -0.2188700079
C  C49  1  0.64230000  0.49890000  0.02488000  1.0 0.1705471449
C  C50  1  0.35770000  0.99890000  0.97512000  1.0 0.1705471449
C  C51  1  0.35770000  0.50110000  0.97512000  1.0 0.1705471449
C  C52  1  0.64230000  0.00110000  0.02488000  1.0 0.1705471449
C  C53  1  0.68046000  0.50782000  0.93829000  1.0 -0.2056289888
C  C54  1  0.31954000  0.00782000  0.06171000  1.0 -0.2056289888
C  C55  1  0.31954000  0.49218000  0.06171000  1.0 -0.2056289888
C  C56  1  0.68046000  0.99218000  0.93829000  1.0 -0.2056289888
C  C57  1  0.78175000  0.50871000  0.93547000  1.0 0.0789765888
C  C58  1  0.21825000  0.00871000  0.06453000  1.0 0.0789765888
C  C59  1  0.21825000  0.49129000  0.06453000  1.0 0.0789765888
C  C60  1  0.78175000  0.99129000  0.93547000  1.0 0.0789765888
C  C61  1  0.53557000  0.49590000  0.03501000  1.0 -0.1467219977
C  C62  1  0.46443000  0.99590000  0.96499000  1.0 -0.1467219977
C  C63  1  0.46443000  0.50410000  0.96499000  1.0 -0.1467219977
C  C64  1  0.53557000  0.00410000  0.03501000  1.0 -0.1467219977
C  C65  1  0.81140000  0.49380000  0.59590000  1.0 0.0789765888
C  C66  1  0.18860000  0.99380000  0.40410000  1.0 0.0704015896
C  C67  1  0.18860000  0.50620000  0.40410000  1.0 0.0704015896
C  C68  1  0.81140000  0.00620000  0.59590000  1.0 0.0789765888
C  C69  1  0.71110000  0.48970000  0.60540000  1.0 -0.1243148758
C  C70  1  0.28890000  0.98970000  0.39460000  1.0 -0.1243148758
C  C71  1  0.28890000  0.51030000  0.39460000  1.0 -0.1243148758
C  C72  1  0.71110000  0.01030000  0.60540000  1.0 -0.1243148758
C  C73  1  0.64350000  0.50150000  0.52610000  1.0 0.0284260744
C  C74  1  0.35650000  0.00150000  0.47390000  1.0 0.0284260744
C  C75  1  0.35650000  0.49850000  0.47390000  1.0 0.0284260744
C  C76  1  0.64350000  0.99850000  0.52610000  1.0 0.0284260744
C  C77  1  0.67890000  0.50940000  0.43890000  1.0 -0.0217144466
C  C78  1  0.32110000  0.00940000  0.56110000  1.0 -0.0217144466
C  C79  1  0.32110000  0.49060000  0.56110000  1.0 -0.0217144466
C  C80  1  0.67890000  0.99060000  0.43890000  1.0 -0.0217144466
C  C81  1  0.78080000  0.50750000  0.43510000  1.0 0.0621063107
C  C82  1  0.21920000  0.00750000  0.56490000  1.0 0.0508628131
C  C83  1  0.21920000  0.49250000  0.56490000  1.0 0.0508628131
C  C84  1  0.78080000  0.99250000  0.43510000  1.0 0.0621063107
C  C85  1  0.53600000  0.49800000  0.53520000  1.0 -0.0856572739
C  C86  1  0.46400000  0.99800000  0.46480000  1.0 -0.0856572739
C  C87  1  0.46400000  0.50200000  0.46480000  1.0 -0.0856572739
C  C88  1  0.53600000  0.00200000  0.53520000  1.0 -0.0856572739
N  N1  1  0.00502000  0.39737000  0.60129000  1.0 -0.2766186274
N  N2  1  0.99498000  0.89737000  0.39871000  1.0 -0.2766186274
N  N3  1  0.99498000  0.60263000  0.39871000  1.0 -0.2766186274
N  N4  1  0.00502000  0.10263000  0.60129000  1.0 -0.2766186274
N  N5  1  0.98148000  0.60206000  0.89862000  1.0 -0.3582156985
N  N6  1  0.01852000  0.10206000  0.10138000  1.0 -0.3582156985
N  N7  1  0.01852000  0.39794000  0.10138000  1.0 -0.3582156985
N  N8  1  0.98148000  0.89794000  0.89862000  1.0 -0.3582156985
N  N9  1  0.98114000  0.39945000  0.89630000  1.0 -0.3582156985
N  N10  1  0.01886000  0.89945000  0.10370000  1.0 -0.3582156985
N  N11  1  0.01886000  0.60055000  0.10370000  1.0 -0.3582156985
N  N12  1  0.98114000  0.10055000  0.89630000  1.0 -0.3582156985
N  N13  1  0.00890000  0.60022000  0.60449000  1.0 -0.2917526341
N  N14  1  0.99110000  0.10022000  0.39551000  1.0 -0.2917526341
N  N15  1  0.99110000  0.39978000  0.39551000  1.0 -0.2917526341
N  N16  1  0.00890000  0.89978000  0.60449000  1.0 -0.2917526341
N  N17  1  0.84503000  0.50655000  0.49108000  1.0 -0.1886105831
N  N18  1  0.15497000  0.00655000  0.50892000  1.0 -0.1886105831
N  N19  1  0.15497000  0.49345000  0.50892000  1.0 -0.1886105831
N  N20  1  0.84503000  0.99345000  0.49108000  1.0 -0.1886105831
N  N21  1  0.84693000  0.50050000  0.01238000  1.0 -0.1981383464
N  N22  1  0.15307000  0.00050000  0.98762000  1.0 -0.1981383464
N  N23  1  0.15307000  0.49950000  0.98762000  1.0 -0.1981383464
N  N24  1  0.84693000  0.99950000  0.01238000  1.0 -0.1981383464
N  N25  1  0.84600000  0.49640000  0.51150000  1.0 -0.1886105831
N  N26  1  0.15400000  0.99640000  0.48850000  1.0 -0.1886105831
N  N27  1  0.15400000  0.50360000  0.48850000  1.0 -0.1886105831
N  N28  1  0.84600000  0.00360000  0.51150000  1.0 -0.1886105831
