# DDEC6 charges by PACMAN v1.1 (https://github.com/mtap-research/PACMAN-charge/)
data_YIJXOI_ASR_pacman
_symmetry_space_group_name_H-M   'P 1'
_cell_length_a   40.39520000
_cell_length_b   40.39520000
_cell_length_c   19.86970000
_cell_angle_alpha   90.00000000
_cell_angle_beta   90.00000000
_cell_angle_gamma   120.00000000
_symmetry_Int_Tables_number   1
_chemical_formula_structural   Zr3H40C86S8(N8O7)2
_chemical_formula_sum   'Zr18 H240 C516 S48 N96 O84'
_cell_volume   28078.98902590
_cell_formula_units_Z   6
loop_
 _symmetry_equiv_pos_site_id
 _symmetry_equiv_pos_as_xyz
  1  'x, y, z'
loop_
 _atom_site_type_symbol
 _atom_site_label
 _atom_site_symmetry_multiplicity
 _atom_site_fract_x
 _atom_site_fract_y
 _atom_site_fract_z
 _atom_site_occupancy
 _atom_site_charge
Zr  Zr1  1  0.54376000  0.54376000  0.08893000  1.0 2.4659191539
Zr  Zr2  1  0.00000000  0.54376000  0.08893000  1.0 2.4659191539
Zr  Zr3  1  0.45624000  0.00000000  0.08893000  1.0 2.4659191539
Zr  Zr4  1  0.45624000  0.45624000  0.08893000  1.0 2.4659191539
Zr  Zr5  1  0.00000000  0.45624000  0.08893000  1.0 2.4659191539
Zr  Zr6  1  0.54376000  0.00000000  0.08893000  1.0 2.4659191539
Zr  Zr7  1  0.45624000  0.45624000  0.91107000  1.0 2.4659191539
Zr  Zr8  1  0.00000000  0.45624000  0.91107000  1.0 2.4659191539
Zr  Zr9  1  0.54376000  0.00000000  0.91107000  1.0 2.4659191539
Zr  Zr10  1  0.54376000  0.54376000  0.91107000  1.0 2.4659191539
Zr  Zr11  1  0.00000000  0.54376000  0.91107000  1.0 2.4659191539
Zr  Zr12  1  0.45624000  0.00000000  0.91107000  1.0 2.4659191539
Zr  Zr13  1  0.53498000  0.46502000  0.00000000  1.0 2.3776779939
Zr  Zr14  1  0.06996000  0.53498000  0.00000000  1.0 2.3729242255
Zr  Zr15  1  0.53498000  0.06996000  0.00000000  1.0 2.3776779939
Zr  Zr16  1  0.46502000  0.53498000  0.00000000  1.0 2.3729242255
Zr  Zr17  1  0.93004000  0.46502000  0.00000000  1.0 2.3729242255
Zr  Zr18  1  0.46502000  0.93004000  0.00000000  1.0 2.3729242255
H  H1  1  0.46198000  0.21999000  0.13140000  1.0 0.2812804302
H  H2  1  0.24199000  0.46198000  0.13140000  1.0 0.2812804302
H  H3  1  0.78001000  0.24199000  0.13140000  1.0 0.2812804302
H  H4  1  0.53802000  0.78001000  0.13140000  1.0 0.2812804302
H  H5  1  0.75801000  0.53802000  0.13140000  1.0 0.2812804302
H  H6  1  0.21999000  0.75801000  0.13140000  1.0 0.2812804302
H  H7  1  0.78001000  0.53802000  0.86860000  1.0 0.2812804302
H  H8  1  0.24199000  0.78001000  0.86860000  1.0 0.2812804302
H  H9  1  0.46198000  0.24199000  0.86860000  1.0 0.2812804302
H  H10  1  0.21999000  0.46198000  0.86860000  1.0 0.2812804302
H  H11  1  0.75801000  0.21999000  0.86860000  1.0 0.2812804302
H  H12  1  0.53802000  0.75801000  0.86860000  1.0 0.2812804302
H  H13  1  0.53802000  0.78001000  0.86860000  1.0 0.2812804302
H  H14  1  0.75801000  0.53802000  0.86860000  1.0 0.2812804302
H  H15  1  0.21999000  0.75801000  0.86860000  1.0 0.2812804302
H  H16  1  0.46198000  0.21999000  0.86860000  1.0 0.2812804302
H  H17  1  0.24199000  0.46198000  0.86860000  1.0 0.2812804302
H  H18  1  0.78001000  0.24199000  0.86860000  1.0 0.2812804302
H  H19  1  0.21999000  0.46198000  0.13140000  1.0 0.2812804302
H  H20  1  0.75801000  0.21999000  0.13140000  1.0 0.2812804302
H  H21  1  0.53802000  0.75801000  0.13140000  1.0 0.2812804302
H  H22  1  0.78001000  0.53802000  0.13140000  1.0 0.2812804302
H  H23  1  0.24199000  0.78001000  0.13140000  1.0 0.2812804302
H  H24  1  0.46198000  0.24199000  0.13140000  1.0 0.2812804302
H  H25  1  0.44335000  0.35684000  0.20343000  1.0 0.1012190004
H  H26  1  0.08651000  0.44335000  0.20343000  1.0 0.1012190004
H  H27  1  0.64316000  0.08651000  0.20343000  1.0 0.1012190004
H  H28  1  0.55665000  0.64316000  0.20343000  1.0 0.1012190004
H  H29  1  0.91349000  0.55665000  0.20343000  1.0 0.1012190004
H  H30  1  0.35684000  0.91349000  0.20343000  1.0 0.1012190004
H  H31  1  0.64316000  0.55665000  0.79657000  1.0 0.1012190004
H  H32  1  0.08651000  0.64316000  0.79657000  1.0 0.1012190004
H  H33  1  0.44335000  0.08651000  0.79657000  1.0 0.1012190004
H  H34  1  0.35684000  0.44335000  0.79657000  1.0 0.1012190004
H  H35  1  0.91349000  0.35684000  0.79657000  1.0 0.1012190004
H  H36  1  0.55665000  0.91349000  0.79657000  1.0 0.1012190004
H  H37  1  0.55665000  0.64316000  0.79657000  1.0 0.1012190004
H  H38  1  0.91349000  0.55665000  0.79657000  1.0 0.1012190004
H  H39  1  0.35684000  0.91349000  0.79657000  1.0 0.1012190004
H  H40  1  0.44335000  0.35684000  0.79657000  1.0 0.1012190004
H  H41  1  0.08651000  0.44335000  0.79657000  1.0 0.1012190004
H  H42  1  0.64316000  0.08651000  0.79657000  1.0 0.1012190004
H  H43  1  0.35684000  0.44335000  0.20343000  1.0 0.1012190004
H  H44  1  0.91349000  0.35684000  0.20343000  1.0 0.1012190004
H  H45  1  0.55665000  0.91349000  0.20343000  1.0 0.1012190004
H  H46  1  0.64316000  0.55665000  0.20343000  1.0 0.1012190004
H  H47  1  0.08651000  0.64316000  0.20343000  1.0 0.1012190004
H  H48  1  0.44335000  0.08651000  0.20343000  1.0 0.1012190004
H  H49  1  0.43881000  0.30386000  0.26009000  1.0 0.145846652
H  H50  1  0.13495000  0.43881000  0.26009000  1.0 0.145846652
H  H51  1  0.69614000  0.13495000  0.26009000  1.0 0.145846652
H  H52  1  0.56119000  0.69614000  0.26009000  1.0 0.145846652
H  H53  1  0.86505000  0.56119000  0.26009000  1.0 0.145846652
H  H54  1  0.30386000  0.86505000  0.26009000  1.0 0.145846652
H  H55  1  0.69614000  0.56119000  0.73991000  1.0 0.145846652
H  H56  1  0.13495000  0.69614000  0.73991000  1.0 0.145846652
H  H57  1  0.43881000  0.13495000  0.73991000  1.0 0.145846652
H  H58  1  0.30386000  0.43881000  0.73991000  1.0 0.145846652
H  H59  1  0.86505000  0.30386000  0.73991000  1.0 0.145846652
H  H60  1  0.56119000  0.86505000  0.73991000  1.0 0.145846652
H  H61  1  0.56119000  0.69614000  0.73991000  1.0 0.145846652
H  H62  1  0.86505000  0.56119000  0.73991000  1.0 0.145846652
H  H63  1  0.30386000  0.86505000  0.73991000  1.0 0.145846652
H  H64  1  0.43881000  0.30386000  0.73991000  1.0 0.145846652
H  H65  1  0.13495000  0.43881000  0.73991000  1.0 0.145846652
H  H66  1  0.69614000  0.13495000  0.73991000  1.0 0.145846652
H  H67  1  0.30386000  0.43881000  0.26009000  1.0 0.145846652
H  H68  1  0.86505000  0.30386000  0.26009000  1.0 0.145846652
H  H69  1  0.56119000  0.86505000  0.26009000  1.0 0.145846652
H  H70  1  0.69614000  0.56119000  0.26009000  1.0 0.145846652
H  H71  1  0.13495000  0.69614000  0.26009000  1.0 0.145846652
H  H72  1  0.43881000  0.13495000  0.26009000  1.0 0.145846652
H  H73  1  0.52868000  0.31467000  0.15385000  1.0 0.1209259612
H  H74  1  0.21401000  0.52868000  0.15385000  1.0 0.1209259612
H  H75  1  0.68533000  0.21401000  0.15385000  1.0 0.1209259612
H  H76  1  0.47132000  0.68533000  0.15385000  1.0 0.1209259612
H  H77  1  0.78599000  0.47132000  0.15385000  1.0 0.1209259612
H  H78  1  0.31467000  0.78599000  0.15385000  1.0 0.1209259612
H  H79  1  0.68533000  0.47132000  0.84615000  1.0 0.1209259612
H  H80  1  0.21401000  0.68533000  0.84615000  1.0 0.1209259612
H  H81  1  0.52868000  0.21401000  0.84615000  1.0 0.1209259612
H  H82  1  0.31467000  0.52868000  0.84615000  1.0 0.1209259612
H  H83  1  0.78599000  0.31467000  0.84615000  1.0 0.1209259612
H  H84  1  0.47132000  0.78599000  0.84615000  1.0 0.1209259612
H  H85  1  0.47132000  0.68533000  0.84616000  1.0 0.1209259612
H  H86  1  0.78599000  0.47132000  0.84616000  1.0 0.1209259612
H  H87  1  0.31467000  0.78599000  0.84616000  1.0 0.1209259612
H  H88  1  0.52868000  0.31467000  0.84616000  1.0 0.1209259612
H  H89  1  0.21401000  0.52868000  0.84616000  1.0 0.1209259612
H  H90  1  0.68533000  0.21401000  0.84616000  1.0 0.1209259612
H  H91  1  0.31467000  0.52868000  0.15384000  1.0 0.1209259612
H  H92  1  0.78599000  0.31467000  0.15384000  1.0 0.1209259612
H  H93  1  0.47132000  0.78599000  0.15384000  1.0 0.1209259612
H  H94  1  0.68533000  0.47132000  0.15384000  1.0 0.1209259612
H  H95  1  0.21401000  0.68533000  0.15384000  1.0 0.1209259612
H  H96  1  0.52868000  0.21401000  0.15384000  1.0 0.1209259612
H  H97  1  0.53402000  0.36815000  0.09890000  1.0 0.1209259612
H  H98  1  0.16587000  0.53402000  0.09890000  1.0 0.1209259612
H  H99  1  0.63185000  0.16587000  0.09890000  1.0 0.1209259612
H  H100  1  0.46598000  0.63185000  0.09890000  1.0 0.1209259612
H  H101  1  0.83413000  0.46598000  0.09890000  1.0 0.1209259612
H  H102  1  0.36815000  0.83413000  0.09890000  1.0 0.1209259612
H  H103  1  0.63185000  0.46598000  0.90110000  1.0 0.1209259612
H  H104  1  0.16587000  0.63185000  0.90110000  1.0 0.1209259612
H  H105  1  0.53402000  0.16587000  0.90110000  1.0 0.1209259612
H  H106  1  0.36815000  0.53402000  0.90110000  1.0 0.1209259612
H  H107  1  0.83413000  0.36815000  0.90110000  1.0 0.1209259612
H  H108  1  0.46598000  0.83413000  0.90110000  1.0 0.1209259612
H  H109  1  0.46598000  0.63186000  0.90110000  1.0 0.1209259612
H  H110  1  0.83412000  0.46598000  0.90110000  1.0 0.1209259612
H  H111  1  0.36814000  0.83412000  0.90110000  1.0 0.1209259612
H  H112  1  0.53402000  0.36814000  0.90110000  1.0 0.1209259612
H  H113  1  0.16588000  0.53402000  0.90110000  1.0 0.1209259612
H  H114  1  0.63186000  0.16588000  0.90110000  1.0 0.1209259612
H  H115  1  0.36814000  0.53402000  0.09890000  1.0 0.1209259612
H  H116  1  0.83412000  0.36814000  0.09890000  1.0 0.1209259612
H  H117  1  0.46598000  0.83412000  0.09890000  1.0 0.1209259612
H  H118  1  0.63186000  0.46598000  0.09890000  1.0 0.1209259612
H  H119  1  0.16588000  0.63186000  0.09890000  1.0 0.1209259612
H  H120  1  0.53402000  0.16588000  0.09890000  1.0 0.1209259612
H  H121  1  0.47651000  0.28781000  0.34046000  1.0 0.2960422555
H  H122  1  0.18870000  0.47651000  0.34046000  1.0 0.2960422555
H  H123  1  0.71219000  0.18870000  0.34046000  1.0 0.2960422555
H  H124  1  0.52349000  0.71219000  0.34046000  1.0 0.2960422555
H  H125  1  0.81130000  0.52349000  0.34046000  1.0 0.2960422555
H  H126  1  0.28781000  0.81130000  0.34046000  1.0 0.2960422555
H  H127  1  0.71219000  0.52349000  0.65954000  1.0 0.2960422555
H  H128  1  0.18870000  0.71219000  0.65954000  1.0 0.2960422555
H  H129  1  0.47651000  0.18870000  0.65954000  1.0 0.2960422555
H  H130  1  0.28781000  0.47651000  0.65954000  1.0 0.2960422555
H  H131  1  0.81130000  0.28781000  0.65954000  1.0 0.2960422555
H  H132  1  0.52349000  0.81130000  0.65954000  1.0 0.2960422555
H  H133  1  0.52349000  0.71219000  0.65954000  1.0 0.2960422555
H  H134  1  0.81130000  0.52349000  0.65954000  1.0 0.2960422555
H  H135  1  0.28781000  0.81130000  0.65954000  1.0 0.2960422555
H  H136  1  0.47651000  0.28781000  0.65954000  1.0 0.2960422555
H  H137  1  0.18870000  0.47651000  0.65954000  1.0 0.2960422555
H  H138  1  0.71219000  0.18870000  0.65954000  1.0 0.2960422555
H  H139  1  0.28781000  0.47651000  0.34046000  1.0 0.2960422555
H  H140  1  0.81130000  0.28781000  0.34046000  1.0 0.2960422555
H  H141  1  0.52349000  0.81130000  0.34046000  1.0 0.2960422555
H  H142  1  0.71219000  0.52349000  0.34046000  1.0 0.2960422555
H  H143  1  0.18870000  0.71219000  0.34046000  1.0 0.2960422555
H  H144  1  0.47651000  0.18870000  0.34046000  1.0 0.2960422555
H  H145  1  0.43789000  0.18054000  0.54544000  1.0 0.1100735623
H  H146  1  0.25735000  0.43789000  0.54544000  1.0 0.1100735623
H  H147  1  0.81946000  0.25735000  0.54544000  1.0 0.1100735623
H  H148  1  0.56211000  0.81946000  0.54544000  1.0 0.1100735623
H  H149  1  0.74265000  0.56211000  0.54544000  1.0 0.1100735623
H  H150  1  0.18054000  0.74265000  0.54544000  1.0 0.1100735623
H  H151  1  0.81946000  0.56211000  0.45456000  1.0 0.1100735623
H  H152  1  0.25735000  0.81946000  0.45456000  1.0 0.1100735623
H  H153  1  0.43789000  0.25735000  0.45456000  1.0 0.1100735623
H  H154  1  0.18054000  0.43789000  0.45456000  1.0 0.1100735623
H  H155  1  0.74265000  0.18054000  0.45456000  1.0 0.1100735623
H  H156  1  0.56211000  0.74265000  0.45456000  1.0 0.1100735623
H  H157  1  0.56211000  0.81946000  0.45456000  1.0 0.1100735623
H  H158  1  0.74265000  0.56211000  0.45456000  1.0 0.1100735623
H  H159  1  0.18054000  0.74265000  0.45456000  1.0 0.1100735623
H  H160  1  0.43789000  0.18054000  0.45456000  1.0 0.1100735623
H  H161  1  0.25735000  0.43789000  0.45456000  1.0 0.1100735623
H  H162  1  0.81946000  0.25735000  0.45456000  1.0 0.1100735623
H  H163  1  0.18054000  0.43789000  0.54544000  1.0 0.1100735623
H  H164  1  0.74265000  0.18054000  0.54544000  1.0 0.1100735623
H  H165  1  0.56211000  0.74265000  0.54544000  1.0 0.1100735623
H  H166  1  0.81946000  0.56211000  0.54544000  1.0 0.1100735623
H  H167  1  0.25735000  0.81946000  0.54544000  1.0 0.1100735623
H  H168  1  0.43789000  0.25735000  0.54544000  1.0 0.1100735623
H  H169  1  0.44348000  0.18556000  0.42818000  1.0 0.1100735623
H  H170  1  0.25792000  0.44348000  0.42818000  1.0 0.1100735623
H  H171  1  0.81444000  0.25792000  0.42818000  1.0 0.1100735623
H  H172  1  0.55652000  0.81444000  0.42818000  1.0 0.1100735623
H  H173  1  0.74208000  0.55652000  0.42818000  1.0 0.1100735623
H  H174  1  0.18556000  0.74208000  0.42818000  1.0 0.1100735623
H  H175  1  0.81444000  0.55652000  0.57182000  1.0 0.1100735623
H  H176  1  0.25792000  0.81444000  0.57182000  1.0 0.1100735623
H  H177  1  0.44348000  0.25792000  0.57182000  1.0 0.1100735623
H  H178  1  0.18556000  0.44348000  0.57182000  1.0 0.1100735623
H  H179  1  0.74208000  0.18556000  0.57182000  1.0 0.1100735623
H  H180  1  0.55652000  0.74208000  0.57182000  1.0 0.1100735623
H  H181  1  0.55652000  0.81444000  0.57182000  1.0 0.1100735623
H  H182  1  0.74208000  0.55652000  0.57182000  1.0 0.1100735623
H  H183  1  0.18556000  0.74208000  0.57182000  1.0 0.1100735623
H  H184  1  0.44348000  0.18556000  0.57182000  1.0 0.1100735623
H  H185  1  0.25792000  0.44348000  0.57182000  1.0 0.1100735623
H  H186  1  0.81444000  0.25792000  0.57182000  1.0 0.1100735623
H  H187  1  0.18556000  0.44348000  0.42818000  1.0 0.1100735623
H  H188  1  0.74208000  0.18556000  0.42818000  1.0 0.1100735623
H  H189  1  0.55652000  0.74208000  0.42818000  1.0 0.1100735623
H  H190  1  0.81444000  0.55652000  0.42818000  1.0 0.1100735623
H  H191  1  0.25792000  0.81444000  0.42818000  1.0 0.1100735623
H  H192  1  0.44348000  0.25792000  0.42818000  1.0 0.1100735623
H  H193  1  0.51956000  0.22101000  0.54352000  1.0 0.1100735623
H  H194  1  0.29855000  0.51956000  0.54352000  1.0 0.1100735623
H  H195  1  0.77899000  0.29855000  0.54352000  1.0 0.1100735623
H  H196  1  0.48044000  0.77899000  0.54352000  1.0 0.1100735623
H  H197  1  0.70145000  0.48044000  0.54352000  1.0 0.1100735623
H  H198  1  0.22101000  0.70145000  0.54352000  1.0 0.1100735623
H  H199  1  0.77899000  0.48044000  0.45648000  1.0 0.1100735623
H  H200  1  0.29855000  0.77899000  0.45648000  1.0 0.1100735623
H  H201  1  0.51956000  0.29855000  0.45648000  1.0 0.1100735623
H  H202  1  0.22101000  0.51956000  0.45648000  1.0 0.1100735623
H  H203  1  0.70145000  0.22101000  0.45648000  1.0 0.1100735623
H  H204  1  0.48044000  0.70145000  0.45648000  1.0 0.1100735623
H  H205  1  0.48044000  0.77899000  0.45648000  1.0 0.1100735623
H  H206  1  0.70145000  0.48044000  0.45648000  1.0 0.1100735623
H  H207  1  0.22101000  0.70145000  0.45648000  1.0 0.1100735623
H  H208  1  0.51956000  0.22101000  0.45648000  1.0 0.1100735623
H  H209  1  0.29855000  0.51956000  0.45648000  1.0 0.1100735623
H  H210  1  0.77899000  0.29855000  0.45648000  1.0 0.1100735623
H  H211  1  0.22101000  0.51956000  0.54352000  1.0 0.1100735623
H  H212  1  0.70145000  0.22101000  0.54352000  1.0 0.1100735623
H  H213  1  0.48044000  0.70145000  0.54352000  1.0 0.1100735623
H  H214  1  0.77899000  0.48044000  0.54352000  1.0 0.1100735623
H  H215  1  0.29855000  0.77899000  0.54352000  1.0 0.1100735623
H  H216  1  0.51956000  0.29855000  0.54352000  1.0 0.1100735623
H  H217  1  0.51572000  0.22252000  0.42615000  1.0 0.1012190004
H  H218  1  0.29320000  0.51572000  0.42615000  1.0 0.1012190004
H  H219  1  0.77748000  0.29320000  0.42615000  1.0 0.1012190004
H  H220  1  0.48428000  0.77748000  0.42615000  1.0 0.1012190004
H  H221  1  0.70680000  0.48428000  0.42615000  1.0 0.1012190004
H  H222  1  0.22252000  0.70680000  0.42615000  1.0 0.1012190004
H  H223  1  0.77748000  0.48428000  0.57385000  1.0 0.1012190004
H  H224  1  0.29320000  0.77748000  0.57385000  1.0 0.1012190004
H  H225  1  0.51572000  0.29320000  0.57385000  1.0 0.1012190004
H  H226  1  0.22252000  0.51572000  0.57385000  1.0 0.1012190004
H  H227  1  0.70680000  0.22252000  0.57385000  1.0 0.1012190004
H  H228  1  0.48428000  0.70680000  0.57385000  1.0 0.1012190004
H  H229  1  0.48428000  0.77748000  0.57385000  1.0 0.1012190004
H  H230  1  0.70680000  0.48428000  0.57385000  1.0 0.1012190004
H  H231  1  0.22252000  0.70680000  0.57385000  1.0 0.1012190004
H  H232  1  0.51572000  0.22252000  0.57385000  1.0 0.1012190004
H  H233  1  0.29320000  0.51572000  0.57385000  1.0 0.1012190004
H  H234  1  0.77748000  0.29320000  0.57385000  1.0 0.1012190004
H  H235  1  0.22252000  0.51572000  0.42615000  1.0 0.1012190004
H  H236  1  0.70680000  0.22252000  0.42615000  1.0 0.1012190004
H  H237  1  0.48428000  0.70680000  0.42615000  1.0 0.1012190004
H  H238  1  0.77748000  0.48428000  0.42615000  1.0 0.1012190004
H  H239  1  0.29320000  0.77748000  0.42615000  1.0 0.1012190004
H  H240  1  0.51572000  0.29320000  0.42615000  1.0 0.1012190004
C  C1  1  0.49201000  0.40079000  0.11051000  1.0 0.6407190904
C  C2  1  0.09122000  0.49201000  0.11051000  1.0 0.6407190904
C  C3  1  0.59921000  0.09122000  0.11051000  1.0 0.6407190904
C  C4  1  0.50799000  0.59921000  0.11051000  1.0 0.6407190904
C  C5  1  0.90878000  0.50799000  0.11051000  1.0 0.6407190904
C  C6  1  0.40079000  0.90878000  0.11051000  1.0 0.6407190904
C  C7  1  0.59921000  0.50799000  0.88949000  1.0 0.6407190904
C  C8  1  0.09122000  0.59921000  0.88949000  1.0 0.6407190904
C  C9  1  0.49201000  0.09122000  0.88949000  1.0 0.6407190904
C  C10  1  0.40079000  0.49201000  0.88949000  1.0 0.6407190904
C  C11  1  0.90878000  0.40079000  0.88949000  1.0 0.6407190904
C  C12  1  0.50799000  0.90878000  0.88949000  1.0 0.6407190904
C  C13  1  0.50799000  0.59921000  0.88949000  1.0 0.6407190904
C  C14  1  0.90878000  0.50799000  0.88949000  1.0 0.6407190904
C  C15  1  0.40079000  0.90878000  0.88949000  1.0 0.6407190904
C  C16  1  0.49201000  0.40079000  0.88949000  1.0 0.6407190904
C  C17  1  0.09122000  0.49201000  0.88949000  1.0 0.6407190904
C  C18  1  0.59921000  0.09122000  0.88949000  1.0 0.6407190904
C  C19  1  0.40079000  0.49201000  0.11051000  1.0 0.6407190904
C  C20  1  0.90878000  0.40079000  0.11051000  1.0 0.6407190904
C  C21  1  0.50799000  0.90878000  0.11051000  1.0 0.6407190904
C  C22  1  0.59921000  0.50799000  0.11051000  1.0 0.6407190904
C  C23  1  0.09122000  0.59921000  0.11051000  1.0 0.6407190904
C  C24  1  0.49201000  0.09122000  0.11051000  1.0 0.6407190904
C  C25  1  0.48814000  0.36664000  0.14645000  1.0 -0.0586703409
C  C26  1  0.12150000  0.48814000  0.14645000  1.0 -0.0586703409
C  C27  1  0.63336000  0.12150000  0.14645000  1.0 -0.0586703409
C  C28  1  0.51186000  0.63336000  0.14645000  1.0 -0.0586703409
C  C29  1  0.87850000  0.51186000  0.14645000  1.0 -0.0586703409
C  C30  1  0.36664000  0.87850000  0.14645000  1.0 -0.0586703409
C  C31  1  0.63336000  0.51186000  0.85355000  1.0 -0.0586703409
C  C32  1  0.12150000  0.63336000  0.85355000  1.0 -0.0586703409
C  C33  1  0.48814000  0.12150000  0.85355000  1.0 -0.0586703409
C  C34  1  0.36664000  0.48814000  0.85355000  1.0 -0.0586703409
C  C35  1  0.87850000  0.36664000  0.85355000  1.0 -0.0586703409
C  C36  1  0.51186000  0.87850000  0.85355000  1.0 -0.0586703409
C  C37  1  0.51186000  0.63336000  0.85355000  1.0 -0.0586703409
C  C38  1  0.87850000  0.51186000  0.85355000  1.0 -0.0586703409
C  C39  1  0.36664000  0.87850000  0.85355000  1.0 -0.0586703409
C  C40  1  0.48814000  0.36664000  0.85355000  1.0 -0.0586703409
C  C41  1  0.12150000  0.48814000  0.85355000  1.0 -0.0586703409
C  C42  1  0.63336000  0.12150000  0.85355000  1.0 -0.0586703409
C  C43  1  0.36664000  0.48814000  0.14645000  1.0 -0.0586703409
C  C44  1  0.87850000  0.36664000  0.14645000  1.0 -0.0586703409
C  C45  1  0.51186000  0.87850000  0.14645000  1.0 -0.0586703409
C  C46  1  0.63336000  0.51186000  0.14645000  1.0 -0.0586703409
C  C47  1  0.12150000  0.63336000  0.14645000  1.0 -0.0586703409
C  C48  1  0.48814000  0.12150000  0.14645000  1.0 -0.0586703409
C  C49  1  0.46078000  0.34823000  0.19320000  1.0 -0.0891229753
C  C50  1  0.11255000  0.46078000  0.19320000  1.0 -0.0891229753
C  C51  1  0.65177000  0.11255000  0.19320000  1.0 -0.0891229753
C  C52  1  0.53922000  0.65177000  0.19320000  1.0 -0.0891229753
C  C53  1  0.88745000  0.53922000  0.19320000  1.0 -0.0891229753
C  C54  1  0.34823000  0.88745000  0.19320000  1.0 -0.0891229753
C  C55  1  0.65177000  0.53922000  0.80680000  1.0 -0.0891229753
C  C56  1  0.11255000  0.65177000  0.80680000  1.0 -0.0891229753
C  C57  1  0.46078000  0.11255000  0.80680000  1.0 -0.0891229753
C  C58  1  0.34823000  0.46078000  0.80680000  1.0 -0.0891229753
C  C59  1  0.88745000  0.34823000  0.80680000  1.0 -0.0891229753
C  C60  1  0.53922000  0.88745000  0.80680000  1.0 -0.0891229753
C  C61  1  0.53922000  0.65177000  0.80680000  1.0 -0.0891229753
C  C62  1  0.88745000  0.53922000  0.80680000  1.0 -0.0891229753
C  C63  1  0.34823000  0.88745000  0.80680000  1.0 -0.0891229753
C  C64  1  0.46078000  0.34823000  0.80680000  1.0 -0.0891229753
C  C65  1  0.11255000  0.46078000  0.80680000  1.0 -0.0891229753
C  C66  1  0.65177000  0.11255000  0.80680000  1.0 -0.0891229753
C  C67  1  0.34823000  0.46078000  0.19320000  1.0 -0.0891229753
C  C68  1  0.88745000  0.34823000  0.19320000  1.0 -0.0891229753
C  C69  1  0.53922000  0.88745000  0.19320000  1.0 -0.0891229753
C  C70  1  0.65177000  0.53922000  0.19320000  1.0 -0.0891229753
C  C71  1  0.11255000  0.65177000  0.19320000  1.0 -0.0891229753
C  C72  1  0.46078000  0.11255000  0.19320000  1.0 -0.0891229753
C  C73  1  0.45798000  0.31649000  0.22680000  1.0 -0.1524488558
C  C74  1  0.14149000  0.45798000  0.22680000  1.0 -0.1524488558
C  C75  1  0.68351000  0.14149000  0.22680000  1.0 -0.1524488558
C  C76  1  0.54202000  0.68351000  0.22680000  1.0 -0.1524488558
C  C77  1  0.85851000  0.54202000  0.22680000  1.0 -0.1524488558
C  C78  1  0.31649000  0.85851000  0.22680000  1.0 -0.1524488558
C  C79  1  0.68351000  0.54202000  0.77320000  1.0 -0.1524488558
C  C80  1  0.14149000  0.68351000  0.77320000  1.0 -0.1524488558
C  C81  1  0.45798000  0.14149000  0.77320000  1.0 -0.1524488558
C  C82  1  0.31649000  0.45798000  0.77320000  1.0 -0.1524488558
C  C83  1  0.85851000  0.31649000  0.77320000  1.0 -0.1524488558
C  C84  1  0.54202000  0.85851000  0.77320000  1.0 -0.1524488558
C  C85  1  0.54202000  0.68351000  0.77320000  1.0 -0.1524488558
C  C86  1  0.85851000  0.54202000  0.77320000  1.0 -0.1524488558
C  C87  1  0.31649000  0.85851000  0.77320000  1.0 -0.1524488558
C  C88  1  0.45798000  0.31649000  0.77320000  1.0 -0.1524488558
C  C89  1  0.14149000  0.45798000  0.77320000  1.0 -0.1524488558
C  C90  1  0.68351000  0.14149000  0.77320000  1.0 -0.1524488558
C  C91  1  0.31649000  0.45798000  0.22680000  1.0 -0.1524488558
C  C92  1  0.85851000  0.31649000  0.22680000  1.0 -0.1524488558
C  C93  1  0.54202000  0.85851000  0.22680000  1.0 -0.1524488558
C  C94  1  0.68351000  0.54202000  0.22680000  1.0 -0.1524488558
C  C95  1  0.14149000  0.68351000  0.22680000  1.0 -0.1524488558
C  C96  1  0.45798000  0.14149000  0.22680000  1.0 -0.1524488558
C  C97  1  0.48273000  0.30336000  0.21200000  1.0 0.0858794374
C  C98  1  0.17937000  0.48273000  0.21200000  1.0 0.0858794374
C  C99  1  0.69664000  0.17937000  0.21200000  1.0 0.0858794374
C  C100  1  0.51727000  0.69664000  0.21200000  1.0 0.0858794374
C  C101  1  0.82063000  0.51727000  0.21200000  1.0 0.0858794374
C  C102  1  0.30336000  0.82063000  0.21200000  1.0 0.0858794374
C  C103  1  0.69664000  0.51727000  0.78800000  1.0 0.0858794374
C  C104  1  0.17937000  0.69664000  0.78800000  1.0 0.0858794374
C  C105  1  0.48273000  0.17937000  0.78800000  1.0 0.0858794374
C  C106  1  0.30336000  0.48273000  0.78800000  1.0 0.0858794374
C  C107  1  0.82063000  0.30336000  0.78800000  1.0 0.0858794374
C  C108  1  0.51727000  0.82063000  0.78800000  1.0 0.0858794374
C  C109  1  0.51727000  0.69664000  0.78800000  1.0 0.0858794374
C  C110  1  0.82063000  0.51727000  0.78800000  1.0 0.0858794374
C  C111  1  0.30336000  0.82063000  0.78800000  1.0 0.0858794374
C  C112  1  0.48273000  0.30336000  0.78800000  1.0 0.0858794374
C  C113  1  0.17937000  0.48273000  0.78800000  1.0 0.0858794374
C  C114  1  0.69664000  0.17937000  0.78800000  1.0 0.0858794374
C  C115  1  0.30336000  0.48273000  0.21200000  1.0 0.0858794374
C  C116  1  0.82063000  0.30336000  0.21200000  1.0 0.0858794374
C  C117  1  0.51727000  0.82063000  0.21200000  1.0 0.0858794374
C  C118  1  0.69664000  0.51727000  0.21200000  1.0 0.0858794374
C  C119  1  0.17937000  0.69664000  0.21200000  1.0 0.0858794374
C  C120  1  0.48273000  0.17937000  0.21200000  1.0 0.0858794374
C  C121  1  0.51120000  0.32314000  0.16410000  1.0 -0.1524488558
C  C122  1  0.18806000  0.51120000  0.16410000  1.0 -0.1524488558
C  C123  1  0.67686000  0.18806000  0.16410000  1.0 -0.1524488558
C  C124  1  0.48880000  0.67686000  0.16410000  1.0 -0.1524488558
C  C125  1  0.81194000  0.48880000  0.16410000  1.0 -0.1524488558
C  C126  1  0.32314000  0.81194000  0.16410000  1.0 -0.1524488558
C  C127  1  0.67686000  0.48880000  0.83590000  1.0 -0.1524488558
C  C128  1  0.18806000  0.67686000  0.83590000  1.0 -0.1524488558
C  C129  1  0.51120000  0.18806000  0.83590000  1.0 -0.1524488558
C  C130  1  0.32314000  0.51120000  0.83590000  1.0 -0.1524488558
C  C131  1  0.81194000  0.32314000  0.83590000  1.0 -0.1524488558
C  C132  1  0.48880000  0.81194000  0.83590000  1.0 -0.1524488558
C  C133  1  0.48880000  0.67686000  0.83590000  1.0 -0.1524488558
C  C134  1  0.81194000  0.48880000  0.83590000  1.0 -0.1524488558
C  C135  1  0.32314000  0.81194000  0.83590000  1.0 -0.1524488558
C  C136  1  0.51120000  0.32314000  0.83590000  1.0 -0.1524488558
C  C137  1  0.18806000  0.51120000  0.83590000  1.0 -0.1524488558
C  C138  1  0.67686000  0.18806000  0.83590000  1.0 -0.1524488558
C  C139  1  0.32314000  0.51120000  0.16410000  1.0 -0.1524488558
C  C140  1  0.81194000  0.32314000  0.16410000  1.0 -0.1524488558
C  C141  1  0.48880000  0.81194000  0.16410000  1.0 -0.1524488558
C  C142  1  0.67686000  0.48880000  0.16410000  1.0 -0.1524488558
C  C143  1  0.18806000  0.67686000  0.16410000  1.0 -0.1524488558
C  C144  1  0.51120000  0.18806000  0.16410000  1.0 -0.1524488558
C  C145  1  0.51441000  0.35478000  0.13120000  1.0 -0.0891229753
C  C146  1  0.15963000  0.51441000  0.13120000  1.0 -0.0891229753
C  C147  1  0.64522000  0.15963000  0.13120000  1.0 -0.0891229753
C  C148  1  0.48559000  0.64522000  0.13120000  1.0 -0.0891229753
C  C149  1  0.84037000  0.48559000  0.13120000  1.0 -0.0891229753
C  C150  1  0.35478000  0.84037000  0.13120000  1.0 -0.0891229753
C  C151  1  0.64522000  0.48559000  0.86880000  1.0 -0.0891229753
C  C152  1  0.15963000  0.64522000  0.86880000  1.0 -0.0891229753
C  C153  1  0.51441000  0.15963000  0.86880000  1.0 -0.0891229753
C  C154  1  0.35478000  0.51441000  0.86880000  1.0 -0.0891229753
C  C155  1  0.84037000  0.35478000  0.86880000  1.0 -0.0891229753
C  C156  1  0.48559000  0.84037000  0.86880000  1.0 -0.0891229753
C  C157  1  0.48559000  0.64522000  0.86880000  1.0 -0.0891229753
C  C158  1  0.84037000  0.48559000  0.86880000  1.0 -0.0891229753
C  C159  1  0.35478000  0.84037000  0.86880000  1.0 -0.0891229753
C  C160  1  0.51441000  0.35478000  0.86880000  1.0 -0.0891229753
C  C161  1  0.15963000  0.51441000  0.86880000  1.0 -0.0891229753
C  C162  1  0.64522000  0.15963000  0.86880000  1.0 -0.0891229753
C  C163  1  0.35478000  0.51441000  0.13120000  1.0 -0.0891229753
C  C164  1  0.84037000  0.35478000  0.13120000  1.0 -0.0891229753
C  C165  1  0.48559000  0.84037000  0.13120000  1.0 -0.0891229753
C  C166  1  0.64522000  0.48559000  0.13120000  1.0 -0.0891229753
C  C167  1  0.15963000  0.64522000  0.13120000  1.0 -0.0891229753
C  C168  1  0.51441000  0.15963000  0.13120000  1.0 -0.0891229753
C  C169  1  0.48050000  0.27035000  0.24774000  1.0 -0.1593521392
C  C170  1  0.21015000  0.48050000  0.24774000  1.0 -0.1593521392
C  C171  1  0.72965000  0.21015000  0.24774000  1.0 -0.1593521392
C  C172  1  0.51950000  0.72965000  0.24774000  1.0 -0.1593521392
C  C173  1  0.78985000  0.51950000  0.24774000  1.0 -0.1593521392
C  C174  1  0.27035000  0.78985000  0.24774000  1.0 -0.1593521392
C  C175  1  0.72965000  0.51950000  0.75226000  1.0 -0.1593521392
C  C176  1  0.21015000  0.72965000  0.75226000  1.0 -0.1593521392
C  C177  1  0.48050000  0.21015000  0.75226000  1.0 -0.1593521392
C  C178  1  0.27035000  0.48050000  0.75226000  1.0 -0.1593521392
C  C179  1  0.78985000  0.27035000  0.75226000  1.0 -0.1593521392
C  C180  1  0.51950000  0.78985000  0.75226000  1.0 -0.1593521392
C  C181  1  0.51950000  0.72965000  0.75226000  1.0 -0.1593521392
C  C182  1  0.78985000  0.51950000  0.75226000  1.0 -0.1593521392
C  C183  1  0.27035000  0.78985000  0.75226000  1.0 -0.1593521392
C  C184  1  0.48050000  0.27035000  0.75226000  1.0 -0.1593521392
C  C185  1  0.21015000  0.48050000  0.75226000  1.0 -0.1593521392
C  C186  1  0.72965000  0.21015000  0.75226000  1.0 -0.1593521392
C  C187  1  0.27035000  0.48050000  0.24774000  1.0 -0.1593521392
C  C188  1  0.78985000  0.27035000  0.24774000  1.0 -0.1593521392
C  C189  1  0.51950000  0.78985000  0.24774000  1.0 -0.1593521392
C  C190  1  0.72965000  0.51950000  0.24774000  1.0 -0.1593521392
C  C191  1  0.21015000  0.72965000  0.24774000  1.0 -0.1593521392
C  C192  1  0.48050000  0.21015000  0.24774000  1.0 -0.1593521392
C  C193  1  0.47850000  0.26848000  0.31660000  1.0 -0.1051047872
C  C194  1  0.21002000  0.47850000  0.31660000  1.0 -0.1051047872
C  C195  1  0.73152000  0.21002000  0.31660000  1.0 -0.1051047872
C  C196  1  0.52150000  0.73152000  0.31660000  1.0 -0.1051047872
C  C197  1  0.78998000  0.52150000  0.31660000  1.0 -0.1051047872
C  C198  1  0.26848000  0.78998000  0.31660000  1.0 -0.1051047872
C  C199  1  0.73152000  0.52150000  0.68340000  1.0 -0.1042050137
C  C200  1  0.21002000  0.73152000  0.68340000  1.0 -0.1051047872
C  C201  1  0.47850000  0.21002000  0.68340000  1.0 -0.1051047872
C  C202  1  0.26848000  0.47850000  0.68340000  1.0 -0.1051047872
C  C203  1  0.78998000  0.26848000  0.68340000  1.0 -0.1042050137
C  C204  1  0.52150000  0.78998000  0.68340000  1.0 -0.1051047872
C  C205  1  0.52150000  0.73152000  0.68340000  1.0 -0.1042050137
C  C206  1  0.78998000  0.52150000  0.68340000  1.0 -0.1042050137
C  C207  1  0.26848000  0.78998000  0.68340000  1.0 -0.1051047872
C  C208  1  0.47850000  0.26848000  0.68340000  1.0 -0.1042050137
C  C209  1  0.21002000  0.47850000  0.68340000  1.0 -0.1051047872
C  C210  1  0.73152000  0.21002000  0.68340000  1.0 -0.1042050137
C  C211  1  0.26848000  0.47850000  0.31660000  1.0 -0.1051047872
C  C212  1  0.78998000  0.26848000  0.31660000  1.0 -0.1042050137
C  C213  1  0.52150000  0.78998000  0.31660000  1.0 -0.1042050137
C  C214  1  0.73152000  0.52150000  0.31660000  1.0 -0.1042050137
C  C215  1  0.21002000  0.73152000  0.31660000  1.0 -0.1051047872
C  C216  1  0.47850000  0.21002000  0.31660000  1.0 -0.1051047872
C  C217  1  0.47920000  0.23962000  0.35290000  1.0 -0.0101125253
C  C218  1  0.23958000  0.47920000  0.35290000  1.0 -0.0101125253
C  C219  1  0.76038000  0.23958000  0.35290000  1.0 -0.0101125253
C  C220  1  0.52080000  0.76038000  0.35290000  1.0 -0.0101125253
C  C221  1  0.76042000  0.52080000  0.35290000  1.0 -0.0101125253
C  C222  1  0.23962000  0.76042000  0.35290000  1.0 -0.0101125253
C  C223  1  0.76038000  0.52080000  0.64710000  1.0 -0.0101125253
C  C224  1  0.23958000  0.76038000  0.64710000  1.0 -0.0101125253
C  C225  1  0.47920000  0.23958000  0.64710000  1.0 -0.0101125253
C  C226  1  0.23962000  0.47920000  0.64710000  1.0 -0.0101125253
C  C227  1  0.76042000  0.23962000  0.64710000  1.0 -0.0101125253
C  C228  1  0.52080000  0.76042000  0.64710000  1.0 -0.0101125253
C  C229  1  0.48170000  0.24085000  0.21350000  1.0 0.1383340006
C  C230  1  0.24085000  0.48170000  0.21350000  1.0 0.1383340006
C  C231  1  0.75915000  0.24085000  0.21350000  1.0 0.1383340006
C  C232  1  0.51830000  0.75915000  0.21350000  1.0 0.1383340006
C  C233  1  0.75915000  0.51830000  0.21350000  1.0 0.1383340006
C  C234  1  0.24085000  0.75915000  0.21350000  1.0 0.1383340006
C  C235  1  0.75915000  0.51830000  0.78650000  1.0 0.1383340006
C  C236  1  0.24085000  0.75915000  0.78650000  1.0 0.1383340006
C  C237  1  0.48170000  0.24085000  0.78650000  1.0 0.1383340006
C  C238  1  0.24085000  0.48170000  0.78650000  1.0 0.1383340006
C  C239  1  0.75915000  0.24085000  0.78650000  1.0 0.1383340006
C  C240  1  0.51830000  0.75915000  0.78650000  1.0 0.1383340006
C  C241  1  0.50030000  0.27540000  0.46540000  1.0 0.0057273437
C  C242  1  0.22490000  0.50030000  0.46540000  1.0 0.0057273437
C  C243  1  0.72460000  0.22490000  0.46540000  1.0 0.0057273437
C  C244  1  0.49970000  0.72460000  0.46540000  1.0 0.0057273437
C  C245  1  0.77510000  0.49970000  0.46540000  1.0 0.0057273437
C  C246  1  0.27540000  0.77510000  0.46540000  1.0 0.0057273437
C  C247  1  0.72460000  0.49970000  0.53460000  1.0 0.0057273437
C  C248  1  0.22490000  0.72460000  0.53460000  1.0 0.0057273437
C  C249  1  0.50030000  0.22490000  0.53460000  1.0 0.0057273437
C  C250  1  0.27540000  0.50030000  0.53460000  1.0 0.0057273437
C  C251  1  0.77510000  0.27540000  0.53460000  1.0 0.0057273437
C  C252  1  0.49970000  0.77510000  0.53460000  1.0 0.0057273437
C  C253  1  0.49970000  0.72460000  0.53460000  1.0 0.0057273437
C  C254  1  0.77510000  0.49970000  0.53460000  1.0 0.0057273437
C  C255  1  0.27540000  0.77510000  0.53460000  1.0 0.0057273437
C  C256  1  0.50030000  0.27540000  0.53460000  1.0 0.0057273437
C  C257  1  0.22490000  0.50030000  0.53460000  1.0 0.0057273437
C  C258  1  0.72460000  0.22490000  0.53460000  1.0 0.0057273437
C  C259  1  0.27540000  0.50030000  0.46540000  1.0 0.0057273437
C  C260  1  0.77510000  0.27540000  0.46540000  1.0 0.0057273437
C  C261  1  0.49970000  0.77510000  0.46540000  1.0 0.0057273437
C  C262  1  0.72460000  0.49970000  0.46540000  1.0 0.0057273437
C  C263  1  0.22490000  0.72460000  0.46540000  1.0 0.0057273437
C  C264  1  0.50030000  0.22490000  0.46540000  1.0 0.0057273437
C  C265  1  0.49700000  0.27240000  0.53510000  1.0 -0.0029855081
C  C266  1  0.22460000  0.49700000  0.53510000  1.0 -0.0029855081
C  C267  1  0.72760000  0.22460000  0.53510000  1.0 -0.0029855081
C  C268  1  0.50300000  0.72760000  0.53510000  1.0 -0.0029855081
C  C269  1  0.77540000  0.50300000  0.53510000  1.0 -0.0029855081
C  C270  1  0.27240000  0.77540000  0.53510000  1.0 -0.0029855081
C  C271  1  0.72760000  0.50300000  0.46490000  1.0 -0.0029855081
C  C272  1  0.22460000  0.72760000  0.46490000  1.0 -0.0029855081
C  C273  1  0.49700000  0.22460000  0.46490000  1.0 -0.0029855081
C  C274  1  0.27240000  0.49700000  0.46490000  1.0 -0.0029855081
C  C275  1  0.77540000  0.27240000  0.46490000  1.0 -0.0029855081
C  C276  1  0.50300000  0.77540000  0.46490000  1.0 -0.0029855081
C  C277  1  0.50300000  0.72760000  0.46490000  1.0 -0.0029855081
C  C278  1  0.77540000  0.50300000  0.46490000  1.0 -0.0029855081
C  C279  1  0.27240000  0.77540000  0.46490000  1.0 -0.0029855081
C  C280  1  0.49700000  0.27240000  0.46490000  1.0 -0.0029855081
C  C281  1  0.22460000  0.49700000  0.46490000  1.0 -0.0029855081
C  C282  1  0.72760000  0.22460000  0.46490000  1.0 -0.0029855081
C  C283  1  0.27240000  0.49700000  0.53510000  1.0 -0.0029855081
C  C284  1  0.77540000  0.27240000  0.53510000  1.0 -0.0029855081
C  C285  1  0.50300000  0.77540000  0.53510000  1.0 -0.0029855081
C  C286  1  0.72760000  0.50300000  0.53510000  1.0 -0.0029855081
C  C287  1  0.22460000  0.72760000  0.53510000  1.0 -0.0029855081
C  C288  1  0.49700000  0.22460000  0.53510000  1.0 -0.0029855081
C  C289  1  0.45380000  0.20470000  0.52510000  1.0 0.018439008
C  C290  1  0.24910000  0.45380000  0.52510000  1.0 0.018439008
C  C291  1  0.79530000  0.24910000  0.52510000  1.0 0.018439008
C  C292  1  0.54620000  0.79530000  0.52510000  1.0 0.018439008
C  C293  1  0.75090000  0.54620000  0.52510000  1.0 0.018439008
C  C294  1  0.20470000  0.75090000  0.52510000  1.0 0.018439008
C  C295  1  0.79530000  0.54620000  0.47490000  1.0 0.018439008
C  C296  1  0.24910000  0.79530000  0.47490000  1.0 0.018439008
C  C297  1  0.45380000  0.24910000  0.47490000  1.0 0.018439008
C  C298  1  0.20470000  0.45380000  0.47490000  1.0 0.018439008
C  C299  1  0.75090000  0.20470000  0.47490000  1.0 0.018439008
C  C300  1  0.54620000  0.75090000  0.47490000  1.0 0.018439008
C  C301  1  0.54620000  0.79530000  0.47490000  1.0 0.018439008
C  C302  1  0.75090000  0.54620000  0.47490000  1.0 0.018439008
C  C303  1  0.20470000  0.75090000  0.47490000  1.0 0.018439008
C  C304  1  0.45380000  0.20470000  0.47490000  1.0 0.018439008
C  C305  1  0.24910000  0.45380000  0.47490000  1.0 0.018439008
C  C306  1  0.79530000  0.24910000  0.47490000  1.0 0.018439008
C  C307  1  0.20470000  0.45380000  0.52510000  1.0 0.018439008
C  C308  1  0.75090000  0.20470000  0.52510000  1.0 0.018439008
C  C309  1  0.54620000  0.75090000  0.52510000  1.0 0.018439008
C  C310  1  0.79530000  0.54620000  0.52510000  1.0 0.018439008
C  C311  1  0.24910000  0.79530000  0.52510000  1.0 0.018439008
C  C312  1  0.45380000  0.24910000  0.52510000  1.0 0.018439008
C  C313  1  0.45710000  0.20770000  0.45540000  1.0 0.0283337135
C  C314  1  0.24940000  0.45710000  0.45540000  1.0 0.0283337135
C  C315  1  0.79230000  0.24940000  0.45540000  1.0 0.0283337135
C  C316  1  0.54290000  0.79230000  0.45540000  1.0 0.0283337135
C  C317  1  0.75060000  0.54290000  0.45540000  1.0 0.0283337135
C  C318  1  0.20770000  0.75060000  0.45540000  1.0 0.0283337135
C  C319  1  0.79230000  0.54290000  0.54460000  1.0 0.0283337135
C  C320  1  0.24940000  0.79230000  0.54460000  1.0 0.0283337135
C  C321  1  0.45710000  0.24940000  0.54460000  1.0 0.0283337135
C  C322  1  0.20770000  0.45710000  0.54460000  1.0 0.0283337135
C  C323  1  0.75060000  0.20770000  0.54460000  1.0 0.0283337135
C  C324  1  0.54290000  0.75060000  0.54460000  1.0 0.0283337135
C  C325  1  0.54290000  0.79230000  0.54460000  1.0 0.0283337135
C  C326  1  0.75060000  0.54290000  0.54460000  1.0 0.0283337135
C  C327  1  0.20770000  0.75060000  0.54460000  1.0 0.0283337135
C  C328  1  0.45710000  0.20770000  0.54460000  1.0 0.0283337135
C  C329  1  0.24940000  0.45710000  0.54460000  1.0 0.0283337135
C  C330  1  0.79230000  0.24940000  0.54460000  1.0 0.0283337135
C  C331  1  0.20770000  0.45710000  0.45540000  1.0 0.0283337135
C  C332  1  0.75060000  0.20770000  0.45540000  1.0 0.0283337135
C  C333  1  0.54290000  0.75060000  0.45540000  1.0 0.0283337135
C  C334  1  0.79230000  0.54290000  0.45540000  1.0 0.0283337135
C  C335  1  0.24940000  0.79230000  0.45540000  1.0 0.0283337135
C  C336  1  0.45710000  0.24940000  0.45540000  1.0 0.0283337135
C  C337  1  0.48080000  0.23810000  0.56290000  1.0 -0.0305460015
C  C338  1  0.24270000  0.48080000  0.56290000  1.0 -0.0305460015
C  C339  1  0.76190000  0.24270000  0.56290000  1.0 -0.0305460015
C  C340  1  0.51920000  0.76190000  0.56290000  1.0 -0.0305460015
C  C341  1  0.75730000  0.51920000  0.56290000  1.0 -0.0305460015
C  C342  1  0.23810000  0.75730000  0.56290000  1.0 -0.0305460015
C  C343  1  0.76190000  0.51920000  0.43710000  1.0 -0.0305460015
C  C344  1  0.24270000  0.76190000  0.43710000  1.0 -0.0305460015
C  C345  1  0.48080000  0.24270000  0.43710000  1.0 -0.0305460015
C  C346  1  0.23810000  0.48080000  0.43710000  1.0 -0.0305460015
C  C347  1  0.75730000  0.23810000  0.43710000  1.0 -0.0305460015
C  C348  1  0.51920000  0.75730000  0.43710000  1.0 -0.0305460015
C  C349  1  0.51920000  0.76190000  0.43710000  1.0 -0.0305460015
C  C350  1  0.75730000  0.51920000  0.43710000  1.0 -0.0305460015
C  C351  1  0.23810000  0.75730000  0.43710000  1.0 -0.0305460015
C  C352  1  0.48080000  0.23810000  0.43710000  1.0 -0.0305460015
C  C353  1  0.24270000  0.48080000  0.43710000  1.0 -0.0305460015
C  C354  1  0.76190000  0.24270000  0.43710000  1.0 -0.0305460015
C  C355  1  0.23810000  0.48080000  0.56290000  1.0 -0.0305460015
C  C356  1  0.75730000  0.23810000  0.56290000  1.0 -0.0305460015
C  C357  1  0.51920000  0.75730000  0.56290000  1.0 -0.0305460015
C  C358  1  0.76190000  0.51920000  0.56290000  1.0 -0.0305460015
C  C359  1  0.24270000  0.76190000  0.56290000  1.0 -0.0305460015
C  C360  1  0.48080000  0.24270000  0.56290000  1.0 -0.0305460015
C  C361  1  0.47620000  0.23990000  0.42350000  1.0 -0.0101125253
C  C362  1  0.23630000  0.47620000  0.42350000  1.0 -0.0101125253
C  C363  1  0.76010000  0.23630000  0.42350000  1.0 -0.0101125253
C  C364  1  0.52380000  0.76010000  0.42350000  1.0 -0.0101125253
C  C365  1  0.76370000  0.52380000  0.42350000  1.0 -0.0101125253
C  C366  1  0.23990000  0.76370000  0.42350000  1.0 -0.0101125253
C  C367  1  0.76010000  0.52380000  0.57650000  1.0 -0.0101125253
C  C368  1  0.23630000  0.76010000  0.57650000  1.0 -0.0101125253
C  C369  1  0.47620000  0.23630000  0.57650000  1.0 -0.0101125253
C  C370  1  0.23990000  0.47620000  0.57650000  1.0 -0.0101125253
C  C371  1  0.76370000  0.23990000  0.57650000  1.0 -0.0101125253
C  C372  1  0.52380000  0.76370000  0.57650000  1.0 -0.0101125253
C  C373  1  0.52380000  0.76010000  0.57650000  1.0 -0.0101125253
C  C374  1  0.76370000  0.52380000  0.57650000  1.0 -0.0101125253
C  C375  1  0.23990000  0.76370000  0.57650000  1.0 -0.0101125253
C  C376  1  0.47620000  0.23990000  0.57650000  1.0 -0.0101125253
C  C377  1  0.23630000  0.47620000  0.57650000  1.0 -0.0101125253
C  C378  1  0.76010000  0.23630000  0.57650000  1.0 -0.0101125253
C  C379  1  0.23990000  0.47620000  0.42350000  1.0 -0.0101125253
C  C380  1  0.76370000  0.23990000  0.42350000  1.0 -0.0101125253
C  C381  1  0.52380000  0.76370000  0.42350000  1.0 -0.0101125253
C  C382  1  0.76010000  0.52380000  0.42350000  1.0 -0.0101125253
C  C383  1  0.23630000  0.76010000  0.42350000  1.0 -0.0101125253
C  C384  1  0.47620000  0.23630000  0.42350000  1.0 -0.0101125253
C  C385  1  0.45410000  0.24970000  0.46340000  1.0 0.018439008
C  C386  1  0.20440000  0.45410000  0.46340000  1.0 0.018439008
C  C387  1  0.75030000  0.20440000  0.46340000  1.0 0.018439008
C  C388  1  0.54590000  0.75030000  0.46340000  1.0 0.018439008
C  C389  1  0.79560000  0.54590000  0.46340000  1.0 0.018439008
C  C390  1  0.24970000  0.79560000  0.46340000  1.0 0.018439008
C  C391  1  0.75030000  0.54590000  0.53660000  1.0 0.018439008
C  C392  1  0.20440000  0.75030000  0.53660000  1.0 0.018439008
C  C393  1  0.45410000  0.20440000  0.53660000  1.0 0.018439008
C  C394  1  0.24970000  0.45410000  0.53660000  1.0 0.018439008
C  C395  1  0.79560000  0.24970000  0.53660000  1.0 0.018439008
C  C396  1  0.54590000  0.79560000  0.53660000  1.0 0.018439008
C  C397  1  0.54590000  0.75030000  0.53660000  1.0 0.018439008
C  C398  1  0.79560000  0.54590000  0.53660000  1.0 0.018439008
C  C399  1  0.24970000  0.79560000  0.53660000  1.0 0.018439008
C  C400  1  0.45410000  0.24970000  0.53660000  1.0 0.018439008
C  C401  1  0.20440000  0.45410000  0.53660000  1.0 0.018439008
C  C402  1  0.75030000  0.20440000  0.53660000  1.0 0.018439008
C  C403  1  0.24970000  0.45410000  0.46340000  1.0 0.018439008
C  C404  1  0.79560000  0.24970000  0.46340000  1.0 0.018439008
C  C405  1  0.54590000  0.79560000  0.46340000  1.0 0.018439008
C  C406  1  0.75030000  0.54590000  0.46340000  1.0 0.018439008
C  C407  1  0.20440000  0.75030000  0.46340000  1.0 0.018439008
C  C408  1  0.45410000  0.20440000  0.46340000  1.0 0.018439008
C  C409  1  0.45640000  0.24880000  0.53310000  1.0 0.018439008
C  C410  1  0.20760000  0.45640000  0.53310000  1.0 0.018439008
C  C411  1  0.75120000  0.20760000  0.53310000  1.0 0.018439008
C  C412  1  0.54360000  0.75120000  0.53310000  1.0 0.018439008
C  C413  1  0.79240000  0.54360000  0.53310000  1.0 0.018439008
C  C414  1  0.24880000  0.79240000  0.53310000  1.0 0.018439008
C  C415  1  0.75120000  0.54360000  0.46690000  1.0 0.018439008
C  C416  1  0.20760000  0.75120000  0.46690000  1.0 0.018439008
C  C417  1  0.45640000  0.20760000  0.46690000  1.0 0.018439008
C  C418  1  0.24880000  0.45640000  0.46690000  1.0 0.018439008
C  C419  1  0.79240000  0.24880000  0.46690000  1.0 0.018439008
C  C420  1  0.54360000  0.79240000  0.46690000  1.0 0.018439008
C  C421  1  0.54360000  0.75120000  0.46690000  1.0 0.018439008
C  C422  1  0.79240000  0.54360000  0.46690000  1.0 0.018439008
C  C423  1  0.24880000  0.79240000  0.46690000  1.0 0.018439008
C  C424  1  0.45640000  0.24880000  0.46690000  1.0 0.018439008
C  C425  1  0.20760000  0.45640000  0.46690000  1.0 0.018439008
C  C426  1  0.75120000  0.20760000  0.46690000  1.0 0.018439008
C  C427  1  0.24880000  0.45640000  0.53310000  1.0 0.018439008
C  C428  1  0.79240000  0.24880000  0.53310000  1.0 0.018439008
C  C429  1  0.54360000  0.79240000  0.53310000  1.0 0.018439008
C  C430  1  0.75120000  0.54360000  0.53310000  1.0 0.018439008
C  C431  1  0.20760000  0.75120000  0.53310000  1.0 0.018439008
C  C432  1  0.45640000  0.20760000  0.53310000  1.0 0.018439008
C  C433  1  0.50290000  0.22830000  0.52310000  1.0 0.0015483682
C  C434  1  0.27460000  0.50290000  0.52310000  1.0 0.0015483682
C  C435  1  0.77170000  0.27460000  0.52310000  1.0 0.0015483682
C  C436  1  0.49710000  0.77170000  0.52310000  1.0 0.0015483682
C  C437  1  0.72540000  0.49710000  0.52310000  1.0 0.0015483682
C  C438  1  0.22830000  0.72540000  0.52310000  1.0 0.0015483682
C  C439  1  0.77170000  0.49710000  0.47690000  1.0 0.0015483682
C  C440  1  0.27460000  0.77170000  0.47690000  1.0 0.0015483682
C  C441  1  0.50290000  0.27460000  0.47690000  1.0 0.0015483682
C  C442  1  0.22830000  0.50290000  0.47690000  1.0 0.0015483682
C  C443  1  0.72540000  0.22830000  0.47690000  1.0 0.0015483682
C  C444  1  0.49710000  0.72540000  0.47690000  1.0 0.0015483682
C  C445  1  0.49710000  0.77170000  0.47690000  1.0 0.0015483682
C  C446  1  0.72540000  0.49710000  0.47690000  1.0 0.0015483682
C  C447  1  0.22830000  0.72540000  0.47690000  1.0 0.0015483682
C  C448  1  0.50290000  0.22830000  0.47690000  1.0 0.0015483682
C  C449  1  0.27460000  0.50290000  0.47690000  1.0 0.0015483682
C  C450  1  0.77170000  0.27460000  0.47690000  1.0 0.0015483682
C  C451  1  0.22830000  0.50290000  0.52310000  1.0 0.0015483682
C  C452  1  0.72540000  0.22830000  0.52310000  1.0 0.0015483682
C  C453  1  0.49710000  0.72540000  0.52310000  1.0 0.0015483682
C  C454  1  0.77170000  0.49710000  0.52310000  1.0 0.0015483682
C  C455  1  0.27460000  0.77170000  0.52310000  1.0 0.0015483682
C  C456  1  0.50290000  0.27460000  0.52310000  1.0 0.0015483682
C  C457  1  0.50060000  0.22920000  0.45340000  1.0 0.0283337135
C  C458  1  0.27140000  0.50060000  0.45340000  1.0 0.0283337135
C  C459  1  0.77080000  0.27140000  0.45340000  1.0 0.0283337135
C  C460  1  0.49940000  0.77080000  0.45340000  1.0 0.0283337135
C  C461  1  0.72860000  0.49940000  0.45340000  1.0 0.0283337135
C  C462  1  0.22920000  0.72860000  0.45340000  1.0 0.0283337135
C  C463  1  0.77080000  0.49940000  0.54660000  1.0 0.0283337135
C  C464  1  0.27140000  0.77080000  0.54660000  1.0 0.0283337135
C  C465  1  0.50060000  0.27140000  0.54660000  1.0 0.0283337135
C  C466  1  0.22920000  0.50060000  0.54660000  1.0 0.0283337135
C  C467  1  0.72860000  0.22920000  0.54660000  1.0 0.0283337135
C  C468  1  0.49940000  0.72860000  0.54660000  1.0 0.0283337135
C  C469  1  0.49940000  0.77080000  0.54660000  1.0 0.0283337135
C  C470  1  0.72860000  0.49940000  0.54660000  1.0 0.0283337135
C  C471  1  0.22920000  0.72860000  0.54660000  1.0 0.0283337135
C  C472  1  0.50060000  0.22920000  0.54660000  1.0 0.0283337135
C  C473  1  0.27140000  0.50060000  0.54660000  1.0 0.0283337135
C  C474  1  0.77080000  0.27140000  0.54660000  1.0 0.0283337135
C  C475  1  0.22920000  0.50060000  0.45340000  1.0 0.0283337135
C  C476  1  0.72860000  0.22920000  0.45340000  1.0 0.0283337135
C  C477  1  0.49940000  0.72860000  0.45340000  1.0 0.0283337135
C  C478  1  0.77080000  0.49940000  0.45340000  1.0 0.0283337135
C  C479  1  0.27140000  0.77080000  0.45340000  1.0 0.0283337135
C  C480  1  0.50060000  0.27140000  0.45340000  1.0 0.0283337135
C  C481  1  0.47370000  0.23710000  0.56490000  1.0 -0.0409527215
C  C482  1  0.23660000  0.47370000  0.56490000  1.0 -0.0409527215
C  C483  1  0.76290000  0.23660000  0.56490000  1.0 -0.0409527215
C  C484  1  0.52630000  0.76290000  0.56490000  1.0 -0.0409527215
C  C485  1  0.76340000  0.52630000  0.56490000  1.0 -0.0409527215
C  C486  1  0.23710000  0.76340000  0.56490000  1.0 -0.0409527215
C  C487  1  0.76290000  0.52630000  0.43510000  1.0 -0.0409527215
C  C488  1  0.23660000  0.76290000  0.43510000  1.0 -0.0409527215
C  C489  1  0.47370000  0.23660000  0.43510000  1.0 -0.0409527215
C  C490  1  0.23710000  0.47370000  0.43510000  1.0 -0.0409527215
C  C491  1  0.76340000  0.23710000  0.43510000  1.0 -0.0409527215
C  C492  1  0.52630000  0.76340000  0.43510000  1.0 -0.0409527215
C  C493  1  0.48040000  0.24300000  0.42560000  1.0 -0.0101125253
C  C494  1  0.23740000  0.48040000  0.42560000  1.0 -0.0101125253
C  C495  1  0.75700000  0.23740000  0.42560000  1.0 -0.0101125253
C  C496  1  0.51960000  0.75700000  0.42560000  1.0 -0.0101125253
C  C497  1  0.76260000  0.51960000  0.42560000  1.0 -0.0101125253
C  C498  1  0.24300000  0.76260000  0.42560000  1.0 -0.0101125253
C  C499  1  0.75700000  0.51960000  0.57440000  1.0 -0.0101125253
C  C500  1  0.23740000  0.75700000  0.57440000  1.0 -0.0101125253
C  C501  1  0.48040000  0.23740000  0.57440000  1.0 -0.0101125253
C  C502  1  0.24300000  0.48040000  0.57440000  1.0 -0.0101125253
C  C503  1  0.76260000  0.24300000  0.57440000  1.0 -0.0101125253
C  C504  1  0.51960000  0.76260000  0.57440000  1.0 -0.0101125253
C  C505  1  0.51960000  0.75700000  0.57440000  1.0 -0.0101125253
C  C506  1  0.76260000  0.51960000  0.57440000  1.0 -0.0101125253
C  C507  1  0.24300000  0.76260000  0.57440000  1.0 -0.0101125253
C  C508  1  0.48040000  0.24300000  0.57440000  1.0 -0.0101125253
C  C509  1  0.23740000  0.48040000  0.57440000  1.0 -0.0101125253
C  C510  1  0.75700000  0.23740000  0.57440000  1.0 -0.0101125253
C  C511  1  0.24300000  0.48040000  0.42560000  1.0 -0.0101125253
C  C512  1  0.76260000  0.24300000  0.42560000  1.0 -0.0101125253
C  C513  1  0.51960000  0.76260000  0.42560000  1.0 -0.0101125253
C  C514  1  0.75700000  0.51960000  0.42560000  1.0 -0.0101125253
C  C515  1  0.23740000  0.75700000  0.42560000  1.0 -0.0101125253
C  C516  1  0.48040000  0.23740000  0.42560000  1.0 -0.0101125253
S  S1  1  0.54670000  0.34170000  0.51370000  1.0 -0.0795450852
S  S2  1  0.20500000  0.54670000  0.51370000  1.0 -0.0795450852
S  S3  1  0.65830000  0.20500000  0.51370000  1.0 -0.0795450852
S  S4  1  0.45330000  0.65830000  0.51370000  1.0 -0.0795450852
S  S5  1  0.79500000  0.45330000  0.51370000  1.0 -0.0795450852
S  S6  1  0.34170000  0.79500000  0.51370000  1.0 -0.0795450852
S  S7  1  0.65830000  0.45330000  0.48630000  1.0 -0.0795450852
S  S8  1  0.20500000  0.65830000  0.48630000  1.0 -0.0795450852
S  S9  1  0.54670000  0.20500000  0.48630000  1.0 -0.0795450852
S  S10  1  0.34170000  0.54670000  0.48630000  1.0 -0.0795450852
S  S11  1  0.79500000  0.34170000  0.48630000  1.0 -0.0795450852
S  S12  1  0.45330000  0.79500000  0.48630000  1.0 -0.0795450852
S  S13  1  0.45330000  0.65830000  0.48630000  1.0 -0.0795450852
S  S14  1  0.79500000  0.45330000  0.48630000  1.0 -0.0795450852
S  S15  1  0.34170000  0.79500000  0.48630000  1.0 -0.0795450852
S  S16  1  0.54670000  0.34170000  0.48630000  1.0 -0.0795450852
S  S17  1  0.20500000  0.54670000  0.48630000  1.0 -0.0795450852
S  S18  1  0.65830000  0.20500000  0.48630000  1.0 -0.0795450852
S  S19  1  0.34170000  0.54670000  0.51370000  1.0 -0.0795450852
S  S20  1  0.79500000  0.34170000  0.51370000  1.0 -0.0795450852
S  S21  1  0.45330000  0.79500000  0.51370000  1.0 -0.0795450852
S  S22  1  0.65830000  0.45330000  0.51370000  1.0 -0.0795450852
S  S23  1  0.20500000  0.65830000  0.51370000  1.0 -0.0795450852
S  S24  1  0.54670000  0.20500000  0.51370000  1.0 -0.0795450852
S  S25  1  0.40750000  0.26960000  0.50910000  1.0 -0.0198371743
S  S26  1  0.13790000  0.40750000  0.50910000  1.0 -0.0198371743
S  S27  1  0.73040000  0.13790000  0.50910000  1.0 -0.0198371743
S  S28  1  0.59250000  0.73040000  0.50910000  1.0 -0.0198371743
S  S29  1  0.86210000  0.59250000  0.50910000  1.0 -0.0198371743
S  S30  1  0.26960000  0.86210000  0.50910000  1.0 -0.0198371743
S  S31  1  0.73040000  0.59250000  0.49090000  1.0 -0.0198371743
S  S32  1  0.13790000  0.73040000  0.49090000  1.0 -0.0198371743
S  S33  1  0.40750000  0.13790000  0.49090000  1.0 -0.0198371743
S  S34  1  0.26960000  0.40750000  0.49090000  1.0 -0.0198371743
S  S35  1  0.86210000  0.26960000  0.49090000  1.0 -0.0198371743
S  S36  1  0.59250000  0.86210000  0.49090000  1.0 -0.0198371743
S  S37  1  0.59250000  0.73040000  0.49090000  1.0 -0.0198371743
S  S38  1  0.86210000  0.59250000  0.49090000  1.0 -0.0198371743
S  S39  1  0.26960000  0.86210000  0.49090000  1.0 -0.0198371743
S  S40  1  0.40750000  0.26960000  0.49090000  1.0 -0.0198371743
S  S41  1  0.13790000  0.40750000  0.49090000  1.0 -0.0198371743
S  S42  1  0.73040000  0.13790000  0.49090000  1.0 -0.0198371743
S  S43  1  0.26960000  0.40750000  0.50910000  1.0 -0.0198371743
S  S44  1  0.86210000  0.26960000  0.50910000  1.0 -0.0198371743
S  S45  1  0.59250000  0.86210000  0.50910000  1.0 -0.0198371743
S  S46  1  0.73040000  0.59250000  0.50910000  1.0 -0.0198371743
S  S47  1  0.13790000  0.73040000  0.50910000  1.0 -0.0198371743
S  S48  1  0.40750000  0.13790000  0.50910000  1.0 -0.0198371743
N  N1  1  0.53190000  0.31830000  0.44800000  1.0 -0.1593521392
N  N2  1  0.21360000  0.53190000  0.44800000  1.0 -0.1593521392
N  N3  1  0.68170000  0.21360000  0.44800000  1.0 -0.1593521392
N  N4  1  0.46810000  0.68170000  0.44800000  1.0 -0.1593521392
N  N5  1  0.78640000  0.46810000  0.44800000  1.0 -0.1593521392
N  N6  1  0.31830000  0.78640000  0.44800000  1.0 -0.1593521392
N  N7  1  0.68170000  0.46810000  0.55200000  1.0 -0.1593521392
N  N8  1  0.21360000  0.68170000  0.55200000  1.0 -0.1593521392
N  N9  1  0.53190000  0.21360000  0.55200000  1.0 -0.1593521392
N  N10  1  0.31830000  0.53190000  0.55200000  1.0 -0.1593521392
N  N11  1  0.78640000  0.31830000  0.55200000  1.0 -0.1593521392
N  N12  1  0.46810000  0.78640000  0.55200000  1.0 -0.1593521392
N  N13  1  0.46810000  0.68170000  0.55200000  1.0 -0.1593521392
N  N14  1  0.78640000  0.46810000  0.55200000  1.0 -0.1593521392
N  N15  1  0.31830000  0.78640000  0.55200000  1.0 -0.1593521392
N  N16  1  0.53190000  0.31830000  0.55200000  1.0 -0.1593521392
N  N17  1  0.21360000  0.53190000  0.55200000  1.0 -0.1593521392
N  N18  1  0.68170000  0.21360000  0.55200000  1.0 -0.1593521392
N  N19  1  0.31830000  0.53190000  0.44800000  1.0 -0.1593521392
N  N20  1  0.78640000  0.31830000  0.44800000  1.0 -0.1593521392
N  N21  1  0.46810000  0.78640000  0.44800000  1.0 -0.1593521392
N  N22  1  0.68170000  0.46810000  0.44800000  1.0 -0.1593521392
N  N23  1  0.21360000  0.68170000  0.44800000  1.0 -0.1593521392
N  N24  1  0.53190000  0.21360000  0.44800000  1.0 -0.1593521392
N  N25  1  0.52550000  0.31220000  0.57130000  1.0 -0.0795450852
N  N26  1  0.21330000  0.52550000  0.57130000  1.0 -0.0891229753
N  N27  1  0.68780000  0.21330000  0.57130000  1.0 -0.0795450852
N  N28  1  0.47450000  0.68780000  0.57130000  1.0 -0.0891229753
N  N29  1  0.78670000  0.47450000  0.57130000  1.0 -0.0795450852
N  N30  1  0.31220000  0.78670000  0.57130000  1.0 -0.0795450852
N  N31  1  0.68780000  0.47450000  0.42870000  1.0 -0.0795450852
N  N32  1  0.21330000  0.68780000  0.42870000  1.0 -0.0891229753
N  N33  1  0.52550000  0.21330000  0.42870000  1.0 -0.0795450852
N  N34  1  0.31220000  0.52550000  0.42870000  1.0 -0.0891229753
N  N35  1  0.78670000  0.31220000  0.42870000  1.0 -0.0795450852
N  N36  1  0.47450000  0.78670000  0.42870000  1.0 -0.0891229753
N  N37  1  0.47450000  0.68780000  0.42870000  1.0 -0.0891229753
N  N38  1  0.78670000  0.47450000  0.42870000  1.0 -0.0795450852
N  N39  1  0.31220000  0.78670000  0.42870000  1.0 -0.0891229753
N  N40  1  0.52550000  0.31220000  0.42870000  1.0 -0.0795450852
N  N41  1  0.21330000  0.52550000  0.42870000  1.0 -0.0891229753
N  N42  1  0.68780000  0.21330000  0.42870000  1.0 -0.0795450852
N  N43  1  0.31220000  0.52550000  0.57130000  1.0 -0.0891229753
N  N44  1  0.78670000  0.31220000  0.57130000  1.0 -0.0795450852
N  N45  1  0.47450000  0.78670000  0.57130000  1.0 -0.0795450852
N  N46  1  0.68780000  0.47450000  0.57130000  1.0 -0.0795450852
N  N47  1  0.21330000  0.68780000  0.57130000  1.0 -0.0891229753
N  N48  1  0.52550000  0.21330000  0.57130000  1.0 -0.0795450852
N  N49  1  0.42380000  0.26260000  0.44430000  1.0 -0.2477138805
N  N50  1  0.16120000  0.42380000  0.44430000  1.0 -0.2477138805
N  N51  1  0.73740000  0.16120000  0.44430000  1.0 -0.2477138805
N  N52  1  0.57620000  0.73740000  0.44430000  1.0 -0.2477138805
N  N53  1  0.83880000  0.57620000  0.44430000  1.0 -0.2477138805
N  N54  1  0.26260000  0.83880000  0.44430000  1.0 -0.2477138805
N  N55  1  0.73740000  0.57620000  0.55570000  1.0 -0.2477138805
N  N56  1  0.16120000  0.73740000  0.55570000  1.0 -0.2477138805
N  N57  1  0.42380000  0.16120000  0.55570000  1.0 -0.2477138805
N  N58  1  0.26260000  0.42380000  0.55570000  1.0 -0.2477138805
N  N59  1  0.83880000  0.26260000  0.55570000  1.0 -0.2477138805
N  N60  1  0.57620000  0.83880000  0.55570000  1.0 -0.2477138805
N  N61  1  0.57620000  0.73740000  0.55570000  1.0 -0.2477138805
N  N62  1  0.83880000  0.57620000  0.55570000  1.0 -0.2477138805
N  N63  1  0.26260000  0.83880000  0.55570000  1.0 -0.2477138805
N  N64  1  0.42380000  0.26260000  0.55570000  1.0 -0.2477138805
N  N65  1  0.16120000  0.42380000  0.55570000  1.0 -0.2477138805
N  N66  1  0.73740000  0.16120000  0.55570000  1.0 -0.2477138805
N  N67  1  0.26260000  0.42380000  0.44430000  1.0 -0.2477138805
N  N68  1  0.83880000  0.26260000  0.44430000  1.0 -0.2477138805
N  N69  1  0.57620000  0.83880000  0.44430000  1.0 -0.2477138805
N  N70  1  0.73740000  0.57620000  0.44430000  1.0 -0.2477138805
N  N71  1  0.16120000  0.73740000  0.44430000  1.0 -0.2477138805
N  N72  1  0.42380000  0.16120000  0.44430000  1.0 -0.2477138805
N  N73  1  0.42630000  0.25860000  0.56660000  1.0 -0.2176070857
N  N74  1  0.16770000  0.42630000  0.56660000  1.0 -0.2176070857
N  N75  1  0.74140000  0.16770000  0.56660000  1.0 -0.2144304643
N  N76  1  0.57370000  0.74140000  0.56660000  1.0 -0.2176070857
N  N77  1  0.83230000  0.57370000  0.56660000  1.0 -0.2176070857
N  N78  1  0.25860000  0.83230000  0.56660000  1.0 -0.2176070857
N  N79  1  0.74140000  0.57370000  0.43340000  1.0 -0.2176070857
N  N80  1  0.16770000  0.74140000  0.43340000  1.0 -0.2176070857
N  N81  1  0.42630000  0.16770000  0.43340000  1.0 -0.2176070857
N  N82  1  0.25860000  0.42630000  0.43340000  1.0 -0.2176070857
N  N83  1  0.83230000  0.25860000  0.43340000  1.0 -0.2176070857
N  N84  1  0.57370000  0.83230000  0.43340000  1.0 -0.2176070857
N  N85  1  0.57370000  0.74140000  0.43340000  1.0 -0.2176070857
N  N86  1  0.83230000  0.57370000  0.43340000  1.0 -0.2176070857
N  N87  1  0.25860000  0.83230000  0.43340000  1.0 -0.2176070857
N  N88  1  0.42630000  0.25860000  0.43340000  1.0 -0.2176070857
N  N89  1  0.16770000  0.42630000  0.43340000  1.0 -0.2176070857
N  N90  1  0.74140000  0.16770000  0.43340000  1.0 -0.2176070857
N  N91  1  0.25860000  0.42630000  0.56660000  1.0 -0.2176070857
N  N92  1  0.83230000  0.25860000  0.56660000  1.0 -0.2144304643
N  N93  1  0.57370000  0.83230000  0.56660000  1.0 -0.2176070857
N  N94  1  0.74140000  0.57370000  0.56660000  1.0 -0.2176070857
N  N95  1  0.16770000  0.74140000  0.56660000  1.0 -0.2176070857
N  N96  1  0.42630000  0.16770000  0.56660000  1.0 -0.2176070857
O  O1  1  0.46751000  0.41061000  0.12519000  1.0 -0.6183355406
O  O2  1  0.05690000  0.46751000  0.12519000  1.0 -0.6183355406
O  O3  1  0.58939000  0.05690000  0.12519000  1.0 -0.6183355406
O  O4  1  0.53249000  0.58939000  0.12519000  1.0 -0.6183355406
O  O5  1  0.94310000  0.53249000  0.12519000  1.0 -0.6183355406
O  O6  1  0.41061000  0.94310000  0.12519000  1.0 -0.6183355406
O  O7  1  0.58939000  0.53249000  0.87481000  1.0 -0.6183355406
O  O8  1  0.05690000  0.58939000  0.87481000  1.0 -0.6183355406
O  O9  1  0.46751000  0.05690000  0.87481000  1.0 -0.6183355406
O  O10  1  0.41061000  0.46751000  0.87481000  1.0 -0.6183355406
O  O11  1  0.94310000  0.41061000  0.87481000  1.0 -0.6183355406
O  O12  1  0.53249000  0.94310000  0.87481000  1.0 -0.6183355406
O  O13  1  0.53249000  0.58939000  0.87481000  1.0 -0.6183355406
O  O14  1  0.94310000  0.53249000  0.87481000  1.0 -0.6183355406
O  O15  1  0.41061000  0.94310000  0.87481000  1.0 -0.6183355406
O  O16  1  0.46751000  0.41061000  0.87481000  1.0 -0.6183355406
O  O17  1  0.05690000  0.46751000  0.87481000  1.0 -0.6183355406
O  O18  1  0.58939000  0.05690000  0.87481000  1.0 -0.6183355406
O  O19  1  0.41061000  0.46751000  0.12519000  1.0 -0.6183355406
O  O20  1  0.94310000  0.41061000  0.12519000  1.0 -0.6183355406
O  O21  1  0.53249000  0.94310000  0.12519000  1.0 -0.6183355406
O  O22  1  0.58939000  0.53249000  0.12519000  1.0 -0.6183355406
O  O23  1  0.05690000  0.58939000  0.12519000  1.0 -0.6183355406
O  O24  1  0.46751000  0.05690000  0.12519000  1.0 -0.6183355406
O  O25  1  0.51796000  0.41607000  0.06678000  1.0 -0.5707560534
O  O26  1  0.10189000  0.51796000  0.06678000  1.0 -0.5707560534
O  O27  1  0.58393000  0.10189000  0.06678000  1.0 -0.5707560534
O  O28  1  0.48204000  0.58393000  0.06678000  1.0 -0.5707560534
O  O29  1  0.89811000  0.48204000  0.06678000  1.0 -0.5707560534
O  O30  1  0.41607000  0.89811000  0.06678000  1.0 -0.5707560534
O  O31  1  0.58393000  0.48204000  0.93322000  1.0 -0.5707560534
O  O32  1  0.10189000  0.58393000  0.93322000  1.0 -0.5707560534
O  O33  1  0.51796000  0.10189000  0.93322000  1.0 -0.5707560534
O  O34  1  0.41607000  0.51796000  0.93322000  1.0 -0.5707560534
O  O35  1  0.89811000  0.41607000  0.93322000  1.0 -0.5707560534
O  O36  1  0.48204000  0.89811000  0.93322000  1.0 -0.5707560534
O  O37  1  0.48204000  0.58393000  0.93322000  1.0 -0.5707560534
O  O38  1  0.89811000  0.48204000  0.93322000  1.0 -0.5707560534
O  O39  1  0.41607000  0.89811000  0.93322000  1.0 -0.5707560534
O  O40  1  0.51796000  0.41607000  0.93322000  1.0 -0.5707560534
O  O41  1  0.10189000  0.51796000  0.93322000  1.0 -0.5707560534
O  O42  1  0.58393000  0.10189000  0.93322000  1.0 -0.5707560534
O  O43  1  0.41607000  0.51796000  0.06678000  1.0 -0.5707560534
O  O44  1  0.89811000  0.41607000  0.06678000  1.0 -0.5707560534
O  O45  1  0.48204000  0.89811000  0.06678000  1.0 -0.5707560534
O  O46  1  0.58393000  0.48204000  0.06678000  1.0 -0.5707560534
O  O47  1  0.10189000  0.58393000  0.06678000  1.0 -0.5707560534
O  O48  1  0.51796000  0.10189000  0.06678000  1.0 -0.5707560534
O  O49  1  0.48090000  0.24044000  0.14480000  1.0 -0.3594348411
O  O50  1  0.24046000  0.48090000  0.14480000  1.0 -0.3594348411
O  O51  1  0.75956000  0.24046000  0.14480000  1.0 -0.3594348411
O  O52  1  0.51910000  0.75956000  0.14480000  1.0 -0.3594348411
O  O53  1  0.75954000  0.51910000  0.14480000  1.0 -0.3594348411
O  O54  1  0.24044000  0.75954000  0.14480000  1.0 -0.3594348411
O  O55  1  0.75956000  0.51910000  0.85520000  1.0 -0.3594348411
O  O56  1  0.24046000  0.75956000  0.85520000  1.0 -0.3594348411
O  O57  1  0.48090000  0.24046000  0.85520000  1.0 -0.3594348411
O  O58  1  0.24044000  0.48090000  0.85520000  1.0 -0.3594348411
O  O59  1  0.75954000  0.24044000  0.85520000  1.0 -0.3594348411
O  O60  1  0.51910000  0.75954000  0.85520000  1.0 -0.3594348411
O  O61  1  0.56110000  0.52650000  0.00000000  1.0 -1.1765608122
O  O62  1  0.03460000  0.56110000  0.00000000  1.0 -1.1852802664
O  O63  1  0.47350000  0.03460000  0.00000000  1.0 -1.1852802664
O  O64  1  0.43890000  0.47350000  0.00000000  1.0 -1.1852802664
O  O65  1  0.96540000  0.43890000  0.00000000  1.0 -1.1765608122
O  O66  1  0.52650000  0.96540000  0.00000000  1.0 -1.1765608122
O  O67  1  0.47350000  0.43890000  0.00000000  1.0 -1.1765608122
O  O68  1  0.03460000  0.47350000  0.00000000  1.0 -1.1852802664
O  O69  1  0.56110000  0.03460000  0.00000000  1.0 -1.1852802664
O  O70  1  0.52650000  0.56110000  0.00000000  1.0 -1.1852802664
O  O71  1  0.96540000  0.52650000  0.00000000  1.0 -1.1765608122
O  O72  1  0.43890000  0.96540000  0.00000000  1.0 -1.1765608122
O  O73  1  0.51709000  0.48291000  0.08930000  1.0 -1.1765608122
O  O74  1  0.03418000  0.51709000  0.08930000  1.0 -1.1733348598
O  O75  1  0.51709000  0.03418000  0.08930000  1.0 -1.1733348598
O  O76  1  0.48291000  0.51709000  0.08930000  1.0 -1.1733348598
O  O77  1  0.96582000  0.48291000  0.08930000  1.0 -1.1765608122
O  O78  1  0.48291000  0.96582000  0.08930000  1.0 -1.1765608122
O  O79  1  0.51709000  0.48291000  0.91070000  1.0 -1.1765608122
O  O80  1  0.03418000  0.51709000  0.91070000  1.0 -1.1733348598
O  O81  1  0.51709000  0.03418000  0.91070000  1.0 -1.1733348598
O  O82  1  0.48291000  0.51709000  0.91070000  1.0 -1.1733348598
O  O83  1  0.96582000  0.48291000  0.91070000  1.0 -1.1765608122
O  O84  1  0.48291000  0.96582000  0.91070000  1.0 -1.1765608122
