# DDEC6 charges by PACMAN v1.1 (https://github.com/mtap-research/PACMAN-charge/)
data_YIKLUZ_FSR_pacman
_symmetry_space_group_name_H-M   'P 1'
_cell_length_a   9.88500000
_cell_length_b   10.02000000
_cell_length_c   16.43800000
_cell_angle_alpha   90.00000000
_cell_angle_beta   90.00000000
_cell_angle_gamma   90.00000000
_symmetry_Int_Tables_number   1
_chemical_formula_structural   ZnPC3O5
_chemical_formula_sum   'Zn8 P8 C24 O40'
_cell_volume   1628.14609260
_cell_formula_units_Z   8
loop_
 _symmetry_equiv_pos_site_id
 _symmetry_equiv_pos_as_xyz
  1  'x, y, z'
loop_
 _atom_site_type_symbol
 _atom_site_label
 _atom_site_symmetry_multiplicity
 _atom_site_fract_x
 _atom_site_fract_y
 _atom_site_fract_z
 _atom_site_occupancy
 _atom_site_charge
Zn  Zn1  1  0.35620000  0.40340000  0.20335000  1.0 1.0708494799
Zn  Zn2  1  0.14380000  0.09660000  0.20335000  1.0 1.0708494799
Zn  Zn3  1  0.85620000  0.59660000  0.29665000  1.0 1.0708494799
Zn  Zn4  1  0.64380000  0.90340000  0.29665000  1.0 1.0708494799
Zn  Zn5  1  0.64380000  0.59660000  0.79665000  1.0 1.0708494799
Zn  Zn6  1  0.85620000  0.90340000  0.79665000  1.0 1.0708494799
Zn  Zn7  1  0.14380000  0.40340000  0.70335000  1.0 1.0708494799
Zn  Zn8  1  0.35620000  0.09660000  0.70335000  1.0 1.0708494799
P  P1  1  0.07290000  0.36270000  0.28720000  1.0 1.2960245626
P  P2  1  0.42710000  0.13730000  0.28720000  1.0 1.2960245626
P  P3  1  0.57290000  0.63730000  0.21280000  1.0 1.2946603613
P  P4  1  0.92710000  0.86270000  0.21280000  1.0 1.2946603613
P  P5  1  0.92710000  0.63730000  0.71280000  1.0 1.2946603613
P  P6  1  0.57290000  0.86270000  0.71280000  1.0 1.2946603613
P  P7  1  0.42710000  0.36270000  0.78720000  1.0 1.2960245626
P  P8  1  0.07290000  0.13730000  0.78720000  1.0 1.2960245626
C  C1  1  0.14100000  0.41200000  0.38220000  1.0 -0.2559848709
C  C2  1  0.35900000  0.08800000  0.38220000  1.0 -0.2559848709
C  C3  1  0.64100000  0.58800000  0.11780000  1.0 -0.2512838674
C  C4  1  0.85900000  0.91200000  0.11780000  1.0 -0.2512838674
C  C5  1  0.85900000  0.58800000  0.61780000  1.0 -0.2559848709
C  C6  1  0.64100000  0.91200000  0.61780000  1.0 -0.2559848709
C  C7  1  0.35900000  0.41200000  0.88220000  1.0 -0.2512838674
C  C8  1  0.14100000  0.08800000  0.88220000  1.0 -0.2512838674
C  C9  1  0.08400000  0.34100000  0.45480000  1.0 0.1868024318
C  C10  1  0.41600000  0.15900000  0.45480000  1.0 0.1868024318
C  C11  1  0.58400000  0.65900000  0.04520000  1.0 0.1868024318
C  C12  1  0.91600000  0.84100000  0.04520000  1.0 0.1868024318
C  C13  1  0.91600000  0.65900000  0.54520000  1.0 0.1868024318
C  C14  1  0.58400000  0.84100000  0.54520000  1.0 0.1868024318
C  C15  1  0.41600000  0.34100000  0.95480000  1.0 0.1868024318
C  C16  1  0.08400000  0.15900000  0.95480000  1.0 0.1868024318
C  C17  1  0.13900000  0.38900000  0.53840000  1.0 0.5577297153
C  C18  1  0.36100000  0.11100000  0.53840000  1.0 0.5577297153
C  C19  1  0.63900000  0.61100000  0.96160000  1.0 0.5577297153
C  C20  1  0.86100000  0.88900000  0.96160000  1.0 0.5577297153
C  C21  1  0.86100000  0.61100000  0.46160000  1.0 0.5577297153
C  C22  1  0.63900000  0.88900000  0.46160000  1.0 0.5577297153
C  C23  1  0.36100000  0.38900000  0.03840000  1.0 0.5577297153
C  C24  1  0.13900000  0.11100000  0.03840000  1.0 0.5577297153
O  O1  1  0.16200000  0.41860000  0.22020000  1.0 -0.6905262677
O  O2  1  0.33800000  0.08140000  0.22020000  1.0 -0.6905262677
O  O3  1  0.66200000  0.58140000  0.27980000  1.0 -0.6905262677
O  O4  1  0.83800000  0.91860000  0.27980000  1.0 -0.6905262677
O  O5  1  0.83800000  0.58140000  0.77980000  1.0 -0.6905262677
O  O6  1  0.66200000  0.91860000  0.77980000  1.0 -0.6905262677
O  O7  1  0.33800000  0.41860000  0.72020000  1.0 -0.6905262677
O  O8  1  0.16200000  0.08140000  0.72020000  1.0 -0.6905262677
O  O9  1  0.92890000  0.41740000  0.28090000  1.0 -0.630798517
O  O10  1  0.57110000  0.08260000  0.28090000  1.0 -0.630798517
O  O11  1  0.42890000  0.58260000  0.21910000  1.0 -0.630798517
O  O12  1  0.07110000  0.91740000  0.21910000  1.0 -0.630798517
O  O13  1  0.07110000  0.58260000  0.71910000  1.0 -0.630798517
O  O14  1  0.42890000  0.91740000  0.71910000  1.0 -0.630798517
O  O15  1  0.57110000  0.41740000  0.78090000  1.0 -0.630798517
O  O16  1  0.92890000  0.08260000  0.78090000  1.0 -0.630798517
O  O17  1  0.06640000  0.21070000  0.28760000  1.0 -0.676277755
O  O18  1  0.43360000  0.28930000  0.28760000  1.0 -0.676277755
O  O19  1  0.56640000  0.78930000  0.21240000  1.0 -0.676277755
O  O20  1  0.93360000  0.71070000  0.21240000  1.0 -0.676277755
O  O21  1  0.93360000  0.78930000  0.71240000  1.0 -0.676277755
O  O22  1  0.56640000  0.71070000  0.71240000  1.0 -0.676277755
O  O23  1  0.43360000  0.21070000  0.78760000  1.0 -0.676277755
O  O24  1  0.06640000  0.28930000  0.78760000  1.0 -0.676277755
O  O25  1  0.08400000  0.33400000  0.59870000  1.0 -0.4687716944
O  O26  1  0.41600000  0.16600000  0.59870000  1.0 -0.4687716944
O  O27  1  0.58400000  0.66600000  0.90130000  1.0 -0.4687716944
O  O28  1  0.91600000  0.83400000  0.90130000  1.0 -0.4687716944
O  O29  1  0.91600000  0.66600000  0.40130000  1.0 -0.4687716944
O  O30  1  0.58400000  0.83400000  0.40130000  1.0 -0.4687716944
O  O31  1  0.41600000  0.33400000  0.09870000  1.0 -0.4687716944
O  O32  1  0.08400000  0.16600000  0.09870000  1.0 -0.4687716944
O  O33  1  0.22700000  0.47400000  0.54140000  1.0 -0.3907154856
O  O34  1  0.27300000  0.02600000  0.54140000  1.0 -0.3907154856
O  O35  1  0.72700000  0.52600000  0.95860000  1.0 -0.3907154856
O  O36  1  0.77300000  0.97400000  0.95860000  1.0 -0.3907154856
O  O37  1  0.77300000  0.52600000  0.45860000  1.0 -0.3907154856
O  O38  1  0.72700000  0.97400000  0.45860000  1.0 -0.3907154856
O  O39  1  0.27300000  0.47400000  0.04140000  1.0 -0.3907154856
O  O40  1  0.22700000  0.02600000  0.04140000  1.0 -0.3907154856
