# DDEC6 charges by PACMAN v1.1 (https://github.com/mtap-research/PACMAN-charge/)
data_YILBUS_ASR_pacman
_symmetry_space_group_name_H-M   'P 1'
_cell_length_a   19.16920000
_cell_length_b   19.16920000
_cell_length_c   35.98600000
_cell_angle_alpha   90.00000000
_cell_angle_beta   90.00000000
_cell_angle_gamma   120.00000000
_symmetry_Int_Tables_number   1
_chemical_formula_structural   Zn6Cr3H78C102N18O37
_chemical_formula_sum   'Zn12 Cr6 H156 C204 N36 O74'
_cell_volume   11451.75859570
_cell_formula_units_Z   2
loop_
 _symmetry_equiv_pos_site_id
 _symmetry_equiv_pos_as_xyz
  1  'x, y, z'
loop_
 _atom_site_type_symbol
 _atom_site_label
 _atom_site_symmetry_multiplicity
 _atom_site_fract_x
 _atom_site_fract_y
 _atom_site_fract_z
 _atom_site_occupancy
 _atom_site_charge
Zn  Zn1  1  0.47700000  0.52300000  0.46576000  1.0 0.819560622
Zn  Zn2  1  0.47700000  0.95400000  0.46576000  1.0 0.819560622
Zn  Zn3  1  0.04600000  0.52300000  0.46576000  1.0 0.819560622
Zn  Zn4  1  0.52300000  0.47700000  0.96576000  1.0 0.819560622
Zn  Zn5  1  0.52300000  0.04600000  0.96576000  1.0 0.819560622
Zn  Zn6  1  0.95400000  0.47700000  0.96576000  1.0 0.819560622
Zn  Zn7  1  0.52300000  0.47700000  0.53424000  1.0 0.819560622
Zn  Zn8  1  0.95400000  0.47700000  0.53424000  1.0 0.819560622
Zn  Zn9  1  0.52300000  0.04600000  0.53424000  1.0 0.819560622
Zn  Zn10  1  0.47700000  0.52300000  0.03424000  1.0 0.819560622
Zn  Zn11  1  0.04600000  0.52300000  0.03424000  1.0 0.819560622
Zn  Zn12  1  0.47700000  0.95400000  0.03424000  1.0 0.819560622
Cr  Cr1  1  0.44832000  0.72416000  0.25000000  1.0 1.3525714823
Cr  Cr2  1  0.27584000  0.72416000  0.25000000  1.0 1.3525714823
Cr  Cr3  1  0.27584000  0.55168000  0.25000000  1.0 1.3525714823
Cr  Cr4  1  0.55168000  0.27584000  0.75000000  1.0 1.3525714823
Cr  Cr5  1  0.72416000  0.27584000  0.75000000  1.0 1.3525714823
Cr  Cr6  1  0.72416000  0.44832000  0.75000000  1.0 1.3525714823
H  H1  1  0.35740000  0.28180000  0.41960000  1.0 0.0697029356
H  H2  1  0.71820000  0.07560000  0.41960000  1.0 0.0697029356
H  H3  1  0.92440000  0.64260000  0.41960000  1.0 0.0697029356
H  H4  1  0.64260000  0.71820000  0.91960000  1.0 0.0697029356
H  H5  1  0.28180000  0.92440000  0.91960000  1.0 0.0697029356
H  H6  1  0.07560000  0.35740000  0.91960000  1.0 0.0697029356
H  H7  1  0.28180000  0.35740000  0.58040000  1.0 0.0697029356
H  H8  1  0.07560000  0.71820000  0.58040000  1.0 0.0697029356
H  H9  1  0.64260000  0.92440000  0.58040000  1.0 0.0697029356
H  H10  1  0.71820000  0.64260000  0.08040000  1.0 0.0697029356
H  H11  1  0.92440000  0.28180000  0.08040000  1.0 0.0697029356
H  H12  1  0.35740000  0.07560000  0.08040000  1.0 0.0697029356
H  H13  1  0.64260000  0.71820000  0.58040000  1.0 0.0697029356
H  H14  1  0.28180000  0.92440000  0.58040000  1.0 0.0697029356
H  H15  1  0.07560000  0.35740000  0.58040000  1.0 0.0697029356
H  H16  1  0.35740000  0.28180000  0.08040000  1.0 0.0697029356
H  H17  1  0.71820000  0.07560000  0.08040000  1.0 0.0697029356
H  H18  1  0.92440000  0.64260000  0.08040000  1.0 0.0697029356
H  H19  1  0.71820000  0.64260000  0.41960000  1.0 0.0697029356
H  H20  1  0.92440000  0.28180000  0.41960000  1.0 0.0697029356
H  H21  1  0.35740000  0.07560000  0.41960000  1.0 0.0697029356
H  H22  1  0.28180000  0.35740000  0.91960000  1.0 0.0697029356
H  H23  1  0.07560000  0.71820000  0.91960000  1.0 0.0697029356
H  H24  1  0.64260000  0.92440000  0.91960000  1.0 0.0697029356
H  H25  1  0.28430000  0.18140000  0.37310000  1.0 0.1101152453
H  H26  1  0.81860000  0.10290000  0.37310000  1.0 0.1101152453
H  H27  1  0.89710000  0.71570000  0.37310000  1.0 0.1101152453
H  H28  1  0.71570000  0.81860000  0.87310000  1.0 0.1101152453
H  H29  1  0.18140000  0.89710000  0.87310000  1.0 0.1101152453
H  H30  1  0.10290000  0.28430000  0.87310000  1.0 0.1101152453
H  H31  1  0.18140000  0.28430000  0.62690000  1.0 0.1101152453
H  H32  1  0.10290000  0.81860000  0.62690000  1.0 0.1101152453
H  H33  1  0.71570000  0.89710000  0.62690000  1.0 0.1101152453
H  H34  1  0.81860000  0.71570000  0.12690000  1.0 0.1101152453
H  H35  1  0.89710000  0.18140000  0.12690000  1.0 0.1101152453
H  H36  1  0.28430000  0.10290000  0.12690000  1.0 0.1101152453
H  H37  1  0.71570000  0.81860000  0.62690000  1.0 0.1101152453
H  H38  1  0.18140000  0.89710000  0.62690000  1.0 0.1101152453
H  H39  1  0.10290000  0.28430000  0.62690000  1.0 0.1101152453
H  H40  1  0.28430000  0.18140000  0.12690000  1.0 0.1101152453
H  H41  1  0.81860000  0.10290000  0.12690000  1.0 0.1101152453
H  H42  1  0.89710000  0.71570000  0.12690000  1.0 0.1101152453
H  H43  1  0.81860000  0.71570000  0.37310000  1.0 0.1101152453
H  H44  1  0.89710000  0.18140000  0.37310000  1.0 0.1101152453
H  H45  1  0.28430000  0.10290000  0.37310000  1.0 0.1101152453
H  H46  1  0.18140000  0.28430000  0.87310000  1.0 0.1101152453
H  H47  1  0.10290000  0.81860000  0.87310000  1.0 0.1101152453
H  H48  1  0.71570000  0.89710000  0.87310000  1.0 0.1101152453
H  H49  1  0.35600000  0.44580000  0.40720000  1.0 0.1101152453
H  H50  1  0.55420000  0.91020000  0.40720000  1.0 0.1101152453
H  H51  1  0.08980000  0.64400000  0.40720000  1.0 0.1101152453
H  H52  1  0.64400000  0.55420000  0.90720000  1.0 0.1101152453
H  H53  1  0.44580000  0.08980000  0.90720000  1.0 0.1101152453
H  H54  1  0.91020000  0.35600000  0.90720000  1.0 0.1101152453
H  H55  1  0.44580000  0.35600000  0.59280000  1.0 0.1101152453
H  H56  1  0.91020000  0.55420000  0.59280000  1.0 0.1101152453
H  H57  1  0.64400000  0.08980000  0.59280000  1.0 0.1101152453
H  H58  1  0.55420000  0.64400000  0.09280000  1.0 0.1101152453
H  H59  1  0.08980000  0.44580000  0.09280000  1.0 0.1101152453
H  H60  1  0.35600000  0.91020000  0.09280000  1.0 0.1101152453
H  H61  1  0.64400000  0.55420000  0.59280000  1.0 0.1101152453
H  H62  1  0.44580000  0.08980000  0.59280000  1.0 0.1101152453
H  H63  1  0.91020000  0.35600000  0.59280000  1.0 0.1101152453
H  H64  1  0.35600000  0.44580000  0.09280000  1.0 0.1101152453
H  H65  1  0.55420000  0.91020000  0.09280000  1.0 0.1101152453
H  H66  1  0.08980000  0.64400000  0.09280000  1.0 0.1101152453
H  H67  1  0.55420000  0.64400000  0.40720000  1.0 0.1101152453
H  H68  1  0.08980000  0.44580000  0.40720000  1.0 0.1101152453
H  H69  1  0.35600000  0.91020000  0.40720000  1.0 0.1101152453
H  H70  1  0.44580000  0.35600000  0.90720000  1.0 0.1101152453
H  H71  1  0.91020000  0.55420000  0.90720000  1.0 0.1101152453
H  H72  1  0.64400000  0.08980000  0.90720000  1.0 0.1101152453
H  H73  1  0.32550000  0.46700000  0.34770000  1.0 0.1363398382
H  H74  1  0.53300000  0.85850000  0.34770000  1.0 0.1363398382
H  H75  1  0.14150000  0.67450000  0.34770000  1.0 0.1363398382
H  H76  1  0.67450000  0.53300000  0.84770000  1.0 0.1363398382
H  H77  1  0.46700000  0.14150000  0.84770000  1.0 0.1363398382
H  H78  1  0.85850000  0.32550000  0.84770000  1.0 0.1363398382
H  H79  1  0.46700000  0.32550000  0.65230000  1.0 0.1363398382
H  H80  1  0.85850000  0.53300000  0.65230000  1.0 0.1363398382
H  H81  1  0.67450000  0.14150000  0.65230000  1.0 0.1363398382
H  H82  1  0.53300000  0.67450000  0.15230000  1.0 0.1363398382
H  H83  1  0.14150000  0.46700000  0.15230000  1.0 0.1363398382
H  H84  1  0.32550000  0.85850000  0.15230000  1.0 0.1363398382
H  H85  1  0.67450000  0.53300000  0.65230000  1.0 0.1363398382
H  H86  1  0.46700000  0.14150000  0.65230000  1.0 0.1363398382
H  H87  1  0.85850000  0.32550000  0.65230000  1.0 0.1363398382
H  H88  1  0.32550000  0.46700000  0.15230000  1.0 0.1363398382
H  H89  1  0.53300000  0.85850000  0.15230000  1.0 0.1363398382
H  H90  1  0.14150000  0.67450000  0.15230000  1.0 0.1363398382
H  H91  1  0.53300000  0.67450000  0.34770000  1.0 0.1363398382
H  H92  1  0.14150000  0.46700000  0.34770000  1.0 0.1363398382
H  H93  1  0.32550000  0.85850000  0.34770000  1.0 0.1363398382
H  H94  1  0.46700000  0.32550000  0.84770000  1.0 0.1363398382
H  H95  1  0.85850000  0.53300000  0.84770000  1.0 0.1363398382
H  H96  1  0.67450000  0.14150000  0.84770000  1.0 0.1363398382
H  H97  1  0.47450000  0.23725000  0.49980000  1.0 0.132414927
H  H98  1  0.76275000  0.23725000  0.49980000  1.0 0.132414927
H  H99  1  0.76275000  0.52550000  0.49980000  1.0 0.132414927
H  H100  1  0.52550000  0.76275000  0.99980000  1.0 0.132414927
H  H101  1  0.23725000  0.76275000  0.99980000  1.0 0.132414927
H  H102  1  0.23725000  0.47450000  0.99980000  1.0 0.132414927
H  H103  1  0.23725000  0.47450000  0.50020000  1.0 0.132414927
H  H104  1  0.23725000  0.76275000  0.50020000  1.0 0.132414927
H  H105  1  0.52550000  0.76275000  0.50020000  1.0 0.132414927
H  H106  1  0.76275000  0.52550000  0.00020000  1.0 0.132414927
H  H107  1  0.76275000  0.23725000  0.00020000  1.0 0.132414927
H  H108  1  0.47450000  0.23725000  0.00020000  1.0 0.132414927
H  H109  1  0.39460000  0.30290000  0.40990000  1.0 0.0697029356
H  H110  1  0.69710000  0.09170000  0.40990000  1.0 0.0697029356
H  H111  1  0.90830000  0.60540000  0.40990000  1.0 0.0697029356
H  H112  1  0.60540000  0.69710000  0.90990000  1.0 0.0697029356
H  H113  1  0.30290000  0.90830000  0.90990000  1.0 0.0697029356
H  H114  1  0.09170000  0.39460000  0.90990000  1.0 0.0697029356
H  H115  1  0.30290000  0.39460000  0.59010000  1.0 0.0697029356
H  H116  1  0.09170000  0.69710000  0.59010000  1.0 0.0697029356
H  H117  1  0.60540000  0.90830000  0.59010000  1.0 0.0697029356
H  H118  1  0.69710000  0.60540000  0.09010000  1.0 0.0697029356
H  H119  1  0.90830000  0.30290000  0.09010000  1.0 0.0697029356
H  H120  1  0.39460000  0.09170000  0.09010000  1.0 0.0697029356
H  H121  1  0.60540000  0.69710000  0.59010000  1.0 0.0697029356
H  H122  1  0.30290000  0.90830000  0.59010000  1.0 0.0697029356
H  H123  1  0.09170000  0.39460000  0.59010000  1.0 0.0697029356
H  H124  1  0.39460000  0.30290000  0.09010000  1.0 0.0697029356
H  H125  1  0.69710000  0.09170000  0.09010000  1.0 0.0697029356
H  H126  1  0.90830000  0.60540000  0.09010000  1.0 0.0697029356
H  H127  1  0.69710000  0.60540000  0.40990000  1.0 0.0697029356
H  H128  1  0.90830000  0.30290000  0.40990000  1.0 0.0697029356
H  H129  1  0.39460000  0.09170000  0.40990000  1.0 0.0697029356
H  H130  1  0.30290000  0.39460000  0.90990000  1.0 0.0697029356
H  H131  1  0.09170000  0.69710000  0.90990000  1.0 0.0697029356
H  H132  1  0.60540000  0.90830000  0.90990000  1.0 0.0697029356
H  H133  1  0.35610000  0.13880000  0.35730000  1.0 0.1028440388
H  H134  1  0.86120000  0.21730000  0.35730000  1.0 0.1028440388
H  H135  1  0.78270000  0.64390000  0.35730000  1.0 0.1028440388
H  H136  1  0.64390000  0.86120000  0.85730000  1.0 0.1028440388
H  H137  1  0.13880000  0.78270000  0.85730000  1.0 0.1028440388
H  H138  1  0.21730000  0.35610000  0.85730000  1.0 0.1028440388
H  H139  1  0.13880000  0.35610000  0.64270000  1.0 0.1028440388
H  H140  1  0.21730000  0.86120000  0.64270000  1.0 0.1028440388
H  H141  1  0.64390000  0.78270000  0.64270000  1.0 0.1028440388
H  H142  1  0.86120000  0.64390000  0.14270000  1.0 0.1028440388
H  H143  1  0.78270000  0.13880000  0.14270000  1.0 0.1028440388
H  H144  1  0.35610000  0.21730000  0.14270000  1.0 0.1028440388
H  H145  1  0.64390000  0.86120000  0.64270000  1.0 0.1028440388
H  H146  1  0.13880000  0.78270000  0.64270000  1.0 0.1028440388
H  H147  1  0.21730000  0.35610000  0.64270000  1.0 0.1028440388
H  H148  1  0.35610000  0.13880000  0.14270000  1.0 0.1028440388
H  H149  1  0.86120000  0.21730000  0.14270000  1.0 0.1028440388
H  H150  1  0.78270000  0.64390000  0.14270000  1.0 0.1028440388
H  H151  1  0.86120000  0.64390000  0.35730000  1.0 0.1028440388
H  H152  1  0.78270000  0.13880000  0.35730000  1.0 0.1028440388
H  H153  1  0.35610000  0.21730000  0.35730000  1.0 0.1028440388
H  H154  1  0.13880000  0.35610000  0.85730000  1.0 0.1028440388
H  H155  1  0.21730000  0.86120000  0.85730000  1.0 0.1028440388
H  H156  1  0.64390000  0.78270000  0.85730000  1.0 0.1028440388
C  C1  1  0.37650000  0.24880000  0.42910000  1.0 -0.1040879849
C  C2  1  0.75120000  0.12770000  0.42910000  1.0 -0.1040879849
C  C3  1  0.87230000  0.62350000  0.42910000  1.0 -0.1040879849
C  C4  1  0.62350000  0.75120000  0.92910000  1.0 -0.1040879849
C  C5  1  0.24880000  0.87230000  0.92910000  1.0 -0.1040879849
C  C6  1  0.12770000  0.37650000  0.92910000  1.0 -0.1040879849
C  C7  1  0.24880000  0.37650000  0.57090000  1.0 -0.1040879849
C  C8  1  0.12770000  0.75120000  0.57090000  1.0 -0.1040879849
C  C9  1  0.62350000  0.87230000  0.57090000  1.0 -0.1040879849
C  C10  1  0.75120000  0.62350000  0.07090000  1.0 -0.1040879849
C  C11  1  0.87230000  0.24880000  0.07090000  1.0 -0.1040879849
C  C12  1  0.37650000  0.12770000  0.07090000  1.0 -0.1040879849
C  C13  1  0.62350000  0.75120000  0.57090000  1.0 -0.1040879849
C  C14  1  0.24880000  0.87230000  0.57090000  1.0 -0.1040879849
C  C15  1  0.12770000  0.37650000  0.57090000  1.0 -0.1040879849
C  C16  1  0.37650000  0.24880000  0.07090000  1.0 -0.1040879849
C  C17  1  0.75120000  0.12770000  0.07090000  1.0 -0.1040879849
C  C18  1  0.87230000  0.62350000  0.07090000  1.0 -0.1040879849
C  C19  1  0.75120000  0.62350000  0.42910000  1.0 -0.1040879849
C  C20  1  0.87230000  0.24880000  0.42910000  1.0 -0.1040879849
C  C21  1  0.37650000  0.12770000  0.42910000  1.0 -0.1040879849
C  C22  1  0.24880000  0.37650000  0.92910000  1.0 -0.1040879849
C  C23  1  0.12770000  0.75120000  0.92910000  1.0 -0.1040879849
C  C24  1  0.62350000  0.87230000  0.92910000  1.0 -0.1040879849
C  C25  1  0.35030000  0.17515000  0.41300000  1.0 0.1760804503
C  C26  1  0.82485000  0.17515000  0.41300000  1.0 0.1760804503
C  C27  1  0.82485000  0.64970000  0.41300000  1.0 0.1760804503
C  C28  1  0.64970000  0.82485000  0.91300000  1.0 0.1760804503
C  C29  1  0.17515000  0.82485000  0.91300000  1.0 0.1760804503
C  C30  1  0.17515000  0.35030000  0.91300000  1.0 0.1760804503
C  C31  1  0.17515000  0.35030000  0.58700000  1.0 0.1760804503
C  C32  1  0.17515000  0.82485000  0.58700000  1.0 0.1760804503
C  C33  1  0.64970000  0.82485000  0.58700000  1.0 0.1760804503
C  C34  1  0.82485000  0.64970000  0.08700000  1.0 0.1760804503
C  C35  1  0.82485000  0.17515000  0.08700000  1.0 0.1760804503
C  C36  1  0.35030000  0.17515000  0.08700000  1.0 0.1760804503
C  C37  1  0.39220000  0.49400000  0.39513000  1.0 0.0466804928
C  C38  1  0.50600000  0.89820000  0.39513000  1.0 0.0466804928
C  C39  1  0.10180000  0.60780000  0.39513000  1.0 0.0466804928
C  C40  1  0.60780000  0.50600000  0.89513000  1.0 0.0466804928
C  C41  1  0.49400000  0.10180000  0.89513000  1.0 0.0466804928
C  C42  1  0.89820000  0.39220000  0.89513000  1.0 0.0466804928
C  C43  1  0.49400000  0.39220000  0.60487000  1.0 0.0466804928
C  C44  1  0.89820000  0.50600000  0.60487000  1.0 0.0466804928
C  C45  1  0.60780000  0.10180000  0.60487000  1.0 0.0466804928
C  C46  1  0.50600000  0.60780000  0.10487000  1.0 0.0466804928
C  C47  1  0.10180000  0.49400000  0.10487000  1.0 0.0466804928
C  C48  1  0.39220000  0.89820000  0.10487000  1.0 0.0466804928
C  C49  1  0.60780000  0.50600000  0.60487000  1.0 0.0466804928
C  C50  1  0.49400000  0.10180000  0.60487000  1.0 0.0466804928
C  C51  1  0.89820000  0.39220000  0.60487000  1.0 0.0466804928
C  C52  1  0.39220000  0.49400000  0.10487000  1.0 0.0466804928
C  C53  1  0.50600000  0.89820000  0.10487000  1.0 0.0466804928
C  C54  1  0.10180000  0.60780000  0.10487000  1.0 0.0466804928
C  C55  1  0.50600000  0.60780000  0.39513000  1.0 0.0466804928
C  C56  1  0.10180000  0.49400000  0.39513000  1.0 0.0466804928
C  C57  1  0.39220000  0.89820000  0.39513000  1.0 0.0466804928
C  C58  1  0.49400000  0.39220000  0.89513000  1.0 0.0466804928
C  C59  1  0.89820000  0.50600000  0.89513000  1.0 0.0466804928
C  C60  1  0.60780000  0.10180000  0.89513000  1.0 0.0466804928
C  C61  1  0.37330000  0.50560000  0.35931000  1.0 -0.1722532462
C  C62  1  0.49440000  0.86770000  0.35931000  1.0 -0.1722532462
C  C63  1  0.13230000  0.62670000  0.35931000  1.0 -0.1722532462
C  C64  1  0.62670000  0.49440000  0.85931000  1.0 -0.1722532462
C  C65  1  0.50560000  0.13230000  0.85931000  1.0 -0.1722532462
C  C66  1  0.86770000  0.37330000  0.85931000  1.0 -0.1722532462
C  C67  1  0.50560000  0.37330000  0.64069000  1.0 -0.1722532462
C  C68  1  0.86770000  0.49440000  0.64069000  1.0 -0.1722532462
C  C69  1  0.62670000  0.13230000  0.64069000  1.0 -0.1722532462
C  C70  1  0.49440000  0.62670000  0.14069000  1.0 -0.1722532462
C  C71  1  0.13230000  0.50560000  0.14069000  1.0 -0.1722532462
C  C72  1  0.37330000  0.86770000  0.14069000  1.0 -0.1722532462
C  C73  1  0.62670000  0.49440000  0.64069000  1.0 -0.1722532462
C  C74  1  0.50560000  0.13230000  0.64069000  1.0 -0.1722532462
C  C75  1  0.86770000  0.37330000  0.64069000  1.0 -0.1722532462
C  C76  1  0.37330000  0.50560000  0.14069000  1.0 -0.1722532462
C  C77  1  0.49440000  0.86770000  0.14069000  1.0 -0.1722532462
C  C78  1  0.13230000  0.62670000  0.14069000  1.0 -0.1722532462
C  C79  1  0.49440000  0.62670000  0.35931000  1.0 -0.1722532462
C  C80  1  0.13230000  0.50560000  0.35931000  1.0 -0.1722532462
C  C81  1  0.37330000  0.86770000  0.35931000  1.0 -0.1722532462
C  C82  1  0.50560000  0.37330000  0.85931000  1.0 -0.1722532462
C  C83  1  0.86770000  0.49440000  0.85931000  1.0 -0.1722532462
C  C84  1  0.62670000  0.13230000  0.85931000  1.0 -0.1722532462
C  C85  1  0.40668000  0.59332000  0.30365000  1.0 0.5996878245
C  C86  1  0.40668000  0.81336000  0.30365000  1.0 0.5996878245
C  C87  1  0.18664000  0.59332000  0.30365000  1.0 0.5996878245
C  C88  1  0.59332000  0.40668000  0.80365000  1.0 0.5996878245
C  C89  1  0.59332000  0.18664000  0.80365000  1.0 0.5996878245
C  C90  1  0.81336000  0.40668000  0.80365000  1.0 0.5996878245
C  C91  1  0.59332000  0.40668000  0.69635000  1.0 0.5996878245
C  C92  1  0.81336000  0.40668000  0.69635000  1.0 0.5996878245
C  C93  1  0.59332000  0.18664000  0.69635000  1.0 0.5996878245
C  C94  1  0.40668000  0.59332000  0.19635000  1.0 0.5996878245
C  C95  1  0.18664000  0.59332000  0.19635000  1.0 0.5996878245
C  C96  1  0.40668000  0.81336000  0.19635000  1.0 0.5996878245
C  C97  1  0.42592000  0.57408000  0.34171000  1.0 0.0145745791
C  C98  1  0.42592000  0.85184000  0.34171000  1.0 0.0145745791
C  C99  1  0.14816000  0.57408000  0.34171000  1.0 0.0145745791
C  C100  1  0.57408000  0.42592000  0.84171000  1.0 0.0145745791
C  C101  1  0.57408000  0.14816000  0.84171000  1.0 0.0145745791
C  C102  1  0.85184000  0.42592000  0.84171000  1.0 0.0145745791
C  C103  1  0.57408000  0.42592000  0.65829000  1.0 0.0145745791
C  C104  1  0.85184000  0.42592000  0.65829000  1.0 0.0145745791
C  C105  1  0.57408000  0.14816000  0.65829000  1.0 0.0145745791
C  C106  1  0.42592000  0.57408000  0.15829000  1.0 0.0145745791
C  C107  1  0.14816000  0.57408000  0.15829000  1.0 0.0145745791
C  C108  1  0.42592000  0.85184000  0.15829000  1.0 0.0145745791
C  C109  1  0.43040000  0.27750000  0.45903000  1.0 -0.0415851104
C  C110  1  0.72250000  0.15290000  0.45903000  1.0 -0.0415851104
C  C111  1  0.84710000  0.56960000  0.45903000  1.0 -0.0415851104
C  C112  1  0.56960000  0.72250000  0.95903000  1.0 -0.0415851104
C  C113  1  0.27750000  0.84710000  0.95903000  1.0 -0.0415851104
C  C114  1  0.15290000  0.43040000  0.95903000  1.0 -0.0415851104
C  C115  1  0.27750000  0.43040000  0.54097000  1.0 -0.0415851104
C  C116  1  0.15290000  0.72250000  0.54097000  1.0 -0.0415851104
C  C117  1  0.56960000  0.84710000  0.54097000  1.0 -0.0415851104
C  C118  1  0.72250000  0.56960000  0.04097000  1.0 -0.0415851104
C  C119  1  0.84710000  0.27750000  0.04097000  1.0 -0.0415851104
C  C120  1  0.43040000  0.15290000  0.04097000  1.0 -0.0415851104
C  C121  1  0.56960000  0.72250000  0.54097000  1.0 -0.0415851104
C  C122  1  0.27750000  0.84710000  0.54097000  1.0 -0.0415851104
C  C123  1  0.15290000  0.43040000  0.54097000  1.0 -0.0415851104
C  C124  1  0.43040000  0.27750000  0.04097000  1.0 -0.0415851104
C  C125  1  0.72250000  0.15290000  0.04097000  1.0 -0.0415851104
C  C126  1  0.84710000  0.56960000  0.04097000  1.0 -0.0415851104
C  C127  1  0.72250000  0.56960000  0.45903000  1.0 -0.0415851104
C  C128  1  0.84710000  0.27750000  0.45903000  1.0 -0.0415851104
C  C129  1  0.43040000  0.15290000  0.45903000  1.0 -0.0415851104
C  C130  1  0.27750000  0.43040000  0.95903000  1.0 -0.0415851104
C  C131  1  0.15290000  0.72250000  0.95903000  1.0 -0.0415851104
C  C132  1  0.56960000  0.84710000  0.95903000  1.0 -0.0415851104
C  C133  1  0.44920000  0.22460000  0.47645000  1.0 -0.1872805209
C  C134  1  0.77540000  0.22460000  0.47645000  1.0 -0.1872805209
C  C135  1  0.77540000  0.55080000  0.47645000  1.0 -0.1872805209
C  C136  1  0.55080000  0.77540000  0.97645000  1.0 -0.1872805209
C  C137  1  0.22460000  0.77540000  0.97645000  1.0 -0.1872805209
C  C138  1  0.22460000  0.44920000  0.97645000  1.0 -0.1872805209
C  C139  1  0.22460000  0.44920000  0.52355000  1.0 -0.1872805209
C  C140  1  0.22460000  0.77540000  0.52355000  1.0 -0.1872805209
C  C141  1  0.55080000  0.77540000  0.52355000  1.0 -0.1872805209
C  C142  1  0.77540000  0.55080000  0.02355000  1.0 -0.1872805209
C  C143  1  0.77540000  0.22460000  0.02355000  1.0 -0.1872805209
C  C144  1  0.44920000  0.22460000  0.02355000  1.0 -0.1872805209
C  C145  1  0.45500000  0.35790000  0.47649000  1.0 0.5335103024
C  C146  1  0.64210000  0.09710000  0.47649000  1.0 0.5335103024
C  C147  1  0.90290000  0.54500000  0.47649000  1.0 0.5335103024
C  C148  1  0.54500000  0.64210000  0.97649000  1.0 0.5335103024
C  C149  1  0.35790000  0.90290000  0.97649000  1.0 0.5335103024
C  C150  1  0.09710000  0.45500000  0.97649000  1.0 0.5335103024
C  C151  1  0.35790000  0.45500000  0.52351000  1.0 0.5335103024
C  C152  1  0.09710000  0.64210000  0.52351000  1.0 0.5335103024
C  C153  1  0.54500000  0.90290000  0.52351000  1.0 0.5335103024
C  C154  1  0.64210000  0.54500000  0.02351000  1.0 0.5335103024
C  C155  1  0.90290000  0.35790000  0.02351000  1.0 0.5335103024
C  C156  1  0.45500000  0.09710000  0.02351000  1.0 0.5335103024
C  C157  1  0.54500000  0.64210000  0.52351000  1.0 0.5335103024
C  C158  1  0.35790000  0.90290000  0.52351000  1.0 0.5335103024
C  C159  1  0.09710000  0.45500000  0.52351000  1.0 0.5335103024
C  C160  1  0.45500000  0.35790000  0.02351000  1.0 0.5335103024
C  C161  1  0.64210000  0.09710000  0.02351000  1.0 0.5335103024
C  C162  1  0.90290000  0.54500000  0.02351000  1.0 0.5335103024
C  C163  1  0.64210000  0.54500000  0.47649000  1.0 0.5335103024
C  C164  1  0.90290000  0.35790000  0.47649000  1.0 0.5335103024
C  C165  1  0.45500000  0.09710000  0.47649000  1.0 0.5335103024
C  C166  1  0.35790000  0.45500000  0.97649000  1.0 0.5335103024
C  C167  1  0.09710000  0.64210000  0.97649000  1.0 0.5335103024
C  C168  1  0.54500000  0.90290000  0.97649000  1.0 0.5335103024
C  C169  1  0.40400000  0.26540000  0.42240000  1.0 -0.1075363959
C  C170  1  0.73460000  0.13860000  0.42240000  1.0 -0.1075363959
C  C171  1  0.86140000  0.59600000  0.42240000  1.0 -0.1075363959
C  C172  1  0.59600000  0.73460000  0.92240000  1.0 -0.1075363959
C  C173  1  0.26540000  0.86140000  0.92240000  1.0 -0.1075363959
C  C174  1  0.13860000  0.40400000  0.92240000  1.0 -0.1075363959
C  C175  1  0.26540000  0.40400000  0.57760000  1.0 -0.1075363959
C  C176  1  0.13860000  0.73460000  0.57760000  1.0 -0.1075363959
C  C177  1  0.59600000  0.86140000  0.57760000  1.0 -0.1075363959
C  C178  1  0.73460000  0.59600000  0.07760000  1.0 -0.1075363959
C  C179  1  0.86140000  0.26540000  0.07760000  1.0 -0.1075363959
C  C180  1  0.40400000  0.13860000  0.07760000  1.0 -0.1075363959
C  C181  1  0.59600000  0.73460000  0.57760000  1.0 -0.1075363959
C  C182  1  0.26540000  0.86140000  0.57760000  1.0 -0.1075363959
C  C183  1  0.13860000  0.40400000  0.57760000  1.0 -0.1075363959
C  C184  1  0.40400000  0.26540000  0.07760000  1.0 -0.1075363959
C  C185  1  0.73460000  0.13860000  0.07760000  1.0 -0.1075363959
C  C186  1  0.86140000  0.59600000  0.07760000  1.0 -0.1075363959
C  C187  1  0.73460000  0.59600000  0.42240000  1.0 -0.1075363959
C  C188  1  0.86140000  0.26540000  0.42240000  1.0 -0.1075363959
C  C189  1  0.40400000  0.13860000  0.42240000  1.0 -0.1075363959
C  C190  1  0.26540000  0.40400000  0.92240000  1.0 -0.1075363959
C  C191  1  0.13860000  0.73460000  0.92240000  1.0 -0.1075363959
C  C192  1  0.59600000  0.86140000  0.92240000  1.0 -0.1075363959
C  C193  1  0.39220000  0.19610000  0.40500000  1.0 0.1363398382
C  C194  1  0.80390000  0.19610000  0.40500000  1.0 0.1363398382
C  C195  1  0.80390000  0.60780000  0.40500000  1.0 0.1363398382
C  C196  1  0.60780000  0.80390000  0.90500000  1.0 0.1363398382
C  C197  1  0.19610000  0.80390000  0.90500000  1.0 0.1363398382
C  C198  1  0.19610000  0.39220000  0.90500000  1.0 0.1363398382
C  C199  1  0.19610000  0.39220000  0.59500000  1.0 0.1363398382
C  C200  1  0.19610000  0.80390000  0.59500000  1.0 0.1363398382
C  C201  1  0.60780000  0.80390000  0.59500000  1.0 0.1363398382
C  C202  1  0.80390000  0.60780000  0.09500000  1.0 0.1363398382
C  C203  1  0.80390000  0.19610000  0.09500000  1.0 0.1363398382
C  C204  1  0.39220000  0.19610000  0.09500000  1.0 0.1363398382
N  N1  1  0.30030000  0.15015000  0.38270000  1.0 -0.1872805209
N  N2  1  0.84985000  0.15015000  0.38270000  1.0 -0.1872805209
N  N3  1  0.84985000  0.69970000  0.38270000  1.0 -0.1872805209
N  N4  1  0.69970000  0.84985000  0.88270000  1.0 -0.1828978482
N  N5  1  0.15015000  0.84985000  0.88270000  1.0 -0.1828978482
N  N6  1  0.15015000  0.30030000  0.88270000  1.0 -0.1828978482
N  N7  1  0.15015000  0.30030000  0.61730000  1.0 -0.1828978482
N  N8  1  0.15015000  0.84985000  0.61730000  1.0 -0.1828978482
N  N9  1  0.69970000  0.84985000  0.61730000  1.0 -0.1828978482
N  N10  1  0.84985000  0.69970000  0.11730000  1.0 -0.1872805209
N  N11  1  0.84985000  0.15015000  0.11730000  1.0 -0.1872805209
N  N12  1  0.30030000  0.15015000  0.11730000  1.0 -0.1872805209
N  N13  1  0.45556000  0.54444000  0.41296000  1.0 -0.1722532462
N  N14  1  0.45556000  0.91112000  0.41296000  1.0 -0.1722532462
N  N15  1  0.08888000  0.54444000  0.41296000  1.0 -0.1722532462
N  N16  1  0.54444000  0.45556000  0.91296000  1.0 -0.1722532462
N  N17  1  0.54444000  0.08888000  0.91296000  1.0 -0.1828978482
N  N18  1  0.91112000  0.45556000  0.91296000  1.0 -0.1722532462
N  N19  1  0.54444000  0.45556000  0.58704000  1.0 -0.1722532462
N  N20  1  0.91112000  0.45556000  0.58704000  1.0 -0.1722532462
N  N21  1  0.54444000  0.08888000  0.58704000  1.0 -0.1722532462
N  N22  1  0.45556000  0.54444000  0.08704000  1.0 -0.1722532462
N  N23  1  0.08888000  0.54444000  0.08704000  1.0 -0.1722532462
N  N24  1  0.45556000  0.91112000  0.08704000  1.0 -0.1722532462
N  N25  1  0.36520000  0.18260000  0.36860000  1.0 -0.1560033313
N  N26  1  0.81740000  0.18260000  0.36860000  1.0 -0.1560033313
N  N27  1  0.81740000  0.63480000  0.36860000  1.0 -0.1560033313
N  N28  1  0.63480000  0.81740000  0.86860000  1.0 -0.1560033313
N  N29  1  0.18260000  0.81740000  0.86860000  1.0 -0.1560033313
N  N30  1  0.18260000  0.36520000  0.86860000  1.0 -0.1560033313
N  N31  1  0.18260000  0.36520000  0.63140000  1.0 -0.1560033313
N  N32  1  0.18260000  0.81740000  0.63140000  1.0 -0.1560033313
N  N33  1  0.63480000  0.81740000  0.63140000  1.0 -0.1560033313
N  N34  1  0.81740000  0.63480000  0.13140000  1.0 -0.1560033313
N  N35  1  0.81740000  0.18260000  0.13140000  1.0 -0.1560033313
N  N36  1  0.36520000  0.18260000  0.13140000  1.0 -0.1560033313
O  O1  1  0.33333333  0.66666667  0.25000000  1.0 -1.0911124002
O  O2  1  0.66666667  0.33333333  0.75000000  1.0 -1.0911124002
O  O3  1  0.45756000  0.65900000  0.28985000  1.0 -0.5778405916
O  O4  1  0.34100000  0.79856000  0.28985000  1.0 -0.5778405916
O  O5  1  0.20144000  0.54244000  0.28985000  1.0 -0.5778405916
O  O6  1  0.54244000  0.34100000  0.78985000  1.0 -0.5778405916
O  O7  1  0.65900000  0.20144000  0.78985000  1.0 -0.5778405916
O  O8  1  0.79856000  0.45756000  0.78985000  1.0 -0.5778405916
O  O9  1  0.65900000  0.45756000  0.71015000  1.0 -0.5778405916
O  O10  1  0.79856000  0.34100000  0.71015000  1.0 -0.5778405916
O  O11  1  0.54244000  0.20144000  0.71015000  1.0 -0.5778405916
O  O12  1  0.34100000  0.54244000  0.21015000  1.0 -0.5778405916
O  O13  1  0.20144000  0.65900000  0.21015000  1.0 -0.5778405916
O  O14  1  0.45756000  0.79856000  0.21015000  1.0 -0.5778405916
O  O15  1  0.54244000  0.34100000  0.71015000  1.0 -0.5778405916
O  O16  1  0.65900000  0.20144000  0.71015000  1.0 -0.5778405916
O  O17  1  0.79856000  0.45756000  0.71015000  1.0 -0.5778405916
O  O18  1  0.45756000  0.65900000  0.21015000  1.0 -0.5778405916
O  O19  1  0.34100000  0.79856000  0.21015000  1.0 -0.5778405916
O  O20  1  0.20144000  0.54244000  0.21015000  1.0 -0.5778405916
O  O21  1  0.34100000  0.54244000  0.28985000  1.0 -0.5778405916
O  O22  1  0.20144000  0.65900000  0.28985000  1.0 -0.5778405916
O  O23  1  0.45756000  0.79856000  0.28985000  1.0 -0.5778405916
O  O24  1  0.65900000  0.45756000  0.78985000  1.0 -0.5778405916
O  O25  1  0.79856000  0.34100000  0.78985000  1.0 -0.5778405916
O  O26  1  0.54244000  0.20144000  0.78985000  1.0 -0.5778405916
O  O27  1  0.48271000  0.36947000  0.50864000  1.0 -0.4933809739
O  O28  1  0.63053000  0.11324000  0.50864000  1.0 -0.4933809739
O  O29  1  0.88676000  0.51729000  0.50864000  1.0 -0.4933809739
O  O30  1  0.51729000  0.63053000  0.00864000  1.0 -0.4933809739
O  O31  1  0.36947000  0.88676000  0.00864000  1.0 -0.4933809739
O  O32  1  0.11324000  0.48271000  0.00864000  1.0 -0.4933809739
O  O33  1  0.36947000  0.48271000  0.49136000  1.0 -0.4933809739
O  O34  1  0.11324000  0.63053000  0.49136000  1.0 -0.4933809739
O  O35  1  0.51729000  0.88676000  0.49136000  1.0 -0.4933809739
O  O36  1  0.63053000  0.51729000  0.99136000  1.0 -0.4933809739
O  O37  1  0.88676000  0.36947000  0.99136000  1.0 -0.4933809739
O  O38  1  0.48271000  0.11324000  0.99136000  1.0 -0.4933809739
O  O39  1  0.51729000  0.63053000  0.49136000  1.0 -0.4933809739
O  O40  1  0.36947000  0.88676000  0.49136000  1.0 -0.4933809739
O  O41  1  0.11324000  0.48271000  0.49136000  1.0 -0.4933809739
O  O42  1  0.48271000  0.36947000  0.99136000  1.0 -0.4933809739
O  O43  1  0.63053000  0.11324000  0.99136000  1.0 -0.4933809739
O  O44  1  0.88676000  0.51729000  0.99136000  1.0 -0.4933809739
O  O45  1  0.63053000  0.51729000  0.50864000  1.0 -0.4933809739
O  O46  1  0.88676000  0.36947000  0.50864000  1.0 -0.4933809739
O  O47  1  0.48271000  0.11324000  0.50864000  1.0 -0.4933809739
O  O48  1  0.36947000  0.48271000  0.00864000  1.0 -0.4933809739
O  O49  1  0.11324000  0.63053000  0.00864000  1.0 -0.4933809739
O  O50  1  0.51729000  0.88676000  0.00864000  1.0 -0.4933809739
O  O51  1  0.44400000  0.40575000  0.45740000  1.0 -0.5181160223
O  O52  1  0.59425000  0.03825000  0.45740000  1.0 -0.5181160223
O  O53  1  0.96175000  0.55600000  0.45740000  1.0 -0.5181160223
O  O54  1  0.55600000  0.59425000  0.95740000  1.0 -0.5181160223
O  O55  1  0.40575000  0.96175000  0.95740000  1.0 -0.5181160223
O  O56  1  0.03825000  0.44400000  0.95740000  1.0 -0.5181160223
O  O57  1  0.40575000  0.44400000  0.54260000  1.0 -0.5181160223
O  O58  1  0.03825000  0.59425000  0.54260000  1.0 -0.5181160223
O  O59  1  0.55600000  0.96175000  0.54260000  1.0 -0.5181160223
O  O60  1  0.59425000  0.55600000  0.04260000  1.0 -0.5181160223
O  O61  1  0.96175000  0.40575000  0.04260000  1.0 -0.5181160223
O  O62  1  0.44400000  0.03825000  0.04260000  1.0 -0.5181160223
O  O63  1  0.55600000  0.59425000  0.54260000  1.0 -0.5181160223
O  O64  1  0.40575000  0.96175000  0.54260000  1.0 -0.5181160223
O  O65  1  0.03825000  0.44400000  0.54260000  1.0 -0.5181160223
O  O66  1  0.44400000  0.40575000  0.04260000  1.0 -0.5181160223
O  O67  1  0.59425000  0.03825000  0.04260000  1.0 -0.5181160223
O  O68  1  0.96175000  0.55600000  0.04260000  1.0 -0.5181160223
O  O69  1  0.59425000  0.55600000  0.45740000  1.0 -0.5181160223
O  O70  1  0.96175000  0.40575000  0.45740000  1.0 -0.5181160223
O  O71  1  0.44400000  0.03825000  0.45740000  1.0 -0.5181160223
O  O72  1  0.40575000  0.44400000  0.95740000  1.0 -0.5181160223
O  O73  1  0.03825000  0.59425000  0.95740000  1.0 -0.5181160223
O  O74  1  0.55600000  0.96175000  0.95740000  1.0 -0.5181160223
