# DDEC6 charges by PACMAN v1.1 (https://github.com/mtap-research/PACMAN-charge/)
data_YILBAY_ASR_pacman
_symmetry_space_group_name_H-M   'P 1'
_cell_length_a   19.20950000
_cell_length_b   19.20950000
_cell_length_c   36.02450000
_cell_angle_alpha   90.00000000
_cell_angle_beta   90.00000000
_cell_angle_gamma   120.00000000
_symmetry_Int_Tables_number   1
_chemical_formula_structural   Zn6Cr3H54C102Br12N6O37
_chemical_formula_sum   'Zn12 Cr6 H108 C204 Br24 N12 O74'
_cell_volume   11512.26333320
_cell_formula_units_Z   2
loop_
 _symmetry_equiv_pos_site_id
 _symmetry_equiv_pos_as_xyz
  1  'x, y, z'
loop_
 _atom_site_type_symbol
 _atom_site_label
 _atom_site_symmetry_multiplicity
 _atom_site_fract_x
 _atom_site_fract_y
 _atom_site_fract_z
 _atom_site_occupancy
 _atom_site_charge
Zn  Zn1  1  0.52333000  0.04666000  0.53464000  1.0 0.833071851
Zn  Zn2  1  0.95334000  0.47667000  0.53464000  1.0 0.833071851
Zn  Zn3  1  0.52333000  0.47667000  0.53464000  1.0 0.833071851
Zn  Zn4  1  0.47667000  0.95334000  0.03464000  1.0 0.833071851
Zn  Zn5  1  0.04666000  0.52333000  0.03464000  1.0 0.833071851
Zn  Zn6  1  0.47667000  0.52333000  0.03464000  1.0 0.833071851
Zn  Zn7  1  0.04666000  0.52333000  0.46536000  1.0 0.8361847257
Zn  Zn8  1  0.47667000  0.95334000  0.46536000  1.0 0.833071851
Zn  Zn9  1  0.47667000  0.52333000  0.46536000  1.0 0.8361847257
Zn  Zn10  1  0.95334000  0.47667000  0.96536000  1.0 0.8361847257
Zn  Zn11  1  0.52333000  0.04666000  0.96536000  1.0 0.8361847257
Zn  Zn12  1  0.52333000  0.47667000  0.96536000  1.0 0.8361847257
Cr  Cr1  1  0.55160000  0.27580000  0.75000000  1.0 1.388677833
Cr  Cr2  1  0.72420000  0.27580000  0.75000000  1.0 1.388677833
Cr  Cr3  1  0.72420000  0.44840000  0.75000000  1.0 1.388677833
Cr  Cr4  1  0.44840000  0.72420000  0.25000000  1.0 1.3671910738
Cr  Cr5  1  0.27580000  0.72420000  0.25000000  1.0 1.3671910738
Cr  Cr6  1  0.27580000  0.55160000  0.25000000  1.0 1.3671910738
H  H1  1  0.67430000  0.14180000  0.65250000  1.0 0.1474075119
H  H2  1  0.85820000  0.53250000  0.65250000  1.0 0.1474075119
H  H3  1  0.46750000  0.32570000  0.65250000  1.0 0.1474075119
H  H4  1  0.32570000  0.85820000  0.15250000  1.0 0.1474075119
H  H5  1  0.14180000  0.46750000  0.15250000  1.0 0.1474075119
H  H6  1  0.53250000  0.67430000  0.15250000  1.0 0.1474075119
H  H7  1  0.14180000  0.67430000  0.34750000  1.0 0.1474075119
H  H8  1  0.53250000  0.85820000  0.34750000  1.0 0.1474075119
H  H9  1  0.32570000  0.46750000  0.34750000  1.0 0.1474075119
H  H10  1  0.85820000  0.32570000  0.84750000  1.0 0.1474075119
H  H11  1  0.46750000  0.14180000  0.84750000  1.0 0.1474075119
H  H12  1  0.67430000  0.53250000  0.84750000  1.0 0.1474075119
H  H13  1  0.32570000  0.85820000  0.34750000  1.0 0.1474075119
H  H14  1  0.14180000  0.46750000  0.34750000  1.0 0.1474075119
H  H15  1  0.53250000  0.67430000  0.34750000  1.0 0.1474075119
H  H16  1  0.67430000  0.14180000  0.84750000  1.0 0.1474075119
H  H17  1  0.85820000  0.53250000  0.84750000  1.0 0.1474075119
H  H18  1  0.46750000  0.32570000  0.84750000  1.0 0.1474075119
H  H19  1  0.85820000  0.32570000  0.65250000  1.0 0.1474075119
H  H20  1  0.46750000  0.14180000  0.65250000  1.0 0.1474075119
H  H21  1  0.67430000  0.53250000  0.65250000  1.0 0.1474075119
H  H22  1  0.14180000  0.67430000  0.15250000  1.0 0.1474075119
H  H23  1  0.53250000  0.85820000  0.15250000  1.0 0.1474075119
H  H24  1  0.32570000  0.46750000  0.15250000  1.0 0.1474075119
H  H25  1  0.64560000  0.09120000  0.59250000  1.0 0.1221326106
H  H26  1  0.90880000  0.55440000  0.59250000  1.0 0.1221326106
H  H27  1  0.44560000  0.35440000  0.59250000  1.0 0.1221326106
H  H28  1  0.35440000  0.90880000  0.09250000  1.0 0.1221326106
H  H29  1  0.09120000  0.44560000  0.09250000  1.0 0.1221326106
H  H30  1  0.55440000  0.64560000  0.09250000  1.0 0.1221326106
H  H31  1  0.09120000  0.64560000  0.40750000  1.0 0.1221326106
H  H32  1  0.55440000  0.90880000  0.40750000  1.0 0.1221326106
H  H33  1  0.35440000  0.44560000  0.40750000  1.0 0.1221326106
H  H34  1  0.90880000  0.35440000  0.90750000  1.0 0.1221326106
H  H35  1  0.44560000  0.09120000  0.90750000  1.0 0.1221326106
H  H36  1  0.64560000  0.55440000  0.90750000  1.0 0.1221326106
H  H37  1  0.35440000  0.90880000  0.40750000  1.0 0.1221326106
H  H38  1  0.09120000  0.44560000  0.40750000  1.0 0.1221326106
H  H39  1  0.55440000  0.64560000  0.40750000  1.0 0.1221326106
H  H40  1  0.64560000  0.09120000  0.90750000  1.0 0.1221326106
H  H41  1  0.90880000  0.55440000  0.90750000  1.0 0.1221326106
H  H42  1  0.44560000  0.35440000  0.90750000  1.0 0.1221326106
H  H43  1  0.90880000  0.35440000  0.59250000  1.0 0.1221326106
H  H44  1  0.44560000  0.09120000  0.59250000  1.0 0.1221326106
H  H45  1  0.64560000  0.55440000  0.59250000  1.0 0.1221326106
H  H46  1  0.09120000  0.64560000  0.09250000  1.0 0.1221326106
H  H47  1  0.55440000  0.90880000  0.09250000  1.0 0.1221326106
H  H48  1  0.35440000  0.44560000  0.09250000  1.0 0.1221326106
H  H49  1  0.23600000  0.76400000  0.50030000  1.0 0.1309721429
H  H50  1  0.23600000  0.47200000  0.50030000  1.0 0.1309721429
H  H51  1  0.52800000  0.76400000  0.50030000  1.0 0.1309721429
H  H52  1  0.76400000  0.23600000  0.00030000  1.0 0.1309721429
H  H53  1  0.76400000  0.52800000  0.00030000  1.0 0.1309721429
H  H54  1  0.47200000  0.23600000  0.00030000  1.0 0.1309721429
H  H55  1  0.76400000  0.23600000  0.49970000  1.0 0.1309721429
H  H56  1  0.47200000  0.23600000  0.49970000  1.0 0.1309721429
H  H57  1  0.76400000  0.52800000  0.49970000  1.0 0.1309721429
H  H58  1  0.23600000  0.76400000  0.99970000  1.0 0.1309721429
H  H59  1  0.52800000  0.76400000  0.99970000  1.0 0.1309721429
H  H60  1  0.23600000  0.47200000  0.99970000  1.0 0.1309721429
H  H61  1  0.29860000  0.91110000  0.58760000  1.0 0.0939283034
H  H62  1  0.08890000  0.38750000  0.58760000  1.0 0.0939283034
H  H63  1  0.61250000  0.70140000  0.58760000  1.0 0.0939283034
H  H64  1  0.70140000  0.08890000  0.08760000  1.0 0.0939283034
H  H65  1  0.91110000  0.61250000  0.08760000  1.0 0.0939283034
H  H66  1  0.38750000  0.29860000  0.08760000  1.0 0.0939283034
H  H67  1  0.91110000  0.29860000  0.41240000  1.0 0.0939283034
H  H68  1  0.38750000  0.08890000  0.41240000  1.0 0.0939283034
H  H69  1  0.70140000  0.61250000  0.41240000  1.0 0.0939283034
H  H70  1  0.08890000  0.70140000  0.91240000  1.0 0.0939283034
H  H71  1  0.61250000  0.91110000  0.91240000  1.0 0.0939283034
H  H72  1  0.29860000  0.38750000  0.91240000  1.0 0.0939283034
H  H73  1  0.70140000  0.08890000  0.41240000  1.0 0.0939283034
H  H74  1  0.91110000  0.61250000  0.41240000  1.0 0.0939283034
H  H75  1  0.38750000  0.29860000  0.41240000  1.0 0.0939283034
H  H76  1  0.29860000  0.91110000  0.91240000  1.0 0.0939283034
H  H77  1  0.08890000  0.38750000  0.91240000  1.0 0.0939283034
H  H78  1  0.61250000  0.70140000  0.91240000  1.0 0.0939283034
H  H79  1  0.08890000  0.70140000  0.58760000  1.0 0.0939283034
H  H80  1  0.61250000  0.91110000  0.58760000  1.0 0.0939283034
H  H81  1  0.29860000  0.38750000  0.58760000  1.0 0.0939283034
H  H82  1  0.91110000  0.29860000  0.08760000  1.0 0.0939283034
H  H83  1  0.38750000  0.08890000  0.08760000  1.0 0.0939283034
H  H84  1  0.70140000  0.61250000  0.08760000  1.0 0.0939283034
H  H85  1  0.28470000  0.92300000  0.58050000  1.0 0.0939283034
H  H86  1  0.07700000  0.36170000  0.58050000  1.0 0.0939283034
H  H87  1  0.63830000  0.71530000  0.58050000  1.0 0.0939283034
H  H88  1  0.71530000  0.07700000  0.08050000  1.0 0.0939283034
H  H89  1  0.92300000  0.63830000  0.08050000  1.0 0.0939283034
H  H90  1  0.36170000  0.28470000  0.08050000  1.0 0.0939283034
H  H91  1  0.92300000  0.28470000  0.41950000  1.0 0.0939283034
H  H92  1  0.36170000  0.07700000  0.41950000  1.0 0.0939283034
H  H93  1  0.71530000  0.63830000  0.41950000  1.0 0.0939283034
H  H94  1  0.07700000  0.71530000  0.91950000  1.0 0.0939283034
H  H95  1  0.63830000  0.92300000  0.91950000  1.0 0.0939283034
H  H96  1  0.28470000  0.36170000  0.91950000  1.0 0.0939283034
H  H97  1  0.71530000  0.07700000  0.41950000  1.0 0.0939283034
H  H98  1  0.92300000  0.63830000  0.41950000  1.0 0.0939283034
H  H99  1  0.36170000  0.28470000  0.41950000  1.0 0.0939283034
H  H100  1  0.28470000  0.92300000  0.91950000  1.0 0.0939283034
H  H101  1  0.07700000  0.36170000  0.91950000  1.0 0.0939283034
H  H102  1  0.63830000  0.71530000  0.91950000  1.0 0.0939283034
H  H103  1  0.07700000  0.71530000  0.58050000  1.0 0.0939283034
H  H104  1  0.63830000  0.92300000  0.58050000  1.0 0.0939283034
H  H105  1  0.28470000  0.36170000  0.58050000  1.0 0.0939283034
H  H106  1  0.92300000  0.28470000  0.08050000  1.0 0.0939283034
H  H107  1  0.36170000  0.07700000  0.08050000  1.0 0.0939283034
H  H108  1  0.71530000  0.63830000  0.08050000  1.0 0.0939283034
C  C1  1  0.59395000  0.18790000  0.69650000  1.0 0.6063235378
C  C2  1  0.81210000  0.40605000  0.69650000  1.0 0.6063235378
C  C3  1  0.59395000  0.40605000  0.69650000  1.0 0.6063235378
C  C4  1  0.40605000  0.81210000  0.19650000  1.0 0.6063235378
C  C5  1  0.18790000  0.59395000  0.19650000  1.0 0.6063235378
C  C6  1  0.40605000  0.59395000  0.19650000  1.0 0.6063235378
C  C7  1  0.18790000  0.59395000  0.30350000  1.0 0.6063235378
C  C8  1  0.40605000  0.81210000  0.30350000  1.0 0.6063235378
C  C9  1  0.40605000  0.59395000  0.30350000  1.0 0.6063235378
C  C10  1  0.81210000  0.40605000  0.80350000  1.0 0.6063235378
C  C11  1  0.59395000  0.18790000  0.80350000  1.0 0.6063235378
C  C12  1  0.59395000  0.40605000  0.80350000  1.0 0.6063235378
C  C13  1  0.57410000  0.14820000  0.65842000  1.0 0.0190861387
C  C14  1  0.85180000  0.42590000  0.65842000  1.0 0.0190861387
C  C15  1  0.57410000  0.42590000  0.65842000  1.0 0.0190861387
C  C16  1  0.42590000  0.85180000  0.15842000  1.0 0.0190861387
C  C17  1  0.14820000  0.57410000  0.15842000  1.0 0.0190861387
C  C18  1  0.42590000  0.57410000  0.15842000  1.0 0.0190861387
C  C19  1  0.14820000  0.57410000  0.34158000  1.0 0.0190861387
C  C20  1  0.42590000  0.85180000  0.34158000  1.0 0.0190861387
C  C21  1  0.42590000  0.57410000  0.34158000  1.0 0.0190861387
C  C22  1  0.85180000  0.42590000  0.84158000  1.0 0.0190861387
C  C23  1  0.57410000  0.14820000  0.84158000  1.0 0.0190861387
C  C24  1  0.57410000  0.42590000  0.84158000  1.0 0.0190861387
C  C25  1  0.62670000  0.13260000  0.64070000  1.0 -0.1643516775
C  C26  1  0.86740000  0.49410000  0.64070000  1.0 -0.1643516775
C  C27  1  0.50590000  0.37330000  0.64070000  1.0 -0.1643516775
C  C28  1  0.37330000  0.86740000  0.14070000  1.0 -0.1643516775
C  C29  1  0.13260000  0.50590000  0.14070000  1.0 -0.1643516775
C  C30  1  0.49410000  0.62670000  0.14070000  1.0 -0.1643516775
C  C31  1  0.13260000  0.62670000  0.35930000  1.0 -0.1643516775
C  C32  1  0.49410000  0.86740000  0.35930000  1.0 -0.1643516775
C  C33  1  0.37330000  0.50590000  0.35930000  1.0 -0.1643516775
C  C34  1  0.86740000  0.37330000  0.85930000  1.0 -0.1643516775
C  C35  1  0.50590000  0.13260000  0.85930000  1.0 -0.1643516775
C  C36  1  0.62670000  0.49410000  0.85930000  1.0 -0.1643516775
C  C37  1  0.37330000  0.86740000  0.35930000  1.0 -0.1643516775
C  C38  1  0.13260000  0.50590000  0.35930000  1.0 -0.1643516775
C  C39  1  0.49410000  0.62670000  0.35930000  1.0 -0.1643516775
C  C40  1  0.62670000  0.13260000  0.85930000  1.0 -0.1643516775
C  C41  1  0.86740000  0.49410000  0.85930000  1.0 -0.1643516775
C  C42  1  0.50590000  0.37330000  0.85930000  1.0 -0.1643516775
C  C43  1  0.86740000  0.37330000  0.64070000  1.0 -0.1643516775
C  C44  1  0.50590000  0.13260000  0.64070000  1.0 -0.1643516775
C  C45  1  0.62670000  0.49410000  0.64070000  1.0 -0.1643516775
C  C46  1  0.13260000  0.62670000  0.14070000  1.0 -0.1643516775
C  C47  1  0.49410000  0.86740000  0.14070000  1.0 -0.1643516775
C  C48  1  0.37330000  0.50590000  0.14070000  1.0 -0.1643516775
C  C49  1  0.60910000  0.10250000  0.60473000  1.0 0.0672161881
C  C50  1  0.89750000  0.50660000  0.60473000  1.0 0.0672161881
C  C51  1  0.49340000  0.39090000  0.60473000  1.0 0.0672161881
C  C52  1  0.39090000  0.89750000  0.10473000  1.0 0.0672161881
C  C53  1  0.10250000  0.49340000  0.10473000  1.0 0.0672161881
C  C54  1  0.50660000  0.60910000  0.10473000  1.0 0.0672161881
C  C55  1  0.10250000  0.60910000  0.39527000  1.0 0.0672161881
C  C56  1  0.50660000  0.89750000  0.39527000  1.0 0.0672161881
C  C57  1  0.39090000  0.49340000  0.39527000  1.0 0.0672161881
C  C58  1  0.89750000  0.39090000  0.89527000  1.0 0.0672161881
C  C59  1  0.49340000  0.10250000  0.89527000  1.0 0.0672161881
C  C60  1  0.60910000  0.50660000  0.89527000  1.0 0.0672161881
C  C61  1  0.39090000  0.89750000  0.39527000  1.0 0.0672161881
C  C62  1  0.10250000  0.49340000  0.39527000  1.0 0.0672161881
C  C63  1  0.50660000  0.60910000  0.39527000  1.0 0.0672161881
C  C64  1  0.60910000  0.10250000  0.89527000  1.0 0.0672161881
C  C65  1  0.89750000  0.50660000  0.89527000  1.0 0.0672161881
C  C66  1  0.49340000  0.39090000  0.89527000  1.0 0.0672161881
C  C67  1  0.89750000  0.39090000  0.60473000  1.0 0.0672161881
C  C68  1  0.49340000  0.10250000  0.60473000  1.0 0.0672161881
C  C69  1  0.60910000  0.50660000  0.60473000  1.0 0.0672161881
C  C70  1  0.10250000  0.60910000  0.10473000  1.0 0.0672161881
C  C71  1  0.50660000  0.89750000  0.10473000  1.0 0.0672161881
C  C72  1  0.39090000  0.49340000  0.10473000  1.0 0.0672161881
C  C73  1  0.35680000  0.90290000  0.52352000  1.0 0.5436832316
C  C74  1  0.09710000  0.45390000  0.52352000  1.0 0.5451633906
C  C75  1  0.54610000  0.64320000  0.52352000  1.0 0.5436832316
C  C76  1  0.64320000  0.09710000  0.02352000  1.0 0.5436832316
C  C77  1  0.90290000  0.54610000  0.02352000  1.0 0.5436832316
C  C78  1  0.45390000  0.35680000  0.02352000  1.0 0.5436832316
C  C79  1  0.90290000  0.35680000  0.47648000  1.0 0.5436832316
C  C80  1  0.45390000  0.09710000  0.47648000  1.0 0.5451633906
C  C81  1  0.64320000  0.54610000  0.47648000  1.0 0.5436832316
C  C82  1  0.09710000  0.64320000  0.97648000  1.0 0.5451633906
C  C83  1  0.54610000  0.90290000  0.97648000  1.0 0.5436832316
C  C84  1  0.35680000  0.45390000  0.97648000  1.0 0.5436832316
C  C85  1  0.64320000  0.09710000  0.47648000  1.0 0.5436832316
C  C86  1  0.90290000  0.54610000  0.47648000  1.0 0.5436832316
C  C87  1  0.45390000  0.35680000  0.47648000  1.0 0.5436832316
C  C88  1  0.35680000  0.90290000  0.97648000  1.0 0.5436832316
C  C89  1  0.09710000  0.45390000  0.97648000  1.0 0.5451633906
C  C90  1  0.54610000  0.64320000  0.97648000  1.0 0.5436832316
C  C91  1  0.09710000  0.64320000  0.52352000  1.0 0.5451633906
C  C92  1  0.54610000  0.90290000  0.52352000  1.0 0.5436832316
C  C93  1  0.35680000  0.45390000  0.52352000  1.0 0.5436832316
C  C94  1  0.90290000  0.35680000  0.02352000  1.0 0.5436832316
C  C95  1  0.45390000  0.09710000  0.02352000  1.0 0.5436832316
C  C96  1  0.64320000  0.54610000  0.02352000  1.0 0.5436832316
C  C97  1  0.27690000  0.84690000  0.54055000  1.0 -0.0262389037
C  C98  1  0.15310000  0.43000000  0.54055000  1.0 -0.0262389037
C  C99  1  0.57000000  0.72310000  0.54055000  1.0 -0.0262389037
C  C100  1  0.72310000  0.15310000  0.04055000  1.0 -0.0262389037
C  C101  1  0.84690000  0.57000000  0.04055000  1.0 -0.0262389037
C  C102  1  0.43000000  0.27690000  0.04055000  1.0 -0.0262389037
C  C103  1  0.84690000  0.27690000  0.45945000  1.0 -0.0262389037
C  C104  1  0.43000000  0.15310000  0.45945000  1.0 -0.0262389037
C  C105  1  0.72310000  0.57000000  0.45945000  1.0 -0.0262389037
C  C106  1  0.15310000  0.72310000  0.95945000  1.0 -0.0262389037
C  C107  1  0.57000000  0.84690000  0.95945000  1.0 -0.0262389037
C  C108  1  0.27690000  0.43000000  0.95945000  1.0 -0.0262389037
C  C109  1  0.72310000  0.15310000  0.45945000  1.0 -0.0262389037
C  C110  1  0.84690000  0.57000000  0.45945000  1.0 -0.0262389037
C  C111  1  0.43000000  0.27690000  0.45945000  1.0 -0.0262389037
C  C112  1  0.27690000  0.84690000  0.95945000  1.0 -0.0262389037
C  C113  1  0.15310000  0.43000000  0.95945000  1.0 -0.0262389037
C  C114  1  0.57000000  0.72310000  0.95945000  1.0 -0.0262389037
C  C115  1  0.15310000  0.72310000  0.54055000  1.0 -0.0262389037
C  C116  1  0.57000000  0.84690000  0.54055000  1.0 -0.0262389037
C  C117  1  0.27690000  0.43000000  0.54055000  1.0 -0.0262389037
C  C118  1  0.84690000  0.27690000  0.04055000  1.0 -0.0262389037
C  C119  1  0.43000000  0.15310000  0.04055000  1.0 -0.0262389037
C  C120  1  0.72310000  0.57000000  0.04055000  1.0 -0.0262389037
C  C121  1  0.22374000  0.77626000  0.52379000  1.0 -0.1426343406
C  C122  1  0.22374000  0.44748000  0.52379000  1.0 -0.1426343406
C  C123  1  0.55252000  0.77626000  0.52379000  1.0 -0.1455557371
C  C124  1  0.77626000  0.22374000  0.02379000  1.0 -0.1426343406
C  C125  1  0.77626000  0.55252000  0.02379000  1.0 -0.1426343406
C  C126  1  0.44748000  0.22374000  0.02379000  1.0 -0.1426343406
C  C127  1  0.77626000  0.22374000  0.47621000  1.0 -0.1426343406
C  C128  1  0.44748000  0.22374000  0.47621000  1.0 -0.1426343406
C  C129  1  0.77626000  0.55252000  0.47621000  1.0 -0.1426343406
C  C130  1  0.22374000  0.77626000  0.97621000  1.0 -0.1426343406
C  C131  1  0.55252000  0.77626000  0.97621000  1.0 -0.1455557371
C  C132  1  0.22374000  0.44748000  0.97621000  1.0 -0.1426343406
C  C133  1  0.26410000  0.86180000  0.57600000  1.0 -0.0506469291
C  C134  1  0.13820000  0.40230000  0.57600000  1.0 -0.0506469291
C  C135  1  0.59770000  0.73590000  0.57600000  1.0 -0.0506469291
C  C136  1  0.73590000  0.13820000  0.07600000  1.0 -0.0506469291
C  C137  1  0.86180000  0.59770000  0.07600000  1.0 -0.0506469291
C  C138  1  0.40230000  0.26410000  0.07600000  1.0 -0.0506469291
C  C139  1  0.86180000  0.26410000  0.42400000  1.0 -0.0506469291
C  C140  1  0.40230000  0.13820000  0.42400000  1.0 -0.0605754243
C  C141  1  0.73590000  0.59770000  0.42400000  1.0 -0.0506469291
C  C142  1  0.13820000  0.73590000  0.92400000  1.0 -0.0605754243
C  C143  1  0.59770000  0.86180000  0.92400000  1.0 -0.0506469291
C  C144  1  0.26410000  0.40230000  0.92400000  1.0 -0.0506469291
C  C145  1  0.73590000  0.13820000  0.42400000  1.0 -0.0506469291
C  C146  1  0.86180000  0.59770000  0.42400000  1.0 -0.0506469291
C  C147  1  0.40230000  0.26410000  0.42400000  1.0 -0.0506469291
C  C148  1  0.26410000  0.86180000  0.92400000  1.0 -0.0506469291
C  C149  1  0.13820000  0.40230000  0.92400000  1.0 -0.0506469291
C  C150  1  0.59770000  0.73590000  0.92400000  1.0 -0.0506469291
C  C151  1  0.13820000  0.73590000  0.57600000  1.0 -0.0605754243
C  C152  1  0.59770000  0.86180000  0.57600000  1.0 -0.0506469291
C  C153  1  0.26410000  0.40230000  0.57600000  1.0 -0.0506469291
C  C154  1  0.86180000  0.26410000  0.07600000  1.0 -0.0506469291
C  C155  1  0.40230000  0.13820000  0.07600000  1.0 -0.0605754243
C  C156  1  0.73590000  0.59770000  0.07600000  1.0 -0.0506469291
C  C157  1  0.19840000  0.80160000  0.59430000  1.0 0.1003989776
C  C158  1  0.19840000  0.39680000  0.59430000  1.0 0.0793368059
C  C159  1  0.60320000  0.80160000  0.59430000  1.0 0.1003989776
C  C160  1  0.80160000  0.19840000  0.09430000  1.0 0.1003989776
C  C161  1  0.80160000  0.60320000  0.09430000  1.0 0.0793368059
C  C162  1  0.39680000  0.19840000  0.09430000  1.0 0.1003989776
C  C163  1  0.80160000  0.19840000  0.40570000  1.0 0.0793368059
C  C164  1  0.39680000  0.19840000  0.40570000  1.0 0.0793368059
C  C165  1  0.80160000  0.60320000  0.40570000  1.0 0.0793368059
C  C166  1  0.19840000  0.80160000  0.90570000  1.0 0.1003989776
C  C167  1  0.60320000  0.80160000  0.90570000  1.0 0.1003989776
C  C168  1  0.19840000  0.39680000  0.90570000  1.0 0.0793368059
C  C169  1  0.25070000  0.87200000  0.57020000  1.0 -0.0430595312
C  C170  1  0.12800000  0.37870000  0.57020000  1.0 -0.0506469291
C  C171  1  0.62130000  0.74930000  0.57020000  1.0 -0.0430595312
C  C172  1  0.74930000  0.12800000  0.07020000  1.0 -0.0506469291
C  C173  1  0.87200000  0.62130000  0.07020000  1.0 -0.0506469291
C  C174  1  0.37870000  0.25070000  0.07020000  1.0 -0.0506469291
C  C175  1  0.87200000  0.25070000  0.42980000  1.0 -0.0506469291
C  C176  1  0.37870000  0.12800000  0.42980000  1.0 -0.0506469291
C  C177  1  0.74930000  0.62130000  0.42980000  1.0 -0.0506469291
C  C178  1  0.12800000  0.74930000  0.92980000  1.0 -0.0506469291
C  C179  1  0.62130000  0.87200000  0.92980000  1.0 -0.0430595312
C  C180  1  0.25070000  0.37870000  0.92980000  1.0 -0.0430595312
C  C181  1  0.74930000  0.12800000  0.42980000  1.0 -0.0506469291
C  C182  1  0.87200000  0.62130000  0.42980000  1.0 -0.0506469291
C  C183  1  0.37870000  0.25070000  0.42980000  1.0 -0.0506469291
C  C184  1  0.25070000  0.87200000  0.92980000  1.0 -0.0430595312
C  C185  1  0.12800000  0.37870000  0.92980000  1.0 -0.0506469291
C  C186  1  0.62130000  0.74930000  0.92980000  1.0 -0.0430595312
C  C187  1  0.12800000  0.74930000  0.57020000  1.0 -0.0506469291
C  C188  1  0.62130000  0.87200000  0.57020000  1.0 -0.0430595312
C  C189  1  0.25070000  0.37870000  0.57020000  1.0 -0.0430595312
C  C190  1  0.87200000  0.25070000  0.07020000  1.0 -0.0506469291
C  C191  1  0.37870000  0.12800000  0.07020000  1.0 -0.0506469291
C  C192  1  0.74930000  0.62130000  0.07020000  1.0 -0.0506469291
C  C193  1  0.17560000  0.82440000  0.58550000  1.0 0.1065120983
C  C194  1  0.17560000  0.35120000  0.58550000  1.0 0.1065120983
C  C195  1  0.64880000  0.82440000  0.58550000  1.0 0.1065120983
C  C196  1  0.82440000  0.17560000  0.08550000  1.0 0.1309721429
C  C197  1  0.82440000  0.64880000  0.08550000  1.0 0.1309721429
C  C198  1  0.35120000  0.17560000  0.08550000  1.0 0.1309721429
C  C199  1  0.82440000  0.17560000  0.41450000  1.0 0.1309721429
C  C200  1  0.35120000  0.17560000  0.41450000  1.0 0.1309721429
C  C201  1  0.82440000  0.64880000  0.41450000  1.0 0.1309721429
C  C202  1  0.17560000  0.82440000  0.91450000  1.0 0.1065120983
C  C203  1  0.64880000  0.82440000  0.91450000  1.0 0.1065120983
C  C204  1  0.17560000  0.35120000  0.91450000  1.0 0.1065120983
Br  Br1  1  0.17770000  0.82230000  0.64431000  1.0 -0.2171968749
Br  Br2  1  0.17770000  0.35540000  0.64431000  1.0 -0.2114405805
Br  Br3  1  0.64460000  0.82230000  0.64431000  1.0 -0.2171968749
Br  Br4  1  0.82230000  0.17770000  0.14431000  1.0 -0.2171968749
Br  Br5  1  0.82230000  0.64460000  0.14431000  1.0 -0.2171968749
Br  Br6  1  0.35540000  0.17770000  0.14431000  1.0 -0.2171968749
Br  Br7  1  0.82230000  0.17770000  0.35569000  1.0 -0.2171968749
Br  Br8  1  0.35540000  0.17770000  0.35569000  1.0 -0.2171968749
Br  Br9  1  0.82230000  0.64460000  0.35569000  1.0 -0.2171968749
Br  Br10  1  0.17770000  0.82230000  0.85569000  1.0 -0.2114405805
Br  Br11  1  0.64460000  0.82230000  0.85569000  1.0 -0.2114405805
Br  Br12  1  0.17770000  0.35540000  0.85569000  1.0 -0.2114405805
Br  Br13  1  0.14212000  0.85788000  0.62820000  1.0 -0.1989147956
Br  Br14  1  0.14212000  0.28424000  0.62820000  1.0 -0.1928570295
Br  Br15  1  0.71576000  0.85788000  0.62820000  1.0 -0.1989147956
Br  Br16  1  0.85788000  0.14212000  0.12820000  1.0 -0.1989147956
Br  Br17  1  0.85788000  0.71576000  0.12820000  1.0 -0.1989147956
Br  Br18  1  0.28424000  0.14212000  0.12820000  1.0 -0.1989147956
Br  Br19  1  0.85788000  0.14212000  0.37180000  1.0 -0.1989147956
Br  Br20  1  0.28424000  0.14212000  0.37180000  1.0 -0.1989147956
Br  Br21  1  0.85788000  0.71576000  0.37180000  1.0 -0.1989147956
Br  Br22  1  0.14212000  0.85788000  0.87180000  1.0 -0.1989147956
Br  Br23  1  0.71576000  0.85788000  0.87180000  1.0 -0.1989147956
Br  Br24  1  0.14212000  0.28424000  0.87180000  1.0 -0.1928570295
N  N1  1  0.54465000  0.08930000  0.58733000  1.0 -0.1745065353
N  N2  1  0.91070000  0.45535000  0.58733000  1.0 -0.1745065353
N  N3  1  0.54465000  0.45535000  0.58733000  1.0 -0.1745065353
N  N4  1  0.45535000  0.91070000  0.08733000  1.0 -0.1745065353
N  N5  1  0.08930000  0.54465000  0.08733000  1.0 -0.1745065353
N  N6  1  0.45535000  0.54465000  0.08733000  1.0 -0.1745065353
N  N7  1  0.08930000  0.54465000  0.41267000  1.0 -0.1745065353
N  N8  1  0.45535000  0.91070000  0.41267000  1.0 -0.1745065353
N  N9  1  0.45535000  0.54465000  0.41267000  1.0 -0.1745065353
N  N10  1  0.91070000  0.45535000  0.91267000  1.0 -0.1745065353
N  N11  1  0.54465000  0.08930000  0.91267000  1.0 -0.1745065353
N  N12  1  0.54465000  0.45535000  0.91267000  1.0 -0.175518992
O  O1  1  0.54282000  0.20203000  0.71025000  1.0 -0.5664488549
O  O2  1  0.79797000  0.34079000  0.71025000  1.0 -0.5664488549
O  O3  1  0.65921000  0.45718000  0.71025000  1.0 -0.5664488549
O  O4  1  0.45718000  0.79797000  0.21025000  1.0 -0.5664488549
O  O5  1  0.20203000  0.65921000  0.21025000  1.0 -0.5664488549
O  O6  1  0.34079000  0.54282000  0.21025000  1.0 -0.5664488549
O  O7  1  0.20203000  0.54282000  0.28975000  1.0 -0.5664488549
O  O8  1  0.34079000  0.79797000  0.28975000  1.0 -0.5664488549
O  O9  1  0.45718000  0.65921000  0.28975000  1.0 -0.5664488549
O  O10  1  0.79797000  0.45718000  0.78975000  1.0 -0.5664488549
O  O11  1  0.65921000  0.20203000  0.78975000  1.0 -0.5664488549
O  O12  1  0.54282000  0.34079000  0.78975000  1.0 -0.5664488549
O  O13  1  0.45718000  0.79797000  0.28975000  1.0 -0.5664488549
O  O14  1  0.20203000  0.65921000  0.28975000  1.0 -0.5664488549
O  O15  1  0.34079000  0.54282000  0.28975000  1.0 -0.5664488549
O  O16  1  0.54282000  0.20203000  0.78975000  1.0 -0.5664488549
O  O17  1  0.79797000  0.34079000  0.78975000  1.0 -0.5664488549
O  O18  1  0.65921000  0.45718000  0.78975000  1.0 -0.5664488549
O  O19  1  0.79797000  0.45718000  0.71025000  1.0 -0.5664488549
O  O20  1  0.65921000  0.20203000  0.71025000  1.0 -0.5664488549
O  O21  1  0.54282000  0.34079000  0.71025000  1.0 -0.5664488549
O  O22  1  0.20203000  0.54282000  0.21025000  1.0 -0.5664488549
O  O23  1  0.34079000  0.79797000  0.21025000  1.0 -0.5664488549
O  O24  1  0.45718000  0.65921000  0.21025000  1.0 -0.5664488549
O  O25  1  0.40615000  0.96204000  0.54259000  1.0 -0.5107804586
O  O26  1  0.03796000  0.44411000  0.54259000  1.0 -0.5107804586
O  O27  1  0.55589000  0.59385000  0.54259000  1.0 -0.5107804586
O  O28  1  0.59385000  0.03796000  0.04259000  1.0 -0.5107804586
O  O29  1  0.96204000  0.55589000  0.04259000  1.0 -0.5107804586
O  O30  1  0.44411000  0.40615000  0.04259000  1.0 -0.5107804586
O  O31  1  0.96204000  0.40615000  0.45741000  1.0 -0.5107804586
O  O32  1  0.44411000  0.03796000  0.45741000  1.0 -0.5107804586
O  O33  1  0.59385000  0.55589000  0.45741000  1.0 -0.5107804586
O  O34  1  0.03796000  0.59385000  0.95741000  1.0 -0.5107804586
O  O35  1  0.55589000  0.96204000  0.95741000  1.0 -0.5107804586
O  O36  1  0.40615000  0.44411000  0.95741000  1.0 -0.5107804586
O  O37  1  0.59385000  0.03796000  0.45741000  1.0 -0.5107804586
O  O38  1  0.96204000  0.55589000  0.45741000  1.0 -0.5107804586
O  O39  1  0.44411000  0.40615000  0.45741000  1.0 -0.5107804586
O  O40  1  0.40615000  0.96204000  0.95741000  1.0 -0.5107804586
O  O41  1  0.03796000  0.44411000  0.95741000  1.0 -0.5107804586
O  O42  1  0.55589000  0.59385000  0.95741000  1.0 -0.5107804586
O  O43  1  0.03796000  0.59385000  0.54259000  1.0 -0.5107804586
O  O44  1  0.55589000  0.96204000  0.54259000  1.0 -0.5107804586
O  O45  1  0.40615000  0.44411000  0.54259000  1.0 -0.5107804586
O  O46  1  0.96204000  0.40615000  0.04259000  1.0 -0.5107804586
O  O47  1  0.44411000  0.03796000  0.04259000  1.0 -0.5107804586
O  O48  1  0.59385000  0.55589000  0.04259000  1.0 -0.5107804586
O  O49  1  0.66666667  0.33333333  0.75000000  1.0 -1.0956667686
O  O50  1  0.33333333  0.66666667  0.25000000  1.0 -1.0924918676
O  O51  1  0.36983000  0.88622000  0.49164000  1.0 -0.4879081274
O  O52  1  0.11378000  0.48361000  0.49164000  1.0 -0.4879081274
O  O53  1  0.51639000  0.63017000  0.49164000  1.0 -0.4879081274
O  O54  1  0.63017000  0.11378000  0.99164000  1.0 -0.4879081274
O  O55  1  0.88622000  0.51639000  0.99164000  1.0 -0.4879081274
O  O56  1  0.48361000  0.36983000  0.99164000  1.0 -0.4879081274
O  O57  1  0.88622000  0.36983000  0.50836000  1.0 -0.4879081274
O  O58  1  0.48361000  0.11378000  0.50836000  1.0 -0.4879081274
O  O59  1  0.63017000  0.51639000  0.50836000  1.0 -0.4879081274
O  O60  1  0.11378000  0.63017000  0.00836000  1.0 -0.4879081274
O  O61  1  0.51639000  0.88622000  0.00836000  1.0 -0.4879081274
O  O62  1  0.36983000  0.48361000  0.00836000  1.0 -0.4879081274
O  O63  1  0.63017000  0.11378000  0.50836000  1.0 -0.4879081274
O  O64  1  0.88622000  0.51639000  0.50836000  1.0 -0.4879081274
O  O65  1  0.48361000  0.36983000  0.50836000  1.0 -0.4879081274
O  O66  1  0.36983000  0.88622000  0.00836000  1.0 -0.4879081274
O  O67  1  0.11378000  0.48361000  0.00836000  1.0 -0.4879081274
O  O68  1  0.51639000  0.63017000  0.00836000  1.0 -0.4879081274
O  O69  1  0.11378000  0.63017000  0.49164000  1.0 -0.4879081274
O  O70  1  0.51639000  0.88622000  0.49164000  1.0 -0.4879081274
O  O71  1  0.36983000  0.48361000  0.49164000  1.0 -0.4879081274
O  O72  1  0.88622000  0.36983000  0.99164000  1.0 -0.4879081274
O  O73  1  0.48361000  0.11378000  0.99164000  1.0 -0.4879081274
O  O74  1  0.63017000  0.51639000  0.99164000  1.0 -0.4879081274
