# DDEC6 charges by PACMAN v1.1 (https://github.com/mtap-research/PACMAN-charge/)
data_YILBOM_ASR_pacman
_symmetry_space_group_name_H-M   'P 1'
_cell_length_a   19.27700000
_cell_length_b   19.27700000
_cell_length_c   36.02300000
_cell_angle_alpha   90.00000000
_cell_angle_beta   90.00000000
_cell_angle_gamma   120.00000000
_symmetry_Int_Tables_number   1
_chemical_formula_structural   Zn6Cr3H126C114N6O37
_chemical_formula_sum   'Zn12 Cr6 H252 C228 N12 O74'
_cell_volume   11592.82832375
_cell_formula_units_Z   2
loop_
 _symmetry_equiv_pos_site_id
 _symmetry_equiv_pos_as_xyz
  1  'x, y, z'
loop_
 _atom_site_type_symbol
 _atom_site_label
 _atom_site_symmetry_multiplicity
 _atom_site_fract_x
 _atom_site_fract_y
 _atom_site_fract_z
 _atom_site_occupancy
 _atom_site_charge
Zn  Zn1  1  0.52297000  0.04595000  0.96556000  1.0 0.8184234454
Zn  Zn2  1  0.95405000  0.47702000  0.96556000  1.0 0.8184234454
Zn  Zn3  1  0.52297000  0.47702000  0.96556000  1.0 0.8184234454
Zn  Zn4  1  0.47702000  0.95405000  0.46556000  1.0 0.8184234454
Zn  Zn5  1  0.04595000  0.52297000  0.46556000  1.0 0.8184234454
Zn  Zn6  1  0.47702000  0.52297000  0.46556000  1.0 0.8184234454
Zn  Zn7  1  0.04595000  0.52297000  0.03444000  1.0 0.8184234454
Zn  Zn8  1  0.47702000  0.95405000  0.03444000  1.0 0.8184234454
Zn  Zn9  1  0.47702000  0.52297000  0.03444000  1.0 0.8184234454
Zn  Zn10  1  0.95405000  0.47702000  0.53444000  1.0 0.8184234454
Zn  Zn11  1  0.52297000  0.04595000  0.53444000  1.0 0.8184234454
Zn  Zn12  1  0.52297000  0.47702000  0.53444000  1.0 0.8184234454
Cr  Cr1  1  0.72392000  0.27608000  0.75000000  1.0 1.4438579741
Cr  Cr2  1  0.72392000  0.44784000  0.75000000  1.0 1.4438579741
Cr  Cr3  1  0.55216000  0.27608000  0.75000000  1.0 1.4438579741
Cr  Cr4  1  0.27608000  0.72392000  0.25000000  1.0 1.4453758899
Cr  Cr5  1  0.27608000  0.55216000  0.25000000  1.0 1.4438579741
Cr  Cr6  1  0.44784000  0.72392000  0.25000000  1.0 1.4438579741
H  H1  1  0.47710000  0.23855000  0.00070000  1.0 0.1664750505
H  H2  1  0.76145000  0.23855000  0.00070000  1.0 0.1664750505
H  H3  1  0.76145000  0.52290000  0.00070000  1.0 0.1664750505
H  H4  1  0.52290000  0.76145000  0.50070000  1.0 0.1664750505
H  H5  1  0.23855000  0.76145000  0.50070000  1.0 0.1664750505
H  H6  1  0.23855000  0.47710000  0.50070000  1.0 0.1664750505
H  H7  1  0.23855000  0.47710000  0.99930000  1.0 0.1664750505
H  H8  1  0.23855000  0.76145000  0.99930000  1.0 0.1664750505
H  H9  1  0.52290000  0.76145000  0.99930000  1.0 0.1664750505
H  H10  1  0.76145000  0.52290000  0.49930000  1.0 0.1664750505
H  H11  1  0.76145000  0.23855000  0.49930000  1.0 0.1664750505
H  H12  1  0.47710000  0.23855000  0.49930000  1.0 0.1664750505
H  H13  1  0.44420000  0.08850000  0.90660000  1.0 0.197096111
H  H14  1  0.91150000  0.35570000  0.90660000  1.0 0.197096111
H  H15  1  0.64430000  0.55580000  0.90660000  1.0 0.197096111
H  H16  1  0.55580000  0.91150000  0.40660000  1.0 0.197096111
H  H17  1  0.08850000  0.64430000  0.40660000  1.0 0.197096111
H  H18  1  0.35570000  0.44420000  0.40660000  1.0 0.197096111
H  H19  1  0.08850000  0.44420000  0.09340000  1.0 0.197096111
H  H20  1  0.35570000  0.91150000  0.09340000  1.0 0.197096111
H  H21  1  0.55580000  0.64430000  0.09340000  1.0 0.197096111
H  H22  1  0.91150000  0.55580000  0.59340000  1.0 0.197096111
H  H23  1  0.64430000  0.08850000  0.59340000  1.0 0.197096111
H  H24  1  0.44420000  0.35570000  0.59340000  1.0 0.197096111
H  H25  1  0.55580000  0.91150000  0.09340000  1.0 0.197096111
H  H26  1  0.08850000  0.64430000  0.09340000  1.0 0.197096111
H  H27  1  0.35570000  0.44420000  0.09340000  1.0 0.197096111
H  H28  1  0.44420000  0.08850000  0.59340000  1.0 0.197096111
H  H29  1  0.91150000  0.35570000  0.59340000  1.0 0.197096111
H  H30  1  0.64430000  0.55580000  0.59340000  1.0 0.197096111
H  H31  1  0.91150000  0.55580000  0.90660000  1.0 0.197096111
H  H32  1  0.64430000  0.08850000  0.90660000  1.0 0.197096111
H  H33  1  0.44420000  0.35570000  0.90660000  1.0 0.197096111
H  H34  1  0.08850000  0.44420000  0.40660000  1.0 0.197096111
H  H35  1  0.35570000  0.91150000  0.40660000  1.0 0.197096111
H  H36  1  0.55580000  0.64430000  0.40660000  1.0 0.197096111
H  H37  1  0.46740000  0.14130000  0.84770000  1.0 0.1441050697
H  H38  1  0.85870000  0.32610000  0.84770000  1.0 0.1441050697
H  H39  1  0.67390000  0.53260000  0.84770000  1.0 0.1441050697
H  H40  1  0.53260000  0.85870000  0.34770000  1.0 0.145498738
H  H41  1  0.14130000  0.67390000  0.34770000  1.0 0.1441050697
H  H42  1  0.32610000  0.46740000  0.34770000  1.0 0.145498738
H  H43  1  0.14130000  0.46740000  0.15230000  1.0 0.145498738
H  H44  1  0.32610000  0.85870000  0.15230000  1.0 0.145498738
H  H45  1  0.53260000  0.67390000  0.15230000  1.0 0.1441050697
H  H46  1  0.85870000  0.53260000  0.65230000  1.0 0.1441050697
H  H47  1  0.67390000  0.14130000  0.65230000  1.0 0.1441050697
H  H48  1  0.46740000  0.32610000  0.65230000  1.0 0.145498738
H  H49  1  0.53260000  0.85870000  0.15230000  1.0 0.145498738
H  H50  1  0.14130000  0.67390000  0.15230000  1.0 0.1441050697
H  H51  1  0.32610000  0.46740000  0.15230000  1.0 0.145498738
H  H52  1  0.46740000  0.14130000  0.65230000  1.0 0.1441050697
H  H53  1  0.85870000  0.32610000  0.65230000  1.0 0.1441050697
H  H54  1  0.67390000  0.53260000  0.65230000  1.0 0.1441050697
H  H55  1  0.85870000  0.53260000  0.84770000  1.0 0.1441050697
H  H56  1  0.67390000  0.14130000  0.84770000  1.0 0.1441050697
H  H57  1  0.46740000  0.32610000  0.84770000  1.0 0.145498738
H  H58  1  0.14130000  0.46740000  0.34770000  1.0 0.145498738
H  H59  1  0.32610000  0.85870000  0.34770000  1.0 0.145498738
H  H60  1  0.53260000  0.67390000  0.34770000  1.0 0.1441050697
H  H61  1  0.35240000  0.07300000  0.07800000  1.0 0.0265857667
H  H62  1  0.92700000  0.27940000  0.07800000  1.0 0.0232586944
H  H63  1  0.72060000  0.64760000  0.07800000  1.0 0.0232586944
H  H64  1  0.64760000  0.92700000  0.57800000  1.0 0.0265857667
H  H65  1  0.07300000  0.72060000  0.57800000  1.0 0.0265857667
H  H66  1  0.27940000  0.35240000  0.57800000  1.0 0.0265857667
H  H67  1  0.07300000  0.35240000  0.92200000  1.0 0.0265857667
H  H68  1  0.27940000  0.92700000  0.92200000  1.0 0.0265857667
H  H69  1  0.64760000  0.72060000  0.92200000  1.0 0.0265857667
H  H70  1  0.92700000  0.64760000  0.42200000  1.0 0.0232586944
H  H71  1  0.72060000  0.07300000  0.42200000  1.0 0.0232586944
H  H72  1  0.35240000  0.27940000  0.42200000  1.0 0.0265857667
H  H73  1  0.64760000  0.92700000  0.92200000  1.0 0.0265857667
H  H74  1  0.07300000  0.72060000  0.92200000  1.0 0.0265857667
H  H75  1  0.27940000  0.35240000  0.92200000  1.0 0.0265857667
H  H76  1  0.35240000  0.07300000  0.42200000  1.0 0.0265857667
H  H77  1  0.92700000  0.27940000  0.42200000  1.0 0.0232586944
H  H78  1  0.72060000  0.64760000  0.42200000  1.0 0.0232586944
H  H79  1  0.92700000  0.64760000  0.07800000  1.0 0.0232586944
H  H80  1  0.72060000  0.07300000  0.07800000  1.0 0.0232586944
H  H81  1  0.35240000  0.27940000  0.07800000  1.0 0.0265857667
H  H82  1  0.07300000  0.35240000  0.57800000  1.0 0.0265857667
H  H83  1  0.27940000  0.92700000  0.57800000  1.0 0.0265857667
H  H84  1  0.64760000  0.72060000  0.57800000  1.0 0.0265857667
H  H85  1  0.41100000  0.10270000  0.09190000  1.0 0.0483305342
H  H86  1  0.89730000  0.30830000  0.09190000  1.0 0.0483305342
H  H87  1  0.69170000  0.58900000  0.09190000  1.0 0.0483305342
H  H88  1  0.58900000  0.89730000  0.59190000  1.0 0.0483305342
H  H89  1  0.10270000  0.69170000  0.59190000  1.0 0.0483305342
H  H90  1  0.30830000  0.41100000  0.59190000  1.0 0.0483305342
H  H91  1  0.10270000  0.41100000  0.90810000  1.0 0.0483305342
H  H92  1  0.30830000  0.89730000  0.90810000  1.0 0.0483305342
H  H93  1  0.58900000  0.69170000  0.90810000  1.0 0.0483305342
H  H94  1  0.89730000  0.58900000  0.40810000  1.0 0.0483305342
H  H95  1  0.69170000  0.10270000  0.40810000  1.0 0.0483305342
H  H96  1  0.41100000  0.30830000  0.40810000  1.0 0.0483305342
H  H97  1  0.58900000  0.89730000  0.90810000  1.0 0.0483305342
H  H98  1  0.10270000  0.69170000  0.90810000  1.0 0.0483305342
H  H99  1  0.30830000  0.41100000  0.90810000  1.0 0.0483305342
H  H100  1  0.41100000  0.10270000  0.40810000  1.0 0.0483305342
H  H101  1  0.89730000  0.30830000  0.40810000  1.0 0.0483305342
H  H102  1  0.69170000  0.58900000  0.40810000  1.0 0.0483305342
H  H103  1  0.89730000  0.58900000  0.09190000  1.0 0.0483305342
H  H104  1  0.69170000  0.10270000  0.09190000  1.0 0.0483305342
H  H105  1  0.41100000  0.30830000  0.09190000  1.0 0.0483305342
H  H106  1  0.10270000  0.41100000  0.59190000  1.0 0.0483305342
H  H107  1  0.30830000  0.89730000  0.59190000  1.0 0.0483305342
H  H108  1  0.58900000  0.69170000  0.59190000  1.0 0.0483305342
H  H109  1  0.34290000  0.21870000  0.14150000  1.0 -0.0106534711
H  H110  1  0.78130000  0.12420000  0.14150000  1.0 -0.0106534711
H  H111  1  0.87580000  0.65710000  0.14150000  1.0 -0.0106534711
H  H112  1  0.65710000  0.78130000  0.64150000  1.0 -0.0106534711
H  H113  1  0.21870000  0.87580000  0.64150000  1.0 -0.0106534711
H  H114  1  0.12420000  0.34290000  0.64150000  1.0 -0.0106534711
H  H115  1  0.21870000  0.34290000  0.85850000  1.0 -0.0106534711
H  H116  1  0.12420000  0.78130000  0.85850000  1.0 -0.0106534711
H  H117  1  0.65710000  0.87580000  0.85850000  1.0 -0.0106534711
H  H118  1  0.78130000  0.65710000  0.35850000  1.0 -0.0106534711
H  H119  1  0.87580000  0.21870000  0.35850000  1.0 -0.0106534711
H  H120  1  0.34290000  0.12420000  0.35850000  1.0 -0.0167699341
H  H121  1  0.65710000  0.78130000  0.85850000  1.0 -0.0106534711
H  H122  1  0.21870000  0.87580000  0.85850000  1.0 -0.0106534711
H  H123  1  0.12420000  0.34290000  0.85850000  1.0 -0.0106534711
H  H124  1  0.34290000  0.21870000  0.35850000  1.0 -0.0106534711
H  H125  1  0.78130000  0.12420000  0.35850000  1.0 -0.0106534711
H  H126  1  0.87580000  0.65710000  0.35850000  1.0 -0.0106534711
H  H127  1  0.78130000  0.65710000  0.14150000  1.0 -0.0106534711
H  H128  1  0.87580000  0.21870000  0.14150000  1.0 -0.0106534711
H  H129  1  0.34290000  0.12420000  0.14150000  1.0 -0.0167699341
H  H130  1  0.21870000  0.34290000  0.64150000  1.0 -0.0106534711
H  H131  1  0.12420000  0.78130000  0.64150000  1.0 -0.0106534711
H  H132  1  0.65710000  0.87580000  0.64150000  1.0 -0.0106534711
H  H133  1  0.39330000  0.17660000  0.15100000  1.0 0.0423806376
H  H134  1  0.82340000  0.21670000  0.15100000  1.0 0.0423806376
H  H135  1  0.78330000  0.60670000  0.15100000  1.0 0.0483305342
H  H136  1  0.60670000  0.82340000  0.65100000  1.0 0.0423806376
H  H137  1  0.17660000  0.78330000  0.65100000  1.0 0.0423806376
H  H138  1  0.21670000  0.39330000  0.65100000  1.0 0.0423806376
H  H139  1  0.17660000  0.39330000  0.84900000  1.0 0.0423806376
H  H140  1  0.21670000  0.82340000  0.84900000  1.0 0.0423806376
H  H141  1  0.60670000  0.78330000  0.84900000  1.0 0.0423806376
H  H142  1  0.82340000  0.60670000  0.34900000  1.0 0.0483305342
H  H143  1  0.78330000  0.17660000  0.34900000  1.0 0.0423806376
H  H144  1  0.39330000  0.21670000  0.34900000  1.0 0.0423806376
H  H145  1  0.60670000  0.82340000  0.84900000  1.0 0.0483305342
H  H146  1  0.17660000  0.78330000  0.84900000  1.0 0.0423806376
H  H147  1  0.21670000  0.39330000  0.84900000  1.0 0.0423806376
H  H148  1  0.39330000  0.17660000  0.34900000  1.0 0.0423806376
H  H149  1  0.82340000  0.21670000  0.34900000  1.0 0.0423806376
H  H150  1  0.78330000  0.60670000  0.34900000  1.0 0.0483305342
H  H151  1  0.82340000  0.60670000  0.15100000  1.0 0.0483305342
H  H152  1  0.78330000  0.17660000  0.15100000  1.0 0.0423806376
H  H153  1  0.39330000  0.21670000  0.15100000  1.0 0.0423806376
H  H154  1  0.17660000  0.39330000  0.65100000  1.0 0.0423806376
H  H155  1  0.21670000  0.82340000  0.65100000  1.0 0.0423806376
H  H156  1  0.60670000  0.78330000  0.65100000  1.0 0.0423806376
H  H157  1  0.30570000  0.12570000  0.13450000  1.0 -0.1432752565
H  H158  1  0.87430000  0.18000000  0.13450000  1.0 -0.1432752565
H  H159  1  0.82000000  0.69430000  0.13450000  1.0 -0.1432752565
H  H160  1  0.69430000  0.87430000  0.63450000  1.0 -0.1432752565
H  H161  1  0.12570000  0.82000000  0.63450000  1.0 -0.1481315319
H  H162  1  0.18000000  0.30570000  0.63450000  1.0 -0.1481315319
H  H163  1  0.12570000  0.30570000  0.86550000  1.0 -0.1481315319
H  H164  1  0.18000000  0.87430000  0.86550000  1.0 -0.1432752565
H  H165  1  0.69430000  0.82000000  0.86550000  1.0 -0.1481315319
H  H166  1  0.87430000  0.69430000  0.36550000  1.0 -0.1432752565
H  H167  1  0.82000000  0.12570000  0.36550000  1.0 -0.1432752565
H  H168  1  0.30570000  0.18000000  0.36550000  1.0 -0.1432752565
H  H169  1  0.69430000  0.87430000  0.86550000  1.0 -0.1432752565
H  H170  1  0.12570000  0.82000000  0.86550000  1.0 -0.1481315319
H  H171  1  0.18000000  0.30570000  0.86550000  1.0 -0.1481315319
H  H172  1  0.30570000  0.12570000  0.36550000  1.0 -0.1432752565
H  H173  1  0.87430000  0.18000000  0.36550000  1.0 -0.1432752565
H  H174  1  0.82000000  0.69430000  0.36550000  1.0 -0.1432752565
H  H175  1  0.87430000  0.69430000  0.13450000  1.0 -0.1432752565
H  H176  1  0.82000000  0.12570000  0.13450000  1.0 -0.1432752565
H  H177  1  0.30570000  0.18000000  0.13450000  1.0 -0.1432752565
H  H178  1  0.12570000  0.30570000  0.63450000  1.0 -0.1481315319
H  H179  1  0.18000000  0.87430000  0.63450000  1.0 -0.1432752565
H  H180  1  0.69430000  0.82000000  0.63450000  1.0 -0.1481315319
H  H181  1  0.32720000  0.18660000  0.14090000  1.0 -0.1481315319
H  H182  1  0.81340000  0.14060000  0.14090000  1.0 -0.1481315319
H  H183  1  0.85940000  0.67280000  0.14090000  1.0 -0.1481315319
H  H184  1  0.67280000  0.81340000  0.64090000  1.0 -0.1481315319
H  H185  1  0.18660000  0.85940000  0.64090000  1.0 -0.1481315319
H  H186  1  0.14060000  0.32720000  0.64090000  1.0 -0.1481315319
H  H187  1  0.18660000  0.32720000  0.85910000  1.0 -0.1481315319
H  H188  1  0.14060000  0.81340000  0.85910000  1.0 -0.1481315319
H  H189  1  0.67280000  0.85940000  0.85910000  1.0 -0.1432752565
H  H190  1  0.81340000  0.67280000  0.35910000  1.0 -0.1481315319
H  H191  1  0.85940000  0.18660000  0.35910000  1.0 -0.1481315319
H  H192  1  0.32720000  0.14060000  0.35910000  1.0 -0.1481315319
H  H193  1  0.67280000  0.81340000  0.85910000  1.0 -0.1481315319
H  H194  1  0.18660000  0.85940000  0.85910000  1.0 -0.1481315319
H  H195  1  0.14060000  0.32720000  0.85910000  1.0 -0.1481315319
H  H196  1  0.32720000  0.18660000  0.35910000  1.0 -0.1481315319
H  H197  1  0.81340000  0.14060000  0.35910000  1.0 -0.1481315319
H  H198  1  0.85940000  0.67280000  0.35910000  1.0 -0.1481315319
H  H199  1  0.81340000  0.67280000  0.14090000  1.0 -0.1481315319
H  H200  1  0.85940000  0.18660000  0.14090000  1.0 -0.1481315319
H  H201  1  0.32720000  0.14060000  0.14090000  1.0 -0.1481315319
H  H202  1  0.18660000  0.32720000  0.64090000  1.0 -0.1481315319
H  H203  1  0.14060000  0.81340000  0.64090000  1.0 -0.1481315319
H  H204  1  0.67280000  0.85940000  0.64090000  1.0 -0.1432752565
H  H205  1  0.24780000  0.14830000  0.11690000  1.0 0.087434873
H  H206  1  0.85170000  0.09950000  0.11690000  1.0 0.087434873
H  H207  1  0.90050000  0.75220000  0.11690000  1.0 0.087434873
H  H208  1  0.75220000  0.85170000  0.61690000  1.0 0.087434873
H  H209  1  0.14830000  0.90050000  0.61690000  1.0 0.087434873
H  H210  1  0.09950000  0.24780000  0.61690000  1.0 0.087434873
H  H211  1  0.14830000  0.24780000  0.88310000  1.0 0.087434873
H  H212  1  0.09950000  0.85170000  0.88310000  1.0 0.087434873
H  H213  1  0.75220000  0.90050000  0.88310000  1.0 0.087434873
H  H214  1  0.85170000  0.75220000  0.38310000  1.0 0.087434873
H  H215  1  0.90050000  0.14830000  0.38310000  1.0 0.087434873
H  H216  1  0.24780000  0.09950000  0.38310000  1.0 0.087434873
H  H217  1  0.75220000  0.85170000  0.88310000  1.0 0.087434873
H  H218  1  0.14830000  0.90050000  0.88310000  1.0 0.087434873
H  H219  1  0.09950000  0.24780000  0.88310000  1.0 0.087434873
H  H220  1  0.24780000  0.14830000  0.38310000  1.0 0.087434873
H  H221  1  0.85170000  0.09950000  0.38310000  1.0 0.087434873
H  H222  1  0.90050000  0.75220000  0.38310000  1.0 0.087434873
H  H223  1  0.85170000  0.75220000  0.11690000  1.0 0.087434873
H  H224  1  0.90050000  0.14830000  0.11690000  1.0 0.087434873
H  H225  1  0.24780000  0.09950000  0.11690000  1.0 0.087434873
H  H226  1  0.14830000  0.24780000  0.61690000  1.0 0.087434873
H  H227  1  0.09950000  0.85170000  0.61690000  1.0 0.087434873
H  H228  1  0.75220000  0.90050000  0.61690000  1.0 0.087434873
H  H229  1  0.28630000  0.09570000  0.12850000  1.0 0.0232586944
H  H230  1  0.90430000  0.19060000  0.12850000  1.0 0.0232586944
H  H231  1  0.80940000  0.71370000  0.12850000  1.0 0.0232586944
H  H232  1  0.71370000  0.90430000  0.62850000  1.0 0.0232586944
H  H233  1  0.09570000  0.80940000  0.62850000  1.0 0.0232586944
H  H234  1  0.19060000  0.28630000  0.62850000  1.0 0.0232586944
H  H235  1  0.09570000  0.28630000  0.87150000  1.0 0.0232586944
H  H236  1  0.19060000  0.90430000  0.87150000  1.0 0.0232586944
H  H237  1  0.71370000  0.80940000  0.87150000  1.0 0.0265857667
H  H238  1  0.90430000  0.71370000  0.37150000  1.0 0.0265857667
H  H239  1  0.80940000  0.09570000  0.37150000  1.0 0.0232586944
H  H240  1  0.28630000  0.19060000  0.37150000  1.0 0.0232586944
H  H241  1  0.71370000  0.90430000  0.87150000  1.0 0.0232586944
H  H242  1  0.09570000  0.80940000  0.87150000  1.0 0.0232586944
H  H243  1  0.19060000  0.28630000  0.87150000  1.0 0.0232586944
H  H244  1  0.28630000  0.09570000  0.37150000  1.0 0.0232586944
H  H245  1  0.90430000  0.19060000  0.37150000  1.0 0.0232586944
H  H246  1  0.80940000  0.71370000  0.37150000  1.0 0.0232586944
H  H247  1  0.90430000  0.71370000  0.12850000  1.0 0.0265857667
H  H248  1  0.80940000  0.09570000  0.12850000  1.0 0.0232586944
H  H249  1  0.28630000  0.19060000  0.12850000  1.0 0.0232586944
H  H250  1  0.09570000  0.28630000  0.62850000  1.0 0.0232586944
H  H251  1  0.19060000  0.90430000  0.62850000  1.0 0.0232586944
H  H252  1  0.71370000  0.80940000  0.62850000  1.0 0.0265857667
C  C1  1  0.43100000  0.15370000  0.04049000  1.0 0.0483305342
C  C2  1  0.84630000  0.27730000  0.04049000  1.0 0.0483305342
C  C3  1  0.72270000  0.56900000  0.04049000  1.0 0.0483305342
C  C4  1  0.56900000  0.84630000  0.54049000  1.0 0.0483305342
C  C5  1  0.15370000  0.72270000  0.54049000  1.0 0.0483305342
C  C6  1  0.27730000  0.43100000  0.54049000  1.0 0.0483305342
C  C7  1  0.15370000  0.43100000  0.95951000  1.0 0.0483305342
C  C8  1  0.27730000  0.84630000  0.95951000  1.0 0.0483305342
C  C9  1  0.56900000  0.72270000  0.95951000  1.0 0.0483305342
C  C10  1  0.84630000  0.56900000  0.45951000  1.0 0.0483305342
C  C11  1  0.72270000  0.15370000  0.45951000  1.0 0.0483305342
C  C12  1  0.43100000  0.27730000  0.45951000  1.0 0.0483305342
C  C13  1  0.56900000  0.84630000  0.95951000  1.0 0.0483305342
C  C14  1  0.15370000  0.72270000  0.95951000  1.0 0.0483305342
C  C15  1  0.27730000  0.43100000  0.95951000  1.0 0.0483305342
C  C16  1  0.43100000  0.15370000  0.45951000  1.0 0.0483305342
C  C17  1  0.84630000  0.27730000  0.45951000  1.0 0.0483305342
C  C18  1  0.72270000  0.56900000  0.45951000  1.0 0.0483305342
C  C19  1  0.84630000  0.56900000  0.04049000  1.0 0.0483305342
C  C20  1  0.72270000  0.15370000  0.04049000  1.0 0.0483305342
C  C21  1  0.43100000  0.27730000  0.04049000  1.0 0.0483305342
C  C22  1  0.15370000  0.43100000  0.54049000  1.0 0.0483305342
C  C23  1  0.27730000  0.84630000  0.54049000  1.0 0.0483305342
C  C24  1  0.56900000  0.72270000  0.54049000  1.0 0.0483305342
C  C25  1  0.45550000  0.09806000  0.02340000  1.0 0.5277948831
C  C26  1  0.90194000  0.35744000  0.02340000  1.0 0.5277948831
C  C27  1  0.64256000  0.54450000  0.02340000  1.0 0.5277948831
C  C28  1  0.54450000  0.90194000  0.52340000  1.0 0.5277948831
C  C29  1  0.09806000  0.64256000  0.52340000  1.0 0.5277948831
C  C30  1  0.35744000  0.45550000  0.52340000  1.0 0.5277948831
C  C31  1  0.09806000  0.45550000  0.97660000  1.0 0.5277948831
C  C32  1  0.35744000  0.90194000  0.97660000  1.0 0.5277948831
C  C33  1  0.54450000  0.64256000  0.97660000  1.0 0.5277948831
C  C34  1  0.90194000  0.54450000  0.47660000  1.0 0.5277948831
C  C35  1  0.64256000  0.09806000  0.47660000  1.0 0.5277948831
C  C36  1  0.45550000  0.35744000  0.47660000  1.0 0.5277948831
C  C37  1  0.54450000  0.90194000  0.97660000  1.0 0.5277948831
C  C38  1  0.09806000  0.64256000  0.97660000  1.0 0.5277948831
C  C39  1  0.35744000  0.45550000  0.97660000  1.0 0.5277948831
C  C40  1  0.45550000  0.09806000  0.47660000  1.0 0.5277948831
C  C41  1  0.90194000  0.35744000  0.47660000  1.0 0.5277948831
C  C42  1  0.64256000  0.54450000  0.47660000  1.0 0.5277948831
C  C43  1  0.90194000  0.54450000  0.02340000  1.0 0.5277948831
C  C44  1  0.64256000  0.09806000  0.02340000  1.0 0.5277948831
C  C45  1  0.45550000  0.35744000  0.02340000  1.0 0.5277948831
C  C46  1  0.09806000  0.45550000  0.52340000  1.0 0.5277948831
C  C47  1  0.35744000  0.90194000  0.52340000  1.0 0.5277948831
C  C48  1  0.54450000  0.64256000  0.52340000  1.0 0.5277948831
C  C49  1  0.45050000  0.22525000  0.02371000  1.0 0.0089641273
C  C50  1  0.77475000  0.22525000  0.02371000  1.0 0.0089641273
C  C51  1  0.77475000  0.54950000  0.02371000  1.0 0.0089641273
C  C52  1  0.54950000  0.77475000  0.52371000  1.0 0.0089641273
C  C53  1  0.22525000  0.77475000  0.52371000  1.0 0.0089641273
C  C54  1  0.22525000  0.45050000  0.52371000  1.0 0.0089641273
C  C55  1  0.22525000  0.45050000  0.97629000  1.0 0.0089641273
C  C56  1  0.22525000  0.77475000  0.97629000  1.0 0.0089641273
C  C57  1  0.54950000  0.77475000  0.97629000  1.0 0.0089641273
C  C58  1  0.77475000  0.54950000  0.47629000  1.0 0.0089641273
C  C59  1  0.77475000  0.22525000  0.47629000  1.0 0.0089641273
C  C60  1  0.45050000  0.22525000  0.47629000  1.0 0.0089641273
C  C61  1  0.49250000  0.10080000  0.89471000  1.0 0.0658563603
C  C62  1  0.89920000  0.39170000  0.89471000  1.0 0.0658563603
C  C63  1  0.60830000  0.50750000  0.89471000  1.0 0.0658563603
C  C64  1  0.50750000  0.89920000  0.39471000  1.0 0.0658563603
C  C65  1  0.10080000  0.60830000  0.39471000  1.0 0.0658563603
C  C66  1  0.39170000  0.49250000  0.39471000  1.0 0.0658563603
C  C67  1  0.10080000  0.49250000  0.10529000  1.0 0.0658563603
C  C68  1  0.39170000  0.89920000  0.10529000  1.0 0.0658563603
C  C69  1  0.50750000  0.60830000  0.10529000  1.0 0.0658563603
C  C70  1  0.89920000  0.50750000  0.60529000  1.0 0.0658563603
C  C71  1  0.60830000  0.10080000  0.60529000  1.0 0.0658563603
C  C72  1  0.49250000  0.39170000  0.60529000  1.0 0.0658563603
C  C73  1  0.50750000  0.89920000  0.10529000  1.0 0.0658563603
C  C74  1  0.10080000  0.60830000  0.10529000  1.0 0.0658563603
C  C75  1  0.39170000  0.49250000  0.10529000  1.0 0.0658563603
C  C76  1  0.49250000  0.10080000  0.60529000  1.0 0.0658563603
C  C77  1  0.89920000  0.39170000  0.60529000  1.0 0.0658563603
C  C78  1  0.60830000  0.50750000  0.60529000  1.0 0.0658563603
C  C79  1  0.89920000  0.50750000  0.89471000  1.0 0.0649582598
C  C80  1  0.60830000  0.10080000  0.89471000  1.0 0.0658563603
C  C81  1  0.49250000  0.39170000  0.89471000  1.0 0.0658563603
C  C82  1  0.10080000  0.49250000  0.39471000  1.0 0.0649582598
C  C83  1  0.39170000  0.89920000  0.39471000  1.0 0.0658563603
C  C84  1  0.50750000  0.60830000  0.39471000  1.0 0.0658563603
C  C85  1  0.50520000  0.13140000  0.85927000  1.0 -0.1571307583
C  C86  1  0.86860000  0.37380000  0.85927000  1.0 -0.1571307583
C  C87  1  0.62620000  0.49480000  0.85927000  1.0 -0.1571307583
C  C88  1  0.49480000  0.86860000  0.35927000  1.0 -0.1571307583
C  C89  1  0.13140000  0.62620000  0.35927000  1.0 -0.1571307583
C  C90  1  0.37380000  0.50520000  0.35927000  1.0 -0.1571307583
C  C91  1  0.13140000  0.50520000  0.14073000  1.0 -0.1571307583
C  C92  1  0.37380000  0.86860000  0.14073000  1.0 -0.1571307583
C  C93  1  0.49480000  0.62620000  0.14073000  1.0 -0.1571307583
C  C94  1  0.86860000  0.49480000  0.64073000  1.0 -0.1571307583
C  C95  1  0.62620000  0.13140000  0.64073000  1.0 -0.1571307583
C  C96  1  0.50520000  0.37380000  0.64073000  1.0 -0.1571307583
C  C97  1  0.49480000  0.86860000  0.14073000  1.0 -0.1571307583
C  C98  1  0.13140000  0.62620000  0.14073000  1.0 -0.1571307583
C  C99  1  0.37380000  0.50520000  0.14073000  1.0 -0.1571307583
C  C100  1  0.50520000  0.13140000  0.64073000  1.0 -0.1571307583
C  C101  1  0.86860000  0.37380000  0.64073000  1.0 -0.1571307583
C  C102  1  0.62620000  0.49480000  0.64073000  1.0 -0.1571307583
C  C103  1  0.86860000  0.49480000  0.85927000  1.0 -0.1571307583
C  C104  1  0.62620000  0.13140000  0.85927000  1.0 -0.1571307583
C  C105  1  0.50520000  0.37380000  0.85927000  1.0 -0.1571307583
C  C106  1  0.13140000  0.50520000  0.35927000  1.0 -0.1571307583
C  C107  1  0.37380000  0.86860000  0.35927000  1.0 -0.1571307583
C  C108  1  0.49480000  0.62620000  0.35927000  1.0 -0.1571307583
C  C109  1  0.59365000  0.18730000  0.80362000  1.0 0.5997695231
C  C110  1  0.81270000  0.40635000  0.80362000  1.0 0.5997695231
C  C111  1  0.59365000  0.40635000  0.80362000  1.0 0.5997695231
C  C112  1  0.40635000  0.81270000  0.30362000  1.0 0.5997695231
C  C113  1  0.18730000  0.59365000  0.30362000  1.0 0.5997695231
C  C114  1  0.40635000  0.59365000  0.30362000  1.0 0.5997695231
C  C115  1  0.18730000  0.59365000  0.19638000  1.0 0.5997695231
C  C116  1  0.40635000  0.81270000  0.19638000  1.0 0.5997695231
C  C117  1  0.40635000  0.59365000  0.19638000  1.0 0.5997695231
C  C118  1  0.81270000  0.40635000  0.69638000  1.0 0.5997695231
C  C119  1  0.59365000  0.18730000  0.69638000  1.0 0.5997695231
C  C120  1  0.59365000  0.40635000  0.69638000  1.0 0.5997695231
C  C121  1  0.57340000  0.14680000  0.84136000  1.0 -0.0333777267
C  C122  1  0.85320000  0.42660000  0.84136000  1.0 -0.0333777267
C  C123  1  0.57340000  0.42660000  0.84136000  1.0 -0.0333777267
C  C124  1  0.42660000  0.85320000  0.34136000  1.0 -0.0333777267
C  C125  1  0.14680000  0.57340000  0.34136000  1.0 -0.0333777267
C  C126  1  0.42660000  0.57340000  0.34136000  1.0 -0.0333777267
C  C127  1  0.14680000  0.57340000  0.15864000  1.0 -0.0333777267
C  C128  1  0.42660000  0.85320000  0.15864000  1.0 -0.0333777267
C  C129  1  0.42660000  0.57340000  0.15864000  1.0 -0.0333777267
C  C130  1  0.85320000  0.42660000  0.65864000  1.0 -0.0333777267
C  C131  1  0.57340000  0.14680000  0.65864000  1.0 -0.0333777267
C  C132  1  0.57340000  0.42660000  0.65864000  1.0 -0.0333777267
C  C133  1  0.37350000  0.12590000  0.06960000  1.0 -0.0585482287
C  C134  1  0.87410000  0.24760000  0.06960000  1.0 -0.0585482287
C  C135  1  0.75240000  0.62650000  0.06960000  1.0 -0.0585482287
C  C136  1  0.62650000  0.87410000  0.56960000  1.0 -0.0585482287
C  C137  1  0.12590000  0.75240000  0.56960000  1.0 -0.0585482287
C  C138  1  0.24760000  0.37350000  0.56960000  1.0 -0.0585482287
C  C139  1  0.12590000  0.37350000  0.93040000  1.0 -0.0585482287
C  C140  1  0.24760000  0.87410000  0.93040000  1.0 -0.0585482287
C  C141  1  0.62650000  0.75240000  0.93040000  1.0 -0.0585482287
C  C142  1  0.87410000  0.62650000  0.43040000  1.0 -0.0585482287
C  C143  1  0.75240000  0.12590000  0.43040000  1.0 -0.0585482287
C  C144  1  0.37350000  0.24760000  0.43040000  1.0 -0.0585482287
C  C145  1  0.62650000  0.87410000  0.93040000  1.0 -0.0585482287
C  C146  1  0.12590000  0.75240000  0.93040000  1.0 -0.0585482287
C  C147  1  0.24760000  0.37350000  0.93040000  1.0 -0.0585482287
C  C148  1  0.37350000  0.12590000  0.43040000  1.0 -0.0585482287
C  C149  1  0.87410000  0.24760000  0.43040000  1.0 -0.0585482287
C  C150  1  0.75240000  0.62650000  0.43040000  1.0 -0.0585482287
C  C151  1  0.87410000  0.62650000  0.06960000  1.0 -0.0585482287
C  C152  1  0.75240000  0.12590000  0.06960000  1.0 -0.0585482287
C  C153  1  0.37350000  0.24760000  0.06960000  1.0 -0.0585482287
C  C154  1  0.12590000  0.37350000  0.56960000  1.0 -0.0585482287
C  C155  1  0.24760000  0.87410000  0.56960000  1.0 -0.0585482287
C  C156  1  0.62650000  0.75240000  0.56960000  1.0 -0.0585482287
C  C157  1  0.34750000  0.17375000  0.08590000  1.0 0.1072425113
C  C158  1  0.82625000  0.17375000  0.08590000  1.0 0.1072425113
C  C159  1  0.82625000  0.65250000  0.08590000  1.0 0.1072425113
C  C160  1  0.65250000  0.82625000  0.58590000  1.0 0.1072425113
C  C161  1  0.17375000  0.82625000  0.58590000  1.0 0.1072425113
C  C162  1  0.17375000  0.34750000  0.58590000  1.0 0.1072425113
C  C163  1  0.17375000  0.34750000  0.91410000  1.0 0.1072425113
C  C164  1  0.17375000  0.82625000  0.91410000  1.0 0.1072425113
C  C165  1  0.65250000  0.82625000  0.91410000  1.0 0.1072425113
C  C166  1  0.82625000  0.65250000  0.41410000  1.0 0.1072425113
C  C167  1  0.82625000  0.17375000  0.41410000  1.0 0.1072425113
C  C168  1  0.34750000  0.17375000  0.41410000  1.0 0.1072425113
C  C169  1  0.29770000  0.14885000  0.12130000  1.0 -0.1571307583
C  C170  1  0.85115000  0.14885000  0.12130000  1.0 -0.1571307583
C  C171  1  0.85115000  0.70230000  0.12130000  1.0 -0.1481315319
C  C172  1  0.70230000  0.85115000  0.62130000  1.0 -0.1481315319
C  C173  1  0.14885000  0.85115000  0.62130000  1.0 -0.1571307583
C  C174  1  0.14885000  0.29770000  0.62130000  1.0 -0.1571307583
C  C175  1  0.14885000  0.29770000  0.87870000  1.0 -0.1571307583
C  C176  1  0.14885000  0.85115000  0.87870000  1.0 -0.1571307583
C  C177  1  0.70230000  0.85115000  0.87870000  1.0 -0.1571307583
C  C178  1  0.85115000  0.70230000  0.37870000  1.0 -0.1481315319
C  C179  1  0.85115000  0.14885000  0.37870000  1.0 -0.1571307583
C  C180  1  0.29770000  0.14885000  0.37870000  1.0 -0.1571307583
C  C181  1  0.41020000  0.14380000  0.07820000  1.0 -0.088790419
C  C182  1  0.85620000  0.26640000  0.07820000  1.0 -0.088790419
C  C183  1  0.73360000  0.58980000  0.07820000  1.0 -0.088790419
C  C184  1  0.58980000  0.85620000  0.57820000  1.0 -0.088790419
C  C185  1  0.14380000  0.73360000  0.57820000  1.0 -0.088790419
C  C186  1  0.26640000  0.41020000  0.57820000  1.0 -0.088790419
C  C187  1  0.14380000  0.41020000  0.92180000  1.0 -0.088790419
C  C188  1  0.26640000  0.85620000  0.92180000  1.0 -0.088790419
C  C189  1  0.58980000  0.73360000  0.92180000  1.0 -0.088790419
C  C190  1  0.85620000  0.58980000  0.42180000  1.0 -0.088790419
C  C191  1  0.73360000  0.14380000  0.42180000  1.0 -0.088790419
C  C192  1  0.41020000  0.26640000  0.42180000  1.0 -0.088790419
C  C193  1  0.58980000  0.85620000  0.92180000  1.0 -0.088790419
C  C194  1  0.14380000  0.73360000  0.92180000  1.0 -0.088790419
C  C195  1  0.26640000  0.41020000  0.92180000  1.0 -0.088790419
C  C196  1  0.41020000  0.14380000  0.42180000  1.0 -0.088790419
C  C197  1  0.85620000  0.26640000  0.42180000  1.0 -0.088790419
C  C198  1  0.73360000  0.58980000  0.42180000  1.0 -0.088790419
C  C199  1  0.85620000  0.58980000  0.07820000  1.0 -0.088790419
C  C200  1  0.73360000  0.14380000  0.07820000  1.0 -0.088790419
C  C201  1  0.41020000  0.26640000  0.07820000  1.0 -0.088790419
C  C202  1  0.14380000  0.41020000  0.57820000  1.0 -0.088790419
C  C203  1  0.26640000  0.85620000  0.57820000  1.0 -0.088790419
C  C204  1  0.58980000  0.73360000  0.57820000  1.0 -0.088790419
C  C205  1  0.38860000  0.19430000  0.09530000  1.0 0.0966676464
C  C206  1  0.80570000  0.19430000  0.09530000  1.0 0.0966676464
C  C207  1  0.80570000  0.61140000  0.09530000  1.0 0.0966676464
C  C208  1  0.61140000  0.80570000  0.59530000  1.0 0.0966676464
C  C209  1  0.19430000  0.80570000  0.59530000  1.0 0.0966676464
C  C210  1  0.19430000  0.38860000  0.59530000  1.0 0.0966676464
C  C211  1  0.19430000  0.38860000  0.90470000  1.0 0.0966676464
C  C212  1  0.19430000  0.80570000  0.90470000  1.0 0.087434873
C  C213  1  0.61140000  0.80570000  0.90470000  1.0 0.0966676464
C  C214  1  0.80570000  0.61140000  0.40470000  1.0 0.0966676464
C  C215  1  0.80570000  0.19430000  0.40470000  1.0 0.0966676464
C  C216  1  0.38860000  0.19430000  0.40470000  1.0 0.0966676464
C  C217  1  0.35460000  0.17730000  0.13400000  1.0 -0.1283767287
C  C218  1  0.82270000  0.17730000  0.13400000  1.0 -0.1283767287
C  C219  1  0.82270000  0.64540000  0.13400000  1.0 -0.1247218546
C  C220  1  0.64540000  0.82270000  0.63400000  1.0 -0.1283767287
C  C221  1  0.17730000  0.82270000  0.63400000  1.0 -0.1283767287
C  C222  1  0.17730000  0.35460000  0.63400000  1.0 -0.1283767287
C  C223  1  0.17730000  0.35460000  0.86600000  1.0 -0.1283767287
C  C224  1  0.17730000  0.82270000  0.86600000  1.0 -0.1283767287
C  C225  1  0.64540000  0.82270000  0.86600000  1.0 -0.1283767287
C  C226  1  0.82270000  0.64540000  0.36600000  1.0 -0.1247218546
C  C227  1  0.82270000  0.17730000  0.36600000  1.0 -0.1283767287
C  C228  1  0.35460000  0.17730000  0.36600000  1.0 -0.1283767287
N  N1  1  0.54395000  0.08790000  0.91287000  1.0 -0.2579438994
N  N2  1  0.91210000  0.45605000  0.91287000  1.0 -0.2579438994
N  N3  1  0.54395000  0.45605000  0.91287000  1.0 -0.2579438994
N  N4  1  0.45605000  0.91210000  0.41287000  1.0 -0.2579438994
N  N5  1  0.08790000  0.54395000  0.41287000  1.0 -0.2579438994
N  N6  1  0.45605000  0.54395000  0.41287000  1.0 -0.2579438994
N  N7  1  0.08790000  0.54395000  0.08713000  1.0 -0.2579438994
N  N8  1  0.45605000  0.91210000  0.08713000  1.0 -0.2579438994
N  N9  1  0.45605000  0.54395000  0.08713000  1.0 -0.2579438994
N  N10  1  0.91210000  0.45605000  0.58713000  1.0 -0.2579438994
N  N11  1  0.54395000  0.08790000  0.58713000  1.0 -0.2579438994
N  N12  1  0.54395000  0.45605000  0.58713000  1.0 -0.2579438994
O  O1  1  0.66666667  0.33333333  0.75000000  1.0 -1.111990064
O  O2  1  0.33333333  0.66666667  0.25000000  1.0 -1.111990064
O  O3  1  0.48353000  0.11339000  0.99136000  1.0 -0.4583145414
O  O4  1  0.88661000  0.37014000  0.99136000  1.0 -0.4583145414
O  O5  1  0.62986000  0.51647000  0.99136000  1.0 -0.4583145414
O  O6  1  0.51647000  0.88661000  0.49136000  1.0 -0.4583145414
O  O7  1  0.11339000  0.62986000  0.49136000  1.0 -0.4583145414
O  O8  1  0.37014000  0.48353000  0.49136000  1.0 -0.4583145414
O  O9  1  0.11339000  0.48353000  0.00864000  1.0 -0.4583145414
O  O10  1  0.37014000  0.88661000  0.00864000  1.0 -0.4583145414
O  O11  1  0.51647000  0.62986000  0.00864000  1.0 -0.4583145414
O  O12  1  0.88661000  0.51647000  0.50864000  1.0 -0.4583145414
O  O13  1  0.62986000  0.11339000  0.50864000  1.0 -0.4583145414
O  O14  1  0.48353000  0.37014000  0.50864000  1.0 -0.4583145414
O  O15  1  0.51647000  0.88661000  0.00864000  1.0 -0.4583145414
O  O16  1  0.11339000  0.62986000  0.00864000  1.0 -0.4583145414
O  O17  1  0.37014000  0.48353000  0.00864000  1.0 -0.4583145414
O  O18  1  0.48353000  0.11339000  0.50864000  1.0 -0.4583145414
O  O19  1  0.88661000  0.37014000  0.50864000  1.0 -0.4583145414
O  O20  1  0.62986000  0.51647000  0.50864000  1.0 -0.4583145414
O  O21  1  0.88661000  0.51647000  0.99136000  1.0 -0.4583145414
O  O22  1  0.62986000  0.11339000  0.99136000  1.0 -0.4583145414
O  O23  1  0.48353000  0.37014000  0.99136000  1.0 -0.4583145414
O  O24  1  0.11339000  0.48353000  0.49136000  1.0 -0.4583145414
O  O25  1  0.37014000  0.88661000  0.49136000  1.0 -0.4583145414
O  O26  1  0.51647000  0.62986000  0.49136000  1.0 -0.4583145414
O  O27  1  0.44532000  0.03873000  0.04237000  1.0 -0.4371727973
O  O28  1  0.96127000  0.40659000  0.04237000  1.0 -0.4371727973
O  O29  1  0.59341000  0.55468000  0.04237000  1.0 -0.4346157607
O  O30  1  0.55468000  0.96127000  0.54237000  1.0 -0.4371727973
O  O31  1  0.03873000  0.59341000  0.54237000  1.0 -0.4371727973
O  O32  1  0.40659000  0.44532000  0.54237000  1.0 -0.4371727973
O  O33  1  0.03873000  0.44532000  0.95763000  1.0 -0.4371727973
O  O34  1  0.40659000  0.96127000  0.95763000  1.0 -0.4371727973
O  O35  1  0.55468000  0.59341000  0.95763000  1.0 -0.4371727973
O  O36  1  0.96127000  0.55468000  0.45763000  1.0 -0.4371727973
O  O37  1  0.59341000  0.03873000  0.45763000  1.0 -0.4371727973
O  O38  1  0.44532000  0.40659000  0.45763000  1.0 -0.4371727973
O  O39  1  0.55468000  0.96127000  0.95763000  1.0 -0.4371727973
O  O40  1  0.03873000  0.59341000  0.95763000  1.0 -0.4371727973
O  O41  1  0.40659000  0.44532000  0.95763000  1.0 -0.4371727973
O  O42  1  0.44532000  0.03873000  0.45763000  1.0 -0.4371727973
O  O43  1  0.96127000  0.40659000  0.45763000  1.0 -0.4371727973
O  O44  1  0.59341000  0.55468000  0.45763000  1.0 -0.4371727973
O  O45  1  0.96127000  0.55468000  0.04237000  1.0 -0.4346157607
O  O46  1  0.59341000  0.03873000  0.04237000  1.0 -0.4371727973
O  O47  1  0.44532000  0.40659000  0.04237000  1.0 -0.4371727973
O  O48  1  0.03873000  0.44532000  0.54237000  1.0 -0.4371727973
O  O49  1  0.40659000  0.96127000  0.54237000  1.0 -0.4371727973
O  O50  1  0.55468000  0.59341000  0.54237000  1.0 -0.4371727973
O  O51  1  0.65891000  0.20201000  0.78991000  1.0 -0.5885999497
O  O52  1  0.79799000  0.45690000  0.78991000  1.0 -0.5885999497
O  O53  1  0.54310000  0.34109000  0.78991000  1.0 -0.5885999497
O  O54  1  0.34109000  0.79799000  0.28991000  1.0 -0.5885999497
O  O55  1  0.20201000  0.54310000  0.28991000  1.0 -0.5885999497
O  O56  1  0.45690000  0.65891000  0.28991000  1.0 -0.5885999497
O  O57  1  0.20201000  0.65891000  0.21009000  1.0 -0.5885999497
O  O58  1  0.45690000  0.79799000  0.21009000  1.0 -0.5885999497
O  O59  1  0.34109000  0.54310000  0.21009000  1.0 -0.5885999497
O  O60  1  0.79799000  0.34109000  0.71009000  1.0 -0.5885999497
O  O61  1  0.54310000  0.20201000  0.71009000  1.0 -0.5885999497
O  O62  1  0.65891000  0.45690000  0.71009000  1.0 -0.5885999497
O  O63  1  0.34109000  0.79799000  0.21009000  1.0 -0.5885999497
O  O64  1  0.20201000  0.54310000  0.21009000  1.0 -0.5885999497
O  O65  1  0.45690000  0.65891000  0.21009000  1.0 -0.5885999497
O  O66  1  0.65891000  0.20201000  0.71009000  1.0 -0.5885999497
O  O67  1  0.79799000  0.45690000  0.71009000  1.0 -0.5885999497
O  O68  1  0.54310000  0.34109000  0.71009000  1.0 -0.5885999497
O  O69  1  0.79799000  0.34109000  0.78991000  1.0 -0.5885999497
O  O70  1  0.54310000  0.20201000  0.78991000  1.0 -0.5885999497
O  O71  1  0.65891000  0.45690000  0.78991000  1.0 -0.5885999497
O  O72  1  0.20201000  0.65891000  0.28991000  1.0 -0.5885999497
O  O73  1  0.45690000  0.79799000  0.28991000  1.0 -0.5885999497
O  O74  1  0.34109000  0.54310000  0.28991000  1.0 -0.5885999497
