# DDEC6 charges by PACMAN v1.1 (https://github.com/mtap-research/PACMAN-charge/)
data_YILCED_ASR_pacman
_symmetry_space_group_name_H-M   'P 1'
_cell_length_a   19.20400000
_cell_length_b   19.20400000
_cell_length_c   35.99800000
_cell_angle_alpha   90.00000000
_cell_angle_beta   90.00000000
_cell_angle_gamma   120.00000000
_symmetry_Int_Tables_number   1
_chemical_formula_structural   Zn6Cr3H78C102N6O49
_chemical_formula_sum   'Zn12 Cr6 H156 C204 N12 O98'
_cell_volume   11497.20827826
_cell_formula_units_Z   2
loop_
 _symmetry_equiv_pos_site_id
 _symmetry_equiv_pos_as_xyz
  1  'x, y, z'
loop_
 _atom_site_type_symbol
 _atom_site_label
 _atom_site_symmetry_multiplicity
 _atom_site_fract_x
 _atom_site_fract_y
 _atom_site_fract_z
 _atom_site_occupancy
 _atom_site_charge
Zn  Zn1  1  0.47689000  0.52311000  0.46565000  1.0 0.8181279406
Zn  Zn2  1  0.47689000  0.95378000  0.46565000  1.0 0.8181279406
Zn  Zn3  1  0.04622000  0.52311000  0.46565000  1.0 0.8181279406
Zn  Zn4  1  0.52311000  0.47689000  0.96565000  1.0 0.8181279406
Zn  Zn5  1  0.52311000  0.04622000  0.96565000  1.0 0.8181279406
Zn  Zn6  1  0.95378000  0.47689000  0.96565000  1.0 0.8181279406
Zn  Zn7  1  0.52311000  0.47689000  0.53435000  1.0 0.8181279406
Zn  Zn8  1  0.95378000  0.47689000  0.53435000  1.0 0.8181279406
Zn  Zn9  1  0.52311000  0.04622000  0.53435000  1.0 0.8181279406
Zn  Zn10  1  0.47689000  0.52311000  0.03435000  1.0 0.8181279406
Zn  Zn11  1  0.04622000  0.52311000  0.03435000  1.0 0.8181279406
Zn  Zn12  1  0.47689000  0.95378000  0.03435000  1.0 0.8181279406
Cr  Cr1  1  0.44834000  0.72417000  0.25000000  1.0 1.3525016859
Cr  Cr2  1  0.27583000  0.72417000  0.25000000  1.0 1.3525016859
Cr  Cr3  1  0.27583000  0.55166000  0.25000000  1.0 1.3525016859
Cr  Cr4  1  0.55166000  0.27583000  0.75000000  1.0 1.3769074435
Cr  Cr5  1  0.72417000  0.27583000  0.75000000  1.0 1.3567466493
Cr  Cr6  1  0.72417000  0.44834000  0.75000000  1.0 1.3739541526
H  H1  1  0.60240000  0.69610000  0.59010000  1.0 0.0576872028
H  H2  1  0.30390000  0.90630000  0.59010000  1.0 0.0576872028
H  H3  1  0.09370000  0.39760000  0.59010000  1.0 0.0576872028
H  H4  1  0.39760000  0.30390000  0.09010000  1.0 0.0576872028
H  H5  1  0.69610000  0.09370000  0.09010000  1.0 0.0576872028
H  H6  1  0.90630000  0.60240000  0.09010000  1.0 0.0576872028
H  H7  1  0.69610000  0.60240000  0.40990000  1.0 0.0576872028
H  H8  1  0.90630000  0.30390000  0.40990000  1.0 0.0576872028
H  H9  1  0.39760000  0.09370000  0.40990000  1.0 0.0576872028
H  H10  1  0.30390000  0.39760000  0.90990000  1.0 0.0576872028
H  H11  1  0.09370000  0.69610000  0.90990000  1.0 0.0576872028
H  H12  1  0.60240000  0.90630000  0.90990000  1.0 0.0576872028
H  H13  1  0.39760000  0.30390000  0.40990000  1.0 0.0576872028
H  H14  1  0.69610000  0.09370000  0.40990000  1.0 0.0576872028
H  H15  1  0.90630000  0.60240000  0.40990000  1.0 0.0576872028
H  H16  1  0.60240000  0.69610000  0.90990000  1.0 0.0576872028
H  H17  1  0.30390000  0.90630000  0.90990000  1.0 0.0576872028
H  H18  1  0.09370000  0.39760000  0.90990000  1.0 0.0576872028
H  H19  1  0.30390000  0.39760000  0.59010000  1.0 0.0576872028
H  H20  1  0.09370000  0.69610000  0.59010000  1.0 0.0576872028
H  H21  1  0.60240000  0.90630000  0.59010000  1.0 0.0576872028
H  H22  1  0.69610000  0.60240000  0.09010000  1.0 0.0576872028
H  H23  1  0.90630000  0.30390000  0.09010000  1.0 0.0576872028
H  H24  1  0.39760000  0.09370000  0.09010000  1.0 0.0576872028
H  H25  1  0.52390000  0.76195000  0.50040000  1.0 0.1195397656
H  H26  1  0.23805000  0.76195000  0.50040000  1.0 0.1195397656
H  H27  1  0.23805000  0.47610000  0.50040000  1.0 0.1195397656
H  H28  1  0.47610000  0.23805000  0.00040000  1.0 0.1195397656
H  H29  1  0.76195000  0.23805000  0.00040000  1.0 0.1195397656
H  H30  1  0.76195000  0.52390000  0.00040000  1.0 0.1195397656
H  H31  1  0.76195000  0.52390000  0.49960000  1.0 0.1195397656
H  H32  1  0.76195000  0.23805000  0.49960000  1.0 0.1195397656
H  H33  1  0.47610000  0.23805000  0.49960000  1.0 0.1195397656
H  H34  1  0.23805000  0.47610000  0.99960000  1.0 0.1195397656
H  H35  1  0.23805000  0.76195000  0.99960000  1.0 0.1195397656
H  H36  1  0.52390000  0.76195000  0.99960000  1.0 0.1195397656
H  H37  1  0.55430000  0.64550000  0.40740000  1.0 0.1036150212
H  H38  1  0.35450000  0.90880000  0.40740000  1.0 0.1036150212
H  H39  1  0.09120000  0.44570000  0.40740000  1.0 0.1036150212
H  H40  1  0.44570000  0.35450000  0.90740000  1.0 0.1036150212
H  H41  1  0.64550000  0.09120000  0.90740000  1.0 0.1036150212
H  H42  1  0.90880000  0.55430000  0.90740000  1.0 0.1036150212
H  H43  1  0.64550000  0.55430000  0.59260000  1.0 0.1036150212
H  H44  1  0.90880000  0.35450000  0.59260000  1.0 0.1036150212
H  H45  1  0.44570000  0.09120000  0.59260000  1.0 0.1036150212
H  H46  1  0.35450000  0.44570000  0.09260000  1.0 0.1036150212
H  H47  1  0.09120000  0.64550000  0.09260000  1.0 0.1036150212
H  H48  1  0.55430000  0.90880000  0.09260000  1.0 0.1036150212
H  H49  1  0.44570000  0.35450000  0.59260000  1.0 0.1036150212
H  H50  1  0.64550000  0.09120000  0.59260000  1.0 0.1036150212
H  H51  1  0.90880000  0.55430000  0.59260000  1.0 0.1036150212
H  H52  1  0.55430000  0.64550000  0.09260000  1.0 0.1036150212
H  H53  1  0.35450000  0.90880000  0.09260000  1.0 0.1036150212
H  H54  1  0.09120000  0.44570000  0.09260000  1.0 0.1036150212
H  H55  1  0.35450000  0.44570000  0.40740000  1.0 0.1036150212
H  H56  1  0.09120000  0.64550000  0.40740000  1.0 0.1036150212
H  H57  1  0.55430000  0.90880000  0.40740000  1.0 0.1036150212
H  H58  1  0.64550000  0.55430000  0.90740000  1.0 0.1036150212
H  H59  1  0.90880000  0.35450000  0.90740000  1.0 0.1036150212
H  H60  1  0.44570000  0.09120000  0.90740000  1.0 0.1036150212
H  H61  1  0.53290000  0.67440000  0.34770000  1.0 0.1290467765
H  H62  1  0.32560000  0.85850000  0.34770000  1.0 0.1290467765
H  H63  1  0.14150000  0.46710000  0.34770000  1.0 0.1290467765
H  H64  1  0.46710000  0.32560000  0.84770000  1.0 0.1290467765
H  H65  1  0.67440000  0.14150000  0.84770000  1.0 0.1290467765
H  H66  1  0.85850000  0.53290000  0.84770000  1.0 0.1290467765
H  H67  1  0.67440000  0.53290000  0.65230000  1.0 0.1290467765
H  H68  1  0.85850000  0.32560000  0.65230000  1.0 0.1290467765
H  H69  1  0.46710000  0.14150000  0.65230000  1.0 0.1290467765
H  H70  1  0.32560000  0.46710000  0.15230000  1.0 0.1290467765
H  H71  1  0.14150000  0.67440000  0.15230000  1.0 0.1290467765
H  H72  1  0.53290000  0.85850000  0.15230000  1.0 0.1290467765
H  H73  1  0.46710000  0.32560000  0.65230000  1.0 0.1290467765
H  H74  1  0.67440000  0.14150000  0.65230000  1.0 0.1290467765
H  H75  1  0.85850000  0.53290000  0.65230000  1.0 0.1290467765
H  H76  1  0.53290000  0.67440000  0.15230000  1.0 0.1290467765
H  H77  1  0.32560000  0.85850000  0.15230000  1.0 0.1290467765
H  H78  1  0.14150000  0.46710000  0.15230000  1.0 0.1290467765
H  H79  1  0.32560000  0.46710000  0.34770000  1.0 0.1290467765
H  H80  1  0.14150000  0.67440000  0.34770000  1.0 0.1290467765
H  H81  1  0.53290000  0.85850000  0.34770000  1.0 0.1290467765
H  H82  1  0.67440000  0.53290000  0.84770000  1.0 0.1290467765
H  H83  1  0.85850000  0.32560000  0.84770000  1.0 0.1290467765
H  H84  1  0.46710000  0.14150000  0.84770000  1.0 0.1290467765
H  H85  1  0.63870000  0.71630000  0.58190000  1.0 0.0576872028
H  H86  1  0.28370000  0.92240000  0.58190000  1.0 0.0576872028
H  H87  1  0.07760000  0.36130000  0.58190000  1.0 0.0576872028
H  H88  1  0.36130000  0.28370000  0.08190000  1.0 0.0576872028
H  H89  1  0.71630000  0.07760000  0.08190000  1.0 0.0576872028
H  H90  1  0.92240000  0.63870000  0.08190000  1.0 0.0576872028
H  H91  1  0.71630000  0.63870000  0.41810000  1.0 0.0576872028
H  H92  1  0.92240000  0.28370000  0.41810000  1.0 0.0576872028
H  H93  1  0.36130000  0.07760000  0.41810000  1.0 0.0576872028
H  H94  1  0.28370000  0.36130000  0.91810000  1.0 0.0576872028
H  H95  1  0.07760000  0.71630000  0.91810000  1.0 0.0576872028
H  H96  1  0.63870000  0.92240000  0.91810000  1.0 0.0576872028
H  H97  1  0.36130000  0.28370000  0.41810000  1.0 0.0576872028
H  H98  1  0.71630000  0.07760000  0.41810000  1.0 0.0576872028
H  H99  1  0.92240000  0.63870000  0.41810000  1.0 0.0576872028
H  H100  1  0.63870000  0.71630000  0.91810000  1.0 0.0576872028
H  H101  1  0.28370000  0.92240000  0.91810000  1.0 0.0576872028
H  H102  1  0.07760000  0.36130000  0.91810000  1.0 0.0576872028
H  H103  1  0.28370000  0.36130000  0.58190000  1.0 0.0576872028
H  H104  1  0.07760000  0.71630000  0.58190000  1.0 0.0576872028
H  H105  1  0.63870000  0.92240000  0.58190000  1.0 0.0576872028
H  H106  1  0.71630000  0.63870000  0.08190000  1.0 0.0576872028
H  H107  1  0.92240000  0.28370000  0.08190000  1.0 0.0576872028
H  H108  1  0.36130000  0.07760000  0.08190000  1.0 0.0576872028
H  H109  1  0.73010000  0.83220000  0.61550000  1.0 0.091758791
H  H110  1  0.16780000  0.89790000  0.61550000  1.0 0.091758791
H  H111  1  0.10210000  0.26990000  0.61550000  1.0 0.091758791
H  H112  1  0.26990000  0.16780000  0.11550000  1.0 0.091758791
H  H113  1  0.83220000  0.10210000  0.11550000  1.0 0.091758791
H  H114  1  0.89790000  0.73010000  0.11550000  1.0 0.091758791
H  H115  1  0.83220000  0.73010000  0.38450000  1.0 0.091758791
H  H116  1  0.89790000  0.16780000  0.38450000  1.0 0.091758791
H  H117  1  0.26990000  0.10210000  0.38450000  1.0 0.091758791
H  H118  1  0.16780000  0.26990000  0.88450000  1.0 0.091758791
H  H119  1  0.10210000  0.83220000  0.88450000  1.0 0.091758791
H  H120  1  0.73010000  0.89790000  0.88450000  1.0 0.091758791
H  H121  1  0.26990000  0.16780000  0.38450000  1.0 0.091758791
H  H122  1  0.83220000  0.10210000  0.38450000  1.0 0.091758791
H  H123  1  0.89790000  0.73010000  0.38450000  1.0 0.091758791
H  H124  1  0.73010000  0.83220000  0.88450000  1.0 0.091758791
H  H125  1  0.16780000  0.89790000  0.88450000  1.0 0.091758791
H  H126  1  0.10210000  0.26990000  0.88450000  1.0 0.091758791
H  H127  1  0.16780000  0.26990000  0.61550000  1.0 0.091758791
H  H128  1  0.10210000  0.83220000  0.61550000  1.0 0.091758791
H  H129  1  0.73010000  0.89790000  0.61550000  1.0 0.091758791
H  H130  1  0.83220000  0.73010000  0.11550000  1.0 0.091758791
H  H131  1  0.89790000  0.16780000  0.11550000  1.0 0.091758791
H  H132  1  0.26990000  0.10210000  0.11550000  1.0 0.091758791
H  H133  1  0.66180000  0.79640000  0.63550000  1.0 0.1800218568
H  H134  1  0.20360000  0.86540000  0.63550000  1.0 0.1800218568
H  H135  1  0.13460000  0.33820000  0.63550000  1.0 0.1800218568
H  H136  1  0.33820000  0.20360000  0.13550000  1.0 0.1800218568
H  H137  1  0.79640000  0.13460000  0.13550000  1.0 0.1800218568
H  H138  1  0.86540000  0.66180000  0.13550000  1.0 0.1800218568
H  H139  1  0.79640000  0.66180000  0.36450000  1.0 0.1800218568
H  H140  1  0.86540000  0.20360000  0.36450000  1.0 0.1800218568
H  H141  1  0.33820000  0.13460000  0.36450000  1.0 0.1800218568
H  H142  1  0.20360000  0.33820000  0.86450000  1.0 0.1800218568
H  H143  1  0.13460000  0.79640000  0.86450000  1.0 0.1800218568
H  H144  1  0.66180000  0.86540000  0.86450000  1.0 0.1800218568
H  H145  1  0.33820000  0.20360000  0.36450000  1.0 0.1800218568
H  H146  1  0.79640000  0.13460000  0.36450000  1.0 0.1800218568
H  H147  1  0.86540000  0.66180000  0.36450000  1.0 0.1800218568
H  H148  1  0.66180000  0.79640000  0.86450000  1.0 0.1800218568
H  H149  1  0.20360000  0.86540000  0.86450000  1.0 0.1800218568
H  H150  1  0.13460000  0.33820000  0.86450000  1.0 0.1800218568
H  H151  1  0.20360000  0.33820000  0.63550000  1.0 0.1800218568
H  H152  1  0.13460000  0.79640000  0.63550000  1.0 0.1800218568
H  H153  1  0.66180000  0.86540000  0.63550000  1.0 0.1800218568
H  H154  1  0.79640000  0.66180000  0.13550000  1.0 0.1800218568
H  H155  1  0.86540000  0.20360000  0.13550000  1.0 0.1800218568
H  H156  1  0.33820000  0.13460000  0.13550000  1.0 0.1800218568
C  C1  1  0.56830000  0.72180000  0.54095000  1.0 -0.0426137808
C  C2  1  0.27820000  0.84650000  0.54095000  1.0 -0.0426137808
C  C3  1  0.15350000  0.43170000  0.54095000  1.0 -0.0426137808
C  C4  1  0.43170000  0.27820000  0.04095000  1.0 -0.0426137808
C  C5  1  0.72180000  0.15350000  0.04095000  1.0 -0.0426137808
C  C6  1  0.84650000  0.56830000  0.04095000  1.0 -0.0426137808
C  C7  1  0.72180000  0.56830000  0.45905000  1.0 -0.0426137808
C  C8  1  0.84650000  0.27820000  0.45905000  1.0 -0.0426137808
C  C9  1  0.43170000  0.15350000  0.45905000  1.0 -0.0426137808
C  C10  1  0.27820000  0.43170000  0.95905000  1.0 -0.0426137808
C  C11  1  0.15350000  0.72180000  0.95905000  1.0 -0.0426137808
C  C12  1  0.56830000  0.84650000  0.95905000  1.0 -0.0426137808
C  C13  1  0.43170000  0.27820000  0.45905000  1.0 -0.0426137808
C  C14  1  0.72180000  0.15350000  0.45905000  1.0 -0.0426137808
C  C15  1  0.84650000  0.56830000  0.45905000  1.0 -0.0426137808
C  C16  1  0.56830000  0.72180000  0.95905000  1.0 -0.0426137808
C  C17  1  0.27820000  0.84650000  0.95905000  1.0 -0.0426137808
C  C18  1  0.15350000  0.43170000  0.95905000  1.0 -0.0426137808
C  C19  1  0.27820000  0.43170000  0.54095000  1.0 -0.0426137808
C  C20  1  0.15350000  0.72180000  0.54095000  1.0 -0.0426137808
C  C21  1  0.56830000  0.84650000  0.54095000  1.0 -0.0426137808
C  C22  1  0.72180000  0.56830000  0.04095000  1.0 -0.0426137808
C  C23  1  0.84650000  0.27820000  0.04095000  1.0 -0.0426137808
C  C24  1  0.43170000  0.15350000  0.04095000  1.0 -0.0426137808
C  C25  1  0.54480000  0.64252000  0.52362000  1.0 0.53059012
C  C26  1  0.35748000  0.90228000  0.52362000  1.0 0.53059012
C  C27  1  0.09772000  0.45520000  0.52362000  1.0 0.53059012
C  C28  1  0.45520000  0.35748000  0.02362000  1.0 0.53059012
C  C29  1  0.64252000  0.09772000  0.02362000  1.0 0.53059012
C  C30  1  0.90228000  0.54480000  0.02362000  1.0 0.53059012
C  C31  1  0.64252000  0.54480000  0.47638000  1.0 0.53059012
C  C32  1  0.90228000  0.35748000  0.47638000  1.0 0.53059012
C  C33  1  0.45520000  0.09772000  0.47638000  1.0 0.53059012
C  C34  1  0.35748000  0.45520000  0.97638000  1.0 0.53059012
C  C35  1  0.09772000  0.64252000  0.97638000  1.0 0.53059012
C  C36  1  0.54480000  0.90228000  0.97638000  1.0 0.53059012
C  C37  1  0.45520000  0.35748000  0.47638000  1.0 0.53059012
C  C38  1  0.64252000  0.09772000  0.47638000  1.0 0.53059012
C  C39  1  0.90228000  0.54480000  0.47638000  1.0 0.53059012
C  C40  1  0.54480000  0.64252000  0.97638000  1.0 0.53059012
C  C41  1  0.35748000  0.90228000  0.97638000  1.0 0.53059012
C  C42  1  0.09772000  0.45520000  0.97638000  1.0 0.53059012
C  C43  1  0.35748000  0.45520000  0.52362000  1.0 0.53059012
C  C44  1  0.09772000  0.64252000  0.52362000  1.0 0.53059012
C  C45  1  0.54480000  0.90228000  0.52362000  1.0 0.53059012
C  C46  1  0.64252000  0.54480000  0.02362000  1.0 0.53059012
C  C47  1  0.90228000  0.35748000  0.02362000  1.0 0.53059012
C  C48  1  0.45520000  0.09772000  0.02362000  1.0 0.53059012
C  C49  1  0.59380000  0.73410000  0.57770000  1.0 -0.118486687
C  C50  1  0.26590000  0.85970000  0.57770000  1.0 -0.118486687
C  C51  1  0.14030000  0.40620000  0.57770000  1.0 -0.118486687
C  C52  1  0.40620000  0.26590000  0.07770000  1.0 -0.118486687
C  C53  1  0.73410000  0.14030000  0.07770000  1.0 -0.118486687
C  C54  1  0.85970000  0.59380000  0.07770000  1.0 -0.118486687
C  C55  1  0.73410000  0.59380000  0.42230000  1.0 -0.118486687
C  C56  1  0.85970000  0.26590000  0.42230000  1.0 -0.118486687
C  C57  1  0.40620000  0.14030000  0.42230000  1.0 -0.118486687
C  C58  1  0.26590000  0.40620000  0.92230000  1.0 -0.118486687
C  C59  1  0.14030000  0.73410000  0.92230000  1.0 -0.118486687
C  C60  1  0.59380000  0.85970000  0.92230000  1.0 -0.118486687
C  C61  1  0.40620000  0.26590000  0.42230000  1.0 -0.118486687
C  C62  1  0.73410000  0.14030000  0.42230000  1.0 -0.118486687
C  C63  1  0.85970000  0.59380000  0.42230000  1.0 -0.118486687
C  C64  1  0.59380000  0.73410000  0.92230000  1.0 -0.118486687
C  C65  1  0.26590000  0.85970000  0.92230000  1.0 -0.118486687
C  C66  1  0.14030000  0.40620000  0.92230000  1.0 -0.118486687
C  C67  1  0.26590000  0.40620000  0.57770000  1.0 -0.118486687
C  C68  1  0.14030000  0.73410000  0.57770000  1.0 -0.118486687
C  C69  1  0.59380000  0.85970000  0.57770000  1.0 -0.118486687
C  C70  1  0.73410000  0.59380000  0.07770000  1.0 -0.118486687
C  C71  1  0.85970000  0.26590000  0.07770000  1.0 -0.118486687
C  C72  1  0.40620000  0.14030000  0.07770000  1.0 -0.118486687
C  C73  1  0.54940000  0.77470000  0.52373000  1.0 -0.1834724863
C  C74  1  0.22530000  0.77470000  0.52373000  1.0 -0.1834724863
C  C75  1  0.22530000  0.45060000  0.52373000  1.0 -0.1869050265
C  C76  1  0.45060000  0.22530000  0.02373000  1.0 -0.1869050265
C  C77  1  0.77470000  0.22530000  0.02373000  1.0 -0.1869050265
C  C78  1  0.77470000  0.54940000  0.02373000  1.0 -0.1869050265
C  C79  1  0.77470000  0.54940000  0.47627000  1.0 -0.1869050265
C  C80  1  0.77470000  0.22530000  0.47627000  1.0 -0.1869050265
C  C81  1  0.45060000  0.22530000  0.47627000  1.0 -0.1869050265
C  C82  1  0.22530000  0.45060000  0.97627000  1.0 -0.1869050265
C  C83  1  0.22530000  0.77470000  0.97627000  1.0 -0.1834724863
C  C84  1  0.54940000  0.77470000  0.97627000  1.0 -0.1834724863
C  C85  1  0.60640000  0.80320000  0.59580000  1.0 0.1661870311
C  C86  1  0.19680000  0.80320000  0.59580000  1.0 0.1428340431
C  C87  1  0.19680000  0.39360000  0.59580000  1.0 0.1460845228
C  C88  1  0.39360000  0.19680000  0.09580000  1.0 0.1460845228
C  C89  1  0.80320000  0.19680000  0.09580000  1.0 0.1428340431
C  C90  1  0.80320000  0.60640000  0.09580000  1.0 0.1661870311
C  C91  1  0.80320000  0.60640000  0.40420000  1.0 0.1661870311
C  C92  1  0.80320000  0.19680000  0.40420000  1.0 0.1428340431
C  C93  1  0.39360000  0.19680000  0.40420000  1.0 0.1460845228
C  C94  1  0.19680000  0.39360000  0.90420000  1.0 0.1460845228
C  C95  1  0.19680000  0.80320000  0.90420000  1.0 0.1428340431
C  C96  1  0.60640000  0.80320000  0.90420000  1.0 0.1661870311
C  C97  1  0.50660000  0.60880000  0.39518000  1.0 0.0265372935
C  C98  1  0.39120000  0.89780000  0.39518000  1.0 0.024398243
C  C99  1  0.10220000  0.49340000  0.39518000  1.0 0.0265372935
C  C100  1  0.49340000  0.39120000  0.89518000  1.0 0.0265372935
C  C101  1  0.60880000  0.10220000  0.89518000  1.0 0.0265372935
C  C102  1  0.89780000  0.50660000  0.89518000  1.0 0.0265372935
C  C103  1  0.60880000  0.50660000  0.60482000  1.0 0.0265372935
C  C104  1  0.89780000  0.39120000  0.60482000  1.0 0.0265372935
C  C105  1  0.49340000  0.10220000  0.60482000  1.0 0.0265372935
C  C106  1  0.39120000  0.49340000  0.10482000  1.0 0.0265372935
C  C107  1  0.10220000  0.60880000  0.10482000  1.0 0.0265372935
C  C108  1  0.50660000  0.89780000  0.10482000  1.0 0.024398243
C  C109  1  0.49340000  0.39120000  0.60482000  1.0 0.0265372935
C  C110  1  0.60880000  0.10220000  0.60482000  1.0 0.0265372935
C  C111  1  0.89780000  0.50660000  0.60482000  1.0 0.0265372935
C  C112  1  0.50660000  0.60880000  0.10482000  1.0 0.0265372935
C  C113  1  0.39120000  0.89780000  0.10482000  1.0 0.024398243
C  C114  1  0.10220000  0.49340000  0.10482000  1.0 0.0265372935
C  C115  1  0.39120000  0.49340000  0.39518000  1.0 0.0265372935
C  C116  1  0.10220000  0.60880000  0.39518000  1.0 0.0265372935
C  C117  1  0.50660000  0.89780000  0.39518000  1.0 0.024398243
C  C118  1  0.60880000  0.50660000  0.89518000  1.0 0.0265372935
C  C119  1  0.89780000  0.39120000  0.89518000  1.0 0.0265372935
C  C120  1  0.49340000  0.10220000  0.89518000  1.0 0.0265372935
C  C121  1  0.49460000  0.62660000  0.35937000  1.0 -0.1740946214
C  C122  1  0.37340000  0.86800000  0.35937000  1.0 -0.1740946214
C  C123  1  0.13200000  0.50540000  0.35937000  1.0 -0.1740946214
C  C124  1  0.50540000  0.37340000  0.85937000  1.0 -0.1740946214
C  C125  1  0.62660000  0.13200000  0.85937000  1.0 -0.1740946214
C  C126  1  0.86800000  0.49460000  0.85937000  1.0 -0.1740946214
C  C127  1  0.62660000  0.49460000  0.64063000  1.0 -0.1740946214
C  C128  1  0.86800000  0.37340000  0.64063000  1.0 -0.1740946214
C  C129  1  0.50540000  0.13200000  0.64063000  1.0 -0.1740946214
C  C130  1  0.37340000  0.50540000  0.14063000  1.0 -0.1740946214
C  C131  1  0.13200000  0.62660000  0.14063000  1.0 -0.1740946214
C  C132  1  0.49460000  0.86800000  0.14063000  1.0 -0.1740946214
C  C133  1  0.50540000  0.37340000  0.64063000  1.0 -0.1740946214
C  C134  1  0.62660000  0.13200000  0.64063000  1.0 -0.1740946214
C  C135  1  0.86800000  0.49460000  0.64063000  1.0 -0.1740946214
C  C136  1  0.49460000  0.62660000  0.14063000  1.0 -0.1740946214
C  C137  1  0.37340000  0.86800000  0.14063000  1.0 -0.1740946214
C  C138  1  0.13200000  0.50540000  0.14063000  1.0 -0.1740946214
C  C139  1  0.37340000  0.50540000  0.35937000  1.0 -0.1740946214
C  C140  1  0.13200000  0.62660000  0.35937000  1.0 -0.1740946214
C  C141  1  0.49460000  0.86800000  0.35937000  1.0 -0.1740946214
C  C142  1  0.62660000  0.49460000  0.85937000  1.0 -0.1740946214
C  C143  1  0.86800000  0.37340000  0.85937000  1.0 -0.1740946214
C  C144  1  0.50540000  0.13200000  0.85937000  1.0 -0.1740946214
C  C145  1  0.40664000  0.59336000  0.30366000  1.0 0.5959840969
C  C146  1  0.40664000  0.81328000  0.30366000  1.0 0.5959840969
C  C147  1  0.18672000  0.59336000  0.30366000  1.0 0.5959840969
C  C148  1  0.59336000  0.40664000  0.80366000  1.0 0.5959840969
C  C149  1  0.59336000  0.18672000  0.80366000  1.0 0.5959840969
C  C150  1  0.81328000  0.40664000  0.80366000  1.0 0.5959840969
C  C151  1  0.59336000  0.40664000  0.69634000  1.0 0.5959840969
C  C152  1  0.81328000  0.40664000  0.69634000  1.0 0.5959840969
C  C153  1  0.59336000  0.18672000  0.69634000  1.0 0.5959840969
C  C154  1  0.40664000  0.59336000  0.19634000  1.0 0.5959840969
C  C155  1  0.18672000  0.59336000  0.19634000  1.0 0.5959840969
C  C156  1  0.40664000  0.81328000  0.19634000  1.0 0.5959840969
C  C157  1  0.42643000  0.57357000  0.34146000  1.0 0.0081577403
C  C158  1  0.42643000  0.85286000  0.34146000  1.0 0.0081577403
C  C159  1  0.14714000  0.57357000  0.34146000  1.0 0.0081577403
C  C160  1  0.57357000  0.42643000  0.84146000  1.0 0.0081577403
C  C161  1  0.57357000  0.14714000  0.84146000  1.0 0.0081577403
C  C162  1  0.85286000  0.42643000  0.84146000  1.0 0.0081577403
C  C163  1  0.57357000  0.42643000  0.65854000  1.0 0.0081577403
C  C164  1  0.85286000  0.42643000  0.65854000  1.0 0.0081577403
C  C165  1  0.57357000  0.14714000  0.65854000  1.0 0.0081577403
C  C166  1  0.42643000  0.57357000  0.15854000  1.0 0.0081577403
C  C167  1  0.14714000  0.57357000  0.15854000  1.0 0.0081577403
C  C168  1  0.42643000  0.85286000  0.15854000  1.0 0.0081577403
C  C169  1  0.62140000  0.75010000  0.57160000  1.0 -0.118486687
C  C170  1  0.24990000  0.87130000  0.57160000  1.0 -0.118486687
C  C171  1  0.12870000  0.37860000  0.57160000  1.0 -0.118486687
C  C172  1  0.37860000  0.24990000  0.07160000  1.0 -0.118486687
C  C173  1  0.75010000  0.12870000  0.07160000  1.0 -0.118486687
C  C174  1  0.87130000  0.62140000  0.07160000  1.0 -0.118486687
C  C175  1  0.75010000  0.62140000  0.42840000  1.0 -0.118486687
C  C176  1  0.87130000  0.24990000  0.42840000  1.0 -0.118486687
C  C177  1  0.37860000  0.12870000  0.42840000  1.0 -0.118486687
C  C178  1  0.24990000  0.37860000  0.92840000  1.0 -0.118486687
C  C179  1  0.12870000  0.75010000  0.92840000  1.0 -0.118486687
C  C180  1  0.62140000  0.87130000  0.92840000  1.0 -0.118486687
C  C181  1  0.37860000  0.24990000  0.42840000  1.0 -0.118486687
C  C182  1  0.75010000  0.12870000  0.42840000  1.0 -0.118486687
C  C183  1  0.87130000  0.62140000  0.42840000  1.0 -0.118486687
C  C184  1  0.62140000  0.75010000  0.92840000  1.0 -0.118486687
C  C185  1  0.24990000  0.87130000  0.92840000  1.0 -0.118486687
C  C186  1  0.12870000  0.37860000  0.92840000  1.0 -0.118486687
C  C187  1  0.24990000  0.37860000  0.57160000  1.0 -0.118486687
C  C188  1  0.12870000  0.75010000  0.57160000  1.0 -0.118486687
C  C189  1  0.62140000  0.87130000  0.57160000  1.0 -0.118486687
C  C190  1  0.75010000  0.62140000  0.07160000  1.0 -0.118486687
C  C191  1  0.87130000  0.24990000  0.07160000  1.0 -0.118486687
C  C192  1  0.37860000  0.12870000  0.07160000  1.0 -0.118486687
C  C193  1  0.64870000  0.82435000  0.58700000  1.0 0.1984350935
C  C194  1  0.17565000  0.82435000  0.58700000  1.0 0.1984350935
C  C195  1  0.17565000  0.35130000  0.58700000  1.0 0.1800218568
C  C196  1  0.35130000  0.17565000  0.08700000  1.0 0.1800218568
C  C197  1  0.82435000  0.17565000  0.08700000  1.0 0.1984350935
C  C198  1  0.82435000  0.64870000  0.08700000  1.0 0.1800218568
C  C199  1  0.82435000  0.64870000  0.41300000  1.0 0.1800218568
C  C200  1  0.82435000  0.17565000  0.41300000  1.0 0.1984350935
C  C201  1  0.35130000  0.17565000  0.41300000  1.0 0.1800218568
C  C202  1  0.17565000  0.35130000  0.91300000  1.0 0.1800218568
C  C203  1  0.17565000  0.82435000  0.91300000  1.0 0.1984350935
C  C204  1  0.64870000  0.82435000  0.91300000  1.0 0.1984350935
N  N1  1  0.45580000  0.54420000  0.41286000  1.0 -0.1740946214
N  N2  1  0.45580000  0.91160000  0.41286000  1.0 -0.1740946214
N  N3  1  0.08840000  0.54420000  0.41286000  1.0 -0.1740946214
N  N4  1  0.54420000  0.45580000  0.91286000  1.0 -0.1740946214
N  N5  1  0.54420000  0.08840000  0.91286000  1.0 -0.1740946214
N  N6  1  0.91160000  0.45580000  0.91286000  1.0 -0.1740946214
N  N7  1  0.54420000  0.45580000  0.58714000  1.0 -0.1740946214
N  N8  1  0.91160000  0.45580000  0.58714000  1.0 -0.1740946214
N  N9  1  0.54420000  0.08840000  0.58714000  1.0 -0.1740946214
N  N10  1  0.45580000  0.54420000  0.08714000  1.0 -0.1740946214
N  N11  1  0.08840000  0.54420000  0.08714000  1.0 -0.1740946214
N  N12  1  0.45580000  0.91160000  0.08714000  1.0 -0.1740946214
O  O1  1  0.33333333  0.66666667  0.25000000  1.0 -1.1005506162
O  O2  1  0.66666667  0.33333333  0.75000000  1.0 -1.1005506162
O  O3  1  0.51649000  0.63005000  0.49145000  1.0 -0.5006951734
O  O4  1  0.36995000  0.88644000  0.49145000  1.0 -0.5006951734
O  O5  1  0.11356000  0.48351000  0.49145000  1.0 -0.5006951734
O  O6  1  0.48351000  0.36995000  0.99145000  1.0 -0.5006951734
O  O7  1  0.63005000  0.11356000  0.99145000  1.0 -0.5006951734
O  O8  1  0.88644000  0.51649000  0.99145000  1.0 -0.5006951734
O  O9  1  0.63005000  0.51649000  0.50855000  1.0 -0.5006951734
O  O10  1  0.88644000  0.36995000  0.50855000  1.0 -0.5006951734
O  O11  1  0.48351000  0.11356000  0.50855000  1.0 -0.5006951734
O  O12  1  0.36995000  0.48351000  0.00855000  1.0 -0.5006951734
O  O13  1  0.11356000  0.63005000  0.00855000  1.0 -0.5006951734
O  O14  1  0.51649000  0.88644000  0.00855000  1.0 -0.5006951734
O  O15  1  0.48351000  0.36995000  0.50855000  1.0 -0.5006951734
O  O16  1  0.63005000  0.11356000  0.50855000  1.0 -0.5006951734
O  O17  1  0.88644000  0.51649000  0.50855000  1.0 -0.5006951734
O  O18  1  0.51649000  0.63005000  0.00855000  1.0 -0.5006951734
O  O19  1  0.36995000  0.88644000  0.00855000  1.0 -0.5006951734
O  O20  1  0.11356000  0.48351000  0.00855000  1.0 -0.5006951734
O  O21  1  0.36995000  0.48351000  0.49145000  1.0 -0.5006951734
O  O22  1  0.11356000  0.63005000  0.49145000  1.0 -0.5006951734
O  O23  1  0.51649000  0.88644000  0.49145000  1.0 -0.5006951734
O  O24  1  0.63005000  0.51649000  0.99145000  1.0 -0.5006951734
O  O25  1  0.88644000  0.36995000  0.99145000  1.0 -0.5006951734
O  O26  1  0.48351000  0.11356000  0.99145000  1.0 -0.5006951734
O  O27  1  0.55582000  0.59422000  0.54258000  1.0 -0.5334093397
O  O28  1  0.40578000  0.96160000  0.54258000  1.0 -0.5334093397
O  O29  1  0.03840000  0.44418000  0.54258000  1.0 -0.5350380187
O  O30  1  0.44418000  0.40578000  0.04258000  1.0 -0.5334093397
O  O31  1  0.59422000  0.03840000  0.04258000  1.0 -0.5334093397
O  O32  1  0.96160000  0.55582000  0.04258000  1.0 -0.5334093397
O  O33  1  0.59422000  0.55582000  0.45742000  1.0 -0.5334093397
O  O34  1  0.96160000  0.40578000  0.45742000  1.0 -0.5334093397
O  O35  1  0.44418000  0.03840000  0.45742000  1.0 -0.5334093397
O  O36  1  0.40578000  0.44418000  0.95742000  1.0 -0.5350380187
O  O37  1  0.03840000  0.59422000  0.95742000  1.0 -0.5334093397
O  O38  1  0.55582000  0.96160000  0.95742000  1.0 -0.5334093397
O  O39  1  0.44418000  0.40578000  0.45742000  1.0 -0.5334093397
O  O40  1  0.59422000  0.03840000  0.45742000  1.0 -0.5334093397
O  O41  1  0.96160000  0.55582000  0.45742000  1.0 -0.5334093397
O  O42  1  0.55582000  0.59422000  0.95742000  1.0 -0.5334093397
O  O43  1  0.40578000  0.96160000  0.95742000  1.0 -0.5334093397
O  O44  1  0.03840000  0.44418000  0.95742000  1.0 -0.5350380187
O  O45  1  0.40578000  0.44418000  0.54258000  1.0 -0.5350380187
O  O46  1  0.03840000  0.59422000  0.54258000  1.0 -0.5334093397
O  O47  1  0.55582000  0.96160000  0.54258000  1.0 -0.5334093397
O  O48  1  0.59422000  0.55582000  0.04258000  1.0 -0.5334093397
O  O49  1  0.96160000  0.40578000  0.04258000  1.0 -0.5334093397
O  O50  1  0.44418000  0.03840000  0.04258000  1.0 -0.5334093397
O  O51  1  0.63270000  0.81635000  0.63190000  1.0 -0.109159283
O  O52  1  0.18365000  0.81635000  0.63190000  1.0 -0.109159283
O  O53  1  0.18365000  0.36730000  0.63190000  1.0 -0.109159283
O  O54  1  0.36730000  0.18365000  0.13190000  1.0 -0.109159283
O  O55  1  0.81635000  0.18365000  0.13190000  1.0 -0.1036909665
O  O56  1  0.81635000  0.63270000  0.13190000  1.0 -0.109159283
O  O57  1  0.81635000  0.63270000  0.36810000  1.0 -0.109159283
O  O58  1  0.81635000  0.18365000  0.36810000  1.0 -0.1036909665
O  O59  1  0.36730000  0.18365000  0.36810000  1.0 -0.1036909665
O  O60  1  0.18365000  0.36730000  0.86810000  1.0 -0.109159283
O  O61  1  0.18365000  0.81635000  0.86810000  1.0 -0.109159283
O  O62  1  0.63270000  0.81635000  0.86810000  1.0 -0.109159283
O  O63  1  0.45739000  0.65909000  0.28989000  1.0 -0.5868878533
O  O64  1  0.34091000  0.79830000  0.28989000  1.0 -0.5868878533
O  O65  1  0.20170000  0.54261000  0.28989000  1.0 -0.5868878533
O  O66  1  0.54261000  0.34091000  0.78989000  1.0 -0.5868878533
O  O67  1  0.65909000  0.20170000  0.78989000  1.0 -0.5868878533
O  O68  1  0.79830000  0.45739000  0.78989000  1.0 -0.5868878533
O  O69  1  0.65909000  0.45739000  0.71011000  1.0 -0.5868878533
O  O70  1  0.79830000  0.34091000  0.71011000  1.0 -0.5868878533
O  O71  1  0.54261000  0.20170000  0.71011000  1.0 -0.5868878533
O  O72  1  0.34091000  0.54261000  0.21011000  1.0 -0.5868878533
O  O73  1  0.20170000  0.65909000  0.21011000  1.0 -0.5868878533
O  O74  1  0.45739000  0.79830000  0.21011000  1.0 -0.5868878533
O  O75  1  0.54261000  0.34091000  0.71011000  1.0 -0.5868878533
O  O76  1  0.65909000  0.20170000  0.71011000  1.0 -0.5868878533
O  O77  1  0.79830000  0.45739000  0.71011000  1.0 -0.5868878533
O  O78  1  0.45739000  0.65909000  0.21011000  1.0 -0.5868878533
O  O79  1  0.34091000  0.79830000  0.21011000  1.0 -0.5868878533
O  O80  1  0.20170000  0.54261000  0.21011000  1.0 -0.5868878533
O  O81  1  0.34091000  0.54261000  0.28989000  1.0 -0.5868878533
O  O82  1  0.20170000  0.65909000  0.28989000  1.0 -0.5868878533
O  O83  1  0.45739000  0.79830000  0.28989000  1.0 -0.5868878533
O  O84  1  0.65909000  0.45739000  0.78989000  1.0 -0.5868878533
O  O85  1  0.79830000  0.34091000  0.78989000  1.0 -0.5868878533
O  O86  1  0.54261000  0.20170000  0.78989000  1.0 -0.5868878533
O  O87  1  0.69790000  0.84895000  0.61710000  1.0 -0.118486687
O  O88  1  0.15105000  0.84895000  0.61710000  1.0 -0.118486687
O  O89  1  0.15105000  0.30210000  0.61710000  1.0 -0.118486687
O  O90  1  0.30210000  0.15105000  0.11710000  1.0 -0.109159283
O  O91  1  0.84895000  0.15105000  0.11710000  1.0 -0.109159283
O  O92  1  0.84895000  0.69790000  0.11710000  1.0 -0.118486687
O  O93  1  0.84895000  0.69790000  0.38290000  1.0 -0.118486687
O  O94  1  0.84895000  0.15105000  0.38290000  1.0 -0.109159283
O  O95  1  0.30210000  0.15105000  0.38290000  1.0 -0.109159283
O  O96  1  0.15105000  0.30210000  0.88290000  1.0 -0.118486687
O  O97  1  0.15105000  0.84895000  0.88290000  1.0 -0.118486687
O  O98  1  0.69790000  0.84895000  0.88290000  1.0 -0.118486687
