# DDEC6 charges by PACMAN v1.1 (https://github.com/mtap-research/PACMAN-charge/)
data_YILCON_FSR_pacman
_symmetry_space_group_name_H-M   'P 1'
_cell_length_a   19.04950000
_cell_length_b   19.04950000
_cell_length_c   36.03660000
_cell_angle_alpha   90.00000000
_cell_angle_beta   90.00000000
_cell_angle_gamma   120.00000000
_symmetry_Int_Tables_number   1
_chemical_formula_structural   Zn6Cr3H270C186(N3O20)2
_chemical_formula_sum   'Zn12 Cr6 H540 C372 N12 O80'
_cell_volume   11325.08846115
_cell_formula_units_Z   2
loop_
 _symmetry_equiv_pos_site_id
 _symmetry_equiv_pos_as_xyz
  1  'x, y, z'
loop_
 _atom_site_type_symbol
 _atom_site_label
 _atom_site_symmetry_multiplicity
 _atom_site_fract_x
 _atom_site_fract_y
 _atom_site_fract_z
 _atom_site_occupancy
 _atom_site_charge
Zn  Zn1  1  0.52392000  0.04784000  0.96601000  1.0 0.8118798943
Zn  Zn2  1  0.95216000  0.47608000  0.96601000  1.0 0.8118798943
Zn  Zn3  1  0.52392000  0.47608000  0.96601000  1.0 0.8118798943
Zn  Zn4  1  0.47608000  0.95216000  0.46601000  1.0 0.8118798943
Zn  Zn5  1  0.04784000  0.52392000  0.46601000  1.0 0.8118798943
Zn  Zn6  1  0.47608000  0.52392000  0.46601000  1.0 0.8118798943
Zn  Zn7  1  0.04784000  0.52392000  0.03399000  1.0 0.8118798943
Zn  Zn8  1  0.47608000  0.95216000  0.03399000  1.0 0.8118798943
Zn  Zn9  1  0.47608000  0.52392000  0.03399000  1.0 0.8118798943
Zn  Zn10  1  0.95216000  0.47608000  0.53399000  1.0 0.8118798943
Zn  Zn11  1  0.52392000  0.04784000  0.53399000  1.0 0.8118798943
Zn  Zn12  1  0.52392000  0.47608000  0.53399000  1.0 0.8118798943
Cr  Cr1  1  0.72471000  0.27529000  0.75000000  1.0 1.5260653805
Cr  Cr2  1  0.72471000  0.44942000  0.75000000  1.0 1.5260653805
Cr  Cr3  1  0.55058000  0.27529000  0.75000000  1.0 1.5260653805
Cr  Cr4  1  0.27529000  0.72471000  0.25000000  1.0 1.5246040733
Cr  Cr5  1  0.27529000  0.55058000  0.25000000  1.0 1.5246040733
Cr  Cr6  1  0.44942000  0.72471000  0.25000000  1.0 1.5246040733
H  H1  1  0.35780000  0.07680000  0.08070000  1.0 0.1019764968
H  H2  1  0.92320000  0.28100000  0.08070000  1.0 0.1019764968
H  H3  1  0.71900000  0.64220000  0.08070000  1.0 0.1019764968
H  H4  1  0.64220000  0.92320000  0.58070000  1.0 0.1019764968
H  H5  1  0.07680000  0.71900000  0.58070000  1.0 0.1019764968
H  H6  1  0.28100000  0.35780000  0.58070000  1.0 0.1019764968
H  H7  1  0.07680000  0.35780000  0.91930000  1.0 0.1019764968
H  H8  1  0.28100000  0.92320000  0.91930000  1.0 0.1019764968
H  H9  1  0.64220000  0.71900000  0.91930000  1.0 0.1019764968
H  H10  1  0.92320000  0.64220000  0.41930000  1.0 0.1019764968
H  H11  1  0.71900000  0.07680000  0.41930000  1.0 0.1019764968
H  H12  1  0.35780000  0.28100000  0.41930000  1.0 0.1019764968
H  H13  1  0.64220000  0.92320000  0.91930000  1.0 0.1019764968
H  H14  1  0.07680000  0.71900000  0.91930000  1.0 0.1019764968
H  H15  1  0.28100000  0.35780000  0.91930000  1.0 0.1019764968
H  H16  1  0.35780000  0.07680000  0.41930000  1.0 0.1019764968
H  H17  1  0.92320000  0.28100000  0.41930000  1.0 0.1019764968
H  H18  1  0.71900000  0.64220000  0.41930000  1.0 0.1019764968
H  H19  1  0.92320000  0.64220000  0.08070000  1.0 0.1019764968
H  H20  1  0.71900000  0.07680000  0.08070000  1.0 0.1019764968
H  H21  1  0.35780000  0.28100000  0.08070000  1.0 0.1019764968
H  H22  1  0.07680000  0.35780000  0.58070000  1.0 0.1019764968
H  H23  1  0.28100000  0.92320000  0.58070000  1.0 0.1019764968
H  H24  1  0.64220000  0.71900000  0.58070000  1.0 0.1019764968
H  H25  1  0.46810000  0.23405000  0.00010000  1.0 0.1019764968
H  H26  1  0.76595000  0.23405000  0.00010000  1.0 0.1019764968
H  H27  1  0.76595000  0.53190000  0.00010000  1.0 0.1019764968
H  H28  1  0.53190000  0.76595000  0.50010000  1.0 0.1019764968
H  H29  1  0.23405000  0.76595000  0.50010000  1.0 0.1019764968
H  H30  1  0.23405000  0.46810000  0.50010000  1.0 0.1019764968
H  H31  1  0.23405000  0.46810000  0.99990000  1.0 0.1019764968
H  H32  1  0.23405000  0.76595000  0.99990000  1.0 0.1019764968
H  H33  1  0.53190000  0.76595000  0.99990000  1.0 0.1019764968
H  H34  1  0.76595000  0.53190000  0.49990000  1.0 0.1019764968
H  H35  1  0.76595000  0.23405000  0.49990000  1.0 0.1019764968
H  H36  1  0.46810000  0.23405000  0.49990000  1.0 0.1019764968
H  H37  1  0.44620000  0.09390000  0.90840000  1.0 0.1383993118
H  H38  1  0.90610000  0.35230000  0.90840000  1.0 0.1383993118
H  H39  1  0.64770000  0.55380000  0.90840000  1.0 0.1383993118
H  H40  1  0.55380000  0.90610000  0.40840000  1.0 0.1383993118
H  H41  1  0.09390000  0.64770000  0.40840000  1.0 0.1383993118
H  H42  1  0.35230000  0.44620000  0.40840000  1.0 0.1383993118
H  H43  1  0.09390000  0.44620000  0.09160000  1.0 0.1383993118
H  H44  1  0.35230000  0.90610000  0.09160000  1.0 0.1383993118
H  H45  1  0.55380000  0.64770000  0.09160000  1.0 0.1383993118
H  H46  1  0.90610000  0.55380000  0.59160000  1.0 0.1383993118
H  H47  1  0.64770000  0.09390000  0.59160000  1.0 0.1383993118
H  H48  1  0.44620000  0.35230000  0.59160000  1.0 0.1383993118
H  H49  1  0.55380000  0.90610000  0.09160000  1.0 0.1383993118
H  H50  1  0.09390000  0.64770000  0.09160000  1.0 0.1383993118
H  H51  1  0.35230000  0.44620000  0.09160000  1.0 0.1383993118
H  H52  1  0.44620000  0.09390000  0.59160000  1.0 0.1383993118
H  H53  1  0.90610000  0.35230000  0.59160000  1.0 0.1383993118
H  H54  1  0.64770000  0.55380000  0.59160000  1.0 0.1383993118
H  H55  1  0.90610000  0.55380000  0.90840000  1.0 0.1383993118
H  H56  1  0.64770000  0.09390000  0.90840000  1.0 0.1383993118
H  H57  1  0.44620000  0.35230000  0.90840000  1.0 0.1383993118
H  H58  1  0.09390000  0.44620000  0.40840000  1.0 0.1383993118
H  H59  1  0.35230000  0.90610000  0.40840000  1.0 0.1383993118
H  H60  1  0.55380000  0.64770000  0.40840000  1.0 0.1383993118
H  H61  1  0.46610000  0.14230000  0.84800000  1.0 0.1383993118
H  H62  1  0.85770000  0.32380000  0.84800000  1.0 0.1383993118
H  H63  1  0.67620000  0.53390000  0.84800000  1.0 0.1383993118
H  H64  1  0.53390000  0.85770000  0.34800000  1.0 0.1383993118
H  H65  1  0.14230000  0.67620000  0.34800000  1.0 0.1383993118
H  H66  1  0.32380000  0.46610000  0.34800000  1.0 0.1383993118
H  H67  1  0.14230000  0.46610000  0.15200000  1.0 0.1383993118
H  H68  1  0.32380000  0.85770000  0.15200000  1.0 0.1383993118
H  H69  1  0.53390000  0.67620000  0.15200000  1.0 0.1383993118
H  H70  1  0.85770000  0.53390000  0.65200000  1.0 0.1383993118
H  H71  1  0.67620000  0.14230000  0.65200000  1.0 0.1383993118
H  H72  1  0.46610000  0.32380000  0.65200000  1.0 0.1383993118
H  H73  1  0.53390000  0.85770000  0.15200000  1.0 0.1383993118
H  H74  1  0.14230000  0.67620000  0.15200000  1.0 0.1383993118
H  H75  1  0.32380000  0.46610000  0.15200000  1.0 0.1383993118
H  H76  1  0.46610000  0.14230000  0.65200000  1.0 0.1383993118
H  H77  1  0.85770000  0.32380000  0.65200000  1.0 0.1383993118
H  H78  1  0.67620000  0.53390000  0.65200000  1.0 0.1383993118
H  H79  1  0.85770000  0.53390000  0.84800000  1.0 0.1383993118
H  H80  1  0.67620000  0.14230000  0.84800000  1.0 0.1383993118
H  H81  1  0.46610000  0.32380000  0.84800000  1.0 0.1383993118
H  H82  1  0.14230000  0.46610000  0.34800000  1.0 0.1383993118
H  H83  1  0.32380000  0.85770000  0.34800000  1.0 0.1383993118
H  H84  1  0.53390000  0.67620000  0.34800000  1.0 0.1383993118
H  H85  1  0.22460000  0.02200000  0.10570000  1.0 0.0393646268
H  H86  1  0.97800000  0.20260000  0.10570000  1.0 0.0393646268
H  H87  1  0.79740000  0.77540000  0.10570000  1.0 0.0393646268
H  H88  1  0.77540000  0.97800000  0.60570000  1.0 0.0393646268
H  H89  1  0.02200000  0.79740000  0.60570000  1.0 0.0393646268
H  H90  1  0.20260000  0.22460000  0.60570000  1.0 0.0393646268
H  H91  1  0.02200000  0.22460000  0.89430000  1.0 0.0393646268
H  H92  1  0.20260000  0.97800000  0.89430000  1.0 0.0393646268
H  H93  1  0.77540000  0.79740000  0.89430000  1.0 0.0393646268
H  H94  1  0.97800000  0.77540000  0.39430000  1.0 0.0393646268
H  H95  1  0.79740000  0.02200000  0.39430000  1.0 0.0393646268
H  H96  1  0.22460000  0.20260000  0.39430000  1.0 0.0393646268
H  H97  1  0.77540000  0.97800000  0.89430000  1.0 0.0393646268
H  H98  1  0.02200000  0.79740000  0.89430000  1.0 0.0393646268
H  H99  1  0.20260000  0.22460000  0.89430000  1.0 0.0393646268
H  H100  1  0.22460000  0.02200000  0.39430000  1.0 0.0393646268
H  H101  1  0.97800000  0.20260000  0.39430000  1.0 0.0393646268
H  H102  1  0.79740000  0.77540000  0.39430000  1.0 0.0393646268
H  H103  1  0.97800000  0.77540000  0.10570000  1.0 0.0393646268
H  H104  1  0.79740000  0.02200000  0.10570000  1.0 0.0393646268
H  H105  1  0.22460000  0.20260000  0.10570000  1.0 0.0393646268
H  H106  1  0.02200000  0.22460000  0.60570000  1.0 0.0393646268
H  H107  1  0.20260000  0.97800000  0.60570000  1.0 0.0393646268
H  H108  1  0.77540000  0.79740000  0.60570000  1.0 0.0393646268
H  H109  1  0.17730000  0.06860000  0.09450000  1.0 0.0486360631
H  H110  1  0.93140000  0.10870000  0.09450000  1.0 0.0486360631
H  H111  1  0.89130000  0.82270000  0.09450000  1.0 0.0486360631
H  H112  1  0.82270000  0.93140000  0.59450000  1.0 0.0486360631
H  H113  1  0.06860000  0.89130000  0.59450000  1.0 0.0486360631
H  H114  1  0.10870000  0.17730000  0.59450000  1.0 0.0393646268
H  H115  1  0.06860000  0.17730000  0.90550000  1.0 0.0393646268
H  H116  1  0.10870000  0.93140000  0.90550000  1.0 0.0486360631
H  H117  1  0.82270000  0.89130000  0.90550000  1.0 0.0486360631
H  H118  1  0.93140000  0.82270000  0.40550000  1.0 0.0486360631
H  H119  1  0.89130000  0.06860000  0.40550000  1.0 0.0486360631
H  H120  1  0.17730000  0.10870000  0.40550000  1.0 0.0486360631
H  H121  1  0.82270000  0.93140000  0.90550000  1.0 0.0486360631
H  H122  1  0.06860000  0.89130000  0.90550000  1.0 0.0486360631
H  H123  1  0.10870000  0.17730000  0.90550000  1.0 0.0393646268
H  H124  1  0.17730000  0.06860000  0.40550000  1.0 0.0486360631
H  H125  1  0.93140000  0.10870000  0.40550000  1.0 0.0486360631
H  H126  1  0.89130000  0.82270000  0.40550000  1.0 0.0486360631
H  H127  1  0.93140000  0.82270000  0.09450000  1.0 0.0486360631
H  H128  1  0.89130000  0.06860000  0.09450000  1.0 0.0486360631
H  H129  1  0.17730000  0.10870000  0.09450000  1.0 0.0486360631
H  H130  1  0.06860000  0.17730000  0.59450000  1.0 0.0393646268
H  H131  1  0.10870000  0.93140000  0.59450000  1.0 0.0486360631
H  H132  1  0.82270000  0.89130000  0.59450000  1.0 0.0486360631
H  H133  1  0.17550000  0.04060000  0.13650000  1.0 0.068503536
H  H134  1  0.95940000  0.13490000  0.13650000  1.0 0.0778805838
H  H135  1  0.86510000  0.82450000  0.13650000  1.0 0.0778805838
H  H136  1  0.82450000  0.95940000  0.63650000  1.0 0.0778805838
H  H137  1  0.04060000  0.86510000  0.63650000  1.0 0.068503536
H  H138  1  0.13490000  0.17550000  0.63650000  1.0 0.068503536
H  H139  1  0.04060000  0.17550000  0.86350000  1.0 0.068503536
H  H140  1  0.13490000  0.95940000  0.86350000  1.0 0.068503536
H  H141  1  0.82450000  0.86510000  0.86350000  1.0 0.068503536
H  H142  1  0.95940000  0.82450000  0.36350000  1.0 0.0778805838
H  H143  1  0.86510000  0.04060000  0.36350000  1.0 0.068503536
H  H144  1  0.17550000  0.13490000  0.36350000  1.0 0.068503536
H  H145  1  0.82450000  0.95940000  0.86350000  1.0 0.0778805838
H  H146  1  0.04060000  0.86510000  0.86350000  1.0 0.068503536
H  H147  1  0.13490000  0.17550000  0.86350000  1.0 0.068503536
H  H148  1  0.17550000  0.04060000  0.36350000  1.0 0.068503536
H  H149  1  0.95940000  0.13490000  0.36350000  1.0 0.068503536
H  H150  1  0.86510000  0.82450000  0.36350000  1.0 0.0778805838
H  H151  1  0.95940000  0.82450000  0.13650000  1.0 0.0778805838
H  H152  1  0.86510000  0.04060000  0.13650000  1.0 0.068503536
H  H153  1  0.17550000  0.13490000  0.13650000  1.0 0.068503536
H  H154  1  0.04060000  0.17550000  0.63650000  1.0 0.068503536
H  H155  1  0.13490000  0.95940000  0.63650000  1.0 0.068503536
H  H156  1  0.82450000  0.86510000  0.63650000  1.0 0.0778805838
H  H157  1  0.31650000  0.24960000  0.15030000  1.0 -0.0108367738
H  H158  1  0.75040000  0.06690000  0.15030000  1.0 -0.0108367738
H  H159  1  0.93310000  0.68350000  0.15030000  1.0 -0.0108367738
H  H160  1  0.68350000  0.75040000  0.65030000  1.0 -0.0108367738
H  H161  1  0.24960000  0.93310000  0.65030000  1.0 -0.0108367738
H  H162  1  0.06690000  0.31650000  0.65030000  1.0 -0.0108367738
H  H163  1  0.24960000  0.31650000  0.84970000  1.0 -0.0108367738
H  H164  1  0.06690000  0.75040000  0.84970000  1.0 -0.0108367738
H  H165  1  0.68350000  0.93310000  0.84970000  1.0 -0.0108367738
H  H166  1  0.75040000  0.68350000  0.34970000  1.0 -0.0108367738
H  H167  1  0.93310000  0.24960000  0.34970000  1.0 -0.0108367738
H  H168  1  0.31650000  0.06690000  0.34970000  1.0 -0.0108367738
H  H169  1  0.68350000  0.75040000  0.84970000  1.0 -0.0108367738
H  H170  1  0.24960000  0.93310000  0.84970000  1.0 -0.0108367738
H  H171  1  0.06690000  0.31650000  0.84970000  1.0 -0.0108367738
H  H172  1  0.31650000  0.24960000  0.34970000  1.0 -0.0108367738
H  H173  1  0.75040000  0.06690000  0.34970000  1.0 -0.0108367738
H  H174  1  0.93310000  0.68350000  0.34970000  1.0 -0.0108367738
H  H175  1  0.75040000  0.68350000  0.15030000  1.0 -0.0108367738
H  H176  1  0.93310000  0.24960000  0.15030000  1.0 -0.0108367738
H  H177  1  0.31650000  0.06690000  0.15030000  1.0 -0.0108367738
H  H178  1  0.24960000  0.31650000  0.65030000  1.0 -0.0108367738
H  H179  1  0.06690000  0.75040000  0.65030000  1.0 -0.0108367738
H  H180  1  0.68350000  0.93310000  0.65030000  1.0 -0.0108367738
H  H181  1  0.33920000  0.25810000  0.14530000  1.0 -0.0023036234
H  H182  1  0.74190000  0.08110000  0.14530000  1.0 -0.0023036234
H  H183  1  0.91890000  0.66080000  0.14530000  1.0 -0.0023036234
H  H184  1  0.66080000  0.74190000  0.64530000  1.0 -0.0023036234
H  H185  1  0.25810000  0.91890000  0.64530000  1.0 -0.0023036234
H  H186  1  0.08110000  0.33920000  0.64530000  1.0 -0.0023036234
H  H187  1  0.25810000  0.33920000  0.85470000  1.0 -0.0023036234
H  H188  1  0.08110000  0.74190000  0.85470000  1.0 -0.0023036234
H  H189  1  0.66080000  0.91890000  0.85470000  1.0 -0.0023036234
H  H190  1  0.74190000  0.66080000  0.35470000  1.0 -0.0023036234
H  H191  1  0.91890000  0.25810000  0.35470000  1.0 -0.0023036234
H  H192  1  0.33920000  0.08110000  0.35470000  1.0 -0.0023036234
H  H193  1  0.66080000  0.74190000  0.85470000  1.0 -0.0023036234
H  H194  1  0.25810000  0.91890000  0.85470000  1.0 -0.0023036234
H  H195  1  0.08110000  0.33920000  0.85470000  1.0 -0.0023036234
H  H196  1  0.33920000  0.25810000  0.35470000  1.0 -0.0023036234
H  H197  1  0.74190000  0.08110000  0.35470000  1.0 -0.0023036234
H  H198  1  0.91890000  0.66080000  0.35470000  1.0 -0.0023036234
H  H199  1  0.74190000  0.66080000  0.14530000  1.0 -0.0023036234
H  H200  1  0.91890000  0.25810000  0.14530000  1.0 -0.0023036234
H  H201  1  0.33920000  0.08110000  0.14530000  1.0 -0.0023036234
H  H202  1  0.25810000  0.33920000  0.64530000  1.0 -0.0023036234
H  H203  1  0.08110000  0.74190000  0.64530000  1.0 -0.0023036234
H  H204  1  0.66080000  0.91890000  0.64530000  1.0 -0.0023036234
H  H205  1  0.22130000  0.18630000  0.15210000  1.0 -0.0209556124
H  H206  1  0.81370000  0.03500000  0.15210000  1.0 -0.0209556124
H  H207  1  0.96500000  0.77870000  0.15210000  1.0 -0.0209556124
H  H208  1  0.77870000  0.81370000  0.65210000  1.0 -0.0209556124
H  H209  1  0.18630000  0.96500000  0.65210000  1.0 -0.0209556124
H  H210  1  0.03500000  0.22130000  0.65210000  1.0 -0.0209556124
H  H211  1  0.18630000  0.22130000  0.84790000  1.0 -0.0209556124
H  H212  1  0.03500000  0.81370000  0.84790000  1.0 -0.0209556124
H  H213  1  0.77870000  0.96500000  0.84790000  1.0 -0.0209556124
H  H214  1  0.81370000  0.77870000  0.34790000  1.0 -0.0209556124
H  H215  1  0.96500000  0.18630000  0.34790000  1.0 -0.0209556124
H  H216  1  0.22130000  0.03500000  0.34790000  1.0 -0.0209556124
H  H217  1  0.77870000  0.81370000  0.84790000  1.0 -0.0209556124
H  H218  1  0.18630000  0.96500000  0.84790000  1.0 -0.0209556124
H  H219  1  0.03500000  0.22130000  0.84790000  1.0 -0.0209556124
H  H220  1  0.22130000  0.18630000  0.34790000  1.0 -0.0209556124
H  H221  1  0.81370000  0.03500000  0.34790000  1.0 -0.0209556124
H  H222  1  0.96500000  0.77870000  0.34790000  1.0 -0.0209556124
H  H223  1  0.81370000  0.77870000  0.15210000  1.0 -0.0209556124
H  H224  1  0.96500000  0.18630000  0.15210000  1.0 -0.0209556124
H  H225  1  0.22130000  0.03500000  0.15210000  1.0 -0.0209556124
H  H226  1  0.18630000  0.22130000  0.65210000  1.0 -0.0209556124
H  H227  1  0.03500000  0.81370000  0.65210000  1.0 -0.0209556124
H  H228  1  0.77870000  0.96500000  0.65210000  1.0 -0.0209556124
H  H229  1  0.26060000  0.23630000  0.11490000  1.0 0.0393646268
H  H230  1  0.76370000  0.02430000  0.11490000  1.0 0.0393646268
H  H231  1  0.97570000  0.73940000  0.11490000  1.0 0.0393646268
H  H232  1  0.73940000  0.76370000  0.61490000  1.0 0.0393646268
H  H233  1  0.23630000  0.97570000  0.61490000  1.0 0.0393646268
H  H234  1  0.02430000  0.26060000  0.61490000  1.0 0.0393646268
H  H235  1  0.23630000  0.26060000  0.88510000  1.0 0.0393646268
H  H236  1  0.02430000  0.76370000  0.88510000  1.0 0.0393646268
H  H237  1  0.73940000  0.97570000  0.88510000  1.0 0.0393646268
H  H238  1  0.76370000  0.73940000  0.38510000  1.0 0.0393646268
H  H239  1  0.97570000  0.23630000  0.38510000  1.0 0.0393646268
H  H240  1  0.26060000  0.02430000  0.38510000  1.0 0.0393646268
H  H241  1  0.73940000  0.76370000  0.88510000  1.0 0.0393646268
H  H242  1  0.23630000  0.97570000  0.88510000  1.0 0.0393646268
H  H243  1  0.02430000  0.26060000  0.88510000  1.0 0.0393646268
H  H244  1  0.26060000  0.23630000  0.38510000  1.0 0.0393646268
H  H245  1  0.76370000  0.02430000  0.38510000  1.0 0.0393646268
H  H246  1  0.97570000  0.73940000  0.38510000  1.0 0.0393646268
H  H247  1  0.76370000  0.73940000  0.11490000  1.0 0.0393646268
H  H248  1  0.97570000  0.23630000  0.11490000  1.0 0.0393646268
H  H249  1  0.26060000  0.02430000  0.11490000  1.0 0.0393646268
H  H250  1  0.23630000  0.26060000  0.61490000  1.0 0.0393646268
H  H251  1  0.02430000  0.76370000  0.61490000  1.0 0.0393646268
H  H252  1  0.73940000  0.97570000  0.61490000  1.0 0.0393646268
H  H253  1  0.38290000  0.20860000  0.15750000  1.0 0.0206887311
H  H254  1  0.79140000  0.17430000  0.15750000  1.0 0.0206887311
H  H255  1  0.82570000  0.61710000  0.15750000  1.0 0.0206887311
H  H256  1  0.61710000  0.79140000  0.65750000  1.0 0.0206887311
H  H257  1  0.20860000  0.82570000  0.65750000  1.0 0.0206887311
H  H258  1  0.17430000  0.38290000  0.65750000  1.0 0.0206887311
H  H259  1  0.20860000  0.38290000  0.84250000  1.0 0.0206887311
H  H260  1  0.17430000  0.79140000  0.84250000  1.0 0.0206887311
H  H261  1  0.61710000  0.82570000  0.84250000  1.0 0.0206887311
H  H262  1  0.79140000  0.61710000  0.34250000  1.0 0.0206887311
H  H263  1  0.82570000  0.20860000  0.34250000  1.0 0.0206887311
H  H264  1  0.38290000  0.17430000  0.34250000  1.0 0.0206887311
H  H265  1  0.61710000  0.79140000  0.84250000  1.0 0.0206887311
H  H266  1  0.20860000  0.82570000  0.84250000  1.0 0.0206887311
H  H267  1  0.17430000  0.38290000  0.84250000  1.0 0.0206887311
H  H268  1  0.38290000  0.20860000  0.34250000  1.0 0.0206887311
H  H269  1  0.79140000  0.17430000  0.34250000  1.0 0.0206887311
H  H270  1  0.82570000  0.61710000  0.34250000  1.0 0.0206887311
H  H271  1  0.79140000  0.61710000  0.15750000  1.0 0.0206887311
H  H272  1  0.82570000  0.20860000  0.15750000  1.0 0.0206887311
H  H273  1  0.38290000  0.17430000  0.15750000  1.0 0.0206887311
H  H274  1  0.20860000  0.38290000  0.65750000  1.0 0.0206887311
H  H275  1  0.17430000  0.79140000  0.65750000  1.0 0.0206887311
H  H276  1  0.61710000  0.82570000  0.65750000  1.0 0.0206887311
H  H277  1  0.29840000  0.11000000  0.17600000  1.0 0.068503536
H  H278  1  0.89000000  0.18840000  0.17600000  1.0 0.068503536
H  H279  1  0.81160000  0.70160000  0.17600000  1.0 0.068503536
H  H280  1  0.70160000  0.89000000  0.67600000  1.0 0.068503536
H  H281  1  0.11000000  0.81160000  0.67600000  1.0 0.068503536
H  H282  1  0.18840000  0.29840000  0.67600000  1.0 0.068503536
H  H283  1  0.11000000  0.29840000  0.82400000  1.0 0.068503536
H  H284  1  0.18840000  0.89000000  0.82400000  1.0 0.068503536
H  H285  1  0.70160000  0.81160000  0.82400000  1.0 0.068503536
H  H286  1  0.89000000  0.70160000  0.32400000  1.0 0.068503536
H  H287  1  0.81160000  0.11000000  0.32400000  1.0 0.068503536
H  H288  1  0.29840000  0.18840000  0.32400000  1.0 0.068503536
H  H289  1  0.70160000  0.89000000  0.82400000  1.0 0.068503536
H  H290  1  0.11000000  0.81160000  0.82400000  1.0 0.068503536
H  H291  1  0.18840000  0.29840000  0.82400000  1.0 0.068503536
H  H292  1  0.29840000  0.11000000  0.32400000  1.0 0.068503536
H  H293  1  0.89000000  0.18840000  0.32400000  1.0 0.068503536
H  H294  1  0.81160000  0.70160000  0.32400000  1.0 0.068503536
H  H295  1  0.89000000  0.70160000  0.17600000  1.0 0.068503536
H  H296  1  0.81160000  0.11000000  0.17600000  1.0 0.068503536
H  H297  1  0.29840000  0.18840000  0.17600000  1.0 0.068503536
H  H298  1  0.11000000  0.29840000  0.67600000  1.0 0.068503536
H  H299  1  0.18840000  0.89000000  0.67600000  1.0 0.068503536
H  H300  1  0.70160000  0.81160000  0.67600000  1.0 0.068503536
H  H301  1  0.39220000  0.08840000  0.09060000  1.0 0.068503536
H  H302  1  0.91160000  0.30380000  0.09060000  1.0 0.068503536
H  H303  1  0.69620000  0.60780000  0.09060000  1.0 0.068503536
H  H304  1  0.60780000  0.91160000  0.59060000  1.0 0.068503536
H  H305  1  0.08840000  0.69620000  0.59060000  1.0 0.068503536
H  H306  1  0.30380000  0.39220000  0.59060000  1.0 0.068503536
H  H307  1  0.08840000  0.39220000  0.90940000  1.0 0.068503536
H  H308  1  0.30380000  0.91160000  0.90940000  1.0 0.068503536
H  H309  1  0.60780000  0.69620000  0.90940000  1.0 0.068503536
H  H310  1  0.91160000  0.60780000  0.40940000  1.0 0.068503536
H  H311  1  0.69620000  0.08840000  0.40940000  1.0 0.068503536
H  H312  1  0.39220000  0.30380000  0.40940000  1.0 0.068503536
H  H313  1  0.60780000  0.91160000  0.90940000  1.0 0.068503536
H  H314  1  0.08840000  0.69620000  0.90940000  1.0 0.068503536
H  H315  1  0.30380000  0.39220000  0.90940000  1.0 0.068503536
H  H316  1  0.39220000  0.08840000  0.40940000  1.0 0.068503536
H  H317  1  0.91160000  0.30380000  0.40940000  1.0 0.068503536
H  H318  1  0.69620000  0.60780000  0.40940000  1.0 0.068503536
H  H319  1  0.91160000  0.60780000  0.09060000  1.0 0.068503536
H  H320  1  0.69620000  0.08840000  0.09060000  1.0 0.068503536
H  H321  1  0.39220000  0.30380000  0.09060000  1.0 0.068503536
H  H322  1  0.08840000  0.39220000  0.59060000  1.0 0.068503536
H  H323  1  0.30380000  0.91160000  0.59060000  1.0 0.068503536
H  H324  1  0.60780000  0.69620000  0.59060000  1.0 0.068503536
H  H325  1  0.41830000  0.12160000  0.15210000  1.0 0.0206887311
H  H326  1  0.87840000  0.29670000  0.15210000  1.0 0.0206887311
H  H327  1  0.70330000  0.58170000  0.15210000  1.0 0.0206887311
H  H328  1  0.58170000  0.87840000  0.65210000  1.0 0.0206887311
H  H329  1  0.12160000  0.70330000  0.65210000  1.0 0.0206887311
H  H330  1  0.29670000  0.41830000  0.65210000  1.0 0.0206887311
H  H331  1  0.12160000  0.41830000  0.84790000  1.0 0.0206887311
H  H332  1  0.29670000  0.87840000  0.84790000  1.0 0.0206887311
H  H333  1  0.58170000  0.70330000  0.84790000  1.0 0.0206887311
H  H334  1  0.87840000  0.58170000  0.34790000  1.0 0.0206887311
H  H335  1  0.70330000  0.12160000  0.34790000  1.0 0.0206887311
H  H336  1  0.41830000  0.29670000  0.34790000  1.0 0.0206887311
H  H337  1  0.58170000  0.87840000  0.84790000  1.0 0.0206887311
H  H338  1  0.12160000  0.70330000  0.84790000  1.0 0.0206887311
H  H339  1  0.29670000  0.41830000  0.84790000  1.0 0.0206887311
H  H340  1  0.41830000  0.12160000  0.34790000  1.0 0.0206887311
H  H341  1  0.87840000  0.29670000  0.34790000  1.0 0.0206887311
H  H342  1  0.70330000  0.58170000  0.34790000  1.0 0.0206887311
H  H343  1  0.87840000  0.58170000  0.15210000  1.0 0.0206887311
H  H344  1  0.70330000  0.12160000  0.15210000  1.0 0.0206887311
H  H345  1  0.41830000  0.29670000  0.15210000  1.0 0.0206887311
H  H346  1  0.12160000  0.41830000  0.65210000  1.0 0.0206887311
H  H347  1  0.29670000  0.87840000  0.65210000  1.0 0.0206887311
H  H348  1  0.58170000  0.70330000  0.65210000  1.0 0.0206887311
H  H349  1  0.38710000  0.15220000  0.18640000  1.0 0.068503536
H  H350  1  0.84780000  0.23490000  0.18640000  1.0 0.068503536
H  H351  1  0.76510000  0.61290000  0.18640000  1.0 0.068503536
H  H352  1  0.61290000  0.84780000  0.68640000  1.0 0.068503536
H  H353  1  0.15220000  0.76510000  0.68640000  1.0 0.068503536
H  H354  1  0.23490000  0.38710000  0.68640000  1.0 0.068503536
H  H355  1  0.15220000  0.38710000  0.81360000  1.0 0.068503536
H  H356  1  0.23490000  0.84780000  0.81360000  1.0 0.068503536
H  H357  1  0.61290000  0.76510000  0.81360000  1.0 0.068503536
H  H358  1  0.84780000  0.61290000  0.31360000  1.0 0.068503536
H  H359  1  0.76510000  0.15220000  0.31360000  1.0 0.068503536
H  H360  1  0.38710000  0.23490000  0.31360000  1.0 0.068503536
H  H361  1  0.61290000  0.84780000  0.81360000  1.0 0.068503536
H  H362  1  0.15220000  0.76510000  0.81360000  1.0 0.068503536
H  H363  1  0.23490000  0.38710000  0.81360000  1.0 0.068503536
H  H364  1  0.38710000  0.15220000  0.31360000  1.0 0.068503536
H  H365  1  0.84780000  0.23490000  0.31360000  1.0 0.068503536
H  H366  1  0.76510000  0.61290000  0.31360000  1.0 0.068503536
H  H367  1  0.84780000  0.61290000  0.18640000  1.0 0.068503536
H  H368  1  0.76510000  0.15220000  0.18640000  1.0 0.068503536
H  H369  1  0.38710000  0.23490000  0.18640000  1.0 0.068503536
H  H370  1  0.15220000  0.38710000  0.68640000  1.0 0.068503536
H  H371  1  0.23490000  0.84780000  0.68640000  1.0 0.068503536
H  H372  1  0.61290000  0.76510000  0.68640000  1.0 0.068503536
H  H373  1  0.46220000  0.21610000  0.16200000  1.0 0.0206887311
H  H374  1  0.78390000  0.24610000  0.16200000  1.0 0.0206887311
H  H375  1  0.75390000  0.53780000  0.16200000  1.0 0.0206887311
H  H376  1  0.53780000  0.78390000  0.66200000  1.0 0.0206887311
H  H377  1  0.21610000  0.75390000  0.66200000  1.0 0.0206887311
H  H378  1  0.24610000  0.46220000  0.66200000  1.0 0.0206887311
H  H379  1  0.21610000  0.46220000  0.83800000  1.0 0.0206887311
H  H380  1  0.24610000  0.78390000  0.83800000  1.0 0.0206887311
H  H381  1  0.53780000  0.75390000  0.83800000  1.0 0.0206887311
H  H382  1  0.78390000  0.53780000  0.33800000  1.0 0.0206887311
H  H383  1  0.75390000  0.21610000  0.33800000  1.0 0.0206887311
H  H384  1  0.46220000  0.24610000  0.33800000  1.0 0.0206887311
H  H385  1  0.53780000  0.78390000  0.83800000  1.0 0.0206887311
H  H386  1  0.21610000  0.75390000  0.83800000  1.0 0.0206887311
H  H387  1  0.24610000  0.46220000  0.83800000  1.0 0.0206887311
H  H388  1  0.46220000  0.21610000  0.33800000  1.0 0.0206887311
H  H389  1  0.78390000  0.24610000  0.33800000  1.0 0.0206887311
H  H390  1  0.75390000  0.53780000  0.33800000  1.0 0.0206887311
H  H391  1  0.78390000  0.53780000  0.16200000  1.0 0.0206887311
H  H392  1  0.75390000  0.21610000  0.16200000  1.0 0.0206887311
H  H393  1  0.46220000  0.24610000  0.16200000  1.0 0.0206887311
H  H394  1  0.21610000  0.46220000  0.66200000  1.0 0.0206887311
H  H395  1  0.24610000  0.78390000  0.66200000  1.0 0.0206887311
H  H396  1  0.53780000  0.75390000  0.66200000  1.0 0.0206887311
H  H397  1  0.29000000  0.24060000  0.14100000  1.0 -0.0209556124
H  H398  1  0.75940000  0.04940000  0.14100000  1.0 -0.0307972928
H  H399  1  0.95060000  0.71000000  0.14100000  1.0 -0.0209556124
H  H400  1  0.71000000  0.75940000  0.64100000  1.0 -0.0209556124
H  H401  1  0.24060000  0.95060000  0.64100000  1.0 -0.0209556124
H  H402  1  0.04940000  0.29000000  0.64100000  1.0 -0.0209556124
H  H403  1  0.24060000  0.29000000  0.85900000  1.0 -0.0209556124
H  H404  1  0.04940000  0.75940000  0.85900000  1.0 -0.0209556124
H  H405  1  0.71000000  0.95060000  0.85900000  1.0 -0.0209556124
H  H406  1  0.75940000  0.71000000  0.35900000  1.0 -0.0209556124
H  H407  1  0.95060000  0.24060000  0.35900000  1.0 -0.0209556124
H  H408  1  0.29000000  0.04940000  0.35900000  1.0 -0.0307972928
H  H409  1  0.71000000  0.75940000  0.85900000  1.0 -0.0209556124
H  H410  1  0.24060000  0.95060000  0.85900000  1.0 -0.0209556124
H  H411  1  0.04940000  0.29000000  0.85900000  1.0 -0.0209556124
H  H412  1  0.29000000  0.24060000  0.35900000  1.0 -0.0209556124
H  H413  1  0.75940000  0.04940000  0.35900000  1.0 -0.0307972928
H  H414  1  0.95060000  0.71000000  0.35900000  1.0 -0.0209556124
H  H415  1  0.75940000  0.71000000  0.14100000  1.0 -0.0209556124
H  H416  1  0.95060000  0.24060000  0.14100000  1.0 -0.0209556124
H  H417  1  0.29000000  0.04940000  0.14100000  1.0 -0.0307972928
H  H418  1  0.24060000  0.29000000  0.64100000  1.0 -0.0209556124
H  H419  1  0.04940000  0.75940000  0.64100000  1.0 -0.0209556124
H  H420  1  0.71000000  0.95060000  0.64100000  1.0 -0.0209556124
H  H421  1  0.38650000  0.29800000  0.14140000  1.0 0.0486360631
H  H422  1  0.70200000  0.08850000  0.14140000  1.0 0.0486360631
H  H423  1  0.91150000  0.61350000  0.14140000  1.0 0.0486360631
H  H424  1  0.61350000  0.70200000  0.64140000  1.0 0.0486360631
H  H425  1  0.29800000  0.91150000  0.64140000  1.0 0.0486360631
H  H426  1  0.08850000  0.38650000  0.64140000  1.0 0.0486360631
H  H427  1  0.29800000  0.38650000  0.85860000  1.0 0.0486360631
H  H428  1  0.08850000  0.70200000  0.85860000  1.0 0.0486360631
H  H429  1  0.61350000  0.91150000  0.85860000  1.0 0.0486360631
H  H430  1  0.70200000  0.61350000  0.35860000  1.0 0.0486360631
H  H431  1  0.91150000  0.29800000  0.35860000  1.0 0.0486360631
H  H432  1  0.38650000  0.08850000  0.35860000  1.0 0.0486360631
H  H433  1  0.61350000  0.70200000  0.85860000  1.0 0.0486360631
H  H434  1  0.29800000  0.91150000  0.85860000  1.0 0.0486360631
H  H435  1  0.08850000  0.38650000  0.85860000  1.0 0.0486360631
H  H436  1  0.38650000  0.29800000  0.35860000  1.0 0.0486360631
H  H437  1  0.70200000  0.08850000  0.35860000  1.0 0.0486360631
H  H438  1  0.91150000  0.61350000  0.35860000  1.0 0.0486360631
H  H439  1  0.70200000  0.61350000  0.14140000  1.0 0.0486360631
H  H440  1  0.91150000  0.29800000  0.14140000  1.0 0.0486360631
H  H441  1  0.38650000  0.08850000  0.14140000  1.0 0.0486360631
H  H442  1  0.29800000  0.38650000  0.64140000  1.0 0.0486360631
H  H443  1  0.08850000  0.70200000  0.64140000  1.0 0.0486360631
H  H444  1  0.61350000  0.91150000  0.64140000  1.0 0.0486360631
H  H445  1  0.34080000  0.24540000  0.17730000  1.0 -0.0307972928
H  H446  1  0.75460000  0.09540000  0.17730000  1.0 -0.0307972928
H  H447  1  0.90460000  0.65920000  0.17730000  1.0 -0.0307972928
H  H448  1  0.65920000  0.75460000  0.67730000  1.0 -0.0307972928
H  H449  1  0.24540000  0.90460000  0.67730000  1.0 -0.0307972928
H  H450  1  0.09540000  0.34080000  0.67730000  1.0 -0.0307972928
H  H451  1  0.24540000  0.34080000  0.82270000  1.0 -0.0370317104
H  H452  1  0.09540000  0.75460000  0.82270000  1.0 -0.0370317104
H  H453  1  0.65920000  0.90460000  0.82270000  1.0 -0.0370317104
H  H454  1  0.75460000  0.65920000  0.32270000  1.0 -0.0307972928
H  H455  1  0.90460000  0.24540000  0.32270000  1.0 -0.0307972928
H  H456  1  0.34080000  0.09540000  0.32270000  1.0 -0.0307972928
H  H457  1  0.65920000  0.75460000  0.82270000  1.0 -0.0307972928
H  H458  1  0.24540000  0.90460000  0.82270000  1.0 -0.0307972928
H  H459  1  0.09540000  0.34080000  0.82270000  1.0 -0.0370317104
H  H460  1  0.34080000  0.24540000  0.32270000  1.0 -0.0307972928
H  H461  1  0.75460000  0.09540000  0.32270000  1.0 -0.0307972928
H  H462  1  0.90460000  0.65920000  0.32270000  1.0 -0.0307972928
H  H463  1  0.75460000  0.65920000  0.17730000  1.0 -0.0307972928
H  H464  1  0.90460000  0.24540000  0.17730000  1.0 -0.0307972928
H  H465  1  0.34080000  0.09540000  0.17730000  1.0 -0.0307972928
H  H466  1  0.24540000  0.34080000  0.67730000  1.0 -0.0307972928
H  H467  1  0.09540000  0.75460000  0.67730000  1.0 -0.0307972928
H  H468  1  0.65920000  0.90460000  0.67730000  1.0 -0.0307972928
H  H469  1  0.23120000  0.10000000  0.11930000  1.0 0.0015772526
H  H470  1  0.90000000  0.13120000  0.11930000  1.0 0.0015772526
H  H471  1  0.86880000  0.76880000  0.11930000  1.0 0.0015772526
H  H472  1  0.76880000  0.90000000  0.61930000  1.0 0.0015772526
H  H473  1  0.10000000  0.86880000  0.61930000  1.0 0.0015772526
H  H474  1  0.13120000  0.23120000  0.61930000  1.0 0.0015772526
H  H475  1  0.10000000  0.23120000  0.88070000  1.0 0.0015772526
H  H476  1  0.13120000  0.90000000  0.88070000  1.0 0.0015772526
H  H477  1  0.76880000  0.86880000  0.88070000  1.0 0.0015772526
H  H478  1  0.90000000  0.76880000  0.38070000  1.0 0.0015772526
H  H479  1  0.86880000  0.10000000  0.38070000  1.0 0.0015772526
H  H480  1  0.23120000  0.13120000  0.38070000  1.0 0.0015772526
H  H481  1  0.76880000  0.90000000  0.88070000  1.0 0.0015772526
H  H482  1  0.10000000  0.86880000  0.88070000  1.0 0.0015772526
H  H483  1  0.13120000  0.23120000  0.88070000  1.0 0.0015772526
H  H484  1  0.23120000  0.10000000  0.38070000  1.0 0.0015772526
H  H485  1  0.90000000  0.13120000  0.38070000  1.0 0.0015772526
H  H486  1  0.86880000  0.76880000  0.38070000  1.0 0.0015772526
H  H487  1  0.90000000  0.76880000  0.11930000  1.0 -0.0023036234
H  H488  1  0.86880000  0.10000000  0.11930000  1.0 0.0015772526
H  H489  1  0.23120000  0.13120000  0.11930000  1.0 0.0015772526
H  H490  1  0.10000000  0.23120000  0.61930000  1.0 0.0015772526
H  H491  1  0.13120000  0.90000000  0.61930000  1.0 0.0015772526
H  H492  1  0.76880000  0.86880000  0.61930000  1.0 0.0015772526
H  H493  1  0.24740000  0.08700000  0.16170000  1.0 0.0295579755
H  H494  1  0.91300000  0.16040000  0.16170000  1.0 0.0295579755
H  H495  1  0.83960000  0.75260000  0.16170000  1.0 0.0295579755
H  H496  1  0.75260000  0.91300000  0.66170000  1.0 0.0295579755
H  H497  1  0.08700000  0.83960000  0.66170000  1.0 0.0295579755
H  H498  1  0.16040000  0.24740000  0.66170000  1.0 0.0295579755
H  H499  1  0.08700000  0.24740000  0.83830000  1.0 0.0295579755
H  H500  1  0.16040000  0.91300000  0.83830000  1.0 0.0295579755
H  H501  1  0.75260000  0.83960000  0.83830000  1.0 0.0295579755
H  H502  1  0.91300000  0.75260000  0.33830000  1.0 0.0295579755
H  H503  1  0.83960000  0.08700000  0.33830000  1.0 0.0295579755
H  H504  1  0.24740000  0.16040000  0.33830000  1.0 0.0295579755
H  H505  1  0.75260000  0.91300000  0.83830000  1.0 0.0295579755
H  H506  1  0.08700000  0.83960000  0.83830000  1.0 0.0295579755
H  H507  1  0.16040000  0.24740000  0.83830000  1.0 0.0295579755
H  H508  1  0.24740000  0.08700000  0.33830000  1.0 0.0295579755
H  H509  1  0.91300000  0.16040000  0.33830000  1.0 0.0295579755
H  H510  1  0.83960000  0.75260000  0.33830000  1.0 0.0295579755
H  H511  1  0.91300000  0.75260000  0.16170000  1.0 0.0295579755
H  H512  1  0.83960000  0.08700000  0.16170000  1.0 0.0295579755
H  H513  1  0.24740000  0.16040000  0.16170000  1.0 0.0295579755
H  H514  1  0.08700000  0.24740000  0.66170000  1.0 0.0295579755
H  H515  1  0.16040000  0.91300000  0.66170000  1.0 0.0295579755
H  H516  1  0.75260000  0.83960000  0.66170000  1.0 0.0295579755
H  H517  1  0.27680000  0.05090000  0.12900000  1.0 -0.0370317104
H  H518  1  0.94910000  0.22590000  0.12900000  1.0 -0.0370317104
H  H519  1  0.77410000  0.72320000  0.12900000  1.0 -0.0370317104
H  H520  1  0.72320000  0.94910000  0.62900000  1.0 -0.0370317104
H  H521  1  0.05090000  0.77410000  0.62900000  1.0 -0.0370317104
H  H522  1  0.22590000  0.27680000  0.62900000  1.0 -0.0370317104
H  H523  1  0.05090000  0.27680000  0.87100000  1.0 -0.0370317104
H  H524  1  0.22590000  0.94910000  0.87100000  1.0 -0.0370317104
H  H525  1  0.72320000  0.77410000  0.87100000  1.0 -0.0370317104
H  H526  1  0.94910000  0.72320000  0.37100000  1.0 -0.0370317104
H  H527  1  0.77410000  0.05090000  0.37100000  1.0 -0.0370317104
H  H528  1  0.27680000  0.22590000  0.37100000  1.0 -0.0370317104
H  H529  1  0.72320000  0.94910000  0.87100000  1.0 -0.0370317104
H  H530  1  0.05090000  0.77410000  0.87100000  1.0 -0.0370317104
H  H531  1  0.22590000  0.27680000  0.87100000  1.0 -0.0370317104
H  H532  1  0.27680000  0.05090000  0.37100000  1.0 -0.0370317104
H  H533  1  0.94910000  0.22590000  0.37100000  1.0 -0.0370317104
H  H534  1  0.77410000  0.72320000  0.37100000  1.0 -0.0307972928
H  H535  1  0.94910000  0.72320000  0.12900000  1.0 -0.0370317104
H  H536  1  0.77410000  0.05090000  0.12900000  1.0 -0.0370317104
H  H537  1  0.27680000  0.22590000  0.12900000  1.0 -0.0370317104
H  H538  1  0.05090000  0.27680000  0.62900000  1.0 -0.0370317104
H  H539  1  0.22590000  0.94910000  0.62900000  1.0 -0.0370317104
H  H540  1  0.72320000  0.77410000  0.62900000  1.0 -0.0370317104
C  C1  1  0.43000000  0.15210000  0.04164000  1.0 0.0206887311
C  C2  1  0.84790000  0.27790000  0.04164000  1.0 0.0206887311
C  C3  1  0.72210000  0.57000000  0.04164000  1.0 0.0206887311
C  C4  1  0.57000000  0.84790000  0.54164000  1.0 0.0206887311
C  C5  1  0.15210000  0.72210000  0.54164000  1.0 0.0206887311
C  C6  1  0.27790000  0.43000000  0.54164000  1.0 0.0206887311
C  C7  1  0.15210000  0.43000000  0.95836000  1.0 0.0206887311
C  C8  1  0.27790000  0.84790000  0.95836000  1.0 0.0206887311
C  C9  1  0.57000000  0.72210000  0.95836000  1.0 0.0206887311
C  C10  1  0.84790000  0.57000000  0.45836000  1.0 0.0206887311
C  C11  1  0.72210000  0.15210000  0.45836000  1.0 0.0206887311
C  C12  1  0.43000000  0.27790000  0.45836000  1.0 0.0206887311
C  C13  1  0.57000000  0.84790000  0.95836000  1.0 0.0206887311
C  C14  1  0.15210000  0.72210000  0.95836000  1.0 0.0206887311
C  C15  1  0.27790000  0.43000000  0.95836000  1.0 0.0206887311
C  C16  1  0.43000000  0.15210000  0.45836000  1.0 0.0206887311
C  C17  1  0.84790000  0.27790000  0.45836000  1.0 0.0206887311
C  C18  1  0.72210000  0.57000000  0.45836000  1.0 0.0206887311
C  C19  1  0.84790000  0.57000000  0.04164000  1.0 0.0206887311
C  C20  1  0.72210000  0.15210000  0.04164000  1.0 0.0206887311
C  C21  1  0.43000000  0.27790000  0.04164000  1.0 0.0206887311
C  C22  1  0.15210000  0.43000000  0.54164000  1.0 0.0206887311
C  C23  1  0.27790000  0.84790000  0.54164000  1.0 0.0206887311
C  C24  1  0.57000000  0.72210000  0.54164000  1.0 0.0206887311
C  C25  1  0.45470000  0.09690000  0.02465000  1.0 0.5236836262
C  C26  1  0.90310000  0.35780000  0.02465000  1.0 0.5236836262
C  C27  1  0.64220000  0.54530000  0.02465000  1.0 0.5236836262
C  C28  1  0.54530000  0.90310000  0.52465000  1.0 0.5236836262
C  C29  1  0.09690000  0.64220000  0.52465000  1.0 0.5236836262
C  C30  1  0.35780000  0.45470000  0.52465000  1.0 0.5236836262
C  C31  1  0.09690000  0.45470000  0.97535000  1.0 0.5236836262
C  C32  1  0.35780000  0.90310000  0.97535000  1.0 0.5236836262
C  C33  1  0.54530000  0.64220000  0.97535000  1.0 0.5236836262
C  C34  1  0.90310000  0.54530000  0.47535000  1.0 0.5236836262
C  C35  1  0.64220000  0.09690000  0.47535000  1.0 0.5236836262
C  C36  1  0.45470000  0.35780000  0.47535000  1.0 0.5236836262
C  C37  1  0.54530000  0.90310000  0.97535000  1.0 0.5236836262
C  C38  1  0.09690000  0.64220000  0.97535000  1.0 0.5236836262
C  C39  1  0.35780000  0.45470000  0.97535000  1.0 0.5236836262
C  C40  1  0.45470000  0.09690000  0.47535000  1.0 0.5236836262
C  C41  1  0.90310000  0.35780000  0.47535000  1.0 0.5236836262
C  C42  1  0.64220000  0.54530000  0.47535000  1.0 0.5236836262
C  C43  1  0.90310000  0.54530000  0.02465000  1.0 0.5236836262
C  C44  1  0.64220000  0.09690000  0.02465000  1.0 0.5236836262
C  C45  1  0.45470000  0.35780000  0.02465000  1.0 0.5236836262
C  C46  1  0.09690000  0.45470000  0.52465000  1.0 0.5236836262
C  C47  1  0.35780000  0.90310000  0.52465000  1.0 0.5236836262
C  C48  1  0.54530000  0.64220000  0.52465000  1.0 0.5236836262
C  C49  1  0.37470000  0.12920000  0.07090000  1.0 -0.1306081301
C  C50  1  0.87080000  0.24550000  0.07090000  1.0 -0.1306081301
C  C51  1  0.75450000  0.62530000  0.07090000  1.0 -0.1306081301
C  C52  1  0.62530000  0.87080000  0.57090000  1.0 -0.1306081301
C  C53  1  0.12920000  0.75450000  0.57090000  1.0 -0.1306081301
C  C54  1  0.24550000  0.37470000  0.57090000  1.0 -0.1306081301
C  C55  1  0.12920000  0.37470000  0.92910000  1.0 -0.1306081301
C  C56  1  0.24550000  0.87080000  0.92910000  1.0 -0.1306081301
C  C57  1  0.62530000  0.75450000  0.92910000  1.0 -0.1306081301
C  C58  1  0.87080000  0.62530000  0.42910000  1.0 -0.1306081301
C  C59  1  0.75450000  0.12920000  0.42910000  1.0 -0.1306081301
C  C60  1  0.37470000  0.24550000  0.42910000  1.0 -0.1306081301
C  C61  1  0.62530000  0.87080000  0.92910000  1.0 -0.1306081301
C  C62  1  0.12920000  0.75450000  0.92910000  1.0 -0.1306081301
C  C63  1  0.24550000  0.37470000  0.92910000  1.0 -0.1306081301
C  C64  1  0.37470000  0.12920000  0.42910000  1.0 -0.1306081301
C  C65  1  0.87080000  0.24550000  0.42910000  1.0 -0.1306081301
C  C66  1  0.75450000  0.62530000  0.42910000  1.0 -0.1306081301
C  C67  1  0.87080000  0.62530000  0.07090000  1.0 -0.1306081301
C  C68  1  0.75450000  0.12920000  0.07090000  1.0 -0.1306081301
C  C69  1  0.37470000  0.24550000  0.07090000  1.0 -0.1306081301
C  C70  1  0.12920000  0.37470000  0.57090000  1.0 -0.1306081301
C  C71  1  0.24550000  0.87080000  0.57090000  1.0 -0.1306081301
C  C72  1  0.62530000  0.75450000  0.57090000  1.0 -0.1306081301
C  C73  1  0.44580000  0.22290000  0.02441000  1.0 -0.0590189027
C  C74  1  0.77710000  0.22290000  0.02441000  1.0 -0.0590189027
C  C75  1  0.77710000  0.55420000  0.02441000  1.0 -0.0667098271
C  C76  1  0.55420000  0.77710000  0.52441000  1.0 -0.0667098271
C  C77  1  0.22290000  0.77710000  0.52441000  1.0 -0.0667098271
C  C78  1  0.22290000  0.44580000  0.52441000  1.0 -0.0667098271
C  C79  1  0.22290000  0.44580000  0.97559000  1.0 -0.0667098271
C  C80  1  0.22290000  0.77710000  0.97559000  1.0 -0.0667098271
C  C81  1  0.55420000  0.77710000  0.97559000  1.0 -0.0667098271
C  C82  1  0.77710000  0.55420000  0.47559000  1.0 -0.0667098271
C  C83  1  0.77710000  0.22290000  0.47559000  1.0 -0.0590189027
C  C84  1  0.44580000  0.22290000  0.47559000  1.0 -0.0590189027
C  C85  1  0.33990000  0.16995000  0.08810000  1.0 0.0778805838
C  C86  1  0.83005000  0.16995000  0.08810000  1.0 0.0778805838
C  C87  1  0.83005000  0.66010000  0.08810000  1.0 0.0778805838
C  C88  1  0.66010000  0.83005000  0.58810000  1.0 0.0778805838
C  C89  1  0.16995000  0.83005000  0.58810000  1.0 0.0778805838
C  C90  1  0.16995000  0.33990000  0.58810000  1.0 0.0778805838
C  C91  1  0.16995000  0.33990000  0.91190000  1.0 0.0778805838
C  C92  1  0.16995000  0.83005000  0.91190000  1.0 0.0778805838
C  C93  1  0.66010000  0.83005000  0.91190000  1.0 0.0778805838
C  C94  1  0.83005000  0.66010000  0.41190000  1.0 0.0778805838
C  C95  1  0.83005000  0.16995000  0.41190000  1.0 0.0778805838
C  C96  1  0.33990000  0.16995000  0.41190000  1.0 0.0778805838
C  C97  1  0.28470000  0.14235000  0.12250000  1.0 0.0626802386
C  C98  1  0.85765000  0.14235000  0.12250000  1.0 0.0626802386
C  C99  1  0.85765000  0.71530000  0.12250000  1.0 0.0626802386
C  C100  1  0.71530000  0.85765000  0.62250000  1.0 0.0626802386
C  C101  1  0.14235000  0.85765000  0.62250000  1.0 0.0626802386
C  C102  1  0.14235000  0.28470000  0.62250000  1.0 0.0626802386
C  C103  1  0.14235000  0.28470000  0.87750000  1.0 0.0626802386
C  C104  1  0.14235000  0.85765000  0.87750000  1.0 0.0626802386
C  C105  1  0.71530000  0.85765000  0.87750000  1.0 0.0626802386
C  C106  1  0.85765000  0.71530000  0.37750000  1.0 0.0626802386
C  C107  1  0.85765000  0.14235000  0.37750000  1.0 0.0626802386
C  C108  1  0.28470000  0.14235000  0.37750000  1.0 0.0626802386
C  C109  1  0.49440000  0.10440000  0.89587000  1.0 0.0626802386
C  C110  1  0.89560000  0.39000000  0.89587000  1.0 0.0626802386
C  C111  1  0.61000000  0.50560000  0.89587000  1.0 0.0626802386
C  C112  1  0.50560000  0.89560000  0.39587000  1.0 0.0626802386
C  C113  1  0.10440000  0.61000000  0.39587000  1.0 0.0626802386
C  C114  1  0.39000000  0.49440000  0.39587000  1.0 0.0626802386
C  C115  1  0.10440000  0.49440000  0.10413000  1.0 0.0626802386
C  C116  1  0.39000000  0.89560000  0.10413000  1.0 0.0626802386
C  C117  1  0.50560000  0.61000000  0.10413000  1.0 0.0626802386
C  C118  1  0.89560000  0.50560000  0.60413000  1.0 0.0626802386
C  C119  1  0.61000000  0.10440000  0.60413000  1.0 0.0626802386
C  C120  1  0.49440000  0.39000000  0.60413000  1.0 0.0626802386
C  C121  1  0.50560000  0.89560000  0.10413000  1.0 0.0626802386
C  C122  1  0.10440000  0.61000000  0.10413000  1.0 0.0626802386
C  C123  1  0.39000000  0.49440000  0.10413000  1.0 0.0626802386
C  C124  1  0.49440000  0.10440000  0.60413000  1.0 0.0626802386
C  C125  1  0.89560000  0.39000000  0.60413000  1.0 0.0626802386
C  C126  1  0.61000000  0.50560000  0.60413000  1.0 0.0626802386
C  C127  1  0.89560000  0.50560000  0.89587000  1.0 0.0626802386
C  C128  1  0.61000000  0.10440000  0.89587000  1.0 0.0626802386
C  C129  1  0.49440000  0.39000000  0.89587000  1.0 0.0626802386
C  C130  1  0.10440000  0.49440000  0.39587000  1.0 0.0626802386
C  C131  1  0.39000000  0.89560000  0.39587000  1.0 0.0626802386
C  C132  1  0.50560000  0.61000000  0.39587000  1.0 0.0626802386
C  C133  1  0.50540000  0.13310000  0.85974000  1.0 -0.1306081301
C  C134  1  0.86690000  0.37230000  0.85974000  1.0 -0.1306081301
C  C135  1  0.62770000  0.49460000  0.85974000  1.0 -0.1306081301
C  C136  1  0.49460000  0.86690000  0.35974000  1.0 -0.1306081301
C  C137  1  0.13310000  0.62770000  0.35974000  1.0 -0.1306081301
C  C138  1  0.37230000  0.50540000  0.35974000  1.0 -0.1306081301
C  C139  1  0.13310000  0.50540000  0.14026000  1.0 -0.1306081301
C  C140  1  0.37230000  0.86690000  0.14026000  1.0 -0.1306081301
C  C141  1  0.49460000  0.62770000  0.14026000  1.0 -0.1306081301
C  C142  1  0.86690000  0.49460000  0.64026000  1.0 -0.1306081301
C  C143  1  0.62770000  0.13310000  0.64026000  1.0 -0.1306081301
C  C144  1  0.50540000  0.37230000  0.64026000  1.0 -0.1306081301
C  C145  1  0.49460000  0.86690000  0.14026000  1.0 -0.1306081301
C  C146  1  0.13310000  0.62770000  0.14026000  1.0 -0.1306081301
C  C147  1  0.37230000  0.50540000  0.14026000  1.0 -0.1306081301
C  C148  1  0.50540000  0.13310000  0.64026000  1.0 -0.1306081301
C  C149  1  0.86690000  0.37230000  0.64026000  1.0 -0.1306081301
C  C150  1  0.62770000  0.49460000  0.64026000  1.0 -0.1306081301
C  C151  1  0.86690000  0.49460000  0.85974000  1.0 -0.1306081301
C  C152  1  0.62770000  0.13310000  0.85974000  1.0 -0.1306081301
C  C153  1  0.50540000  0.37230000  0.85974000  1.0 -0.1306081301
C  C154  1  0.13310000  0.50540000  0.35974000  1.0 -0.1306081301
C  C155  1  0.37230000  0.86690000  0.35974000  1.0 -0.1306081301
C  C156  1  0.49460000  0.62770000  0.35974000  1.0 -0.1306081301
C  C157  1  0.59280000  0.18560000  0.80388000  1.0 0.5888175678
C  C158  1  0.81440000  0.40720000  0.80388000  1.0 0.5888175678
C  C159  1  0.59280000  0.40720000  0.80388000  1.0 0.5888175678
C  C160  1  0.40720000  0.81440000  0.30388000  1.0 0.5888175678
C  C161  1  0.18560000  0.59280000  0.30388000  1.0 0.5888175678
C  C162  1  0.40720000  0.59280000  0.30388000  1.0 0.5888175678
C  C163  1  0.18560000  0.59280000  0.19612000  1.0 0.5888175678
C  C164  1  0.40720000  0.81440000  0.19612000  1.0 0.5888175678
C  C165  1  0.40720000  0.59280000  0.19612000  1.0 0.5888175678
C  C166  1  0.81440000  0.40720000  0.69612000  1.0 0.5888175678
C  C167  1  0.59280000  0.18560000  0.69612000  1.0 0.5888175678
C  C168  1  0.59280000  0.40720000  0.69612000  1.0 0.5888175678
C  C169  1  0.57375000  0.14750000  0.84171000  1.0 -0.0108367738
C  C170  1  0.85250000  0.42625000  0.84171000  1.0 -0.0108367738
C  C171  1  0.57375000  0.42625000  0.84171000  1.0 -0.0108367738
C  C172  1  0.42625000  0.85250000  0.34171000  1.0 -0.0209556124
C  C173  1  0.14750000  0.57375000  0.34171000  1.0 -0.0209556124
C  C174  1  0.42625000  0.57375000  0.34171000  1.0 -0.0209556124
C  C175  1  0.14750000  0.57375000  0.15829000  1.0 -0.0209556124
C  C176  1  0.42625000  0.85250000  0.15829000  1.0 -0.0209556124
C  C177  1  0.42625000  0.57375000  0.15829000  1.0 -0.0209556124
C  C178  1  0.85250000  0.42625000  0.65829000  1.0 -0.0108367738
C  C179  1  0.57375000  0.14750000  0.65829000  1.0 -0.0108367738
C  C180  1  0.57375000  0.42625000  0.65829000  1.0 -0.0108367738
C  C181  1  0.20870000  0.06110000  0.11400000  1.0 -0.1190690847
C  C182  1  0.93890000  0.14760000  0.11400000  1.0 -0.1190690847
C  C183  1  0.85240000  0.79130000  0.11400000  1.0 -0.1190690847
C  C184  1  0.79130000  0.93890000  0.61400000  1.0 -0.1306081301
C  C185  1  0.06110000  0.85240000  0.61400000  1.0 -0.1306081301
C  C186  1  0.14760000  0.20870000  0.61400000  1.0 -0.1306081301
C  C187  1  0.06110000  0.20870000  0.88600000  1.0 -0.1306081301
C  C188  1  0.14760000  0.93890000  0.88600000  1.0 -0.1306081301
C  C189  1  0.79130000  0.85240000  0.88600000  1.0 -0.1306081301
C  C190  1  0.93890000  0.79130000  0.38600000  1.0 -0.1306081301
C  C191  1  0.85240000  0.06110000  0.38600000  1.0 -0.1190690847
C  C192  1  0.20870000  0.14760000  0.38600000  1.0 -0.1190690847
C  C193  1  0.79130000  0.93890000  0.88600000  1.0 -0.1306081301
C  C194  1  0.06110000  0.85240000  0.88600000  1.0 -0.1306081301
C  C195  1  0.14760000  0.20870000  0.88600000  1.0 -0.1306081301
C  C196  1  0.20870000  0.06110000  0.38600000  1.0 -0.1190690847
C  C197  1  0.93890000  0.14760000  0.38600000  1.0 -0.1190690847
C  C198  1  0.85240000  0.79130000  0.38600000  1.0 -0.1306081301
C  C199  1  0.93890000  0.79130000  0.11400000  1.0 -0.1190690847
C  C200  1  0.85240000  0.06110000  0.11400000  1.0 -0.1190690847
C  C201  1  0.20870000  0.14760000  0.11400000  1.0 -0.1190690847
C  C202  1  0.06110000  0.20870000  0.61400000  1.0 -0.1306081301
C  C203  1  0.14760000  0.93890000  0.61400000  1.0 -0.1306081301
C  C204  1  0.79130000  0.85240000  0.61400000  1.0 -0.1306081301
C  C205  1  0.26900000  0.21000000  0.13620000  1.0 -0.0824460478
C  C206  1  0.79000000  0.05900000  0.13620000  1.0 -0.0824460478
C  C207  1  0.94100000  0.73100000  0.13620000  1.0 -0.0824460478
C  C208  1  0.73100000  0.79000000  0.63620000  1.0 -0.0824460478
C  C209  1  0.21000000  0.94100000  0.63620000  1.0 -0.0824460478
C  C210  1  0.05900000  0.26900000  0.63620000  1.0 -0.0824460478
C  C211  1  0.21000000  0.26900000  0.86380000  1.0 -0.0824460478
C  C212  1  0.05900000  0.79000000  0.86380000  1.0 -0.0855610607
C  C213  1  0.73100000  0.94100000  0.86380000  1.0 -0.0824460478
C  C214  1  0.79000000  0.73100000  0.36380000  1.0 -0.0824460478
C  C215  1  0.94100000  0.21000000  0.36380000  1.0 -0.0824460478
C  C216  1  0.26900000  0.05900000  0.36380000  1.0 -0.0824460478
C  C217  1  0.73100000  0.79000000  0.86380000  1.0 -0.0855610607
C  C218  1  0.21000000  0.94100000  0.86380000  1.0 -0.0824460478
C  C219  1  0.05900000  0.26900000  0.86380000  1.0 -0.0824460478
C  C220  1  0.26900000  0.21000000  0.36380000  1.0 -0.0824460478
C  C221  1  0.79000000  0.05900000  0.36380000  1.0 -0.0824460478
C  C222  1  0.94100000  0.73100000  0.36380000  1.0 -0.0824460478
C  C223  1  0.79000000  0.73100000  0.13620000  1.0 -0.0824460478
C  C224  1  0.94100000  0.21000000  0.13620000  1.0 -0.0824460478
C  C225  1  0.26900000  0.05900000  0.13620000  1.0 -0.0824460478
C  C226  1  0.21000000  0.26900000  0.63620000  1.0 -0.0824460478
C  C227  1  0.05900000  0.79000000  0.63620000  1.0 -0.0855610607
C  C228  1  0.73100000  0.94100000  0.63620000  1.0 -0.0824460478
C  C229  1  0.40130000  0.13610000  0.07810000  1.0 -0.1190690847
C  C230  1  0.86390000  0.26520000  0.07810000  1.0 -0.1190690847
C  C231  1  0.73480000  0.59870000  0.07810000  1.0 -0.1190690847
C  C232  1  0.59870000  0.86390000  0.57810000  1.0 -0.1190690847
C  C233  1  0.13610000  0.73480000  0.57810000  1.0 -0.1190690847
C  C234  1  0.26520000  0.40130000  0.57810000  1.0 -0.1190690847
C  C235  1  0.13610000  0.40130000  0.92190000  1.0 -0.1190690847
C  C236  1  0.26520000  0.86390000  0.92190000  1.0 -0.1190690847
C  C237  1  0.59870000  0.73480000  0.92190000  1.0 -0.1190690847
C  C238  1  0.86390000  0.59870000  0.42190000  1.0 -0.1190690847
C  C239  1  0.73480000  0.13610000  0.42190000  1.0 -0.1190690847
C  C240  1  0.40130000  0.26520000  0.42190000  1.0 -0.1190690847
C  C241  1  0.59870000  0.86390000  0.92190000  1.0 -0.1190690847
C  C242  1  0.13610000  0.73480000  0.92190000  1.0 -0.1190690847
C  C243  1  0.26520000  0.40130000  0.92190000  1.0 -0.1190690847
C  C244  1  0.40130000  0.13610000  0.42190000  1.0 -0.1190690847
C  C245  1  0.86390000  0.26520000  0.42190000  1.0 -0.1190690847
C  C246  1  0.73480000  0.59870000  0.42190000  1.0 -0.1190690847
C  C247  1  0.86390000  0.59870000  0.07810000  1.0 -0.1190690847
C  C248  1  0.73480000  0.13610000  0.07810000  1.0 -0.1190690847
C  C249  1  0.40130000  0.26520000  0.07810000  1.0 -0.1190690847
C  C250  1  0.13610000  0.40130000  0.57810000  1.0 -0.1190690847
C  C251  1  0.26520000  0.86390000  0.57810000  1.0 -0.1190690847
C  C252  1  0.59870000  0.73480000  0.57810000  1.0 -0.1190690847
C  C253  1  0.38660000  0.19330000  0.09550000  1.0 0.068503536
C  C254  1  0.80670000  0.19330000  0.09550000  1.0 0.068503536
C  C255  1  0.80670000  0.61340000  0.09550000  1.0 0.068503536
C  C256  1  0.61340000  0.80670000  0.59550000  1.0 0.068503536
C  C257  1  0.19330000  0.80670000  0.59550000  1.0 0.068503536
C  C258  1  0.19330000  0.38660000  0.59550000  1.0 0.068503536
C  C259  1  0.19330000  0.38660000  0.90450000  1.0 0.068503536
C  C260  1  0.19330000  0.80670000  0.90450000  1.0 0.068503536
C  C261  1  0.61340000  0.80670000  0.90450000  1.0 0.068503536
C  C262  1  0.80670000  0.61340000  0.40450000  1.0 0.068503536
C  C263  1  0.80670000  0.19330000  0.40450000  1.0 0.068503536
C  C264  1  0.38660000  0.19330000  0.40450000  1.0 0.068503536
C  C265  1  0.41010000  0.16550000  0.16130000  1.0 -0.1190690847
C  C266  1  0.83450000  0.24460000  0.16130000  1.0 -0.1190690847
C  C267  1  0.75540000  0.58990000  0.16130000  1.0 -0.1190690847
C  C268  1  0.58990000  0.83450000  0.66130000  1.0 -0.1306081301
C  C269  1  0.16550000  0.75540000  0.66130000  1.0 -0.1306081301
C  C270  1  0.24460000  0.41010000  0.66130000  1.0 -0.1306081301
C  C271  1  0.16550000  0.41010000  0.83870000  1.0 -0.1306081301
C  C272  1  0.24460000  0.83450000  0.83870000  1.0 -0.1306081301
C  C273  1  0.58990000  0.75540000  0.83870000  1.0 -0.1306081301
C  C274  1  0.83450000  0.58990000  0.33870000  1.0 -0.1190690847
C  C275  1  0.75540000  0.16550000  0.33870000  1.0 -0.1190690847
C  C276  1  0.41010000  0.24460000  0.33870000  1.0 -0.1190690847
C  C277  1  0.58990000  0.83450000  0.83870000  1.0 -0.1306081301
C  C278  1  0.16550000  0.75540000  0.83870000  1.0 -0.1306081301
C  C279  1  0.24460000  0.41010000  0.83870000  1.0 -0.1306081301
C  C280  1  0.41010000  0.16550000  0.33870000  1.0 -0.1190690847
C  C281  1  0.83450000  0.24460000  0.33870000  1.0 -0.1190690847
C  C282  1  0.75540000  0.58990000  0.33870000  1.0 -0.1190690847
C  C283  1  0.83450000  0.58990000  0.16130000  1.0 -0.1190690847
C  C284  1  0.75540000  0.16550000  0.16130000  1.0 -0.1190690847
C  C285  1  0.41010000  0.24460000  0.16130000  1.0 -0.1190690847
C  C286  1  0.16550000  0.41010000  0.66130000  1.0 -0.1306081301
C  C287  1  0.24460000  0.83450000  0.66130000  1.0 -0.1306081301
C  C288  1  0.58990000  0.75540000  0.66130000  1.0 -0.1306081301
C  C289  1  0.26920000  0.09620000  0.13640000  1.0 -0.0209556124
C  C290  1  0.90380000  0.17300000  0.13640000  1.0 -0.0209556124
C  C291  1  0.82700000  0.73080000  0.13640000  1.0 -0.0209556124
C  C292  1  0.73080000  0.90380000  0.63640000  1.0 -0.0209556124
C  C293  1  0.09620000  0.82700000  0.63640000  1.0 -0.0209556124
C  C294  1  0.17300000  0.26920000  0.63640000  1.0 -0.0209556124
C  C295  1  0.09620000  0.26920000  0.86360000  1.0 -0.0209556124
C  C296  1  0.17300000  0.90380000  0.86360000  1.0 -0.0209556124
C  C297  1  0.73080000  0.82700000  0.86360000  1.0 -0.0209556124
C  C298  1  0.90380000  0.73080000  0.36360000  1.0 -0.0209556124
C  C299  1  0.82700000  0.09620000  0.36360000  1.0 -0.0209556124
C  C300  1  0.26920000  0.17300000  0.36360000  1.0 -0.0209556124
C  C301  1  0.73080000  0.90380000  0.86360000  1.0 -0.0209556124
C  C302  1  0.09620000  0.82700000  0.86360000  1.0 -0.0209556124
C  C303  1  0.17300000  0.26920000  0.86360000  1.0 -0.0209556124
C  C304  1  0.26920000  0.09620000  0.36360000  1.0 -0.0209556124
C  C305  1  0.90380000  0.17300000  0.36360000  1.0 -0.0209556124
C  C306  1  0.82700000  0.73080000  0.36360000  1.0 -0.0209556124
C  C307  1  0.90380000  0.73080000  0.13640000  1.0 -0.0209556124
C  C308  1  0.82700000  0.09620000  0.13640000  1.0 -0.0209556124
C  C309  1  0.26920000  0.17300000  0.13640000  1.0 -0.0209556124
C  C310  1  0.09620000  0.26920000  0.63640000  1.0 -0.0209556124
C  C311  1  0.17300000  0.90380000  0.63640000  1.0 -0.0209556124
C  C312  1  0.73080000  0.82700000  0.63640000  1.0 -0.0209556124
C  C313  1  0.35110000  0.17555000  0.13520000  1.0 0.0486360631
C  C314  1  0.82445000  0.17555000  0.13520000  1.0 0.0486360631
C  C315  1  0.82445000  0.64890000  0.13520000  1.0 0.0486360631
C  C316  1  0.64890000  0.82445000  0.63520000  1.0 0.0486360631
C  C317  1  0.17555000  0.82445000  0.63520000  1.0 0.0486360631
C  C318  1  0.17555000  0.35110000  0.63520000  1.0 0.0486360631
C  C319  1  0.17555000  0.35110000  0.86480000  1.0 0.0486360631
C  C320  1  0.17555000  0.82445000  0.86480000  1.0 0.0486360631
C  C321  1  0.64890000  0.82445000  0.86480000  1.0 0.0486360631
C  C322  1  0.82445000  0.64890000  0.36480000  1.0 0.0486360631
C  C323  1  0.82445000  0.17555000  0.36480000  1.0 0.0486360631
C  C324  1  0.35110000  0.17555000  0.36480000  1.0 0.0486360631
C  C325  1  0.33000000  0.12500000  0.15310000  1.0 -0.0209556124
C  C326  1  0.87500000  0.20500000  0.15310000  1.0 -0.0209556124
C  C327  1  0.79500000  0.67000000  0.15310000  1.0 -0.0307972928
C  C328  1  0.67000000  0.87500000  0.65310000  1.0 -0.0307972928
C  C329  1  0.12500000  0.79500000  0.65310000  1.0 -0.0307972928
C  C330  1  0.20500000  0.33000000  0.65310000  1.0 -0.0307972928
C  C331  1  0.12500000  0.33000000  0.84690000  1.0 -0.0307972928
C  C332  1  0.20500000  0.87500000  0.84690000  1.0 -0.0307972928
C  C333  1  0.67000000  0.79500000  0.84690000  1.0 -0.0307972928
C  C334  1  0.87500000  0.67000000  0.34690000  1.0 -0.0209556124
C  C335  1  0.79500000  0.12500000  0.34690000  1.0 -0.0209556124
C  C336  1  0.33000000  0.20500000  0.34690000  1.0 -0.0209556124
C  C337  1  0.67000000  0.87500000  0.84690000  1.0 -0.0307972928
C  C338  1  0.12500000  0.79500000  0.84690000  1.0 -0.0307972928
C  C339  1  0.20500000  0.33000000  0.84690000  1.0 -0.0307972928
C  C340  1  0.33000000  0.12500000  0.34690000  1.0 -0.0209556124
C  C341  1  0.87500000  0.20500000  0.34690000  1.0 -0.0209556124
C  C342  1  0.79500000  0.67000000  0.34690000  1.0 -0.0307972928
C  C343  1  0.87500000  0.67000000  0.15310000  1.0 -0.0209556124
C  C344  1  0.79500000  0.12500000  0.15310000  1.0 -0.0209556124
C  C345  1  0.33000000  0.20500000  0.15310000  1.0 -0.0209556124
C  C346  1  0.12500000  0.33000000  0.65310000  1.0 -0.0307972928
C  C347  1  0.20500000  0.87500000  0.65310000  1.0 -0.0307972928
C  C348  1  0.67000000  0.79500000  0.65310000  1.0 -0.0307972928
C  C349  1  0.34100000  0.24640000  0.15010000  1.0 -0.0527672305
C  C350  1  0.75360000  0.09460000  0.15010000  1.0 -0.0527672305
C  C351  1  0.90540000  0.65900000  0.15010000  1.0 -0.0527672305
C  C352  1  0.65900000  0.75360000  0.65010000  1.0 -0.0527672305
C  C353  1  0.24640000  0.90540000  0.65010000  1.0 -0.0527672305
C  C354  1  0.09460000  0.34100000  0.65010000  1.0 -0.0590189027
C  C355  1  0.24640000  0.34100000  0.84990000  1.0 -0.0527672305
C  C356  1  0.09460000  0.75360000  0.84990000  1.0 -0.0590189027
C  C357  1  0.65900000  0.90540000  0.84990000  1.0 -0.0527672305
C  C358  1  0.75360000  0.65900000  0.34990000  1.0 -0.0590189027
C  C359  1  0.90540000  0.24640000  0.34990000  1.0 -0.0527672305
C  C360  1  0.34100000  0.09460000  0.34990000  1.0 -0.0527672305
C  C361  1  0.65900000  0.75360000  0.84990000  1.0 -0.0527672305
C  C362  1  0.24640000  0.90540000  0.84990000  1.0 -0.0590189027
C  C363  1  0.09460000  0.34100000  0.84990000  1.0 -0.0590189027
C  C364  1  0.34100000  0.24640000  0.34990000  1.0 -0.0527672305
C  C365  1  0.75360000  0.09460000  0.34990000  1.0 -0.0527672305
C  C366  1  0.90540000  0.65900000  0.34990000  1.0 -0.0527672305
C  C367  1  0.75360000  0.65900000  0.15010000  1.0 -0.0590189027
C  C368  1  0.90540000  0.24640000  0.15010000  1.0 -0.0527672305
C  C369  1  0.34100000  0.09460000  0.15010000  1.0 -0.0527672305
C  C370  1  0.24640000  0.34100000  0.65010000  1.0 -0.0527672305
C  C371  1  0.09460000  0.75360000  0.65010000  1.0 -0.0527672305
C  C372  1  0.65900000  0.90540000  0.65010000  1.0 -0.0527672305
N  N1  1  0.54560000  0.09120000  0.91352000  1.0 -0.2196146636
N  N2  1  0.90880000  0.45440000  0.91352000  1.0 -0.2196146636
N  N3  1  0.54560000  0.45440000  0.91352000  1.0 -0.2196146636
N  N4  1  0.45440000  0.90880000  0.41352000  1.0 -0.2196146636
N  N5  1  0.09120000  0.54560000  0.41352000  1.0 -0.2196146636
N  N6  1  0.45440000  0.54560000  0.41352000  1.0 -0.2196146636
N  N7  1  0.09120000  0.54560000  0.08648000  1.0 -0.2196146636
N  N8  1  0.45440000  0.90880000  0.08648000  1.0 -0.2196146636
N  N9  1  0.45440000  0.54560000  0.08648000  1.0 -0.2196146636
N  N10  1  0.90880000  0.45440000  0.58648000  1.0 -0.2196146636
N  N11  1  0.54560000  0.09120000  0.58648000  1.0 -0.2196146636
N  N12  1  0.54560000  0.45440000  0.58648000  1.0 -0.2196146636
O  O1  1  0.66666667  0.33333333  0.75000000  1.0 -1.0989073007
O  O2  1  0.33333333  0.66666667  0.25000000  1.0 -1.0989073007
O  O3  1  0.78577000  0.21423000  0.75000000  1.0 -0.1623950614
O  O4  1  0.78577000  0.57154000  0.75000000  1.0 -0.168718168
O  O5  1  0.42846000  0.21423000  0.75000000  1.0 -0.1623950614
O  O6  1  0.21423000  0.78577000  0.25000000  1.0 -0.1538663395
O  O7  1  0.21423000  0.42846000  0.25000000  1.0 -0.1538663395
O  O8  1  0.57154000  0.78577000  0.25000000  1.0 -0.1538663395
O  O9  1  0.48316000  0.11347000  0.99259000  1.0 -0.4854254512
O  O10  1  0.88653000  0.36969000  0.99259000  1.0 -0.4845672822
O  O11  1  0.63031000  0.51684000  0.99259000  1.0 -0.4854254512
O  O12  1  0.51684000  0.88653000  0.49259000  1.0 -0.4845672822
O  O13  1  0.11347000  0.63031000  0.49259000  1.0 -0.4845672822
O  O14  1  0.36969000  0.48316000  0.49259000  1.0 -0.4845672822
O  O15  1  0.11347000  0.48316000  0.00741000  1.0 -0.4845672822
O  O16  1  0.36969000  0.88653000  0.00741000  1.0 -0.4845672822
O  O17  1  0.51684000  0.63031000  0.00741000  1.0 -0.4845672822
O  O18  1  0.88653000  0.51684000  0.50741000  1.0 -0.4854254512
O  O19  1  0.63031000  0.11347000  0.50741000  1.0 -0.4845672822
O  O20  1  0.48316000  0.36969000  0.50741000  1.0 -0.4845672822
O  O21  1  0.51684000  0.88653000  0.00741000  1.0 -0.4845672822
O  O22  1  0.11347000  0.63031000  0.00741000  1.0 -0.4845672822
O  O23  1  0.36969000  0.48316000  0.00741000  1.0 -0.4845672822
O  O24  1  0.48316000  0.11347000  0.50741000  1.0 -0.4845672822
O  O25  1  0.88653000  0.36969000  0.50741000  1.0 -0.4845672822
O  O26  1  0.63031000  0.51684000  0.50741000  1.0 -0.4854254512
O  O27  1  0.88653000  0.51684000  0.99259000  1.0 -0.4854254512
O  O28  1  0.63031000  0.11347000  0.99259000  1.0 -0.4854254512
O  O29  1  0.48316000  0.36969000  0.99259000  1.0 -0.4845672822
O  O30  1  0.11347000  0.48316000  0.49259000  1.0 -0.4854254512
O  O31  1  0.36969000  0.88653000  0.49259000  1.0 -0.4854254512
O  O32  1  0.51684000  0.63031000  0.49259000  1.0 -0.4845672822
O  O33  1  0.44400000  0.03726000  0.04326000  1.0 -0.5101617414
O  O34  1  0.96274000  0.40674000  0.04326000  1.0 -0.5101617414
O  O35  1  0.59326000  0.55600000  0.04326000  1.0 -0.5101617414
O  O36  1  0.55600000  0.96274000  0.54326000  1.0 -0.5101617414
O  O37  1  0.03726000  0.59326000  0.54326000  1.0 -0.5101617414
O  O38  1  0.40674000  0.44400000  0.54326000  1.0 -0.5101617414
O  O39  1  0.03726000  0.44400000  0.95674000  1.0 -0.5101617414
O  O40  1  0.40674000  0.96274000  0.95674000  1.0 -0.5101617414
O  O41  1  0.55600000  0.59326000  0.95674000  1.0 -0.5101617414
O  O42  1  0.96274000  0.55600000  0.45674000  1.0 -0.5101617414
O  O43  1  0.59326000  0.03726000  0.45674000  1.0 -0.5101617414
O  O44  1  0.44400000  0.40674000  0.45674000  1.0 -0.5101617414
O  O45  1  0.55600000  0.96274000  0.95674000  1.0 -0.5101617414
O  O46  1  0.03726000  0.59326000  0.95674000  1.0 -0.5101617414
O  O47  1  0.40674000  0.44400000  0.95674000  1.0 -0.5101617414
O  O48  1  0.44400000  0.03726000  0.45674000  1.0 -0.5101617414
O  O49  1  0.96274000  0.40674000  0.45674000  1.0 -0.5101617414
O  O50  1  0.59326000  0.55600000  0.45674000  1.0 -0.5101617414
O  O51  1  0.96274000  0.55600000  0.04326000  1.0 -0.5101617414
O  O52  1  0.59326000  0.03726000  0.04326000  1.0 -0.5101617414
O  O53  1  0.44400000  0.40674000  0.04326000  1.0 -0.5101617414
O  O54  1  0.03726000  0.44400000  0.54326000  1.0 -0.5101617414
O  O55  1  0.40674000  0.96274000  0.54326000  1.0 -0.5101617414
O  O56  1  0.55600000  0.59326000  0.54326000  1.0 -0.5101617414
O  O57  1  0.65927000  0.20074000  0.78986000  1.0 -0.5743207338
O  O58  1  0.79926000  0.45853000  0.78986000  1.0 -0.5743207338
O  O59  1  0.54147000  0.34073000  0.78986000  1.0 -0.5743207338
O  O60  1  0.34073000  0.79926000  0.28986000  1.0 -0.5752952783
O  O61  1  0.20074000  0.54147000  0.28986000  1.0 -0.5752952783
O  O62  1  0.45853000  0.65927000  0.28986000  1.0 -0.5752952783
O  O63  1  0.20074000  0.65927000  0.21014000  1.0 -0.5752952783
O  O64  1  0.45853000  0.79926000  0.21014000  1.0 -0.5743207338
O  O65  1  0.34073000  0.54147000  0.21014000  1.0 -0.5743207338
O  O66  1  0.79926000  0.34073000  0.71014000  1.0 -0.5743207338
O  O67  1  0.54147000  0.20074000  0.71014000  1.0 -0.5743207338
O  O68  1  0.65927000  0.45853000  0.71014000  1.0 -0.5743207338
O  O69  1  0.34073000  0.79926000  0.21014000  1.0 -0.5752952783
O  O70  1  0.20074000  0.54147000  0.21014000  1.0 -0.5752952783
O  O71  1  0.45853000  0.65927000  0.21014000  1.0 -0.5752952783
O  O72  1  0.65927000  0.20074000  0.71014000  1.0 -0.5743207338
O  O73  1  0.79926000  0.45853000  0.71014000  1.0 -0.5743207338
O  O74  1  0.54147000  0.34073000  0.71014000  1.0 -0.5743207338
O  O75  1  0.79926000  0.34073000  0.78986000  1.0 -0.5743207338
O  O76  1  0.54147000  0.20074000  0.78986000  1.0 -0.5743207338
O  O77  1  0.65927000  0.45853000  0.78986000  1.0 -0.5743207338
O  O78  1  0.20074000  0.65927000  0.28986000  1.0 -0.5752952783
O  O79  1  0.45853000  0.79926000  0.28986000  1.0 -0.5752952783
O  O80  1  0.34073000  0.54147000  0.28986000  1.0 -0.5752952783
