# DDEC6 charges by PACMAN v1.1 (https://github.com/mtap-research/PACMAN-charge/)
data_YILCIH_ASR_pacman
_symmetry_space_group_name_H-M   'P 1'
_cell_length_a   19.23430000
_cell_length_b   19.23430000
_cell_length_c   36.00900000
_cell_angle_alpha   90.00000000
_cell_angle_beta   90.00000000
_cell_angle_gamma   120.00000000
_symmetry_Int_Tables_number   1
_chemical_formula_structural   Zn6Cr3H126C126N6O49
_chemical_formula_sum   'Zn12 Cr6 H252 C252 N12 O98'
_cell_volume   11537.04173119
_cell_formula_units_Z   2
loop_
 _symmetry_equiv_pos_site_id
 _symmetry_equiv_pos_as_xyz
  1  'x, y, z'
loop_
 _atom_site_type_symbol
 _atom_site_label
 _atom_site_symmetry_multiplicity
 _atom_site_fract_x
 _atom_site_fract_y
 _atom_site_fract_z
 _atom_site_occupancy
 _atom_site_charge
Zn  Zn1  1  0.52305000  0.47695000  0.53449000  1.0 0.8299967775
Zn  Zn2  1  0.52305000  0.04610000  0.53449000  1.0 0.8299967775
Zn  Zn3  1  0.95390000  0.47695000  0.53449000  1.0 0.8299967775
Zn  Zn4  1  0.47695000  0.52305000  0.03449000  1.0 0.8299967775
Zn  Zn5  1  0.47695000  0.95390000  0.03449000  1.0 0.8299967775
Zn  Zn6  1  0.04610000  0.52305000  0.03449000  1.0 0.8299967775
Zn  Zn7  1  0.47695000  0.52305000  0.46551000  1.0 0.8299967775
Zn  Zn8  1  0.04610000  0.52305000  0.46551000  1.0 0.8299967775
Zn  Zn9  1  0.47695000  0.95390000  0.46551000  1.0 0.8299967775
Zn  Zn10  1  0.52305000  0.47695000  0.96551000  1.0 0.8299967775
Zn  Zn11  1  0.95390000  0.47695000  0.96551000  1.0 0.8299967775
Zn  Zn12  1  0.52305000  0.04610000  0.96551000  1.0 0.8299967775
Cr  Cr1  1  0.55191000  0.27596000  0.75000000  1.0 1.4023449648
Cr  Cr2  1  0.72405000  0.27596000  0.75000000  1.0 1.4023449648
Cr  Cr3  1  0.72405000  0.44809000  0.75000000  1.0 1.3854785193
Cr  Cr4  1  0.44809000  0.72405000  0.25000000  1.0 1.3831471034
Cr  Cr5  1  0.27596000  0.72405000  0.25000000  1.0 1.3831471034
Cr  Cr6  1  0.27596000  0.55191000  0.25000000  1.0 1.3831471034
H  H1  1  0.39070000  0.30120000  0.41080000  1.0 0.0886411639
H  H2  1  0.69880000  0.08950000  0.41080000  1.0 0.0886411639
H  H3  1  0.91050000  0.60930000  0.41080000  1.0 0.0886411639
H  H4  1  0.60930000  0.69880000  0.91080000  1.0 0.0886411639
H  H5  1  0.30120000  0.91050000  0.91080000  1.0 0.0886411639
H  H6  1  0.08950000  0.39070000  0.91080000  1.0 0.0886411639
H  H7  1  0.30120000  0.39070000  0.58920000  1.0 0.0886411639
H  H8  1  0.08950000  0.69880000  0.58920000  1.0 0.0886411639
H  H9  1  0.60930000  0.91050000  0.58920000  1.0 0.0886411639
H  H10  1  0.69880000  0.60930000  0.08920000  1.0 0.0886411639
H  H11  1  0.91050000  0.30120000  0.08920000  1.0 0.0886411639
H  H12  1  0.39070000  0.08950000  0.08920000  1.0 0.0886411639
H  H13  1  0.60930000  0.69880000  0.58920000  1.0 0.0886411639
H  H14  1  0.30120000  0.91050000  0.58920000  1.0 0.0886411639
H  H15  1  0.08950000  0.39070000  0.58920000  1.0 0.0886411639
H  H16  1  0.39070000  0.30120000  0.08920000  1.0 0.0886411639
H  H17  1  0.69880000  0.08950000  0.08920000  1.0 0.0886411639
H  H18  1  0.91050000  0.60930000  0.08920000  1.0 0.0886411639
H  H19  1  0.69880000  0.60930000  0.41080000  1.0 0.0886411639
H  H20  1  0.91050000  0.30120000  0.41080000  1.0 0.0886411639
H  H21  1  0.39070000  0.08950000  0.41080000  1.0 0.0886411639
H  H22  1  0.30120000  0.39070000  0.91080000  1.0 0.0886411639
H  H23  1  0.08950000  0.69880000  0.91080000  1.0 0.0886411639
H  H24  1  0.60930000  0.91050000  0.91080000  1.0 0.0886411639
H  H25  1  0.47140000  0.23570000  0.50030000  1.0 0.1268954603
H  H26  1  0.76430000  0.23570000  0.50030000  1.0 0.1268954603
H  H27  1  0.76430000  0.52860000  0.50030000  1.0 0.1268954603
H  H28  1  0.52860000  0.76430000  0.00030000  1.0 0.1268954603
H  H29  1  0.23570000  0.76430000  0.00030000  1.0 0.1268954603
H  H30  1  0.23570000  0.47140000  0.00030000  1.0 0.1268954603
H  H31  1  0.23570000  0.47140000  0.49970000  1.0 0.1268954603
H  H32  1  0.23570000  0.76430000  0.49970000  1.0 0.1268954603
H  H33  1  0.52860000  0.76430000  0.49970000  1.0 0.1268954603
H  H34  1  0.76430000  0.52860000  0.99970000  1.0 0.1268954603
H  H35  1  0.76430000  0.23570000  0.99970000  1.0 0.1268954603
H  H36  1  0.47140000  0.23570000  0.99970000  1.0 0.1268954603
H  H37  1  0.31770000  0.25600000  0.36420000  1.0 0.0525946278
H  H38  1  0.74400000  0.06170000  0.36420000  1.0 0.0525946278
H  H39  1  0.93830000  0.68230000  0.36420000  1.0 0.0525946278
H  H40  1  0.68230000  0.74400000  0.86420000  1.0 0.0525946278
H  H41  1  0.25600000  0.93830000  0.86420000  1.0 0.0525946278
H  H42  1  0.06170000  0.31770000  0.86420000  1.0 0.0525946278
H  H43  1  0.25600000  0.31770000  0.63580000  1.0 0.0525946278
H  H44  1  0.06170000  0.74400000  0.63580000  1.0 0.0525946278
H  H45  1  0.68230000  0.93830000  0.63580000  1.0 0.0525946278
H  H46  1  0.74400000  0.68230000  0.13580000  1.0 0.0525946278
H  H47  1  0.93830000  0.25600000  0.13580000  1.0 0.0525946278
H  H48  1  0.31770000  0.06170000  0.13580000  1.0 0.0525946278
H  H49  1  0.68230000  0.74400000  0.63580000  1.0 0.0525946278
H  H50  1  0.25600000  0.93830000  0.63580000  1.0 0.0525946278
H  H51  1  0.06170000  0.31770000  0.63580000  1.0 0.0525946278
H  H52  1  0.31770000  0.25600000  0.13580000  1.0 0.0525946278
H  H53  1  0.74400000  0.06170000  0.13580000  1.0 0.0525946278
H  H54  1  0.93830000  0.68230000  0.13580000  1.0 0.0525946278
H  H55  1  0.74400000  0.68230000  0.36420000  1.0 0.0525946278
H  H56  1  0.93830000  0.25600000  0.36420000  1.0 0.0525946278
H  H57  1  0.31770000  0.06170000  0.36420000  1.0 0.0525946278
H  H58  1  0.25600000  0.31770000  0.86420000  1.0 0.0525946278
H  H59  1  0.06170000  0.74400000  0.86420000  1.0 0.0525946278
H  H60  1  0.68230000  0.93830000  0.86420000  1.0 0.0525946278
H  H61  1  0.30990000  0.20690000  0.32750000  1.0 0.0193955116
H  H62  1  0.79310000  0.10300000  0.32750000  1.0 0.0084237759
H  H63  1  0.89700000  0.69010000  0.32750000  1.0 0.0193955116
H  H64  1  0.69010000  0.79310000  0.82750000  1.0 0.0193955116
H  H65  1  0.20690000  0.89700000  0.82750000  1.0 0.0193955116
H  H66  1  0.10300000  0.30990000  0.82750000  1.0 0.0193955116
H  H67  1  0.20690000  0.30990000  0.67250000  1.0 0.0084237759
H  H68  1  0.10300000  0.79310000  0.67250000  1.0 0.0193955116
H  H69  1  0.69010000  0.89700000  0.67250000  1.0 0.0193955116
H  H70  1  0.79310000  0.69010000  0.17250000  1.0 0.0193955116
H  H71  1  0.89700000  0.20690000  0.17250000  1.0 0.0193955116
H  H72  1  0.30990000  0.10300000  0.17250000  1.0 0.0084237759
H  H73  1  0.69010000  0.79310000  0.67250000  1.0 0.0193955116
H  H74  1  0.20690000  0.89700000  0.67250000  1.0 0.0193955116
H  H75  1  0.10300000  0.30990000  0.67250000  1.0 0.0084237759
H  H76  1  0.30990000  0.20690000  0.17250000  1.0 0.0084237759
H  H77  1  0.79310000  0.10300000  0.17250000  1.0 0.0084237759
H  H78  1  0.89700000  0.69010000  0.17250000  1.0 0.0084237759
H  H79  1  0.79310000  0.69010000  0.32750000  1.0 0.0193955116
H  H80  1  0.89700000  0.20690000  0.32750000  1.0 0.0193955116
H  H81  1  0.30990000  0.10300000  0.32750000  1.0 0.0193955116
H  H82  1  0.20690000  0.30990000  0.82750000  1.0 0.0193955116
H  H83  1  0.10300000  0.79310000  0.82750000  1.0 0.0193955116
H  H84  1  0.69010000  0.89700000  0.82750000  1.0 0.0193955116
H  H85  1  0.39430000  0.28000000  0.33920000  1.0 0.0525946278
H  H86  1  0.72000000  0.11430000  0.33920000  1.0 0.0525946278
H  H87  1  0.88570000  0.60570000  0.33920000  1.0 0.0525946278
H  H88  1  0.60570000  0.72000000  0.83920000  1.0 0.0525946278
H  H89  1  0.28000000  0.88570000  0.83920000  1.0 0.0525946278
H  H90  1  0.11430000  0.39430000  0.83920000  1.0 0.0525946278
H  H91  1  0.28000000  0.39430000  0.66080000  1.0 0.0525946278
H  H92  1  0.11430000  0.72000000  0.66080000  1.0 0.0525946278
H  H93  1  0.60570000  0.88570000  0.66080000  1.0 0.0525946278
H  H94  1  0.72000000  0.60570000  0.16080000  1.0 0.0525946278
H  H95  1  0.88570000  0.28000000  0.16080000  1.0 0.0525946278
H  H96  1  0.39430000  0.11430000  0.16080000  1.0 0.0525946278
H  H97  1  0.60570000  0.72000000  0.66080000  1.0 0.0525946278
H  H98  1  0.28000000  0.88570000  0.66080000  1.0 0.0525946278
H  H99  1  0.11430000  0.39430000  0.66080000  1.0 0.0525946278
H  H100  1  0.39430000  0.28000000  0.16080000  1.0 0.0525946278
H  H101  1  0.72000000  0.11430000  0.16080000  1.0 0.0525946278
H  H102  1  0.88570000  0.60570000  0.16080000  1.0 0.0525946278
H  H103  1  0.72000000  0.60570000  0.33920000  1.0 0.0525946278
H  H104  1  0.88570000  0.28000000  0.33920000  1.0 0.0525946278
H  H105  1  0.39430000  0.11430000  0.33920000  1.0 0.0525946278
H  H106  1  0.28000000  0.39430000  0.83920000  1.0 0.0525946278
H  H107  1  0.11430000  0.72000000  0.83920000  1.0 0.0525946278
H  H108  1  0.60570000  0.88570000  0.83920000  1.0 0.0525946278
H  H109  1  0.64510000  0.55500000  0.59300000  1.0 0.1127318222
H  H110  1  0.44500000  0.09010000  0.59300000  1.0 0.1127318222
H  H111  1  0.90990000  0.35490000  0.59300000  1.0 0.1127318222
H  H112  1  0.35490000  0.44500000  0.09300000  1.0 0.1127318222
H  H113  1  0.55500000  0.90990000  0.09300000  1.0 0.1127318222
H  H114  1  0.09010000  0.64510000  0.09300000  1.0 0.1127318222
H  H115  1  0.55500000  0.64510000  0.40700000  1.0 0.1127318222
H  H116  1  0.09010000  0.44500000  0.40700000  1.0 0.1127318222
H  H117  1  0.35490000  0.90990000  0.40700000  1.0 0.1127318222
H  H118  1  0.44500000  0.35490000  0.90700000  1.0 0.1127318222
H  H119  1  0.90990000  0.55500000  0.90700000  1.0 0.1127318222
H  H120  1  0.64510000  0.09010000  0.90700000  1.0 0.1127318222
H  H121  1  0.35490000  0.44500000  0.40700000  1.0 0.1127318222
H  H122  1  0.55500000  0.90990000  0.40700000  1.0 0.1127318222
H  H123  1  0.09010000  0.64510000  0.40700000  1.0 0.1127318222
H  H124  1  0.64510000  0.55500000  0.90700000  1.0 0.1127318222
H  H125  1  0.44500000  0.09010000  0.90700000  1.0 0.1127318222
H  H126  1  0.90990000  0.35490000  0.90700000  1.0 0.1127318222
H  H127  1  0.44500000  0.35490000  0.59300000  1.0 0.1127318222
H  H128  1  0.90990000  0.55500000  0.59300000  1.0 0.1127318222
H  H129  1  0.64510000  0.09010000  0.59300000  1.0 0.1127318222
H  H130  1  0.55500000  0.64510000  0.09300000  1.0 0.1127318222
H  H131  1  0.09010000  0.44500000  0.09300000  1.0 0.1127318222
H  H132  1  0.35490000  0.90990000  0.09300000  1.0 0.1127318222
H  H133  1  0.67480000  0.53250000  0.65230000  1.0 0.1406598467
H  H134  1  0.46750000  0.14230000  0.65230000  1.0 0.1406598467
H  H135  1  0.85770000  0.32520000  0.65230000  1.0 0.1406598467
H  H136  1  0.32520000  0.46750000  0.15230000  1.0 0.1406598467
H  H137  1  0.53250000  0.85770000  0.15230000  1.0 0.1406598467
H  H138  1  0.14230000  0.67480000  0.15230000  1.0 0.1406598467
H  H139  1  0.53250000  0.67480000  0.34770000  1.0 0.1406598467
H  H140  1  0.14230000  0.46750000  0.34770000  1.0 0.1406598467
H  H141  1  0.32520000  0.85770000  0.34770000  1.0 0.1406598467
H  H142  1  0.46750000  0.32520000  0.84770000  1.0 0.1406598467
H  H143  1  0.85770000  0.53250000  0.84770000  1.0 0.1406598467
H  H144  1  0.67480000  0.14230000  0.84770000  1.0 0.1406598467
H  H145  1  0.32520000  0.46750000  0.34770000  1.0 0.1406598467
H  H146  1  0.53250000  0.85770000  0.34770000  1.0 0.1406598467
H  H147  1  0.14230000  0.67480000  0.34770000  1.0 0.1406598467
H  H148  1  0.67480000  0.53250000  0.84770000  1.0 0.1406598467
H  H149  1  0.46750000  0.14230000  0.84770000  1.0 0.1406598467
H  H150  1  0.85770000  0.32520000  0.84770000  1.0 0.1406598467
H  H151  1  0.46750000  0.32520000  0.65230000  1.0 0.1406598467
H  H152  1  0.85770000  0.53250000  0.65230000  1.0 0.1406598467
H  H153  1  0.67480000  0.14230000  0.65230000  1.0 0.1406598467
H  H154  1  0.53250000  0.67480000  0.15230000  1.0 0.1406598467
H  H155  1  0.14230000  0.46750000  0.15230000  1.0 0.1406598467
H  H156  1  0.32520000  0.85770000  0.15230000  1.0 0.1406598467
H  H157  1  0.35980000  0.28220000  0.41990000  1.0 0.0886411639
H  H158  1  0.71780000  0.07760000  0.41990000  1.0 0.0886411639
H  H159  1  0.92240000  0.64020000  0.41990000  1.0 0.0886411639
H  H160  1  0.64020000  0.71780000  0.91990000  1.0 0.0886411639
H  H161  1  0.28220000  0.92240000  0.91990000  1.0 0.0886411639
H  H162  1  0.07760000  0.35980000  0.91990000  1.0 0.0886411639
H  H163  1  0.28220000  0.35980000  0.58010000  1.0 0.0886411639
H  H164  1  0.07760000  0.71780000  0.58010000  1.0 0.0886411639
H  H165  1  0.64020000  0.92240000  0.58010000  1.0 0.0886411639
H  H166  1  0.71780000  0.64020000  0.08010000  1.0 0.0886411639
H  H167  1  0.92240000  0.28220000  0.08010000  1.0 0.0886411639
H  H168  1  0.35980000  0.07760000  0.08010000  1.0 0.0886411639
H  H169  1  0.64020000  0.71780000  0.58010000  1.0 0.0886411639
H  H170  1  0.28220000  0.92240000  0.58010000  1.0 0.0886411639
H  H171  1  0.07760000  0.35980000  0.58010000  1.0 0.0886411639
H  H172  1  0.35980000  0.28220000  0.08010000  1.0 0.0886411639
H  H173  1  0.71780000  0.07760000  0.08010000  1.0 0.0886411639
H  H174  1  0.92240000  0.64020000  0.08010000  1.0 0.0886411639
H  H175  1  0.71780000  0.64020000  0.41990000  1.0 0.0886411639
H  H176  1  0.92240000  0.28220000  0.41990000  1.0 0.0886411639
H  H177  1  0.35980000  0.07760000  0.41990000  1.0 0.0886411639
H  H178  1  0.28220000  0.35980000  0.91990000  1.0 0.0886411639
H  H179  1  0.07760000  0.71780000  0.91990000  1.0 0.0886411639
H  H180  1  0.64020000  0.92240000  0.91990000  1.0 0.0886411639
H  H181  1  0.26760000  0.23220000  0.38290000  1.0 0.0593070849
H  H182  1  0.76780000  0.03540000  0.38290000  1.0 0.0593070849
H  H183  1  0.96460000  0.73240000  0.38290000  1.0 0.0593070849
H  H184  1  0.73240000  0.76780000  0.88290000  1.0 0.0593070849
H  H185  1  0.23220000  0.96460000  0.88290000  1.0 0.0593070849
H  H186  1  0.03540000  0.26760000  0.88290000  1.0 0.0593070849
H  H187  1  0.23220000  0.26760000  0.61710000  1.0 0.0593070849
H  H188  1  0.03540000  0.76780000  0.61710000  1.0 0.0593070849
H  H189  1  0.73240000  0.96460000  0.61710000  1.0 0.0593070849
H  H190  1  0.76780000  0.73240000  0.11710000  1.0 0.0593070849
H  H191  1  0.96460000  0.23220000  0.11710000  1.0 0.0593070849
H  H192  1  0.26760000  0.03540000  0.11710000  1.0 0.0593070849
H  H193  1  0.73240000  0.76780000  0.61710000  1.0 0.0593070849
H  H194  1  0.23220000  0.96460000  0.61710000  1.0 0.0593070849
H  H195  1  0.03540000  0.26760000  0.61710000  1.0 0.0593070849
H  H196  1  0.26760000  0.23220000  0.11710000  1.0 0.0593070849
H  H197  1  0.76780000  0.03540000  0.11710000  1.0 0.0593070849
H  H198  1  0.96460000  0.73240000  0.11710000  1.0 0.0593070849
H  H199  1  0.76780000  0.73240000  0.38290000  1.0 0.0593070849
H  H200  1  0.96460000  0.23220000  0.38290000  1.0 0.0593070849
H  H201  1  0.26760000  0.03540000  0.38290000  1.0 0.0593070849
H  H202  1  0.23220000  0.26760000  0.88290000  1.0 0.0593070849
H  H203  1  0.03540000  0.76780000  0.88290000  1.0 0.0593070849
H  H204  1  0.73240000  0.96460000  0.88290000  1.0 0.0593070849
H  H205  1  0.23980000  0.17630000  0.34730000  1.0 0.0702601886
H  H206  1  0.82370000  0.06350000  0.34730000  1.0 0.0702601886
H  H207  1  0.93650000  0.76020000  0.34730000  1.0 0.0702601886
H  H208  1  0.76020000  0.82370000  0.84730000  1.0 0.0702601886
H  H209  1  0.17630000  0.93650000  0.84730000  1.0 0.0702601886
H  H210  1  0.06350000  0.23980000  0.84730000  1.0 0.0702601886
H  H211  1  0.17630000  0.23980000  0.65270000  1.0 0.0702601886
H  H212  1  0.06350000  0.82370000  0.65270000  1.0 0.0702601886
H  H213  1  0.76020000  0.93650000  0.65270000  1.0 0.0702601886
H  H214  1  0.82370000  0.76020000  0.15270000  1.0 0.0702601886
H  H215  1  0.93650000  0.17630000  0.15270000  1.0 0.0702601886
H  H216  1  0.23980000  0.06350000  0.15270000  1.0 0.0702601886
H  H217  1  0.76020000  0.82370000  0.65270000  1.0 0.0702601886
H  H218  1  0.17630000  0.93650000  0.65270000  1.0 0.0702601886
H  H219  1  0.06350000  0.23980000  0.65270000  1.0 0.0702601886
H  H220  1  0.23980000  0.17630000  0.15270000  1.0 0.0702601886
H  H221  1  0.82370000  0.06350000  0.15270000  1.0 0.0702601886
H  H222  1  0.93650000  0.76020000  0.15270000  1.0 0.0702601886
H  H223  1  0.82370000  0.76020000  0.34730000  1.0 0.0702601886
H  H224  1  0.93650000  0.17630000  0.34730000  1.0 0.0702601886
H  H225  1  0.23980000  0.06350000  0.34730000  1.0 0.0702601886
H  H226  1  0.17630000  0.23980000  0.84730000  1.0 0.0702601886
H  H227  1  0.06350000  0.82370000  0.84730000  1.0 0.0702601886
H  H228  1  0.76020000  0.93650000  0.84730000  1.0 0.0702601886
H  H229  1  0.33030000  0.24590000  0.35120000  1.0 0.0525946278
H  H230  1  0.75410000  0.08440000  0.35120000  1.0 0.0525946278
H  H231  1  0.91560000  0.66970000  0.35120000  1.0 0.0525946278
H  H232  1  0.66970000  0.75410000  0.85120000  1.0 0.0525946278
H  H233  1  0.24590000  0.91560000  0.85120000  1.0 0.0525946278
H  H234  1  0.08440000  0.33030000  0.85120000  1.0 0.0525946278
H  H235  1  0.24590000  0.33030000  0.64880000  1.0 0.0525946278
H  H236  1  0.08440000  0.75410000  0.64880000  1.0 0.0525946278
H  H237  1  0.66970000  0.91560000  0.64880000  1.0 0.0525946278
H  H238  1  0.75410000  0.66970000  0.14880000  1.0 0.0525946278
H  H239  1  0.91560000  0.24590000  0.14880000  1.0 0.0525946278
H  H240  1  0.33030000  0.08440000  0.14880000  1.0 0.0525946278
H  H241  1  0.66970000  0.75410000  0.64880000  1.0 0.0525946278
H  H242  1  0.24590000  0.91560000  0.64880000  1.0 0.0525946278
H  H243  1  0.08440000  0.33030000  0.64880000  1.0 0.0525946278
H  H244  1  0.33030000  0.24590000  0.14880000  1.0 0.0525946278
H  H245  1  0.75410000  0.08440000  0.14880000  1.0 0.0525946278
H  H246  1  0.91560000  0.66970000  0.14880000  1.0 0.0525946278
H  H247  1  0.75410000  0.66970000  0.35120000  1.0 0.0525946278
H  H248  1  0.91560000  0.24590000  0.35120000  1.0 0.0525946278
H  H249  1  0.33030000  0.08440000  0.35120000  1.0 0.0525946278
H  H250  1  0.24590000  0.33030000  0.85120000  1.0 0.0525946278
H  H251  1  0.08440000  0.75410000  0.85120000  1.0 0.0525946278
H  H252  1  0.66970000  0.91560000  0.85120000  1.0 0.0525946278
C  C1  1  0.43300000  0.27870000  0.45909000  1.0 0.0084237759
C  C2  1  0.72130000  0.15430000  0.45909000  1.0 0.0084237759
C  C3  1  0.84570000  0.56700000  0.45909000  1.0 0.0084237759
C  C4  1  0.56700000  0.72130000  0.95909000  1.0 0.0084237759
C  C5  1  0.27870000  0.84570000  0.95909000  1.0 0.0084237759
C  C6  1  0.15430000  0.43300000  0.95909000  1.0 0.0084237759
C  C7  1  0.27870000  0.43300000  0.54091000  1.0 0.0084237759
C  C8  1  0.15430000  0.72130000  0.54091000  1.0 0.0084237759
C  C9  1  0.56700000  0.84570000  0.54091000  1.0 0.0084237759
C  C10  1  0.72130000  0.56700000  0.04091000  1.0 0.0084237759
C  C11  1  0.84570000  0.27870000  0.04091000  1.0 0.0084237759
C  C12  1  0.43300000  0.15430000  0.04091000  1.0 0.0084237759
C  C13  1  0.56700000  0.72130000  0.54091000  1.0 0.0084237759
C  C14  1  0.27870000  0.84570000  0.54091000  1.0 0.0084237759
C  C15  1  0.15430000  0.43300000  0.54091000  1.0 0.0084237759
C  C16  1  0.43300000  0.27870000  0.04091000  1.0 0.0084237759
C  C17  1  0.72130000  0.15430000  0.04091000  1.0 0.0084237759
C  C18  1  0.84570000  0.56700000  0.04091000  1.0 0.0084237759
C  C19  1  0.72130000  0.56700000  0.45909000  1.0 0.0084237759
C  C20  1  0.84570000  0.27870000  0.45909000  1.0 0.0084237759
C  C21  1  0.43300000  0.15430000  0.45909000  1.0 0.0084237759
C  C22  1  0.27870000  0.43300000  0.95909000  1.0 0.0084237759
C  C23  1  0.15430000  0.72130000  0.95909000  1.0 0.0084237759
C  C24  1  0.56700000  0.84570000  0.95909000  1.0 0.0084237759
C  C25  1  0.45550000  0.35763000  0.47656000  1.0 0.5531410727
C  C26  1  0.64237000  0.09787000  0.47656000  1.0 0.5531410727
C  C27  1  0.90213000  0.54450000  0.47656000  1.0 0.5531410727
C  C28  1  0.54450000  0.64237000  0.97656000  1.0 0.5531410727
C  C29  1  0.35763000  0.90213000  0.97656000  1.0 0.5531410727
C  C30  1  0.09787000  0.45550000  0.97656000  1.0 0.5531410727
C  C31  1  0.35763000  0.45550000  0.52344000  1.0 0.5531410727
C  C32  1  0.09787000  0.64237000  0.52344000  1.0 0.5531410727
C  C33  1  0.54450000  0.90213000  0.52344000  1.0 0.5531410727
C  C34  1  0.64237000  0.54450000  0.02344000  1.0 0.5531410727
C  C35  1  0.90213000  0.35763000  0.02344000  1.0 0.5531410727
C  C36  1  0.45550000  0.09787000  0.02344000  1.0 0.5531410727
C  C37  1  0.54450000  0.64237000  0.52344000  1.0 0.5531410727
C  C38  1  0.35763000  0.90213000  0.52344000  1.0 0.5531410727
C  C39  1  0.09787000  0.45550000  0.52344000  1.0 0.5531410727
C  C40  1  0.45550000  0.35763000  0.02344000  1.0 0.5531410727
C  C41  1  0.64237000  0.09787000  0.02344000  1.0 0.5531410727
C  C42  1  0.90213000  0.54450000  0.02344000  1.0 0.5531410727
C  C43  1  0.64237000  0.54450000  0.47656000  1.0 0.5531410727
C  C44  1  0.90213000  0.35763000  0.47656000  1.0 0.5531410727
C  C45  1  0.45550000  0.09787000  0.47656000  1.0 0.5531410727
C  C46  1  0.35763000  0.45550000  0.97656000  1.0 0.5531410727
C  C47  1  0.09787000  0.64237000  0.97656000  1.0 0.5531410727
C  C48  1  0.54450000  0.90213000  0.97656000  1.0 0.5531410727
C  C49  1  0.40320000  0.26550000  0.42280000  1.0 -0.1260024595
C  C50  1  0.73450000  0.13770000  0.42280000  1.0 -0.1244084683
C  C51  1  0.86230000  0.59680000  0.42280000  1.0 -0.1260024595
C  C52  1  0.59680000  0.73450000  0.92280000  1.0 -0.1244084683
C  C53  1  0.26550000  0.86230000  0.92280000  1.0 -0.1260024595
C  C54  1  0.13770000  0.40320000  0.92280000  1.0 -0.1260024595
C  C55  1  0.26550000  0.40320000  0.57720000  1.0 -0.1260024595
C  C56  1  0.13770000  0.73450000  0.57720000  1.0 -0.1260024595
C  C57  1  0.59680000  0.86230000  0.57720000  1.0 -0.1260024595
C  C58  1  0.73450000  0.59680000  0.07720000  1.0 -0.1260024595
C  C59  1  0.86230000  0.26550000  0.07720000  1.0 -0.1260024595
C  C60  1  0.40320000  0.13770000  0.07720000  1.0 -0.1260024595
C  C61  1  0.59680000  0.73450000  0.57720000  1.0 -0.1244084683
C  C62  1  0.26550000  0.86230000  0.57720000  1.0 -0.1260024595
C  C63  1  0.13770000  0.40320000  0.57720000  1.0 -0.1260024595
C  C64  1  0.40320000  0.26550000  0.07720000  1.0 -0.1260024595
C  C65  1  0.73450000  0.13770000  0.07720000  1.0 -0.1260024595
C  C66  1  0.86230000  0.59680000  0.07720000  1.0 -0.1260024595
C  C67  1  0.73450000  0.59680000  0.42280000  1.0 -0.1260024595
C  C68  1  0.86230000  0.26550000  0.42280000  1.0 -0.1260024595
C  C69  1  0.40320000  0.13770000  0.42280000  1.0 -0.1260024595
C  C70  1  0.26550000  0.40320000  0.92280000  1.0 -0.1260024595
C  C71  1  0.13770000  0.73450000  0.92280000  1.0 -0.1260024595
C  C72  1  0.59680000  0.86230000  0.92280000  1.0 -0.1260024595
C  C73  1  0.44900000  0.22450000  0.47635000  1.0 -0.2285534687
C  C74  1  0.77550000  0.22450000  0.47635000  1.0 -0.2285534687
C  C75  1  0.77550000  0.55100000  0.47635000  1.0 -0.2285534687
C  C76  1  0.55100000  0.77550000  0.97635000  1.0 -0.2285534687
C  C77  1  0.22450000  0.77550000  0.97635000  1.0 -0.2285534687
C  C78  1  0.22450000  0.44900000  0.97635000  1.0 -0.2285534687
C  C79  1  0.22450000  0.44900000  0.52365000  1.0 -0.2285534687
C  C80  1  0.22450000  0.77550000  0.52365000  1.0 -0.2285534687
C  C81  1  0.55100000  0.77550000  0.52365000  1.0 -0.2285534687
C  C82  1  0.77550000  0.55100000  0.02365000  1.0 -0.2285534687
C  C83  1  0.77550000  0.22450000  0.02365000  1.0 -0.2285534687
C  C84  1  0.44900000  0.22450000  0.02365000  1.0 -0.2285534687
C  C85  1  0.39330000  0.19665000  0.40570000  1.0 0.0593070849
C  C86  1  0.80335000  0.19665000  0.40570000  1.0 0.0593070849
C  C87  1  0.80335000  0.60670000  0.40570000  1.0 0.0593070849
C  C88  1  0.60670000  0.80335000  0.90570000  1.0 0.0593070849
C  C89  1  0.19665000  0.80335000  0.90570000  1.0 0.0702601886
C  C90  1  0.19665000  0.39330000  0.90570000  1.0 0.0593070849
C  C91  1  0.19665000  0.39330000  0.59430000  1.0 0.0593070849
C  C92  1  0.19665000  0.80335000  0.59430000  1.0 0.0593070849
C  C93  1  0.60670000  0.80335000  0.59430000  1.0 0.0593070849
C  C94  1  0.80335000  0.60670000  0.09430000  1.0 0.0593070849
C  C95  1  0.80335000  0.19665000  0.09430000  1.0 0.0593070849
C  C96  1  0.39330000  0.19665000  0.09430000  1.0 0.0593070849
C  C97  1  0.34440000  0.23560000  0.34840000  1.0 -0.163297221
C  C98  1  0.76440000  0.10880000  0.34840000  1.0 -0.163297221
C  C99  1  0.89120000  0.65560000  0.34840000  1.0 -0.163297221
C  C100  1  0.65560000  0.76440000  0.84840000  1.0 -0.163297221
C  C101  1  0.23560000  0.89120000  0.84840000  1.0 -0.163297221
C  C102  1  0.10880000  0.34440000  0.84840000  1.0 -0.163297221
C  C103  1  0.23560000  0.34440000  0.65160000  1.0 -0.163297221
C  C104  1  0.10880000  0.76440000  0.65160000  1.0 -0.163297221
C  C105  1  0.65560000  0.89120000  0.65160000  1.0 -0.163297221
C  C106  1  0.76440000  0.65560000  0.15160000  1.0 -0.163297221
C  C107  1  0.89120000  0.23560000  0.15160000  1.0 -0.163297221
C  C108  1  0.34440000  0.10880000  0.15160000  1.0 -0.163297221
C  C109  1  0.65560000  0.76440000  0.65160000  1.0 -0.163297221
C  C110  1  0.23560000  0.89120000  0.65160000  1.0 -0.163297221
C  C111  1  0.10880000  0.34440000  0.65160000  1.0 -0.163297221
C  C112  1  0.34440000  0.23560000  0.15160000  1.0 -0.163297221
C  C113  1  0.76440000  0.10880000  0.15160000  1.0 -0.163297221
C  C114  1  0.89120000  0.65560000  0.15160000  1.0 -0.163297221
C  C115  1  0.76440000  0.65560000  0.34840000  1.0 -0.163297221
C  C116  1  0.89120000  0.23560000  0.34840000  1.0 -0.163297221
C  C117  1  0.34440000  0.10880000  0.34840000  1.0 -0.163297221
C  C118  1  0.23560000  0.34440000  0.84840000  1.0 -0.163297221
C  C119  1  0.10880000  0.76440000  0.84840000  1.0 -0.163297221
C  C120  1  0.65560000  0.89120000  0.84840000  1.0 -0.163297221
C  C121  1  0.60880000  0.50690000  0.60505000  1.0 0.032472755
C  C122  1  0.49310000  0.10190000  0.60505000  1.0 0.032472755
C  C123  1  0.89810000  0.39120000  0.60505000  1.0 0.032472755
C  C124  1  0.39120000  0.49310000  0.10505000  1.0 0.032472755
C  C125  1  0.50690000  0.89810000  0.10505000  1.0 0.032472755
C  C126  1  0.10190000  0.60880000  0.10505000  1.0 0.032472755
C  C127  1  0.50690000  0.60880000  0.39495000  1.0 0.032472755
C  C128  1  0.10190000  0.49310000  0.39495000  1.0 0.032472755
C  C129  1  0.39120000  0.89810000  0.39495000  1.0 0.032472755
C  C130  1  0.49310000  0.39120000  0.89495000  1.0 0.032472755
C  C131  1  0.89810000  0.50690000  0.89495000  1.0 0.032472755
C  C132  1  0.60880000  0.10190000  0.89495000  1.0 0.032472755
C  C133  1  0.39120000  0.49310000  0.39495000  1.0 0.032472755
C  C134  1  0.50690000  0.89810000  0.39495000  1.0 0.032472755
C  C135  1  0.10190000  0.60880000  0.39495000  1.0 0.032472755
C  C136  1  0.60880000  0.50690000  0.89495000  1.0 0.032472755
C  C137  1  0.49310000  0.10190000  0.89495000  1.0 0.032472755
C  C138  1  0.89810000  0.39120000  0.89495000  1.0 0.032472755
C  C139  1  0.49310000  0.39120000  0.60505000  1.0 0.032472755
C  C140  1  0.89810000  0.50690000  0.60505000  1.0 0.032472755
C  C141  1  0.60880000  0.10190000  0.60505000  1.0 0.032472755
C  C142  1  0.50690000  0.60880000  0.10505000  1.0 0.032472755
C  C143  1  0.10190000  0.49310000  0.10505000  1.0 0.032472755
C  C144  1  0.39120000  0.89810000  0.10505000  1.0 0.032472755
C  C145  1  0.62700000  0.49450000  0.64070000  1.0 -0.163297221
C  C146  1  0.50550000  0.13250000  0.64070000  1.0 -0.163297221
C  C147  1  0.86750000  0.37300000  0.64070000  1.0 -0.163297221
C  C148  1  0.37300000  0.50550000  0.14070000  1.0 -0.163297221
C  C149  1  0.49450000  0.86750000  0.14070000  1.0 -0.163297221
C  C150  1  0.13250000  0.62700000  0.14070000  1.0 -0.163297221
C  C151  1  0.49450000  0.62700000  0.35930000  1.0 -0.163297221
C  C152  1  0.13250000  0.50550000  0.35930000  1.0 -0.163297221
C  C153  1  0.37300000  0.86750000  0.35930000  1.0 -0.163297221
C  C154  1  0.50550000  0.37300000  0.85930000  1.0 -0.163297221
C  C155  1  0.86750000  0.49450000  0.85930000  1.0 -0.163297221
C  C156  1  0.62700000  0.13250000  0.85930000  1.0 -0.163297221
C  C157  1  0.37300000  0.50550000  0.35930000  1.0 -0.163297221
C  C158  1  0.49450000  0.86750000  0.35930000  1.0 -0.163297221
C  C159  1  0.13250000  0.62700000  0.35930000  1.0 -0.163297221
C  C160  1  0.62700000  0.49450000  0.85930000  1.0 -0.163297221
C  C161  1  0.50550000  0.13250000  0.85930000  1.0 -0.163297221
C  C162  1  0.86750000  0.37300000  0.85930000  1.0 -0.163297221
C  C163  1  0.50550000  0.37300000  0.64070000  1.0 -0.163297221
C  C164  1  0.86750000  0.49450000  0.64070000  1.0 -0.163297221
C  C165  1  0.62700000  0.13250000  0.64070000  1.0 -0.163297221
C  C166  1  0.49450000  0.62700000  0.14070000  1.0 -0.163297221
C  C167  1  0.13250000  0.50550000  0.14070000  1.0 -0.163297221
C  C168  1  0.37300000  0.86750000  0.14070000  1.0 -0.163297221
C  C169  1  0.59398000  0.40602000  0.69620000  1.0 0.607322497
C  C170  1  0.59398000  0.18796000  0.69620000  1.0 0.607322497
C  C171  1  0.81204000  0.40602000  0.69620000  1.0 0.607322497
C  C172  1  0.40602000  0.59398000  0.19620000  1.0 0.607322497
C  C173  1  0.40602000  0.81204000  0.19620000  1.0 0.607322497
C  C174  1  0.18796000  0.59398000  0.19620000  1.0 0.607322497
C  C175  1  0.40602000  0.59398000  0.30380000  1.0 0.607322497
C  C176  1  0.18796000  0.59398000  0.30380000  1.0 0.607322497
C  C177  1  0.40602000  0.81204000  0.30380000  1.0 0.607322497
C  C178  1  0.59398000  0.40602000  0.80380000  1.0 0.607322497
C  C179  1  0.81204000  0.40602000  0.80380000  1.0 0.607322497
C  C180  1  0.59398000  0.18796000  0.80380000  1.0 0.607322497
C  C181  1  0.57393000  0.42607000  0.65861000  1.0 0.0193955116
C  C182  1  0.57393000  0.14786000  0.65861000  1.0 0.0193955116
C  C183  1  0.85214000  0.42607000  0.65861000  1.0 0.0193955116
C  C184  1  0.42607000  0.57393000  0.15861000  1.0 0.0193955116
C  C185  1  0.42607000  0.85214000  0.15861000  1.0 0.0193955116
C  C186  1  0.14786000  0.57393000  0.15861000  1.0 0.0193955116
C  C187  1  0.42607000  0.57393000  0.34139000  1.0 0.0193955116
C  C188  1  0.14786000  0.57393000  0.34139000  1.0 0.0193955116
C  C189  1  0.42607000  0.85214000  0.34139000  1.0 0.0193955116
C  C190  1  0.57393000  0.42607000  0.84139000  1.0 0.0193955116
C  C191  1  0.85214000  0.42607000  0.84139000  1.0 0.0193955116
C  C192  1  0.57393000  0.14786000  0.84139000  1.0 0.0193955116
C  C193  1  0.37880000  0.24910000  0.42920000  1.0 -0.1260024595
C  C194  1  0.75090000  0.12970000  0.42920000  1.0 -0.1260024595
C  C195  1  0.87030000  0.62120000  0.42920000  1.0 -0.1260024595
C  C196  1  0.62120000  0.75090000  0.92920000  1.0 -0.1260024595
C  C197  1  0.24910000  0.87030000  0.92920000  1.0 -0.1260024595
C  C198  1  0.12970000  0.37880000  0.92920000  1.0 -0.1260024595
C  C199  1  0.24910000  0.37880000  0.57080000  1.0 -0.1260024595
C  C200  1  0.12970000  0.75090000  0.57080000  1.0 -0.1260024595
C  C201  1  0.62120000  0.87030000  0.57080000  1.0 -0.1260024595
C  C202  1  0.75090000  0.62120000  0.07080000  1.0 -0.1260024595
C  C203  1  0.87030000  0.24910000  0.07080000  1.0 -0.1260024595
C  C204  1  0.37880000  0.12970000  0.07080000  1.0 -0.1260024595
C  C205  1  0.62120000  0.75090000  0.57080000  1.0 -0.1260024595
C  C206  1  0.24910000  0.87030000  0.57080000  1.0 -0.1260024595
C  C207  1  0.12970000  0.37880000  0.57080000  1.0 -0.1260024595
C  C208  1  0.37880000  0.24910000  0.07080000  1.0 -0.1260024595
C  C209  1  0.75090000  0.12970000  0.07080000  1.0 -0.1260024595
C  C210  1  0.87030000  0.62120000  0.07080000  1.0 -0.1260024595
C  C211  1  0.75090000  0.62120000  0.42920000  1.0 -0.1260024595
C  C212  1  0.87030000  0.24910000  0.42920000  1.0 -0.1260024595
C  C213  1  0.37880000  0.12970000  0.42920000  1.0 -0.1260024595
C  C214  1  0.24910000  0.37880000  0.92920000  1.0 -0.1260024595
C  C215  1  0.12970000  0.75090000  0.92920000  1.0 -0.1260024595
C  C216  1  0.62120000  0.87030000  0.92920000  1.0 -0.1260024595
C  C217  1  0.35150000  0.17575000  0.41250000  1.0 0.1268954603
C  C218  1  0.82425000  0.17575000  0.41250000  1.0 0.1216180564
C  C219  1  0.82425000  0.64850000  0.41250000  1.0 0.1216180564
C  C220  1  0.64850000  0.82425000  0.91250000  1.0 0.1268954603
C  C221  1  0.17575000  0.82425000  0.91250000  1.0 0.1268954603
C  C222  1  0.17575000  0.35150000  0.91250000  1.0 0.1268954603
C  C223  1  0.17575000  0.35150000  0.58750000  1.0 0.1268954603
C  C224  1  0.17575000  0.82425000  0.58750000  1.0 0.1268954603
C  C225  1  0.64850000  0.82425000  0.58750000  1.0 0.1268954603
C  C226  1  0.82425000  0.64850000  0.08750000  1.0 0.1268954603
C  C227  1  0.82425000  0.17575000  0.08750000  1.0 0.1268954603
C  C228  1  0.35150000  0.17575000  0.08750000  1.0 0.1268954603
C  C229  1  0.28360000  0.20590000  0.36460000  1.0 -0.1680900499
C  C230  1  0.79410000  0.07770000  0.36460000  1.0 -0.1680900499
C  C231  1  0.92230000  0.71640000  0.36460000  1.0 -0.1680900499
C  C232  1  0.71640000  0.79410000  0.86460000  1.0 -0.1680900499
C  C233  1  0.20590000  0.92230000  0.86460000  1.0 -0.1680900499
C  C234  1  0.07770000  0.28360000  0.86460000  1.0 -0.1680900499
C  C235  1  0.20590000  0.28360000  0.63540000  1.0 -0.1680900499
C  C236  1  0.07770000  0.79410000  0.63540000  1.0 -0.1680900499
C  C237  1  0.71640000  0.92230000  0.63540000  1.0 -0.1680900499
C  C238  1  0.79410000  0.71640000  0.13540000  1.0 -0.1680900499
C  C239  1  0.92230000  0.20590000  0.13540000  1.0 -0.163297221
C  C240  1  0.28360000  0.07770000  0.13540000  1.0 -0.1680900499
C  C241  1  0.71640000  0.79410000  0.63540000  1.0 -0.1680900499
C  C242  1  0.20590000  0.92230000  0.63540000  1.0 -0.1680900499
C  C243  1  0.07770000  0.28360000  0.63540000  1.0 -0.1680900499
C  C244  1  0.28360000  0.20590000  0.13540000  1.0 -0.1680900499
C  C245  1  0.79410000  0.07770000  0.13540000  1.0 -0.1680900499
C  C246  1  0.92230000  0.71640000  0.13540000  1.0 -0.1680900499
C  C247  1  0.79410000  0.71640000  0.36460000  1.0 -0.1680900499
C  C248  1  0.92230000  0.20590000  0.36460000  1.0 -0.163297221
C  C249  1  0.28360000  0.07770000  0.36460000  1.0 -0.1680900499
C  C250  1  0.20590000  0.28360000  0.86460000  1.0 -0.1680900499
C  C251  1  0.07770000  0.79410000  0.86460000  1.0 -0.1680900499
C  C252  1  0.71640000  0.92230000  0.86460000  1.0 -0.1680900499
N  N1  1  0.54421000  0.45579000  0.58705000  1.0 -0.1911333461
N  N2  1  0.54421000  0.08842000  0.58705000  1.0 -0.1911333461
N  N3  1  0.91158000  0.45579000  0.58705000  1.0 -0.1911333461
N  N4  1  0.45579000  0.54421000  0.08705000  1.0 -0.1911333461
N  N5  1  0.45579000  0.91158000  0.08705000  1.0 -0.1911333461
N  N6  1  0.08842000  0.54421000  0.08705000  1.0 -0.1911333461
N  N7  1  0.45579000  0.54421000  0.41295000  1.0 -0.1911333461
N  N8  1  0.08842000  0.54421000  0.41295000  1.0 -0.1911333461
N  N9  1  0.45579000  0.91158000  0.41295000  1.0 -0.1911333461
N  N10  1  0.54421000  0.45579000  0.91295000  1.0 -0.1911333461
N  N11  1  0.91158000  0.45579000  0.91295000  1.0 -0.1911333461
N  N12  1  0.54421000  0.08842000  0.91295000  1.0 -0.1911333461
O  O1  1  0.66666667  0.33333333  0.75000000  1.0 -1.0870232355
O  O2  1  0.33333333  0.66666667  0.25000000  1.0 -1.0870232355
O  O3  1  0.48319000  0.36987000  0.50872000  1.0 -0.5206284892
O  O4  1  0.63013000  0.11332000  0.50872000  1.0 -0.5206284892
O  O5  1  0.88668000  0.51681000  0.50872000  1.0 -0.5206284892
O  O6  1  0.51681000  0.63013000  0.00872000  1.0 -0.5206284892
O  O7  1  0.36987000  0.88668000  0.00872000  1.0 -0.5206284892
O  O8  1  0.11332000  0.48319000  0.00872000  1.0 -0.5206284892
O  O9  1  0.36987000  0.48319000  0.49128000  1.0 -0.5206284892
O  O10  1  0.11332000  0.63013000  0.49128000  1.0 -0.5206284892
O  O11  1  0.51681000  0.88668000  0.49128000  1.0 -0.5206284892
O  O12  1  0.63013000  0.51681000  0.99128000  1.0 -0.5206284892
O  O13  1  0.88668000  0.36987000  0.99128000  1.0 -0.5206284892
O  O14  1  0.48319000  0.11332000  0.99128000  1.0 -0.5206284892
O  O15  1  0.51681000  0.63013000  0.49128000  1.0 -0.5206284892
O  O16  1  0.36987000  0.88668000  0.49128000  1.0 -0.5206284892
O  O17  1  0.11332000  0.48319000  0.49128000  1.0 -0.5206284892
O  O18  1  0.48319000  0.36987000  0.99128000  1.0 -0.5206284892
O  O19  1  0.63013000  0.11332000  0.99128000  1.0 -0.5206284892
O  O20  1  0.88668000  0.51681000  0.99128000  1.0 -0.5206284892
O  O21  1  0.63013000  0.51681000  0.50872000  1.0 -0.5206284892
O  O22  1  0.88668000  0.36987000  0.50872000  1.0 -0.5206284892
O  O23  1  0.48319000  0.11332000  0.50872000  1.0 -0.5206284892
O  O24  1  0.36987000  0.48319000  0.00872000  1.0 -0.5206284892
O  O25  1  0.11332000  0.63013000  0.00872000  1.0 -0.5206284892
O  O26  1  0.51681000  0.88668000  0.00872000  1.0 -0.5206284892
O  O27  1  0.44493000  0.40603000  0.45758000  1.0 -0.5516402097
O  O28  1  0.59397000  0.03890000  0.45758000  1.0 -0.5516402097
O  O29  1  0.96110000  0.55507000  0.45758000  1.0 -0.5516402097
O  O30  1  0.55507000  0.59397000  0.95758000  1.0 -0.5516402097
O  O31  1  0.40603000  0.96110000  0.95758000  1.0 -0.5516402097
O  O32  1  0.03890000  0.44493000  0.95758000  1.0 -0.5516402097
O  O33  1  0.40603000  0.44493000  0.54242000  1.0 -0.5516402097
O  O34  1  0.03890000  0.59397000  0.54242000  1.0 -0.5516402097
O  O35  1  0.55507000  0.96110000  0.54242000  1.0 -0.5516402097
O  O36  1  0.59397000  0.55507000  0.04242000  1.0 -0.5516402097
O  O37  1  0.96110000  0.40603000  0.04242000  1.0 -0.5516402097
O  O38  1  0.44493000  0.03890000  0.04242000  1.0 -0.5516402097
O  O39  1  0.55507000  0.59397000  0.54242000  1.0 -0.5516402097
O  O40  1  0.40603000  0.96110000  0.54242000  1.0 -0.5516402097
O  O41  1  0.03890000  0.44493000  0.54242000  1.0 -0.5516402097
O  O42  1  0.44493000  0.40603000  0.04242000  1.0 -0.5516402097
O  O43  1  0.59397000  0.03890000  0.04242000  1.0 -0.5516402097
O  O44  1  0.96110000  0.55507000  0.04242000  1.0 -0.5516402097
O  O45  1  0.59397000  0.55507000  0.45758000  1.0 -0.5516402097
O  O46  1  0.96110000  0.40603000  0.45758000  1.0 -0.5516402097
O  O47  1  0.44493000  0.03890000  0.45758000  1.0 -0.5516402097
O  O48  1  0.40603000  0.44493000  0.95758000  1.0 -0.5516402097
O  O49  1  0.03890000  0.59397000  0.95758000  1.0 -0.5516402097
O  O50  1  0.55507000  0.96110000  0.95758000  1.0 -0.5516402097
O  O51  1  0.36130000  0.18065000  0.36990000  1.0 0.1718929395
O  O52  1  0.81935000  0.18065000  0.36990000  1.0 0.1718929395
O  O53  1  0.81935000  0.63870000  0.36990000  1.0 0.1801156927
O  O54  1  0.63870000  0.81935000  0.86990000  1.0 0.1801156927
O  O55  1  0.18065000  0.81935000  0.86990000  1.0 0.1718929395
O  O56  1  0.18065000  0.36130000  0.86990000  1.0 0.1718929395
O  O57  1  0.18065000  0.36130000  0.63010000  1.0 0.1718929395
O  O58  1  0.18065000  0.81935000  0.63010000  1.0 0.1718929395
O  O59  1  0.63870000  0.81935000  0.63010000  1.0 0.1801156927
O  O60  1  0.81935000  0.63870000  0.13010000  1.0 0.1801156927
O  O61  1  0.81935000  0.18065000  0.13010000  1.0 0.1718929395
O  O62  1  0.36130000  0.18065000  0.13010000  1.0 0.1718929395
O  O63  1  0.54272000  0.34060000  0.71003000  1.0 -0.5904425156
O  O64  1  0.65940000  0.20212000  0.71003000  1.0 -0.5904425156
O  O65  1  0.79788000  0.45728000  0.71003000  1.0 -0.5904425156
O  O66  1  0.45728000  0.65940000  0.21003000  1.0 -0.5904425156
O  O67  1  0.34060000  0.79788000  0.21003000  1.0 -0.5904425156
O  O68  1  0.20212000  0.54272000  0.21003000  1.0 -0.5904425156
O  O69  1  0.34060000  0.54272000  0.28997000  1.0 -0.5904425156
O  O70  1  0.20212000  0.65940000  0.28997000  1.0 -0.5904425156
O  O71  1  0.45728000  0.79788000  0.28997000  1.0 -0.5904425156
O  O72  1  0.65940000  0.45728000  0.78997000  1.0 -0.5904425156
O  O73  1  0.79788000  0.34060000  0.78997000  1.0 -0.5904425156
O  O74  1  0.54272000  0.20212000  0.78997000  1.0 -0.5904425156
O  O75  1  0.45728000  0.65940000  0.28997000  1.0 -0.5904425156
O  O76  1  0.34060000  0.79788000  0.28997000  1.0 -0.5904425156
O  O77  1  0.20212000  0.54272000  0.28997000  1.0 -0.5904425156
O  O78  1  0.54272000  0.34060000  0.78997000  1.0 -0.5904425156
O  O79  1  0.65940000  0.20212000  0.78997000  1.0 -0.5904425156
O  O80  1  0.79788000  0.45728000  0.78997000  1.0 -0.5904425156
O  O81  1  0.65940000  0.45728000  0.71003000  1.0 -0.5904425156
O  O82  1  0.79788000  0.34060000  0.71003000  1.0 -0.5904425156
O  O83  1  0.54272000  0.20212000  0.71003000  1.0 -0.5904425156
O  O84  1  0.34060000  0.54272000  0.21003000  1.0 -0.5904425156
O  O85  1  0.20212000  0.65940000  0.21003000  1.0 -0.5904425156
O  O86  1  0.45728000  0.79788000  0.21003000  1.0 -0.5904425156
O  O87  1  0.30290000  0.15145000  0.38290000  1.0 0.1216180564
O  O88  1  0.84855000  0.15145000  0.38290000  1.0 0.1268954603
O  O89  1  0.84855000  0.69710000  0.38290000  1.0 0.1216180564
O  O90  1  0.69710000  0.84855000  0.88290000  1.0 0.1216180564
O  O91  1  0.15145000  0.84855000  0.88290000  1.0 0.1216180564
O  O92  1  0.15145000  0.30290000  0.88290000  1.0 0.1216180564
O  O93  1  0.15145000  0.30290000  0.61710000  1.0 0.1216180564
O  O94  1  0.15145000  0.84855000  0.61710000  1.0 0.1216180564
O  O95  1  0.69710000  0.84855000  0.61710000  1.0 0.1216180564
O  O96  1  0.84855000  0.69710000  0.11710000  1.0 0.1216180564
O  O97  1  0.84855000  0.15145000  0.11710000  1.0 0.1268954603
O  O98  1  0.30290000  0.15145000  0.11710000  1.0 0.1216180564
