# DDEC6 charges by PACMAN v1.1 (https://github.com/mtap-research/PACMAN-charge/)
data_YILCAZ_ASR_pacman
_symmetry_space_group_name_H-M   'P 1'
_cell_length_a   19.20870000
_cell_length_b   19.20870000
_cell_length_c   36.04200000
_cell_angle_alpha   90.00000000
_cell_angle_beta   90.00000000
_cell_angle_gamma   120.00000000
_symmetry_Int_Tables_number   1
_chemical_formula_structural   Zn6Cr3H54C102N18O61
_chemical_formula_sum   'Zn12 Cr6 H108 C204 N36 O122'
_cell_volume   11516.89643970
_cell_formula_units_Z   2
loop_
 _symmetry_equiv_pos_site_id
 _symmetry_equiv_pos_as_xyz
  1  'x, y, z'
loop_
 _atom_site_type_symbol
 _atom_site_label
 _atom_site_symmetry_multiplicity
 _atom_site_fract_x
 _atom_site_fract_y
 _atom_site_fract_z
 _atom_site_occupancy
 _atom_site_charge
Zn  Zn1  1  0.52348000  0.04696000  0.53480000  1.0 0.8177537526
Zn  Zn2  1  0.95304000  0.47652000  0.53480000  1.0 0.8177537526
Zn  Zn3  1  0.52348000  0.47652000  0.53480000  1.0 0.8177537526
Zn  Zn4  1  0.47652000  0.95304000  0.03480000  1.0 0.8177537526
Zn  Zn5  1  0.04696000  0.52348000  0.03480000  1.0 0.8177537526
Zn  Zn6  1  0.47652000  0.52348000  0.03480000  1.0 0.8177537526
Zn  Zn7  1  0.04696000  0.52348000  0.46520000  1.0 0.8177537526
Zn  Zn8  1  0.47652000  0.95304000  0.46520000  1.0 0.8177537526
Zn  Zn9  1  0.47652000  0.52348000  0.46520000  1.0 0.8177537526
Zn  Zn10  1  0.95304000  0.47652000  0.96520000  1.0 0.8177537526
Zn  Zn11  1  0.52348000  0.04696000  0.96520000  1.0 0.8177537526
Zn  Zn12  1  0.52348000  0.47652000  0.96520000  1.0 0.8177537526
Cr  Cr1  1  0.55183000  0.27592000  0.75000000  1.0 1.3630408253
Cr  Cr2  1  0.72408000  0.27592000  0.75000000  1.0 1.3630408253
Cr  Cr3  1  0.72408000  0.44817000  0.75000000  1.0 1.3630408253
Cr  Cr4  1  0.44817000  0.72408000  0.25000000  1.0 1.3630408253
Cr  Cr5  1  0.27592000  0.72408000  0.25000000  1.0 1.3630408253
Cr  Cr6  1  0.27592000  0.55183000  0.25000000  1.0 1.3630408253
H  H1  1  0.67470000  0.14250000  0.65270000  1.0 0.1313497902
H  H2  1  0.85750000  0.53220000  0.65270000  1.0 0.1313497902
H  H3  1  0.46780000  0.32530000  0.65270000  1.0 0.1313497902
H  H4  1  0.32530000  0.85750000  0.15270000  1.0 0.1313497902
H  H5  1  0.14250000  0.46780000  0.15270000  1.0 0.1313497902
H  H6  1  0.53220000  0.67470000  0.15270000  1.0 0.1313497902
H  H7  1  0.14250000  0.67470000  0.34730000  1.0 0.1313497902
H  H8  1  0.53220000  0.85750000  0.34730000  1.0 0.1313497902
H  H9  1  0.32530000  0.46780000  0.34730000  1.0 0.1313497902
H  H10  1  0.85750000  0.32530000  0.84730000  1.0 0.1313497902
H  H11  1  0.46780000  0.14250000  0.84730000  1.0 0.1313497902
H  H12  1  0.67470000  0.53220000  0.84730000  1.0 0.1313497902
H  H13  1  0.32530000  0.85750000  0.34730000  1.0 0.1313497902
H  H14  1  0.14250000  0.46780000  0.34730000  1.0 0.1313497902
H  H15  1  0.53220000  0.67470000  0.34730000  1.0 0.1313497902
H  H16  1  0.67470000  0.14250000  0.84730000  1.0 0.1313497902
H  H17  1  0.85750000  0.53220000  0.84730000  1.0 0.1313497902
H  H18  1  0.46780000  0.32530000  0.84730000  1.0 0.1313497902
H  H19  1  0.85750000  0.32530000  0.65270000  1.0 0.1313497902
H  H20  1  0.46780000  0.14250000  0.65270000  1.0 0.1313497902
H  H21  1  0.67470000  0.53220000  0.65270000  1.0 0.1313497902
H  H22  1  0.14250000  0.67470000  0.15270000  1.0 0.1313497902
H  H23  1  0.53220000  0.85750000  0.15270000  1.0 0.1313497902
H  H24  1  0.32530000  0.46780000  0.15270000  1.0 0.1313497902
H  H25  1  0.64700000  0.09270000  0.59260000  1.0 0.1105813674
H  H26  1  0.90730000  0.55430000  0.59260000  1.0 0.1105813674
H  H27  1  0.44570000  0.35300000  0.59260000  1.0 0.1105813674
H  H28  1  0.35300000  0.90730000  0.09260000  1.0 0.1105813674
H  H29  1  0.09270000  0.44570000  0.09260000  1.0 0.1105813674
H  H30  1  0.55430000  0.64700000  0.09260000  1.0 0.1014186114
H  H31  1  0.09270000  0.64700000  0.40740000  1.0 0.1105813674
H  H32  1  0.55430000  0.90730000  0.40740000  1.0 0.1105813674
H  H33  1  0.35300000  0.44570000  0.40740000  1.0 0.1105813674
H  H34  1  0.90730000  0.35300000  0.90740000  1.0 0.1105813674
H  H35  1  0.44570000  0.09270000  0.90740000  1.0 0.1105813674
H  H36  1  0.64700000  0.55430000  0.90740000  1.0 0.1105813674
H  H37  1  0.35300000  0.90730000  0.40740000  1.0 0.1105813674
H  H38  1  0.09270000  0.44570000  0.40740000  1.0 0.1105813674
H  H39  1  0.55430000  0.64700000  0.40740000  1.0 0.1105813674
H  H40  1  0.64700000  0.09270000  0.90740000  1.0 0.1105813674
H  H41  1  0.90730000  0.55430000  0.90740000  1.0 0.1014186114
H  H42  1  0.44570000  0.35300000  0.90740000  1.0 0.1105813674
H  H43  1  0.90730000  0.35300000  0.59260000  1.0 0.1105813674
H  H44  1  0.44570000  0.09270000  0.59260000  1.0 0.1105813674
H  H45  1  0.64700000  0.55430000  0.59260000  1.0 0.1105813674
H  H46  1  0.09270000  0.64700000  0.09260000  1.0 0.1105813674
H  H47  1  0.55430000  0.90730000  0.09260000  1.0 0.1105813674
H  H48  1  0.35300000  0.44570000  0.09260000  1.0 0.1105813674
H  H49  1  0.23730000  0.76270000  0.50140000  1.0 0.1394448687
H  H50  1  0.23730000  0.47460000  0.50140000  1.0 0.1394448687
H  H51  1  0.52540000  0.76270000  0.50140000  1.0 0.1394448687
H  H52  1  0.76270000  0.23730000  0.00140000  1.0 0.1394448687
H  H53  1  0.76270000  0.52540000  0.00140000  1.0 0.1394448687
H  H54  1  0.47460000  0.23730000  0.00140000  1.0 0.1394448687
H  H55  1  0.76270000  0.23730000  0.49860000  1.0 0.1394448687
H  H56  1  0.47460000  0.23730000  0.49860000  1.0 0.1394448687
H  H57  1  0.76270000  0.52540000  0.49860000  1.0 0.1394448687
H  H58  1  0.23730000  0.76270000  0.99860000  1.0 0.1394448687
H  H59  1  0.52540000  0.76270000  0.99860000  1.0 0.1394448687
H  H60  1  0.23730000  0.47460000  0.99860000  1.0 0.1394448687
H  H61  1  0.28620000  0.91890000  0.58370000  1.0 0.1105813674
H  H62  1  0.08110000  0.36730000  0.58370000  1.0 0.1105813674
H  H63  1  0.63270000  0.71380000  0.58370000  1.0 0.1105813674
H  H64  1  0.71380000  0.08110000  0.08370000  1.0 0.1105813674
H  H65  1  0.91890000  0.63270000  0.08370000  1.0 0.1105813674
H  H66  1  0.36730000  0.28620000  0.08370000  1.0 0.1105813674
H  H67  1  0.91890000  0.28620000  0.41630000  1.0 0.1105813674
H  H68  1  0.36730000  0.08110000  0.41630000  1.0 0.1105813674
H  H69  1  0.71380000  0.63270000  0.41630000  1.0 0.1105813674
H  H70  1  0.08110000  0.71380000  0.91630000  1.0 0.1105813674
H  H71  1  0.63270000  0.91890000  0.91630000  1.0 0.1105813674
H  H72  1  0.28620000  0.36730000  0.91630000  1.0 0.1105813674
H  H73  1  0.71380000  0.08110000  0.41630000  1.0 0.1105813674
H  H74  1  0.91890000  0.63270000  0.41630000  1.0 0.1105813674
H  H75  1  0.36730000  0.28620000  0.41630000  1.0 0.1105813674
H  H76  1  0.28620000  0.91890000  0.91630000  1.0 0.1105813674
H  H77  1  0.08110000  0.36730000  0.91630000  1.0 0.1105813674
H  H78  1  0.63270000  0.71380000  0.91630000  1.0 0.1105813674
H  H79  1  0.08110000  0.71380000  0.58370000  1.0 0.1105813674
H  H80  1  0.63270000  0.91890000  0.58370000  1.0 0.1105813674
H  H81  1  0.28620000  0.36730000  0.58370000  1.0 0.1105813674
H  H82  1  0.91890000  0.28620000  0.08370000  1.0 0.1105813674
H  H83  1  0.36730000  0.08110000  0.08370000  1.0 0.1105813674
H  H84  1  0.71380000  0.63270000  0.08370000  1.0 0.1105813674
H  H85  1  0.29840000  0.91210000  0.58750000  1.0 0.1105813674
H  H86  1  0.08790000  0.38630000  0.58750000  1.0 0.1105813674
H  H87  1  0.61370000  0.70160000  0.58750000  1.0 0.1105813674
H  H88  1  0.70160000  0.08790000  0.08750000  1.0 0.1105813674
H  H89  1  0.91210000  0.61370000  0.08750000  1.0 0.1105813674
H  H90  1  0.38630000  0.29840000  0.08750000  1.0 0.1105813674
H  H91  1  0.91210000  0.29840000  0.41250000  1.0 0.1105813674
H  H92  1  0.38630000  0.08790000  0.41250000  1.0 0.1105813674
H  H93  1  0.70160000  0.61370000  0.41250000  1.0 0.1105813674
H  H94  1  0.08790000  0.70160000  0.91250000  1.0 0.1105813674
H  H95  1  0.61370000  0.91210000  0.91250000  1.0 0.1105813674
H  H96  1  0.29840000  0.38630000  0.91250000  1.0 0.1105813674
H  H97  1  0.70160000  0.08790000  0.41250000  1.0 0.1105813674
H  H98  1  0.91210000  0.61370000  0.41250000  1.0 0.1105813674
H  H99  1  0.38630000  0.29840000  0.41250000  1.0 0.1105813674
H  H100  1  0.29840000  0.91210000  0.91250000  1.0 0.1105813674
H  H101  1  0.08790000  0.38630000  0.91250000  1.0 0.1105813674
H  H102  1  0.61370000  0.70160000  0.91250000  1.0 0.1105813674
H  H103  1  0.08790000  0.70160000  0.58750000  1.0 0.1105813674
H  H104  1  0.61370000  0.91210000  0.58750000  1.0 0.1105813674
H  H105  1  0.29840000  0.38630000  0.58750000  1.0 0.1105813674
H  H106  1  0.91210000  0.29840000  0.08750000  1.0 0.1105813674
H  H107  1  0.38630000  0.08790000  0.08750000  1.0 0.1105813674
H  H108  1  0.70160000  0.61370000  0.08750000  1.0 0.1105813674
C  C1  1  0.59360000  0.18720000  0.69665000  1.0 0.6016652243
C  C2  1  0.81280000  0.40640000  0.69665000  1.0 0.6016652243
C  C3  1  0.59360000  0.40640000  0.69665000  1.0 0.6016652243
C  C4  1  0.40640000  0.81280000  0.19665000  1.0 0.6016652243
C  C5  1  0.18720000  0.59360000  0.19665000  1.0 0.6016652243
C  C6  1  0.40640000  0.59360000  0.19665000  1.0 0.6016652243
C  C7  1  0.18720000  0.59360000  0.30335000  1.0 0.6016652243
C  C8  1  0.40640000  0.81280000  0.30335000  1.0 0.6016652243
C  C9  1  0.40640000  0.59360000  0.30335000  1.0 0.6016652243
C  C10  1  0.81280000  0.40640000  0.80335000  1.0 0.6016652243
C  C11  1  0.59360000  0.18720000  0.80335000  1.0 0.6016652243
C  C12  1  0.59360000  0.40640000  0.80335000  1.0 0.6016652243
C  C13  1  0.57445000  0.14890000  0.65860000  1.0 0.0193964044
C  C14  1  0.85110000  0.42555000  0.65860000  1.0 0.0193964044
C  C15  1  0.57445000  0.42555000  0.65860000  1.0 0.0193964044
C  C16  1  0.42555000  0.85110000  0.15860000  1.0 0.0193964044
C  C17  1  0.14890000  0.57445000  0.15860000  1.0 0.0193964044
C  C18  1  0.42555000  0.57445000  0.15860000  1.0 0.0193964044
C  C19  1  0.14890000  0.57445000  0.34140000  1.0 0.0193964044
C  C20  1  0.42555000  0.85110000  0.34140000  1.0 0.0193964044
C  C21  1  0.42555000  0.57445000  0.34140000  1.0 0.0193964044
C  C22  1  0.85110000  0.42555000  0.84140000  1.0 0.0193964044
C  C23  1  0.57445000  0.14890000  0.84140000  1.0 0.0193964044
C  C24  1  0.57445000  0.42555000  0.84140000  1.0 0.0193964044
C  C25  1  0.62720000  0.13330000  0.64084000  1.0 -0.1476009879
C  C26  1  0.86670000  0.49390000  0.64084000  1.0 -0.1476009879
C  C27  1  0.50610000  0.37280000  0.64084000  1.0 -0.1476009879
C  C28  1  0.37280000  0.86670000  0.14084000  1.0 -0.1476009879
C  C29  1  0.13330000  0.50610000  0.14084000  1.0 -0.1476009879
C  C30  1  0.49390000  0.62720000  0.14084000  1.0 -0.1476009879
C  C31  1  0.13330000  0.62720000  0.35916000  1.0 -0.1476009879
C  C32  1  0.49390000  0.86670000  0.35916000  1.0 -0.1476009879
C  C33  1  0.37280000  0.50610000  0.35916000  1.0 -0.1476009879
C  C34  1  0.86670000  0.37280000  0.85916000  1.0 -0.1476009879
C  C35  1  0.50610000  0.13330000  0.85916000  1.0 -0.1476009879
C  C36  1  0.62720000  0.49390000  0.85916000  1.0 -0.1476009879
C  C37  1  0.37280000  0.86670000  0.35916000  1.0 -0.1476009879
C  C38  1  0.13330000  0.50610000  0.35916000  1.0 -0.1476009879
C  C39  1  0.49390000  0.62720000  0.35916000  1.0 -0.1476009879
C  C40  1  0.62720000  0.13330000  0.85916000  1.0 -0.1476009879
C  C41  1  0.86670000  0.49390000  0.85916000  1.0 -0.1476009879
C  C42  1  0.50610000  0.37280000  0.85916000  1.0 -0.1476009879
C  C43  1  0.86670000  0.37280000  0.64084000  1.0 -0.1476009879
C  C44  1  0.50610000  0.13330000  0.64084000  1.0 -0.1476009879
C  C45  1  0.62720000  0.49390000  0.64084000  1.0 -0.1476009879
C  C46  1  0.13330000  0.62720000  0.14084000  1.0 -0.1476009879
C  C47  1  0.49390000  0.86670000  0.14084000  1.0 -0.1476009879
C  C48  1  0.37280000  0.50610000  0.14084000  1.0 -0.1476009879
C  C49  1  0.61010000  0.10340000  0.60486000  1.0 -0.0009387364
C  C50  1  0.89660000  0.50670000  0.60486000  1.0 -0.0009387364
C  C51  1  0.49330000  0.38990000  0.60486000  1.0 -0.0009387364
C  C52  1  0.38990000  0.89660000  0.10486000  1.0 -0.0009387364
C  C53  1  0.10340000  0.49330000  0.10486000  1.0 -0.0009387364
C  C54  1  0.50670000  0.61010000  0.10486000  1.0 0.0017974412
C  C55  1  0.10340000  0.61010000  0.39514000  1.0 -0.0009387364
C  C56  1  0.50670000  0.89660000  0.39514000  1.0 -0.0009387364
C  C57  1  0.38990000  0.49330000  0.39514000  1.0 -0.0009387364
C  C58  1  0.89660000  0.38990000  0.89514000  1.0 -0.0009387364
C  C59  1  0.49330000  0.10340000  0.89514000  1.0 -0.0009387364
C  C60  1  0.61010000  0.50670000  0.89514000  1.0 -0.0009387364
C  C61  1  0.38990000  0.89660000  0.39514000  1.0 -0.0009387364
C  C62  1  0.10340000  0.49330000  0.39514000  1.0 -0.0009387364
C  C63  1  0.50670000  0.61010000  0.39514000  1.0 -0.0009387364
C  C64  1  0.61010000  0.10340000  0.89514000  1.0 -0.0009387364
C  C65  1  0.89660000  0.50670000  0.89514000  1.0 -0.0009387364
C  C66  1  0.49330000  0.38990000  0.89514000  1.0 -0.0009387364
C  C67  1  0.89660000  0.38990000  0.60486000  1.0 -0.0009387364
C  C68  1  0.49330000  0.10340000  0.60486000  1.0 -0.0009387364
C  C69  1  0.61010000  0.50670000  0.60486000  1.0 -0.0009387364
C  C70  1  0.10340000  0.61010000  0.10486000  1.0 -0.0009387364
C  C71  1  0.50670000  0.89660000  0.10486000  1.0 -0.0009387364
C  C72  1  0.38990000  0.49330000  0.10486000  1.0 -0.0009387364
C  C73  1  0.35740000  0.90283000  0.52361000  1.0 0.5504301395
C  C74  1  0.09717000  0.45457000  0.52361000  1.0 0.5504301395
C  C75  1  0.54543000  0.64260000  0.52361000  1.0 0.5504301395
C  C76  1  0.64260000  0.09717000  0.02361000  1.0 0.5504301395
C  C77  1  0.90283000  0.54543000  0.02361000  1.0 0.5504301395
C  C78  1  0.45457000  0.35740000  0.02361000  1.0 0.5504301395
C  C79  1  0.90283000  0.35740000  0.47639000  1.0 0.5504301395
C  C80  1  0.45457000  0.09717000  0.47639000  1.0 0.5504301395
C  C81  1  0.64260000  0.54543000  0.47639000  1.0 0.5504301395
C  C82  1  0.09717000  0.64260000  0.97639000  1.0 0.5504301395
C  C83  1  0.54543000  0.90283000  0.97639000  1.0 0.5504301395
C  C84  1  0.35740000  0.45457000  0.97639000  1.0 0.5504301395
C  C85  1  0.64260000  0.09717000  0.47639000  1.0 0.5504301395
C  C86  1  0.90283000  0.54543000  0.47639000  1.0 0.5504301395
C  C87  1  0.45457000  0.35740000  0.47639000  1.0 0.5504301395
C  C88  1  0.35740000  0.90283000  0.97639000  1.0 0.5504301395
C  C89  1  0.09717000  0.45457000  0.97639000  1.0 0.5504301395
C  C90  1  0.54543000  0.64260000  0.97639000  1.0 0.5504301395
C  C91  1  0.09717000  0.64260000  0.52361000  1.0 0.5504301395
C  C92  1  0.54543000  0.90283000  0.52361000  1.0 0.5504301395
C  C93  1  0.35740000  0.45457000  0.52361000  1.0 0.5504301395
C  C94  1  0.90283000  0.35740000  0.02361000  1.0 0.5504301395
C  C95  1  0.45457000  0.09717000  0.02361000  1.0 0.5504301395
C  C96  1  0.64260000  0.54543000  0.02361000  1.0 0.5504301395
C  C97  1  0.27750000  0.84831000  0.54023000  1.0 0.0193964044
C  C98  1  0.15169000  0.42919000  0.54023000  1.0 0.0193964044
C  C99  1  0.57081000  0.72250000  0.54023000  1.0 0.0193964044
C  C100  1  0.72250000  0.15169000  0.04023000  1.0 0.0193964044
C  C101  1  0.84831000  0.57081000  0.04023000  1.0 0.0193964044
C  C102  1  0.42919000  0.27750000  0.04023000  1.0 0.0193964044
C  C103  1  0.84831000  0.27750000  0.45977000  1.0 0.0193964044
C  C104  1  0.42919000  0.15169000  0.45977000  1.0 0.0193964044
C  C105  1  0.72250000  0.57081000  0.45977000  1.0 0.0193964044
C  C106  1  0.15169000  0.72250000  0.95977000  1.0 0.0193964044
C  C107  1  0.57081000  0.84831000  0.95977000  1.0 0.0193964044
C  C108  1  0.27750000  0.42919000  0.95977000  1.0 0.0193964044
C  C109  1  0.72250000  0.15169000  0.45977000  1.0 0.0193964044
C  C110  1  0.84831000  0.57081000  0.45977000  1.0 0.0193964044
C  C111  1  0.42919000  0.27750000  0.45977000  1.0 0.0193964044
C  C112  1  0.27750000  0.84831000  0.95977000  1.0 0.0193964044
C  C113  1  0.15169000  0.42919000  0.95977000  1.0 0.0193964044
C  C114  1  0.57081000  0.72250000  0.95977000  1.0 0.0193964044
C  C115  1  0.15169000  0.72250000  0.54023000  1.0 0.0193964044
C  C116  1  0.57081000  0.84831000  0.54023000  1.0 0.0193964044
C  C117  1  0.27750000  0.42919000  0.54023000  1.0 0.0193964044
C  C118  1  0.84831000  0.27750000  0.04023000  1.0 0.0193964044
C  C119  1  0.42919000  0.15169000  0.04023000  1.0 0.0193964044
C  C120  1  0.72250000  0.57081000  0.04023000  1.0 0.0193964044
C  C121  1  0.22391000  0.77609000  0.52434000  1.0 -0.1187403457
C  C122  1  0.22391000  0.44782000  0.52434000  1.0 -0.1187403457
C  C123  1  0.55218000  0.77609000  0.52434000  1.0 -0.1187403457
C  C124  1  0.77609000  0.22391000  0.02434000  1.0 -0.1187403457
C  C125  1  0.77609000  0.55218000  0.02434000  1.0 -0.1187403457
C  C126  1  0.44782000  0.22391000  0.02434000  1.0 -0.1187403457
C  C127  1  0.77609000  0.22391000  0.47566000  1.0 -0.1187403457
C  C128  1  0.44782000  0.22391000  0.47566000  1.0 -0.1187403457
C  C129  1  0.77609000  0.55218000  0.47566000  1.0 -0.1187403457
C  C130  1  0.22391000  0.77609000  0.97566000  1.0 -0.1187403457
C  C131  1  0.55218000  0.77609000  0.97566000  1.0 -0.1187403457
C  C132  1  0.22391000  0.44782000  0.97566000  1.0 -0.1187403457
C  C133  1  0.17650000  0.82350000  0.58460000  1.0 0.0860229432
C  C134  1  0.17650000  0.35300000  0.58460000  1.0 0.0860229432
C  C135  1  0.64700000  0.82350000  0.58460000  1.0 0.0860229432
C  C136  1  0.82350000  0.17650000  0.08460000  1.0 0.0860229432
C  C137  1  0.82350000  0.64700000  0.08460000  1.0 0.0860229432
C  C138  1  0.35300000  0.17650000  0.08460000  1.0 0.0860229432
C  C139  1  0.82350000  0.17650000  0.41540000  1.0 0.0860229432
C  C140  1  0.35300000  0.17650000  0.41540000  1.0 0.0860229432
C  C141  1  0.82350000  0.64700000  0.41540000  1.0 0.0860229432
C  C142  1  0.17650000  0.82350000  0.91540000  1.0 0.0860229432
C  C143  1  0.64700000  0.82350000  0.91540000  1.0 0.0860229432
C  C144  1  0.17650000  0.35300000  0.91540000  1.0 0.0860229432
C  C145  1  0.25130000  0.87050000  0.57155000  1.0 -0.1826246909
C  C146  1  0.12950000  0.38080000  0.57155000  1.0 -0.1826246909
C  C147  1  0.61920000  0.74870000  0.57155000  1.0 -0.1826246909
C  C148  1  0.74870000  0.12950000  0.07155000  1.0 -0.1826246909
C  C149  1  0.87050000  0.61920000  0.07155000  1.0 -0.1826246909
C  C150  1  0.38080000  0.25130000  0.07155000  1.0 -0.1826246909
C  C151  1  0.87050000  0.25130000  0.42845000  1.0 -0.1826246909
C  C152  1  0.38080000  0.12950000  0.42845000  1.0 -0.1826246909
C  C153  1  0.74870000  0.61920000  0.42845000  1.0 -0.1826246909
C  C154  1  0.12950000  0.74870000  0.92845000  1.0 -0.1826246909
C  C155  1  0.61920000  0.87050000  0.92845000  1.0 -0.1826246909
C  C156  1  0.25130000  0.38080000  0.92845000  1.0 -0.1826246909
C  C157  1  0.74870000  0.12950000  0.42845000  1.0 -0.1826246909
C  C158  1  0.87050000  0.61920000  0.42845000  1.0 -0.1826246909
C  C159  1  0.38080000  0.25130000  0.42845000  1.0 -0.1826246909
C  C160  1  0.25130000  0.87050000  0.92845000  1.0 -0.1826246909
C  C161  1  0.12950000  0.38080000  0.92845000  1.0 -0.1826246909
C  C162  1  0.61920000  0.74870000  0.92845000  1.0 -0.1826246909
C  C163  1  0.12950000  0.74870000  0.57155000  1.0 -0.1826246909
C  C164  1  0.61920000  0.87050000  0.57155000  1.0 -0.1826246909
C  C165  1  0.25130000  0.38080000  0.57155000  1.0 -0.1826246909
C  C166  1  0.87050000  0.25130000  0.07155000  1.0 -0.1826246909
C  C167  1  0.38080000  0.12950000  0.07155000  1.0 -0.1826246909
C  C168  1  0.74870000  0.61920000  0.07155000  1.0 -0.1826246909
C  C169  1  0.26180000  0.86400000  0.57554000  1.0 -0.1694146067
C  C170  1  0.13600000  0.39780000  0.57554000  1.0 -0.1694146067
C  C171  1  0.60220000  0.73820000  0.57554000  1.0 -0.1694146067
C  C172  1  0.73820000  0.13600000  0.07554000  1.0 -0.1694146067
C  C173  1  0.86400000  0.60220000  0.07554000  1.0 -0.1694146067
C  C174  1  0.39780000  0.26180000  0.07554000  1.0 -0.1694146067
C  C175  1  0.86400000  0.26180000  0.42446000  1.0 -0.1694146067
C  C176  1  0.39780000  0.13600000  0.42446000  1.0 -0.1694146067
C  C177  1  0.73820000  0.60220000  0.42446000  1.0 -0.1694146067
C  C178  1  0.13600000  0.73820000  0.92446000  1.0 -0.1694146067
C  C179  1  0.60220000  0.86400000  0.92446000  1.0 -0.1694146067
C  C180  1  0.26180000  0.39780000  0.92446000  1.0 -0.1694146067
C  C181  1  0.73820000  0.13600000  0.42446000  1.0 -0.1694146067
C  C182  1  0.86400000  0.60220000  0.42446000  1.0 -0.1694146067
C  C183  1  0.39780000  0.26180000  0.42446000  1.0 -0.1694146067
C  C184  1  0.26180000  0.86400000  0.92446000  1.0 -0.1694146067
C  C185  1  0.13600000  0.39780000  0.92446000  1.0 -0.1694146067
C  C186  1  0.60220000  0.73820000  0.92446000  1.0 -0.1694146067
C  C187  1  0.13600000  0.73820000  0.57554000  1.0 -0.1694146067
C  C188  1  0.60220000  0.86400000  0.57554000  1.0 -0.1694146067
C  C189  1  0.26180000  0.39780000  0.57554000  1.0 -0.1694146067
C  C190  1  0.86400000  0.26180000  0.07554000  1.0 -0.1694146067
C  C191  1  0.39780000  0.13600000  0.07554000  1.0 -0.1694146067
C  C192  1  0.73820000  0.60220000  0.07554000  1.0 -0.1694146067
C  C193  1  0.19140000  0.80860000  0.59340000  1.0 0.123309932
C  C194  1  0.19140000  0.38280000  0.59340000  1.0 0.123309932
C  C195  1  0.61720000  0.80860000  0.59340000  1.0 0.123309932
C  C196  1  0.80860000  0.19140000  0.09340000  1.0 0.123309932
C  C197  1  0.80860000  0.61720000  0.09340000  1.0 0.123309932
C  C198  1  0.38280000  0.19140000  0.09340000  1.0 0.123309932
C  C199  1  0.80860000  0.19140000  0.40660000  1.0 0.123309932
C  C200  1  0.38280000  0.19140000  0.40660000  1.0 0.123309932
C  C201  1  0.80860000  0.61720000  0.40660000  1.0 0.123309932
C  C202  1  0.19140000  0.80860000  0.90660000  1.0 0.123309932
C  C203  1  0.61720000  0.80860000  0.90660000  1.0 0.123309932
C  C204  1  0.19140000  0.38280000  0.90660000  1.0 0.123309932
N  N1  1  0.54466000  0.08933000  0.58725000  1.0 -0.1649933253
N  N2  1  0.91067000  0.45533000  0.58725000  1.0 -0.1694146067
N  N3  1  0.54466000  0.45533000  0.58725000  1.0 -0.1694146067
N  N4  1  0.45533000  0.91067000  0.08725000  1.0 -0.1694146067
N  N5  1  0.08933000  0.54466000  0.08725000  1.0 -0.1694146067
N  N6  1  0.45533000  0.54466000  0.08725000  1.0 -0.1694146067
N  N7  1  0.08933000  0.54466000  0.41275000  1.0 -0.1694146067
N  N8  1  0.45533000  0.91067000  0.41275000  1.0 -0.1694146067
N  N9  1  0.45533000  0.54466000  0.41275000  1.0 -0.1694146067
N  N10  1  0.91067000  0.45533000  0.91275000  1.0 -0.1694146067
N  N11  1  0.54466000  0.08933000  0.91275000  1.0 -0.1694146067
N  N12  1  0.54466000  0.45533000  0.91275000  1.0 -0.1694146067
N  N13  1  0.15180000  0.84820000  0.61880000  1.0 0.1014186114
N  N14  1  0.15180000  0.30360000  0.61880000  1.0 0.1014186114
N  N15  1  0.69640000  0.84820000  0.61880000  1.0 0.1014186114
N  N16  1  0.84820000  0.15180000  0.11880000  1.0 0.1014186114
N  N17  1  0.84820000  0.69640000  0.11880000  1.0 0.1014186114
N  N18  1  0.30360000  0.15180000  0.11880000  1.0 0.1014186114
N  N19  1  0.84820000  0.15180000  0.38120000  1.0 0.1014186114
N  N20  1  0.30360000  0.15180000  0.38120000  1.0 0.1014186114
N  N21  1  0.84820000  0.69640000  0.38120000  1.0 0.1014186114
N  N22  1  0.15180000  0.84820000  0.88120000  1.0 0.1014186114
N  N23  1  0.69640000  0.84820000  0.88120000  1.0 0.1014186114
N  N24  1  0.15180000  0.30360000  0.88120000  1.0 0.1014186114
N  N25  1  0.17520000  0.82480000  0.63280000  1.0 0.1668080222
N  N26  1  0.17520000  0.35040000  0.63280000  1.0 0.147456957
N  N27  1  0.64960000  0.82480000  0.63280000  1.0 0.1668080222
N  N28  1  0.82480000  0.17520000  0.13280000  1.0 0.147456957
N  N29  1  0.82480000  0.64960000  0.13280000  1.0 0.1394448687
N  N30  1  0.35040000  0.17520000  0.13280000  1.0 0.147456957
N  N31  1  0.82480000  0.17520000  0.36720000  1.0 0.147456957
N  N32  1  0.35040000  0.17520000  0.36720000  1.0 0.147456957
N  N33  1  0.82480000  0.64960000  0.36720000  1.0 0.1394448687
N  N34  1  0.17520000  0.82480000  0.86720000  1.0 0.147456957
N  N35  1  0.64960000  0.82480000  0.86720000  1.0 0.147456957
N  N36  1  0.17520000  0.35040000  0.86720000  1.0 0.147456957
O  O1  1  0.66666667  0.33333333  0.75000000  1.0 -1.0942808185
O  O2  1  0.33333333  0.66666667  0.25000000  1.0 -1.0942808185
O  O3  1  0.54265000  0.20215000  0.71013000  1.0 -0.5810034816
O  O4  1  0.79785000  0.34050000  0.71013000  1.0 -0.5810034816
O  O5  1  0.65950000  0.45735000  0.71013000  1.0 -0.5810034816
O  O6  1  0.45735000  0.79785000  0.21013000  1.0 -0.5810034816
O  O7  1  0.20215000  0.65950000  0.21013000  1.0 -0.5810034816
O  O8  1  0.34050000  0.54265000  0.21013000  1.0 -0.5810034816
O  O9  1  0.20215000  0.54265000  0.28987000  1.0 -0.5810034816
O  O10  1  0.34050000  0.79785000  0.28987000  1.0 -0.5810034816
O  O11  1  0.45735000  0.65950000  0.28987000  1.0 -0.5810034816
O  O12  1  0.79785000  0.45735000  0.78987000  1.0 -0.5810034816
O  O13  1  0.65950000  0.20215000  0.78987000  1.0 -0.5810034816
O  O14  1  0.54265000  0.34050000  0.78987000  1.0 -0.5810034816
O  O15  1  0.45735000  0.79785000  0.28987000  1.0 -0.5810034816
O  O16  1  0.20215000  0.65950000  0.28987000  1.0 -0.5810034816
O  O17  1  0.34050000  0.54265000  0.28987000  1.0 -0.5810034816
O  O18  1  0.54265000  0.20215000  0.78987000  1.0 -0.5810034816
O  O19  1  0.79785000  0.34050000  0.78987000  1.0 -0.5810034816
O  O20  1  0.65950000  0.45735000  0.78987000  1.0 -0.5810034816
O  O21  1  0.79785000  0.45735000  0.71013000  1.0 -0.5810034816
O  O22  1  0.65950000  0.20215000  0.71013000  1.0 -0.5810034816
O  O23  1  0.54265000  0.34050000  0.71013000  1.0 -0.5810034816
O  O24  1  0.20215000  0.54265000  0.21013000  1.0 -0.5810034816
O  O25  1  0.34050000  0.79785000  0.21013000  1.0 -0.5810034816
O  O26  1  0.45735000  0.65950000  0.21013000  1.0 -0.5810034816
O  O27  1  0.40591000  0.96147000  0.54257000  1.0 -0.5309953386
O  O28  1  0.03853000  0.44444000  0.54257000  1.0 -0.5309953386
O  O29  1  0.55556000  0.59409000  0.54257000  1.0 -0.5309953386
O  O30  1  0.59409000  0.03853000  0.04257000  1.0 -0.5309953386
O  O31  1  0.96147000  0.55556000  0.04257000  1.0 -0.5309953386
O  O32  1  0.44444000  0.40591000  0.04257000  1.0 -0.5309953386
O  O33  1  0.96147000  0.40591000  0.45743000  1.0 -0.5309953386
O  O34  1  0.44444000  0.03853000  0.45743000  1.0 -0.5309953386
O  O35  1  0.59409000  0.55556000  0.45743000  1.0 -0.5309953386
O  O36  1  0.03853000  0.59409000  0.95743000  1.0 -0.5309953386
O  O37  1  0.55556000  0.96147000  0.95743000  1.0 -0.5309953386
O  O38  1  0.40591000  0.44444000  0.95743000  1.0 -0.5309953386
O  O39  1  0.59409000  0.03853000  0.45743000  1.0 -0.5309953386
O  O40  1  0.96147000  0.55556000  0.45743000  1.0 -0.5309953386
O  O41  1  0.44444000  0.40591000  0.45743000  1.0 -0.5309953386
O  O42  1  0.40591000  0.96147000  0.95743000  1.0 -0.5309953386
O  O43  1  0.03853000  0.44444000  0.95743000  1.0 -0.5309953386
O  O44  1  0.55556000  0.59409000  0.95743000  1.0 -0.5309953386
O  O45  1  0.03853000  0.59409000  0.54257000  1.0 -0.5309953386
O  O46  1  0.55556000  0.96147000  0.54257000  1.0 -0.5309953386
O  O47  1  0.40591000  0.44444000  0.54257000  1.0 -0.5309953386
O  O48  1  0.96147000  0.40591000  0.04257000  1.0 -0.5309953386
O  O49  1  0.44444000  0.03853000  0.04257000  1.0 -0.5309953386
O  O50  1  0.59409000  0.55556000  0.04257000  1.0 -0.5309953386
O  O51  1  0.36976000  0.88643000  0.49164000  1.0 -0.5000500388
O  O52  1  0.11357000  0.48333000  0.49164000  1.0 -0.5000500388
O  O53  1  0.51667000  0.63024000  0.49164000  1.0 -0.5000500388
O  O54  1  0.63024000  0.11357000  0.99164000  1.0 -0.5000500388
O  O55  1  0.88643000  0.51667000  0.99164000  1.0 -0.5000500388
O  O56  1  0.48333000  0.36976000  0.99164000  1.0 -0.5000500388
O  O57  1  0.88643000  0.36976000  0.50836000  1.0 -0.5000500388
O  O58  1  0.48333000  0.11357000  0.50836000  1.0 -0.5000500388
O  O59  1  0.63024000  0.51667000  0.50836000  1.0 -0.5000500388
O  O60  1  0.11357000  0.63024000  0.00836000  1.0 -0.5000500388
O  O61  1  0.51667000  0.88643000  0.00836000  1.0 -0.5000500388
O  O62  1  0.36976000  0.48333000  0.00836000  1.0 -0.5000500388
O  O63  1  0.63024000  0.11357000  0.50836000  1.0 -0.5000500388
O  O64  1  0.88643000  0.51667000  0.50836000  1.0 -0.5000500388
O  O65  1  0.48333000  0.36976000  0.50836000  1.0 -0.5000500388
O  O66  1  0.36976000  0.88643000  0.00836000  1.0 -0.5000500388
O  O67  1  0.11357000  0.48333000  0.00836000  1.0 -0.5000500388
O  O68  1  0.51667000  0.63024000  0.00836000  1.0 -0.5000500388
O  O69  1  0.11357000  0.63024000  0.49164000  1.0 -0.5000500388
O  O70  1  0.51667000  0.88643000  0.49164000  1.0 -0.5000500388
O  O71  1  0.36976000  0.48333000  0.49164000  1.0 -0.5000500388
O  O72  1  0.88643000  0.36976000  0.99164000  1.0 -0.5000500388
O  O73  1  0.48333000  0.11357000  0.99164000  1.0 -0.5000500388
O  O74  1  0.63024000  0.51667000  0.99164000  1.0 -0.5000500388
O  O75  1  0.19510000  0.91140000  0.63230000  1.0 0.0017974412
O  O76  1  0.08860000  0.28370000  0.63230000  1.0 0.0070996781
O  O77  1  0.71630000  0.80490000  0.63230000  1.0 0.0017974412
O  O78  1  0.80490000  0.08860000  0.13230000  1.0 0.0070996781
O  O79  1  0.91140000  0.71630000  0.13230000  1.0 0.0070996781
O  O80  1  0.28370000  0.19510000  0.13230000  1.0 0.0070996781
O  O81  1  0.91140000  0.19510000  0.36770000  1.0 0.0070996781
O  O82  1  0.28370000  0.08860000  0.36770000  1.0 0.0070996781
O  O83  1  0.80490000  0.71630000  0.36770000  1.0 0.0070996781
O  O84  1  0.08860000  0.80490000  0.86770000  1.0 0.0070996781
O  O85  1  0.71630000  0.91140000  0.86770000  1.0 0.0070996781
O  O86  1  0.19510000  0.28370000  0.86770000  1.0 0.0070996781
O  O87  1  0.80490000  0.08860000  0.36770000  1.0 0.0070996781
O  O88  1  0.91140000  0.71630000  0.36770000  1.0 0.0070996781
O  O89  1  0.28370000  0.19510000  0.36770000  1.0 0.0070996781
O  O90  1  0.19510000  0.91140000  0.86770000  1.0 0.0070996781
O  O91  1  0.08860000  0.28370000  0.86770000  1.0 0.0070996781
O  O92  1  0.71630000  0.80490000  0.86770000  1.0 0.0070996781
O  O93  1  0.08860000  0.80490000  0.63230000  1.0 0.0017974412
O  O94  1  0.71630000  0.91140000  0.63230000  1.0 0.0017974412
O  O95  1  0.19510000  0.28370000  0.63230000  1.0 0.0070996781
O  O96  1  0.91140000  0.19510000  0.13230000  1.0 0.0070996781
O  O97  1  0.28370000  0.08860000  0.13230000  1.0 0.0070996781
O  O98  1  0.80490000  0.71630000  0.13230000  1.0 0.0070996781
O  O99  1  0.22990000  0.89060000  0.64680000  1.0 -0.0507151153
O  O100  1  0.10940000  0.33930000  0.64680000  1.0 -0.0507151153
O  O101  1  0.66070000  0.77010000  0.64680000  1.0 -0.0507151153
O  O102  1  0.77010000  0.10940000  0.14680000  1.0 -0.0507151153
O  O103  1  0.89060000  0.66070000  0.14680000  1.0 -0.0507151153
O  O104  1  0.33930000  0.22990000  0.14680000  1.0 -0.0507151153
O  O105  1  0.89060000  0.22990000  0.35320000  1.0 -0.0507151153
O  O106  1  0.33930000  0.10940000  0.35320000  1.0 -0.0507151153
O  O107  1  0.77010000  0.66070000  0.35320000  1.0 -0.0507151153
O  O108  1  0.10940000  0.77010000  0.85320000  1.0 -0.0507151153
O  O109  1  0.66070000  0.89060000  0.85320000  1.0 -0.0507151153
O  O110  1  0.22990000  0.33930000  0.85320000  1.0 -0.0507151153
O  O111  1  0.77010000  0.10940000  0.35320000  1.0 -0.0507151153
O  O112  1  0.89060000  0.66070000  0.35320000  1.0 -0.0507151153
O  O113  1  0.33930000  0.22990000  0.35320000  1.0 -0.0507151153
O  O114  1  0.22990000  0.89060000  0.85320000  1.0 -0.0507151153
O  O115  1  0.10940000  0.33930000  0.85320000  1.0 -0.0507151153
O  O116  1  0.66070000  0.77010000  0.85320000  1.0 -0.0507151153
O  O117  1  0.10940000  0.77010000  0.64680000  1.0 -0.0507151153
O  O118  1  0.66070000  0.89060000  0.64680000  1.0 -0.0507151153
O  O119  1  0.22990000  0.33930000  0.64680000  1.0 -0.0507151153
O  O120  1  0.89060000  0.22990000  0.14680000  1.0 -0.0507151153
O  O121  1  0.33930000  0.10940000  0.14680000  1.0 -0.0507151153
O  O122  1  0.77010000  0.66070000  0.14680000  1.0 -0.0507151153
