# DDEC6 charges by PACMAN v1.1 (https://github.com/mtap-research/PACMAN-charge/)
data_YINXIE_ASR_pacman
_symmetry_space_group_name_H-M   'P 1'
_cell_length_a   11.19200000
_cell_length_b   12.40100000
_cell_length_c   12.56600000
_cell_angle_alpha   64.42400000
_cell_angle_beta   75.58600000
_cell_angle_gamma   80.44600000
_symmetry_Int_Tables_number   1
_chemical_formula_structural   CuH10C14(N3O2)2
_chemical_formula_sum   'Cu3 H30 C42 N18 O12'
_cell_volume   1520.22473714
_cell_formula_units_Z   3
loop_
 _symmetry_equiv_pos_site_id
 _symmetry_equiv_pos_as_xyz
  1  'x, y, z'
loop_
 _atom_site_type_symbol
 _atom_site_label
 _atom_site_symmetry_multiplicity
 _atom_site_fract_x
 _atom_site_fract_y
 _atom_site_fract_z
 _atom_site_occupancy
 _atom_site_charge
Cu  Cu1  1  0.37734000  0.06004000  0.41182000  1.0 0.7023595735
Cu  Cu2  1  0.62266000  0.93996000  0.58818000  1.0 0.7023595735
Cu  Cu3  1  0.00000000  0.50000000  0.50000000  1.0 0.7500967845
H  H1  1  0.93040000  0.18620000  0.72920000  1.0 0.1392723075
H  H2  1  0.06960000  0.81380000  0.27080000  1.0 0.1392723075
H  H3  1  0.05000000  0.23650000  0.72930000  1.0 0.1392723075
H  H4  1  0.95000000  0.76350000  0.27070000  1.0 0.1392723075
H  H5  1  0.22860000  0.21200000  0.56410000  1.0 0.148400174
H  H6  1  0.77140000  0.78800000  0.43590000  1.0 0.148400174
H  H7  1  0.13960000  0.91960000  0.56970000  1.0 0.1225171346
H  H8  1  0.86040000  0.08040000  0.43030000  1.0 0.1225171346
H  H9  1  0.70670000  0.04890000  0.96290000  1.0 0.1293529957
H  H10  1  0.29330000  0.95110000  0.03710000  1.0 0.1293529957
H  H11  1  0.77530000  0.14980000  0.84700000  1.0 0.1392723075
H  H12  1  0.22470000  0.85020000  0.15300000  1.0 0.1392723075
H  H13  1  0.69610000  0.11270000  0.68890000  1.0 0.1392723075
H  H14  1  0.30390000  0.88730000  0.31110000  1.0 0.1392723075
H  H15  1  0.79920000  0.77490000  0.78380000  1.0 0.1225171346
H  H16  1  0.20080000  0.22510000  0.21620000  1.0 0.1225171346
H  H17  1  0.72710000  0.87720000  0.09470000  1.0 0.1392723075
H  H18  1  0.27290000  0.12280000  0.90530000  1.0 0.1392723075
H  H19  1  0.78510000  0.81990000  0.21040000  1.0 0.1293529957
H  H20  1  0.21490000  0.18010000  0.78960000  1.0 0.1293529957
H  H21  1  0.53710000  0.88180000  0.29960000  1.0 0.1392723075
H  H22  1  0.46290000  0.11820000  0.70040000  1.0 0.1392723075
H  H23  1  0.61330000  0.20300000  0.23040000  1.0 0.1225171346
H  H24  1  0.38670000  0.79700000  0.76960000  1.0 0.1225171346
H  H25  1  0.72030000  0.30040000  0.46860000  1.0 0.1225171346
H  H26  1  0.27970000  0.69960000  0.53140000  1.0 0.1225171346
H  H27  1  0.61690000  0.65100000  0.32970000  1.0 0.1107623219
H  H28  1  0.38310000  0.34900000  0.67030000  1.0 0.1107623219
H  H29  1  0.40380000  0.41390000  0.34590000  1.0 0.1293529957
H  H30  1  0.59620000  0.58610000  0.65410000  1.0 0.1293529957
C  C1  1  0.00660000  0.07870000  0.87800000  1.0 0.0206437429
C  C2  1  0.99340000  0.92130000  0.12200000  1.0 0.0206437429
C  C3  1  0.89500000  0.02990000  0.94990000  1.0 0.0206437429
C  C4  1  0.10500000  0.97010000  0.05010000  1.0 0.0206437429
C  C5  1  0.88820000  0.95090000  0.07050000  1.0 0.0206437429
C  C6  1  0.11180000  0.04910000  0.92950000  1.0 0.0206437429
C  C7  1  0.01340000  0.16400000  0.74550000  1.0 -0.1832157409
C  C8  1  0.98660000  0.83600000  0.25450000  1.0 -0.1832157409
C  C9  1  0.18900000  0.14390000  0.58340000  1.0 0.1107623219
C  C10  1  0.81100000  0.85610000  0.41660000  1.0 0.1107623219
C  C11  1  0.13850000  0.98500000  0.58800000  1.0 0.148400174
C  C12  1  0.86150000  0.01500000  0.41200000  1.0 0.148400174
C  C13  1  0.77870000  0.06470000  0.89790000  1.0 -0.1832157409
C  C14  1  0.22130000  0.93530000  0.10210000  1.0 -0.1832157409
C  C15  1  0.72700000  0.03490000  0.72990000  1.0 0.0970667764
C  C16  1  0.27300000  0.96510000  0.27010000  1.0 0.0970667764
C  C17  1  0.78360000  0.85110000  0.78340000  1.0 0.1293529957
C  C18  1  0.21640000  0.14890000  0.21660000  1.0 0.1293529957
C  C19  1  0.76790000  0.89480000  0.14460000  1.0 -0.1832157409
C  C20  1  0.23210000  0.10520000  0.85540000  1.0 -0.1832157409
C  C21  1  0.57620000  0.95270000  0.26940000  1.0 0.092826867
C  C22  1  0.42380000  0.04730000  0.73060000  1.0 0.092826867
C  C23  1  0.61950000  0.12730000  0.23050000  1.0 0.1569576129
C  C24  1  0.38050000  0.87270000  0.76950000  1.0 0.1569576129
C  C25  1  0.55820000  0.33760000  0.41150000  1.0 -0.0404743165
C  C26  1  0.44180000  0.66240000  0.58850000  1.0 -0.0404743165
C  C27  1  0.66460000  0.36260000  0.43310000  1.0 -0.1011524112
C  C28  1  0.33540000  0.63740000  0.56690000  1.0 -0.1011524112
C  C29  1  0.68740000  0.47990000  0.40190000  1.0 -0.0259379339
C  C30  1  0.31260000  0.52010000  0.59810000  1.0 -0.0259379339
C  C31  1  0.60220000  0.57220000  0.35000000  1.0 -0.1011524112
C  C32  1  0.39780000  0.42780000  0.65000000  1.0 -0.1011524112
C  C33  1  0.49630000  0.54830000  0.32830000  1.0 -0.0222500437
C  C34  1  0.50370000  0.45170000  0.67170000  1.0 -0.0222500437
C  C35  1  0.47500000  0.43080000  0.35970000  1.0 -0.1011524112
C  C36  1  0.52500000  0.56920000  0.64030000  1.0 -0.1011524112
C  C37  1  0.53490000  0.20930000  0.44730000  1.0 0.5590600237
C  C38  1  0.46510000  0.79070000  0.55270000  1.0 0.5590600237
C  C39  1  0.79790000  0.51210000  0.42630000  1.0 0.5590600237
C  C40  1  0.20210000  0.48790000  0.57370000  1.0 0.5590600237
C  C41  1  0.40600000  0.65160000  0.27290000  1.0 0.5477432474
C  C42  1  0.59400000  0.34840000  0.72710000  1.0 0.5477432474
N  N1  1  0.22630000  0.06650000  0.53280000  1.0 -0.3235371024
N  N2  1  0.77370000  0.93350000  0.46720000  1.0 -0.3235371024
N  N3  1  0.08680000  0.10900000  0.66530000  1.0 0.1772865121
N  N4  1  0.91320000  0.89100000  0.33470000  1.0 0.1772865121
N  N5  1  0.05280000  0.00730000  0.66880000  1.0 -0.2411677152
N  N6  1  0.94720000  0.99270000  0.33120000  1.0 -0.2411677152
N  N7  1  0.72900000  0.94380000  0.70060000  1.0 -0.3371536867
N  N8  1  0.27100000  0.05620000  0.29940000  1.0 -0.3371536867
N  N9  1  0.77620000  0.99740000  0.82740000  1.0 0.1862984836
N  N10  1  0.22380000  0.00260000  0.17260000  1.0 0.1862984836
N  N11  1  0.81300000  0.87910000  0.86420000  1.0 -0.2578750984
N  N12  1  0.18700000  0.12090000  0.13580000  1.0 -0.2578750984
N  N13  1  0.53260000  0.04720000  0.29510000  1.0 -0.3235371024
N  N14  1  0.46740000  0.95280000  0.70490000  1.0 -0.3235371024
N  N15  1  0.68500000  0.97590000  0.19350000  1.0 0.1772865121
N  N16  1  0.31500000  0.02410000  0.80650000  1.0 0.1745841368
N  N17  1  0.71400000  0.08740000  0.16760000  1.0 -0.2264637709
N  N18  1  0.28600000  0.91260000  0.83240000  1.0 -0.2264637709
O  O1  1  0.43680000  0.19300000  0.42390000  1.0 -0.5402758256
O  O2  1  0.56320000  0.80700000  0.57610000  1.0 -0.5402758256
O  O3  1  0.61150000  0.12960000  0.49510000  1.0 -0.552243425
O  O4  1  0.38850000  0.87040000  0.50490000  1.0 -0.552243425
O  O5  1  0.87820000  0.42700000  0.46930000  1.0 -0.552243425
O  O6  1  0.12180000  0.57300000  0.53070000  1.0 -0.552243425
O  O7  1  0.80950000  0.61690000  0.40630000  1.0 -0.5792478458
O  O8  1  0.19050000  0.38310000  0.59370000  1.0 -0.5792478458
O  O9  1  0.43440000  0.75450000  0.24800000  1.0 -0.6101163164
O  O10  1  0.56560000  0.24550000  0.75200000  1.0 -0.6101163164
O  O11  1  0.31170000  0.62930000  0.25220000  1.0 -0.5673853592
O  O12  1  0.68830000  0.37070000  0.74780000  1.0 -0.5673853592
