# DDEC6 charges by PACMAN v1.1 (https://github.com/mtap-research/PACMAN-charge/)
data_YIPDOR_ion_pacman
_symmetry_space_group_name_H-M   'P 1'
_cell_length_a   18.44300000
_cell_length_b   18.44300000
_cell_length_c   15.16600000
_cell_angle_alpha   90.00000000
_cell_angle_beta   90.00000000
_cell_angle_gamma   90.00000000
_symmetry_Int_Tables_number   1
_chemical_formula_structural   CuMo12PH32C36(N2O7)6
_chemical_formula_sum   'Cu2 Mo24 P2 H64 C72 N24 O84'
_cell_volume   5158.62768033
_cell_formula_units_Z   2
loop_
 _symmetry_equiv_pos_site_id
 _symmetry_equiv_pos_as_xyz
  1  'x, y, z'
loop_
 _atom_site_type_symbol
 _atom_site_label
 _atom_site_symmetry_multiplicity
 _atom_site_fract_x
 _atom_site_fract_y
 _atom_site_fract_z
 _atom_site_occupancy
 _atom_site_charge
Cu  Cu1  1  0.00000000  0.00000000  0.50000000  1.0 0.654612637
Cu  Cu2  1  0.50000000  0.50000000  0.00000000  1.0 0.6556240086
Mo  Mo1  1  0.43317000  0.38057000  0.33501000  1.0 2.2402923495
Mo  Mo2  1  0.56683000  0.61943000  0.33501000  1.0 2.2402923495
Mo  Mo3  1  0.61943000  0.43317000  0.66499000  1.0 2.2402923495
Mo  Mo4  1  0.38057000  0.56683000  0.66499000  1.0 2.2402923495
Mo  Mo5  1  0.31558000  0.43966000  0.49263000  1.0 2.2402923495
Mo  Mo6  1  0.68442000  0.56034000  0.49263000  1.0 2.2402923495
Mo  Mo7  1  0.56034000  0.31558000  0.50737000  1.0 2.2402923495
Mo  Mo8  1  0.43966000  0.68442000  0.50737000  1.0 2.2402923495
Mo  Mo9  1  0.37551000  0.55693000  0.33635000  1.0 2.2402923495
Mo  Mo10  1  0.62449000  0.44307000  0.33635000  1.0 2.2402923495
Mo  Mo11  1  0.44307000  0.37551000  0.66365000  1.0 2.2402923495
Mo  Mo12  1  0.55693000  0.62449000  0.66365000  1.0 2.2402923495
Mo  Mo13  1  0.11943000  0.06683000  0.16499000  1.0 2.2402923495
Mo  Mo14  1  0.88057000  0.93317000  0.16499000  1.0 2.2402923495
Mo  Mo15  1  0.06683000  0.88057000  0.83501000  1.0 2.2402923495
Mo  Mo16  1  0.93317000  0.11943000  0.83501000  1.0 2.2402923495
Mo  Mo17  1  0.06034000  0.18442000  0.00737000  1.0 2.2471425299
Mo  Mo18  1  0.93966000  0.81558000  0.00737000  1.0 2.2402923495
Mo  Mo19  1  0.18442000  0.93966000  0.99263000  1.0 2.2402923495
Mo  Mo20  1  0.81558000  0.06034000  0.99263000  1.0 2.2402923495
Mo  Mo21  1  0.94307000  0.12449000  0.16365000  1.0 2.2402923495
Mo  Mo22  1  0.05693000  0.87551000  0.16365000  1.0 2.2402923495
Mo  Mo23  1  0.12449000  0.05693000  0.83635000  1.0 2.2402923495
Mo  Mo24  1  0.87551000  0.94307000  0.83635000  1.0 2.2402923495
P  P1  1  0.50000000  0.50000000  0.50000000  1.0 1.4353834156
P  P2  1  0.00000000  0.00000000  0.00000000  1.0 1.4344280724
H  H1  1  0.93660000  0.73210000  0.24280000  1.0 0.1409709703
H  H2  1  0.06340000  0.26790000  0.24280000  1.0 0.1409709703
H  H3  1  0.76790000  0.56340000  0.25720000  1.0 0.1409709703
H  H4  1  0.23210000  0.43660000  0.25720000  1.0 0.1409709703
H  H5  1  0.43660000  0.76790000  0.74280000  1.0 0.1409709703
H  H6  1  0.56340000  0.23210000  0.74280000  1.0 0.1409709703
H  H7  1  0.73210000  0.06340000  0.75720000  1.0 0.1409709703
H  H8  1  0.26790000  0.93660000  0.75720000  1.0 0.1409709703
H  H9  1  0.01820000  0.65800000  0.17120000  1.0 0.1328671415
H  H10  1  0.98180000  0.34200000  0.17120000  1.0 0.1328671415
H  H11  1  0.84200000  0.48180000  0.32880000  1.0 0.1328671415
H  H12  1  0.15800000  0.51820000  0.32880000  1.0 0.1328671415
H  H13  1  0.51820000  0.84200000  0.67120000  1.0 0.1328671415
H  H14  1  0.48180000  0.15800000  0.67120000  1.0 0.1328671415
H  H15  1  0.65800000  0.98180000  0.82880000  1.0 0.1328671415
H  H16  1  0.34200000  0.01820000  0.82880000  1.0 0.1328671415
H  H17  1  0.05800000  0.55230000  0.39500000  1.0 0.1200972039
H  H18  1  0.94200000  0.44770000  0.39500000  1.0 0.1200972039
H  H19  1  0.94770000  0.44200000  0.10500000  1.0 0.1200972039
H  H20  1  0.05230000  0.55800000  0.10500000  1.0 0.1200972039
H  H21  1  0.55800000  0.94770000  0.89500000  1.0 0.1200972039
H  H22  1  0.44200000  0.05230000  0.89500000  1.0 0.1200972039
H  H23  1  0.55230000  0.94200000  0.60500000  1.0 0.1200972039
H  H24  1  0.44770000  0.05800000  0.60500000  1.0 0.1200972039
H  H25  1  0.97770000  0.62450000  0.46870000  1.0 0.1328671415
H  H26  1  0.02230000  0.37550000  0.46870000  1.0 0.1328671415
H  H27  1  0.87550000  0.52230000  0.03130000  1.0 0.1328671415
H  H28  1  0.12450000  0.47770000  0.03130000  1.0 0.1328671415
H  H29  1  0.47770000  0.87550000  0.96870000  1.0 0.1328671415
H  H30  1  0.52230000  0.12450000  0.96870000  1.0 0.1328671415
H  H31  1  0.62450000  0.02230000  0.53130000  1.0 0.1328671415
H  H32  1  0.37550000  0.97770000  0.53130000  1.0 0.1328671415
H  H33  1  0.86210000  0.70170000  0.44750000  1.0 0.1517857544
H  H34  1  0.13790000  0.29830000  0.44750000  1.0 0.1517857544
H  H35  1  0.79830000  0.63790000  0.05250000  1.0 0.1517857544
H  H36  1  0.20170000  0.36210000  0.05250000  1.0 0.1517857544
H  H37  1  0.36210000  0.79830000  0.94750000  1.0 0.1517857544
H  H38  1  0.63790000  0.20170000  0.94750000  1.0 0.1517857544
H  H39  1  0.70170000  0.13790000  0.55250000  1.0 0.1517857544
H  H40  1  0.29830000  0.86210000  0.55250000  1.0 0.1517857544
H  H41  1  0.85870000  0.75310000  0.36510000  1.0 0.1517857544
H  H42  1  0.14130000  0.24690000  0.36510000  1.0 0.1517857544
H  H43  1  0.74690000  0.64130000  0.13490000  1.0 0.1517857544
H  H44  1  0.25310000  0.35870000  0.13490000  1.0 0.1517857544
H  H45  1  0.35870000  0.74690000  0.86510000  1.0 0.1517857544
H  H46  1  0.64130000  0.25310000  0.86510000  1.0 0.1517857544
H  H47  1  0.75310000  0.14130000  0.63490000  1.0 0.1517857544
H  H48  1  0.24690000  0.85870000  0.63490000  1.0 0.1517857544
H  H49  1  0.97840000  0.85970000  0.62580000  1.0 0.1409709703
H  H50  1  0.02160000  0.14030000  0.62580000  1.0 0.1409709703
H  H51  1  0.64030000  0.52160000  0.87420000  1.0 0.1409709703
H  H52  1  0.35970000  0.47840000  0.87420000  1.0 0.1409709703
H  H53  1  0.47840000  0.64030000  0.12580000  1.0 0.1409709703
H  H54  1  0.52160000  0.35970000  0.12580000  1.0 0.1409709703
H  H55  1  0.85970000  0.02160000  0.37420000  1.0 0.1409709703
H  H56  1  0.14030000  0.97840000  0.37420000  1.0 0.1409709703
H  H57  1  0.93490000  0.87370000  0.37750000  1.0 0.1409709703
H  H58  1  0.06510000  0.12630000  0.37750000  1.0 0.1409709703
H  H59  1  0.62630000  0.56510000  0.12250000  1.0 0.1409709703
H  H60  1  0.37370000  0.43490000  0.12250000  1.0 0.1409709703
H  H61  1  0.43490000  0.62630000  0.87750000  1.0 0.1409709703
H  H62  1  0.56510000  0.37370000  0.87750000  1.0 0.1409709703
H  H63  1  0.87370000  0.06510000  0.62250000  1.0 0.1409709703
H  H64  1  0.12630000  0.93490000  0.62250000  1.0 0.1409709703
C  C1  1  0.94700000  0.68590000  0.36260000  1.0 0.1094227827
C  C2  1  0.05300000  0.31410000  0.36260000  1.0 0.1094227827
C  C3  1  0.81410000  0.55300000  0.13740000  1.0 0.1094227827
C  C4  1  0.18590000  0.44700000  0.13740000  1.0 0.1094227827
C  C5  1  0.44700000  0.81410000  0.86260000  1.0 0.1094227827
C  C6  1  0.55300000  0.18590000  0.86260000  1.0 0.1094227827
C  C7  1  0.68590000  0.05300000  0.63740000  1.0 0.1094227827
C  C8  1  0.31410000  0.94700000  0.63740000  1.0 0.1094227827
C  C9  1  0.96060000  0.69580000  0.27380000  1.0 -0.1388233371
C  C10  1  0.03940000  0.30420000  0.27380000  1.0 -0.1388233371
C  C11  1  0.80420000  0.53940000  0.22620000  1.0 -0.1388233371
C  C12  1  0.19580000  0.46060000  0.22620000  1.0 -0.1388233371
C  C13  1  0.46060000  0.80420000  0.77380000  1.0 -0.1388233371
C  C14  1  0.53940000  0.19580000  0.77380000  1.0 -0.1388233371
C  C15  1  0.69580000  0.03940000  0.72620000  1.0 -0.1388233371
C  C16  1  0.30420000  0.96060000  0.72620000  1.0 -0.1388233371
C  C17  1  0.01020000  0.65120000  0.23120000  1.0 -0.1138145916
C  C18  1  0.98980000  0.34880000  0.23120000  1.0 -0.1138145916
C  C19  1  0.84880000  0.48980000  0.26880000  1.0 -0.1138145916
C  C20  1  0.15120000  0.51020000  0.26880000  1.0 -0.1138145916
C  C21  1  0.51020000  0.84880000  0.73120000  1.0 -0.1138145916
C  C22  1  0.48980000  0.15120000  0.73120000  1.0 -0.1138145916
C  C23  1  0.65120000  0.98980000  0.76880000  1.0 -0.1138145916
C  C24  1  0.34880000  0.01020000  0.76880000  1.0 -0.1138145916
C  C25  1  0.04750000  0.59830000  0.27350000  1.0 0.0633289449
C  C26  1  0.95250000  0.40170000  0.27350000  1.0 0.0633289449
C  C27  1  0.90170000  0.45250000  0.22650000  1.0 0.0633289449
C  C28  1  0.09830000  0.54750000  0.22650000  1.0 0.0633289449
C  C29  1  0.54750000  0.90170000  0.77350000  1.0 0.0633289449
C  C30  1  0.45250000  0.09830000  0.77350000  1.0 0.0633289449
C  C31  1  0.59830000  0.95250000  0.72650000  1.0 0.0633289449
C  C32  1  0.40170000  0.04750000  0.72650000  1.0 0.0633289449
C  C33  1  0.03360000  0.58860000  0.36450000  1.0 -0.1337405528
C  C34  1  0.96640000  0.41140000  0.36450000  1.0 -0.1337405528
C  C35  1  0.91140000  0.46640000  0.13550000  1.0 -0.1337405528
C  C36  1  0.08860000  0.53360000  0.13550000  1.0 -0.1337405528
C  C37  1  0.53360000  0.91140000  0.86450000  1.0 -0.1337405528
C  C38  1  0.46640000  0.08860000  0.86450000  1.0 -0.1337405528
C  C39  1  0.58860000  0.96640000  0.63550000  1.0 -0.1337405528
C  C40  1  0.41140000  0.03360000  0.63550000  1.0 -0.1337405528
C  C41  1  0.98540000  0.63130000  0.40860000  1.0 -0.1388233371
C  C42  1  0.01460000  0.36870000  0.40860000  1.0 -0.1388233371
C  C43  1  0.86870000  0.51460000  0.09140000  1.0 -0.1388233371
C  C44  1  0.13130000  0.48540000  0.09140000  1.0 -0.1388233371
C  C45  1  0.48540000  0.86870000  0.90860000  1.0 -0.1388233371
C  C46  1  0.51460000  0.13130000  0.90860000  1.0 -0.1388233371
C  C47  1  0.63130000  0.01460000  0.59140000  1.0 -0.1388233371
C  C48  1  0.36870000  0.98540000  0.59140000  1.0 -0.1388233371
C  C49  1  0.89090000  0.73200000  0.40870000  1.0 -0.1927480224
C  C50  1  0.10910000  0.26800000  0.40870000  1.0 -0.1927480224
C  C51  1  0.76800000  0.60910000  0.09130000  1.0 -0.1927480224
C  C52  1  0.23200000  0.39090000  0.09130000  1.0 -0.1927480224
C  C53  1  0.39090000  0.76800000  0.90870000  1.0 -0.1927480224
C  C54  1  0.60910000  0.23200000  0.90870000  1.0 -0.1927480224
C  C55  1  0.73200000  0.10910000  0.59130000  1.0 -0.1927480224
C  C56  1  0.26800000  0.89090000  0.59130000  1.0 -0.1927480224
C  C57  1  0.96440000  0.84780000  0.56870000  1.0 0.1699466042
C  C58  1  0.03560000  0.15220000  0.56870000  1.0 0.1699466042
C  C59  1  0.65220000  0.53560000  0.93130000  1.0 0.1699466042
C  C60  1  0.34780000  0.46440000  0.93130000  1.0 0.1699466042
C  C61  1  0.46440000  0.65220000  0.06870000  1.0 0.1699466042
C  C62  1  0.53560000  0.34780000  0.06870000  1.0 0.1699466042
C  C63  1  0.84780000  0.03560000  0.43130000  1.0 0.1699466042
C  C64  1  0.15220000  0.96440000  0.43130000  1.0 0.1699466042
C  C65  1  0.94140000  0.85640000  0.43460000  1.0 0.1094227827
C  C66  1  0.05860000  0.14360000  0.43460000  1.0 0.1094227827
C  C67  1  0.64360000  0.55860000  0.06540000  1.0 0.1094227827
C  C68  1  0.35640000  0.44140000  0.06540000  1.0 0.1094227827
C  C69  1  0.44140000  0.64360000  0.93460000  1.0 0.1094227827
C  C70  1  0.55860000  0.35640000  0.93460000  1.0 0.1094227827
C  C71  1  0.85640000  0.05860000  0.56540000  1.0 0.1094227827
C  C72  1  0.14360000  0.94140000  0.56540000  1.0 0.1094227827
N  N1  1  0.92500000  0.79080000  0.46080000  1.0 0.1699466042
N  N2  1  0.07500000  0.20920000  0.46080000  1.0 0.1699466042
N  N3  1  0.70920000  0.57500000  0.03920000  1.0 0.1699466042
N  N4  1  0.29080000  0.42500000  0.03920000  1.0 0.1699466042
N  N5  1  0.42500000  0.70920000  0.96080000  1.0 0.1699466042
N  N6  1  0.57500000  0.29080000  0.96080000  1.0 0.1699466042
N  N7  1  0.79080000  0.07500000  0.53920000  1.0 0.1699466042
N  N8  1  0.20920000  0.92500000  0.53920000  1.0 0.1699466042
N  N9  1  0.93940000  0.78440000  0.54710000  1.0 -0.2487145003
N  N10  1  0.06060000  0.21560000  0.54710000  1.0 -0.2487145003
N  N11  1  0.71560000  0.56060000  0.95290000  1.0 -0.2487145003
N  N12  1  0.28440000  0.43940000  0.95290000  1.0 -0.2487145003
N  N13  1  0.43940000  0.71560000  0.04710000  1.0 -0.2487145003
N  N14  1  0.56060000  0.28440000  0.04710000  1.0 -0.2487145003
N  N15  1  0.78440000  0.06060000  0.45290000  1.0 -0.2487145003
N  N16  1  0.21560000  0.93940000  0.45290000  1.0 -0.2487145003
N  N17  1  0.96840000  0.89460000  0.50070000  1.0 -0.3156878416
N  N18  1  0.03160000  0.10540000  0.50070000  1.0 -0.3156878416
N  N19  1  0.60540000  0.53160000  0.99930000  1.0 -0.3156878416
N  N20  1  0.39460000  0.46840000  0.99930000  1.0 -0.3156878416
N  N21  1  0.46840000  0.60540000  0.00070000  1.0 -0.3145966466
N  N22  1  0.53160000  0.39460000  0.00070000  1.0 -0.3156878416
N  N23  1  0.89460000  0.03160000  0.49930000  1.0 -0.3156878416
N  N24  1  0.10540000  0.96840000  0.49930000  1.0 -0.3156878416
O  O1  1  0.00000000  0.00000000  0.35340000  1.0 -0.0539677378
O  O2  1  0.50000000  0.50000000  0.14660000  1.0 -0.0614989746
O  O3  1  0.50000000  0.50000000  0.85340000  1.0 -0.0614989746
O  O4  1  0.00000000  0.00000000  0.64660000  1.0 -0.0539677378
O  O5  1  0.43540000  0.47865000  0.44233000  1.0 -0.9079756077
O  O6  1  0.56460000  0.52135000  0.44233000  1.0 -0.9079756077
O  O7  1  0.52135000  0.43540000  0.55767000  1.0 -0.9079756077
O  O8  1  0.47865000  0.56460000  0.55767000  1.0 -0.9079756077
O  O9  1  0.34505000  0.37428000  0.40160000  1.0 -0.8365522559
O  O10  1  0.65495000  0.62572000  0.40160000  1.0 -0.8365522559
O  O11  1  0.62572000  0.34505000  0.59840000  1.0 -0.8365522559
O  O12  1  0.37428000  0.65495000  0.59840000  1.0 -0.8365522559
O  O13  1  0.41780000  0.31890000  0.25590000  1.0 -0.5871404763
O  O14  1  0.58220000  0.68110000  0.25590000  1.0 -0.5871404763
O  O15  1  0.68110000  0.41780000  0.74410000  1.0 -0.5871404763
O  O16  1  0.31890000  0.58220000  0.74410000  1.0 -0.5871404763
O  O17  1  0.48198000  0.32853000  0.42420000  1.0 -0.8615465622
O  O18  1  0.51802000  0.67147000  0.42420000  1.0 -0.8615465622
O  O19  1  0.67147000  0.48198000  0.57580000  1.0 -0.8615465622
O  O20  1  0.32853000  0.51802000  0.57580000  1.0 -0.8615465622
O  O21  1  0.52640000  0.41725000  0.30340000  1.0 -0.8262379627
O  O22  1  0.47360000  0.58275000  0.30340000  1.0 -0.8262379627
O  O23  1  0.58275000  0.52640000  0.69660000  1.0 -0.8262379627
O  O24  1  0.41725000  0.47360000  0.69660000  1.0 -0.8262379627
O  O25  1  0.23100000  0.41100000  0.51270000  1.0 -0.596589539
O  O26  1  0.76900000  0.58900000  0.51270000  1.0 -0.596589539
O  O27  1  0.58900000  0.23100000  0.48730000  1.0 -0.596589539
O  O28  1  0.41100000  0.76900000  0.48730000  1.0 -0.596589539
O  O29  1  0.37213000  0.38435000  0.57410000  1.0 -0.8497818496
O  O30  1  0.62787000  0.61565000  0.57410000  1.0 -0.8497818496
O  O31  1  0.61565000  0.37213000  0.42590000  1.0 -0.8497818496
O  O32  1  0.38435000  0.62787000  0.42590000  1.0 -0.8497818496
O  O33  1  0.32590000  0.60150000  0.26110000  1.0 -0.5685507294
O  O34  1  0.67410000  0.39850000  0.26110000  1.0 -0.5685507294
O  O35  1  0.39850000  0.32590000  0.73890000  1.0 -0.5685507294
O  O36  1  0.60150000  0.67410000  0.73890000  1.0 -0.5685507294
O  O37  1  0.30020000  0.51073000  0.40300000  1.0 -0.8183451657
O  O38  1  0.69980000  0.48927000  0.40300000  1.0 -0.8183451657
O  O39  1  0.48927000  0.30020000  0.59700000  1.0 -0.8183451657
O  O40  1  0.51073000  0.69980000  0.59700000  1.0 -0.8183451657
O  O41  1  0.39130000  0.46514000  0.27850000  1.0 -0.8136949774
O  O42  1  0.60870000  0.53486000  0.27850000  1.0 -0.8136949774
O  O43  1  0.53486000  0.39130000  0.72150000  1.0 -0.8183451657
O  O44  1  0.46514000  0.60870000  0.72150000  1.0 -0.8183451657
O  O45  1  0.02135000  0.06460000  0.05767000  1.0 -0.9079756077
O  O46  1  0.97865000  0.93540000  0.05767000  1.0 -0.9079756077
O  O47  1  0.06460000  0.97865000  0.94233000  1.0 -0.9079756077
O  O48  1  0.93540000  0.02135000  0.94233000  1.0 -0.9079756077
O  O49  1  0.12572000  0.15495000  0.09840000  1.0 -0.8365522559
O  O50  1  0.87428000  0.84505000  0.09840000  1.0 -0.8365522559
O  O51  1  0.15495000  0.87428000  0.90160000  1.0 -0.8365522559
O  O52  1  0.84505000  0.12572000  0.90160000  1.0 -0.8365522559
O  O53  1  0.18110000  0.08220000  0.24410000  1.0 -0.5871404763
O  O54  1  0.81890000  0.91780000  0.24410000  1.0 -0.5871404763
O  O55  1  0.08220000  0.81890000  0.75590000  1.0 -0.5871404763
O  O56  1  0.91780000  0.18110000  0.75590000  1.0 -0.5871404763
O  O57  1  0.17147000  0.01802000  0.07580000  1.0 -0.8615465622
O  O58  1  0.82853000  0.98198000  0.07580000  1.0 -0.8615465622
O  O59  1  0.01802000  0.82853000  0.92420000  1.0 -0.8615465622
O  O60  1  0.98198000  0.17147000  0.92420000  1.0 -0.8615465622
O  O61  1  0.08275000  0.97360000  0.19660000  1.0 -0.8262379627
O  O62  1  0.91725000  0.02640000  0.19660000  1.0 -0.8262379627
O  O63  1  0.97360000  0.91725000  0.80340000  1.0 -0.8262379627
O  O64  1  0.02640000  0.08275000  0.80340000  1.0 -0.8262379627
O  O65  1  0.08900000  0.26900000  0.98730000  1.0 -0.596589539
O  O66  1  0.91100000  0.73100000  0.98730000  1.0 -0.596589539
O  O67  1  0.26900000  0.91100000  0.01270000  1.0 -0.5871404763
O  O68  1  0.73100000  0.08900000  0.01270000  1.0 -0.5871404763
O  O69  1  0.11565000  0.12787000  0.92590000  1.0 -0.8497818496
O  O70  1  0.88435000  0.87213000  0.92590000  1.0 -0.8497818496
O  O71  1  0.12787000  0.88435000  0.07410000  1.0 -0.8497818496
O  O72  1  0.87213000  0.11565000  0.07410000  1.0 -0.8497818496
O  O73  1  0.89850000  0.17410000  0.23890000  1.0 -0.5685507294
O  O74  1  0.10150000  0.82590000  0.23890000  1.0 -0.5685507294
O  O75  1  0.17410000  0.10150000  0.76110000  1.0 -0.5685507294
O  O76  1  0.82590000  0.89850000  0.76110000  1.0 -0.5685507294
O  O77  1  0.98927000  0.19980000  0.09700000  1.0 -0.8183451657
O  O78  1  0.01073000  0.80020000  0.09700000  1.0 -0.8183451657
O  O79  1  0.19980000  0.01073000  0.90300000  1.0 -0.8183451657
O  O80  1  0.80020000  0.98927000  0.90300000  1.0 -0.8183451657
O  O81  1  0.03486000  0.10870000  0.22150000  1.0 -0.8183451657
O  O82  1  0.96514000  0.89130000  0.22150000  1.0 -0.8183451657
O  O83  1  0.10870000  0.96514000  0.77850000  1.0 -0.8183451657
O  O84  1  0.89130000  0.03486000  0.77850000  1.0 -0.8183451657
