# DDEC6 charges by PACMAN v1.1 (https://github.com/mtap-research/PACMAN-charge/)
data_YIRSUQ_ASR_pacman
_symmetry_space_group_name_H-M   'P 1'
_cell_length_a   14.70630000
_cell_length_b   22.51690000
_cell_length_c   26.43010000
_cell_angle_alpha   90.00000000
_cell_angle_beta   90.00000000
_cell_angle_gamma   90.00000000
_symmetry_Int_Tables_number   1
_chemical_formula_structural   Co2H29C30N3O11
_chemical_formula_sum   'Co16 H232 C240 N24 O88'
_cell_volume   8752.07088543
_cell_formula_units_Z   8
loop_
 _symmetry_equiv_pos_site_id
 _symmetry_equiv_pos_as_xyz
  1  'x, y, z'
loop_
 _atom_site_type_symbol
 _atom_site_label
 _atom_site_symmetry_multiplicity
 _atom_site_fract_x
 _atom_site_fract_y
 _atom_site_fract_z
 _atom_site_occupancy
 _atom_site_charge
Co  Co1  1  0.22489000  0.58162000  0.26003000  1.0 0.9439444156
Co  Co2  1  0.15422000  0.55201000  0.66154000  1.0 0.882015592
Co  Co3  1  0.27511000  0.08162000  0.23997000  1.0 0.9439444156
Co  Co4  1  0.34578000  0.05201000  0.83846000  1.0 0.882015592
Co  Co5  1  0.77511000  0.91838000  0.26003000  1.0 0.9439444156
Co  Co6  1  0.84578000  0.94799000  0.66154000  1.0 0.882015592
Co  Co7  1  0.72489000  0.41838000  0.23997000  1.0 0.9439444156
Co  Co8  1  0.65422000  0.44799000  0.83846000  1.0 0.882015592
Co  Co9  1  0.77511000  0.41838000  0.73997000  1.0 0.9439444156
Co  Co10  1  0.84578000  0.44799000  0.33846000  1.0 0.882015592
Co  Co11  1  0.72489000  0.91838000  0.76003000  1.0 0.9439444156
Co  Co12  1  0.65422000  0.94799000  0.16154000  1.0 0.882015592
Co  Co13  1  0.22489000  0.08162000  0.73997000  1.0 0.9439444156
Co  Co14  1  0.15422000  0.05201000  0.33846000  1.0 0.882015592
Co  Co15  1  0.27511000  0.58162000  0.76003000  1.0 0.9439444156
Co  Co16  1  0.34578000  0.55201000  0.16154000  1.0 0.882015592
H  H1  1  0.09830000  0.60730000  0.74270000  1.0 0.3638175378
H  H2  1  0.09640000  0.54500000  0.75540000  1.0 0.3828992812
H  H3  1  0.21540000  0.63270000  0.17030000  1.0 0.366756058
H  H4  1  0.16790000  0.57870000  0.16440000  1.0 0.3828992812
H  H5  1  0.09190000  0.65070000  0.67070000  1.0 0.1983809831
H  H6  1  0.15010000  0.66070000  0.64190000  1.0 0.190200186
H  H7  1  0.05210000  0.81510000  0.32990000  1.0 0.1272135786
H  H8  1  0.16350000  0.76460000  0.27370000  1.0 0.1184276614
H  H9  1  0.95940000  0.96030000  0.22140000  1.0 0.1184276614
H  H10  1  0.90260000  0.84380000  0.32530000  1.0 0.1184276614
H  H11  1  0.16110000  0.51810000  0.50090000  1.0 0.1184276614
H  H12  1  0.43240000  0.79540000  0.26290000  1.0 0.1272135786
H  H13  1  0.10950000  0.93570000  0.22340000  1.0 0.1423513548
H  H14  1  0.40500000  0.89550000  0.26900000  1.0 0.1272135786
H  H15  1  0.18600000  0.45080000  0.35600000  1.0 0.1423513548
H  H16  1  0.92550000  0.54760000  0.40130000  1.0 0.1184276614
H  H17  1  0.44240000  0.53680000  0.42620000  1.0 0.1272135786
H  H18  1  0.05810000  0.57250000  0.44110000  1.0 0.1423513548
H  H19  1  0.04960000  0.42990000  0.31840000  1.0 0.1089810613
H  H20  1  0.42920000  0.54270000  0.51320000  1.0 0.1184276614
H  H21  1  0.05310000  0.58320000  0.55430000  1.0 0.1423513548
H  H22  1  0.99420000  0.63760000  0.53690000  1.0 0.1184276614
H  H23  1  0.09990000  0.63850000  0.52930000  1.0 0.1423513548
H  H24  1  0.03730000  0.73890000  0.53490000  1.0 0.0318950394
H  H25  1  0.95200000  0.69880000  0.54500000  1.0 0.0907011412
H  H26  1  0.95280000  0.76490000  0.56350000  1.0 0.0907011412
H  H27  1  0.09710000  0.76500000  0.65810000  1.0 0.0800775382
H  H28  1  0.99800000  0.78710000  0.64690000  1.0 0.1089810613
H  H29  1  0.01370000  0.73200000  0.68210000  1.0 0.0800775382
H  H30  1  0.40170000  0.10730000  0.75730000  1.0 0.3638175378
H  H31  1  0.40360000  0.04500000  0.74460000  1.0 0.3828992812
H  H32  1  0.28460000  0.13270000  0.32970000  1.0 0.366756058
H  H33  1  0.33210000  0.07870000  0.33560000  1.0 0.3828992812
H  H34  1  0.40810000  0.15070000  0.82930000  1.0 0.1983809831
H  H35  1  0.34990000  0.16070000  0.85810000  1.0 0.190200186
H  H36  1  0.44790000  0.31510000  0.17010000  1.0 0.1272135786
H  H37  1  0.33650000  0.26460000  0.22630000  1.0 0.1184276614
H  H38  1  0.54060000  0.46030000  0.27860000  1.0 0.1184276614
H  H39  1  0.59740000  0.34380000  0.17470000  1.0 0.1184276614
H  H40  1  0.33890000  0.01810000  0.99910000  1.0 0.1184276614
H  H41  1  0.06760000  0.29540000  0.23710000  1.0 0.1272135786
H  H42  1  0.39050000  0.43570000  0.27660000  1.0 0.1423513548
H  H43  1  0.09500000  0.39550000  0.23100000  1.0 0.1272135786
H  H44  1  0.31400000  0.95080000  0.14400000  1.0 0.1423513548
H  H45  1  0.57450000  0.04760000  0.09870000  1.0 0.1184276614
H  H46  1  0.05760000  0.03680000  0.07380000  1.0 0.1272135786
H  H47  1  0.44190000  0.07250000  0.05890000  1.0 0.1423513548
H  H48  1  0.45040000  0.92990000  0.18160000  1.0 0.1089810613
H  H49  1  0.07080000  0.04270000  0.98680000  1.0 0.1184276614
H  H50  1  0.44690000  0.08320000  0.94570000  1.0 0.1423513548
H  H51  1  0.50580000  0.13760000  0.96310000  1.0 0.1184276614
H  H52  1  0.40010000  0.13850000  0.97070000  1.0 0.1423513548
H  H53  1  0.46270000  0.23890000  0.96510000  1.0 0.0318950394
H  H54  1  0.54800000  0.19880000  0.95500000  1.0 0.0907011412
H  H55  1  0.54720000  0.26490000  0.93650000  1.0 0.0907011412
H  H56  1  0.40290000  0.26500000  0.84190000  1.0 0.0800775382
H  H57  1  0.50200000  0.28710000  0.85310000  1.0 0.1089810613
H  H58  1  0.48630000  0.23200000  0.81790000  1.0 0.0800775382
H  H59  1  0.90170000  0.89270000  0.74270000  1.0 0.3638175378
H  H60  1  0.90360000  0.95500000  0.75540000  1.0 0.3828992812
H  H61  1  0.78460000  0.86730000  0.17030000  1.0 0.366756058
H  H62  1  0.83210000  0.92130000  0.16440000  1.0 0.3828992812
H  H63  1  0.90810000  0.84930000  0.67070000  1.0 0.1983809831
H  H64  1  0.84990000  0.83930000  0.64190000  1.0 0.190200186
H  H65  1  0.94790000  0.68490000  0.32990000  1.0 0.1272135786
H  H66  1  0.83650000  0.73540000  0.27370000  1.0 0.1184276614
H  H67  1  0.04060000  0.53970000  0.22140000  1.0 0.1184276614
H  H68  1  0.09740000  0.65620000  0.32530000  1.0 0.1184276614
H  H69  1  0.83890000  0.98190000  0.50090000  1.0 0.1184276614
H  H70  1  0.56760000  0.70460000  0.26290000  1.0 0.1272135786
H  H71  1  0.89050000  0.56430000  0.22340000  1.0 0.1423513548
H  H72  1  0.59500000  0.60450000  0.26900000  1.0 0.1272135786
H  H73  1  0.81400000  0.04920000  0.35600000  1.0 0.1423513548
H  H74  1  0.07450000  0.95240000  0.40130000  1.0 0.1184276614
H  H75  1  0.55760000  0.96320000  0.42620000  1.0 0.1272135786
H  H76  1  0.94190000  0.92750000  0.44110000  1.0 0.1423513548
H  H77  1  0.95040000  0.07010000  0.31840000  1.0 0.1089810613
H  H78  1  0.57080000  0.95730000  0.51320000  1.0 0.1184276614
H  H79  1  0.94690000  0.91680000  0.55430000  1.0 0.1423513548
H  H80  1  0.00580000  0.86240000  0.53690000  1.0 0.1184276614
H  H81  1  0.90010000  0.86150000  0.52930000  1.0 0.1423513548
H  H82  1  0.96270000  0.76110000  0.53490000  1.0 0.0318950394
H  H83  1  0.04800000  0.80120000  0.54500000  1.0 0.0800775382
H  H84  1  0.04720000  0.73510000  0.56350000  1.0 0.0907011412
H  H85  1  0.90290000  0.73500000  0.65810000  1.0 0.0800775382
H  H86  1  0.00200000  0.71290000  0.64690000  1.0 0.1089810613
H  H87  1  0.98630000  0.76800000  0.68210000  1.0 0.0800775382
H  H88  1  0.59830000  0.39270000  0.75730000  1.0 0.3638175378
H  H89  1  0.59640000  0.45500000  0.74460000  1.0 0.3828992812
H  H90  1  0.71540000  0.36730000  0.32970000  1.0 0.366756058
H  H91  1  0.66790000  0.42130000  0.33560000  1.0 0.3828992812
H  H92  1  0.59190000  0.34930000  0.82930000  1.0 0.1983809831
H  H93  1  0.65010000  0.33930000  0.85810000  1.0 0.190200186
H  H94  1  0.55210000  0.18490000  0.17010000  1.0 0.1272135786
H  H95  1  0.66350000  0.23540000  0.22630000  1.0 0.1184276614
H  H96  1  0.45940000  0.03970000  0.27860000  1.0 0.1184276614
H  H97  1  0.40260000  0.15620000  0.17470000  1.0 0.1184276614
H  H98  1  0.66110000  0.48190000  0.99910000  1.0 0.1184276614
H  H99  1  0.93240000  0.20460000  0.23710000  1.0 0.1272135786
H  H100  1  0.60950000  0.06430000  0.27660000  1.0 0.1423513548
H  H101  1  0.90500000  0.10450000  0.23100000  1.0 0.1272135786
H  H102  1  0.68600000  0.54920000  0.14400000  1.0 0.1423513548
H  H103  1  0.42550000  0.45240000  0.09870000  1.0 0.1184276614
H  H104  1  0.94240000  0.46320000  0.07380000  1.0 0.1272135786
H  H105  1  0.55810000  0.42750000  0.05890000  1.0 0.1423513548
H  H106  1  0.54960000  0.57010000  0.18160000  1.0 0.1089810613
H  H107  1  0.92920000  0.45730000  0.98680000  1.0 0.1184276614
H  H108  1  0.55310000  0.41680000  0.94570000  1.0 0.1423513548
H  H109  1  0.49420000  0.36240000  0.96310000  1.0 0.1184276614
H  H110  1  0.59990000  0.36150000  0.97070000  1.0 0.1423513548
H  H111  1  0.53730000  0.26110000  0.96510000  1.0 0.0318950394
H  H112  1  0.45200000  0.30120000  0.95500000  1.0 0.0907011412
H  H113  1  0.45280000  0.23510000  0.93650000  1.0 0.0907011412
H  H114  1  0.59710000  0.23500000  0.84190000  1.0 0.0800775382
H  H115  1  0.49800000  0.21290000  0.85310000  1.0 0.1089810613
H  H116  1  0.51370000  0.26800000  0.81790000  1.0 0.0800775382
H  H117  1  0.90170000  0.39270000  0.25730000  1.0 0.3638175378
H  H118  1  0.90360000  0.45500000  0.24460000  1.0 0.3828992812
H  H119  1  0.78460000  0.36730000  0.82970000  1.0 0.366756058
H  H120  1  0.83210000  0.42130000  0.83560000  1.0 0.3828992812
H  H121  1  0.90810000  0.34930000  0.32930000  1.0 0.1983809831
H  H122  1  0.84990000  0.33930000  0.35810000  1.0 0.190200186
H  H123  1  0.94790000  0.18490000  0.67010000  1.0 0.1272135786
H  H124  1  0.83650000  0.23540000  0.72630000  1.0 0.1184276614
H  H125  1  0.04060000  0.03970000  0.77860000  1.0 0.1184276614
H  H126  1  0.09740000  0.15620000  0.67470000  1.0 0.1184276614
H  H127  1  0.83890000  0.48190000  0.49910000  1.0 0.1184276614
H  H128  1  0.56760000  0.20460000  0.73710000  1.0 0.1272135786
H  H129  1  0.89050000  0.06430000  0.77660000  1.0 0.1423513548
H  H130  1  0.59500000  0.10450000  0.73100000  1.0 0.1272135786
H  H131  1  0.81400000  0.54920000  0.64400000  1.0 0.1423513548
H  H132  1  0.07450000  0.45240000  0.59870000  1.0 0.1184276614
H  H133  1  0.55760000  0.46320000  0.57380000  1.0 0.1272135786
H  H134  1  0.94190000  0.42750000  0.55890000  1.0 0.1423513548
H  H135  1  0.95040000  0.57010000  0.68160000  1.0 0.1089810613
H  H136  1  0.57080000  0.45730000  0.48680000  1.0 0.1184276614
H  H137  1  0.94690000  0.41680000  0.44570000  1.0 0.1423513548
H  H138  1  0.00580000  0.36240000  0.46310000  1.0 0.1184276614
H  H139  1  0.90010000  0.36150000  0.47070000  1.0 0.1423513548
H  H140  1  0.96270000  0.26110000  0.46510000  1.0 0.0318950394
H  H141  1  0.04800000  0.30120000  0.45500000  1.0 0.0907011412
H  H142  1  0.04720000  0.23510000  0.43650000  1.0 0.0907011412
H  H143  1  0.90290000  0.23500000  0.34190000  1.0 0.0800775382
H  H144  1  0.00200000  0.21290000  0.35310000  1.0 0.1089810613
H  H145  1  0.98630000  0.26800000  0.31790000  1.0 0.0800775382
H  H146  1  0.59830000  0.89270000  0.24270000  1.0 0.3638175378
H  H147  1  0.59640000  0.95500000  0.25540000  1.0 0.3828992812
H  H148  1  0.71540000  0.86730000  0.67030000  1.0 0.366756058
H  H149  1  0.66790000  0.92130000  0.66440000  1.0 0.3828992812
H  H150  1  0.59190000  0.84930000  0.17070000  1.0 0.1983809831
H  H151  1  0.65010000  0.83930000  0.14190000  1.0 0.190200186
H  H152  1  0.55210000  0.68490000  0.82990000  1.0 0.1272135786
H  H153  1  0.66350000  0.73540000  0.77370000  1.0 0.1184276614
H  H154  1  0.45940000  0.53970000  0.72140000  1.0 0.1184276614
H  H155  1  0.40260000  0.65620000  0.82530000  1.0 0.1184276614
H  H156  1  0.66110000  0.98190000  0.00090000  1.0 0.1184276614
H  H157  1  0.93240000  0.70460000  0.76290000  1.0 0.1272135786
H  H158  1  0.60950000  0.56430000  0.72340000  1.0 0.1423513548
H  H159  1  0.90500000  0.60450000  0.76900000  1.0 0.1272135786
H  H160  1  0.68600000  0.04920000  0.85600000  1.0 0.1423513548
H  H161  1  0.42550000  0.95240000  0.90130000  1.0 0.1184276614
H  H162  1  0.94240000  0.96320000  0.92620000  1.0 0.1272135786
H  H163  1  0.55810000  0.92750000  0.94110000  1.0 0.1423513548
H  H164  1  0.54960000  0.07010000  0.81840000  1.0 0.1089810613
H  H165  1  0.92920000  0.95730000  0.01320000  1.0 0.1184276614
H  H166  1  0.55310000  0.91680000  0.05430000  1.0 0.1423513548
H  H167  1  0.49420000  0.86240000  0.03690000  1.0 0.1184276614
H  H168  1  0.59990000  0.86150000  0.02930000  1.0 0.1423513548
H  H169  1  0.53730000  0.76110000  0.03490000  1.0 0.0318950394
H  H170  1  0.45200000  0.80120000  0.04500000  1.0 0.0800775382
H  H171  1  0.45280000  0.73510000  0.06350000  1.0 0.0907011412
H  H172  1  0.59710000  0.73500000  0.15810000  1.0 0.0800775382
H  H173  1  0.49800000  0.71290000  0.14690000  1.0 0.1089810613
H  H174  1  0.51370000  0.76800000  0.18210000  1.0 0.0800775382
H  H175  1  0.09830000  0.10730000  0.25730000  1.0 0.3638175378
H  H176  1  0.09640000  0.04500000  0.24460000  1.0 0.3828992812
H  H177  1  0.21540000  0.13270000  0.82970000  1.0 0.366756058
H  H178  1  0.16790000  0.07870000  0.83560000  1.0 0.3828992812
H  H179  1  0.09190000  0.15070000  0.32930000  1.0 0.1983809831
H  H180  1  0.15010000  0.16070000  0.35810000  1.0 0.190200186
H  H181  1  0.05210000  0.31510000  0.67010000  1.0 0.1272135786
H  H182  1  0.16350000  0.26460000  0.72630000  1.0 0.1184276614
H  H183  1  0.95940000  0.46030000  0.77860000  1.0 0.1184276614
H  H184  1  0.90260000  0.34380000  0.67470000  1.0 0.1184276614
H  H185  1  0.16110000  0.01810000  0.49910000  1.0 0.1184276614
H  H186  1  0.43240000  0.29540000  0.73710000  1.0 0.1272135786
H  H187  1  0.10950000  0.43570000  0.77660000  1.0 0.1423513548
H  H188  1  0.40500000  0.39550000  0.73100000  1.0 0.1272135786
H  H189  1  0.18600000  0.95080000  0.64400000  1.0 0.1423513548
H  H190  1  0.92550000  0.04760000  0.59870000  1.0 0.1184276614
H  H191  1  0.44240000  0.03680000  0.57380000  1.0 0.1272135786
H  H192  1  0.05810000  0.07250000  0.55890000  1.0 0.1423513548
H  H193  1  0.04960000  0.92990000  0.68160000  1.0 0.1089810613
H  H194  1  0.42920000  0.04270000  0.48680000  1.0 0.1184276614
H  H195  1  0.05310000  0.08320000  0.44570000  1.0 0.1423513548
H  H196  1  0.99420000  0.13760000  0.46310000  1.0 0.1184276614
H  H197  1  0.09990000  0.13850000  0.47070000  1.0 0.1423513548
H  H198  1  0.03730000  0.23890000  0.46510000  1.0 0.0318950394
H  H199  1  0.95200000  0.19880000  0.45500000  1.0 0.0907011412
H  H200  1  0.95280000  0.26490000  0.43650000  1.0 0.0907011412
H  H201  1  0.09710000  0.26500000  0.34190000  1.0 0.0800775382
H  H202  1  0.99800000  0.28710000  0.35310000  1.0 0.1089810613
H  H203  1  0.01370000  0.23200000  0.31790000  1.0 0.0800775382
H  H204  1  0.40170000  0.60730000  0.24270000  1.0 0.3638175378
H  H205  1  0.40360000  0.54500000  0.25540000  1.0 0.3828992812
H  H206  1  0.28460000  0.63270000  0.67030000  1.0 0.366756058
H  H207  1  0.33210000  0.57870000  0.66440000  1.0 0.3828992812
H  H208  1  0.40810000  0.65070000  0.17070000  1.0 0.1983809831
H  H209  1  0.34990000  0.66070000  0.14190000  1.0 0.190200186
H  H210  1  0.44790000  0.81510000  0.82990000  1.0 0.1272135786
H  H211  1  0.33650000  0.76460000  0.77370000  1.0 0.1184276614
H  H212  1  0.54060000  0.96030000  0.72140000  1.0 0.1184276614
H  H213  1  0.59740000  0.84380000  0.82530000  1.0 0.1184276614
H  H214  1  0.33890000  0.51810000  0.00090000  1.0 0.1184276614
H  H215  1  0.06760000  0.79540000  0.76290000  1.0 0.1272135786
H  H216  1  0.39050000  0.93570000  0.72340000  1.0 0.1423513548
H  H217  1  0.09500000  0.89550000  0.76900000  1.0 0.1272135786
H  H218  1  0.31400000  0.45080000  0.85600000  1.0 0.1423513548
H  H219  1  0.57450000  0.54760000  0.90130000  1.0 0.1184276614
H  H220  1  0.05760000  0.53680000  0.92620000  1.0 0.1272135786
H  H221  1  0.44190000  0.57250000  0.94110000  1.0 0.1423513548
H  H222  1  0.45040000  0.42990000  0.81840000  1.0 0.1089810613
H  H223  1  0.07080000  0.54270000  0.01320000  1.0 0.1184276614
H  H224  1  0.44690000  0.58320000  0.05430000  1.0 0.1423513548
H  H225  1  0.50580000  0.63760000  0.03690000  1.0 0.1184276614
H  H226  1  0.40010000  0.63850000  0.02930000  1.0 0.1423513548
H  H227  1  0.46270000  0.73890000  0.03490000  1.0 0.0318950394
H  H228  1  0.54800000  0.69880000  0.04500000  1.0 0.0800775382
H  H229  1  0.54720000  0.76490000  0.06350000  1.0 0.0907011412
H  H230  1  0.40290000  0.76500000  0.15810000  1.0 0.0800775382
H  H231  1  0.50200000  0.78710000  0.14690000  1.0 0.1089810613
H  H232  1  0.48630000  0.73200000  0.18210000  1.0 0.0800775382
C  C1  1  0.25470000  0.95740000  0.28187000  1.0 0.5945628496
C  C2  1  0.09900000  0.87190000  0.27677000  1.0 0.1272135786
C  C3  1  0.19510000  0.85200000  0.27611000  1.0 0.0375890383
C  C4  1  0.26860000  0.89120000  0.27453000  1.0 -0.0505225317
C  C5  1  0.03480000  0.84470000  0.30740000  1.0 -0.2033357177
C  C6  1  0.13830000  0.51320000  0.40443000  1.0 0.1272135786
C  C7  1  0.21200000  0.79100000  0.27290000  1.0 -0.1609953767
C  C8  1  0.31460000  0.70280000  0.26420000  1.0 0.5716163615
C  C9  1  0.97800000  0.93040000  0.24330000  1.0 0.0907011412
C  C10  1  0.30020000  0.76920000  0.26860000  1.0 -0.0168085564
C  C11  1  0.22330000  0.52400000  0.43344000  1.0 0.0318950394
C  C12  1  0.94470000  0.86210000  0.30410000  1.0 0.0907011412
C  C13  1  0.21740000  0.52390000  0.48580000  1.0 -0.1471034078
C  C14  1  0.37320000  0.80930000  0.26650000  1.0 -0.1029924317
C  C15  1  0.06860000  0.91590000  0.24440000  1.0 -0.1740964739
C  C16  1  0.35640000  0.86910000  0.26990000  1.0 -0.1205624672
C  C17  1  0.13370000  0.47060000  0.36640000  1.0 -0.1609953767
C  C18  1  0.97820000  0.52710000  0.39280000  1.0 0.0907011412
C  C19  1  0.30810000  0.53210000  0.41044000  1.0 -0.0505225317
C  C20  1  0.31790000  0.54190000  0.35423000  1.0 0.5716163615
C  C21  1  0.38510000  0.53570000  0.44110000  1.0 -0.1108458055
C  C22  1  0.05790000  0.54260000  0.41680000  1.0 -0.2033357177
C  C23  1  0.05110000  0.45790000  0.34420000  1.0 0.0318950394
C  C24  1  0.37750000  0.53770000  0.49350000  1.0 -0.1108458055
C  C25  1  0.28190000  0.53830000  0.57290000  1.0 0.5765054139
C  C26  1  0.29360000  0.53230000  0.51630000  1.0 -0.0168085564
C  C27  1  0.05150000  0.62570000  0.55110000  1.0 -0.5806511877
C  C28  1  0.06340000  0.65490000  0.60500000  1.0 0.2534569638
C  C29  1  0.98930000  0.73010000  0.55830000  1.0 -0.1442807901
C  C30  1  0.03530000  0.75280000  0.65270000  1.0 -0.1776533438
C  C31  1  0.24530000  0.45740000  0.21813000  1.0 0.5945628496
C  C32  1  0.40100000  0.37190000  0.22323000  1.0 0.1272135786
C  C33  1  0.30490000  0.35200000  0.22389000  1.0 0.0375890383
C  C34  1  0.23140000  0.39120000  0.22547000  1.0 -0.0505225317
C  C35  1  0.46520000  0.34470000  0.19260000  1.0 -0.2033357177
C  C36  1  0.36170000  0.01320000  0.09557000  1.0 0.1272135786
C  C37  1  0.28800000  0.29100000  0.22710000  1.0 -0.1609953767
C  C38  1  0.18540000  0.20280000  0.23580000  1.0 0.5716163615
C  C39  1  0.52200000  0.43040000  0.25670000  1.0 0.0907011412
C  C40  1  0.19980000  0.26920000  0.23140000  1.0 -0.0168085564
C  C41  1  0.27670000  0.02400000  0.06656000  1.0 0.0318950394
C  C42  1  0.55530000  0.36210000  0.19590000  1.0 0.0907011412
C  C43  1  0.28260000  0.02390000  0.01420000  1.0 -0.1471034078
C  C44  1  0.12680000  0.30930000  0.23350000  1.0 -0.1029924317
C  C45  1  0.43140000  0.41590000  0.25560000  1.0 -0.1740964739
C  C46  1  0.14360000  0.36910000  0.23010000  1.0 -0.1205624672
C  C47  1  0.36630000  0.97060000  0.13360000  1.0 -0.1609953767
C  C48  1  0.52180000  0.02710000  0.10720000  1.0 0.0907011412
C  C49  1  0.19190000  0.03210000  0.08956000  1.0 -0.0505225317
C  C50  1  0.18210000  0.04190000  0.14577000  1.0 0.5716163615
C  C51  1  0.11490000  0.03570000  0.05890000  1.0 -0.1108458055
C  C52  1  0.44210000  0.04260000  0.08320000  1.0 -0.2033357177
C  C53  1  0.44890000  0.95790000  0.15580000  1.0 0.0318950394
C  C54  1  0.12250000  0.03770000  0.00650000  1.0 -0.1108458055
C  C55  1  0.21810000  0.03830000  0.92710000  1.0 0.5765054139
C  C56  1  0.20640000  0.03230000  0.98370000  1.0 -0.0168085564
C  C57  1  0.44850000  0.12570000  0.94890000  1.0 -0.5806511877
C  C58  1  0.43660000  0.15490000  0.89500000  1.0 0.2534569638
C  C59  1  0.51070000  0.23010000  0.94170000  1.0 -0.1442807901
C  C60  1  0.46470000  0.25280000  0.84730000  1.0 -0.1776533438
C  C61  1  0.74530000  0.54260000  0.28187000  1.0 0.5945628496
C  C62  1  0.90100000  0.62810000  0.27677000  1.0 0.1272135786
C  C63  1  0.80490000  0.64800000  0.27611000  1.0 0.0375890383
C  C64  1  0.73140000  0.60880000  0.27453000  1.0 -0.0505225317
C  C65  1  0.96520000  0.65530000  0.30740000  1.0 -0.2033357177
C  C66  1  0.86170000  0.98680000  0.40443000  1.0 0.1272135786
C  C67  1  0.78800000  0.70900000  0.27290000  1.0 -0.1609953767
C  C68  1  0.68540000  0.79720000  0.26420000  1.0 0.5716163615
C  C69  1  0.02200000  0.56960000  0.24330000  1.0 0.0907011412
C  C70  1  0.69980000  0.73080000  0.26860000  1.0 -0.0168085564
C  C71  1  0.77670000  0.97600000  0.43344000  1.0 0.0318950394
C  C72  1  0.05530000  0.63790000  0.30410000  1.0 0.0907011412
C  C73  1  0.78260000  0.97610000  0.48580000  1.0 -0.1471034078
C  C74  1  0.62680000  0.69070000  0.26650000  1.0 -0.1029924317
C  C75  1  0.93140000  0.58410000  0.24440000  1.0 -0.1740964739
C  C76  1  0.64360000  0.63090000  0.26990000  1.0 -0.1205624672
C  C77  1  0.86630000  0.02940000  0.36640000  1.0 -0.1609953767
C  C78  1  0.02180000  0.97290000  0.39280000  1.0 0.0907011412
C  C79  1  0.69190000  0.96790000  0.41044000  1.0 -0.0505225317
C  C80  1  0.68210000  0.95810000  0.35423000  1.0 0.5716163615
C  C81  1  0.61490000  0.96430000  0.44110000  1.0 -0.1108458055
C  C82  1  0.94210000  0.95740000  0.41680000  1.0 -0.2033357177
C  C83  1  0.94890000  0.04210000  0.34420000  1.0 0.0318950394
C  C84  1  0.62250000  0.96230000  0.49350000  1.0 -0.1108458055
C  C85  1  0.71810000  0.96170000  0.57290000  1.0 0.5765054139
C  C86  1  0.70640000  0.96770000  0.51630000  1.0 -0.0168085564
C  C87  1  0.94850000  0.87430000  0.55110000  1.0 -0.5806511877
C  C88  1  0.93660000  0.84510000  0.60500000  1.0 0.2534569638
C  C89  1  0.01070000  0.76990000  0.55830000  1.0 -0.1471034078
C  C90  1  0.96470000  0.74720000  0.65270000  1.0 -0.1776533438
C  C91  1  0.75470000  0.04260000  0.21813000  1.0 0.5945628496
C  C92  1  0.59900000  0.12810000  0.22323000  1.0 0.1272135786
C  C93  1  0.69510000  0.14800000  0.22389000  1.0 0.0375890383
C  C94  1  0.76860000  0.10880000  0.22547000  1.0 -0.0505225317
C  C95  1  0.53480000  0.15530000  0.19260000  1.0 -0.2033357177
C  C96  1  0.63830000  0.48680000  0.09557000  1.0 0.1272135786
C  C97  1  0.71200000  0.20900000  0.22710000  1.0 -0.1609953767
C  C98  1  0.81460000  0.29720000  0.23580000  1.0 0.5716163615
C  C99  1  0.47800000  0.06960000  0.25670000  1.0 0.0907011412
C  C100  1  0.80020000  0.23080000  0.23140000  1.0 -0.0168085564
C  C101  1  0.72330000  0.47600000  0.06656000  1.0 0.0318950394
C  C102  1  0.44470000  0.13790000  0.19590000  1.0 0.0907011412
C  C103  1  0.71740000  0.47610000  0.01420000  1.0 -0.1471034078
C  C104  1  0.87320000  0.19070000  0.23350000  1.0 -0.1029924317
C  C105  1  0.56860000  0.08410000  0.25560000  1.0 -0.1740964739
C  C106  1  0.85640000  0.13090000  0.23010000  1.0 -0.1205624672
C  C107  1  0.63370000  0.52940000  0.13360000  1.0 -0.1609953767
C  C108  1  0.47820000  0.47290000  0.10720000  1.0 0.0907011412
C  C109  1  0.80810000  0.46790000  0.08956000  1.0 -0.0505225317
C  C110  1  0.81790000  0.45810000  0.14577000  1.0 0.5716163615
C  C111  1  0.88510000  0.46430000  0.05890000  1.0 -0.1108458055
C  C112  1  0.55790000  0.45740000  0.08320000  1.0 -0.2033357177
C  C113  1  0.55110000  0.54210000  0.15580000  1.0 0.0318950394
C  C114  1  0.87750000  0.46230000  0.00650000  1.0 -0.1108458055
C  C115  1  0.78190000  0.46170000  0.92710000  1.0 0.5765054139
C  C116  1  0.79360000  0.46770000  0.98370000  1.0 -0.0168085564
C  C117  1  0.55150000  0.37430000  0.94890000  1.0 -0.5806511877
C  C118  1  0.56340000  0.34510000  0.89500000  1.0 0.2534569638
C  C119  1  0.48930000  0.26990000  0.94170000  1.0 -0.1442807901
C  C120  1  0.53530000  0.24720000  0.84730000  1.0 -0.1776533438
C  C121  1  0.74530000  0.04260000  0.71813000  1.0 0.5945628496
C  C122  1  0.90100000  0.12810000  0.72323000  1.0 0.1272135786
C  C123  1  0.80490000  0.14800000  0.72389000  1.0 0.0375890383
C  C124  1  0.73140000  0.10880000  0.72547000  1.0 -0.0505225317
C  C125  1  0.96520000  0.15530000  0.69260000  1.0 -0.2033357177
C  C126  1  0.86170000  0.48680000  0.59557000  1.0 0.1272135786
C  C127  1  0.78800000  0.20900000  0.72710000  1.0 -0.1609953767
C  C128  1  0.68540000  0.29720000  0.73580000  1.0 0.5716163615
C  C129  1  0.02200000  0.06960000  0.75670000  1.0 0.0907011412
C  C130  1  0.69980000  0.23080000  0.73140000  1.0 -0.0168085564
C  C131  1  0.77670000  0.47600000  0.56656000  1.0 0.0318950394
C  C132  1  0.05530000  0.13790000  0.69590000  1.0 0.0907011412
C  C133  1  0.78260000  0.47610000  0.51420000  1.0 -0.1471034078
C  C134  1  0.62680000  0.19070000  0.73350000  1.0 -0.1029924317
C  C135  1  0.93140000  0.08410000  0.75560000  1.0 -0.1740964739
C  C136  1  0.64360000  0.13090000  0.73010000  1.0 -0.1205624672
C  C137  1  0.86630000  0.52940000  0.63360000  1.0 -0.1609953767
C  C138  1  0.02180000  0.47290000  0.60720000  1.0 0.0907011412
C  C139  1  0.69190000  0.46790000  0.58956000  1.0 -0.0505225317
C  C140  1  0.68210000  0.45810000  0.64577000  1.0 0.5716163615
C  C141  1  0.61490000  0.46430000  0.55890000  1.0 -0.1108458055
C  C142  1  0.94210000  0.45740000  0.58320000  1.0 -0.2033357177
C  C143  1  0.94890000  0.54210000  0.65580000  1.0 0.0318950394
C  C144  1  0.62250000  0.46230000  0.50650000  1.0 -0.1108458055
C  C145  1  0.71810000  0.46170000  0.42710000  1.0 0.5765054139
C  C146  1  0.70640000  0.46770000  0.48370000  1.0 -0.0168085564
C  C147  1  0.94850000  0.37430000  0.44890000  1.0 -0.5806511877
C  C148  1  0.93660000  0.34510000  0.39500000  1.0 0.2534569638
C  C149  1  0.01070000  0.26990000  0.44170000  1.0 -0.1471034078
C  C150  1  0.96470000  0.24720000  0.34730000  1.0 -0.1776533438
C  C151  1  0.75470000  0.54260000  0.78187000  1.0 0.5945628496
C  C152  1  0.59900000  0.62810000  0.77677000  1.0 0.1272135786
C  C153  1  0.69510000  0.64800000  0.77611000  1.0 0.0375890383
C  C154  1  0.76860000  0.60880000  0.77453000  1.0 -0.0505225317
C  C155  1  0.53480000  0.65530000  0.80740000  1.0 -0.2033357177
C  C156  1  0.63830000  0.98680000  0.90443000  1.0 0.1272135786
C  C157  1  0.71200000  0.70900000  0.77290000  1.0 -0.1609953767
C  C158  1  0.81460000  0.79720000  0.76420000  1.0 0.5716163615
C  C159  1  0.47800000  0.56960000  0.74330000  1.0 0.0907011412
C  C160  1  0.80020000  0.73080000  0.76860000  1.0 -0.0168085564
C  C161  1  0.72330000  0.97600000  0.93344000  1.0 0.0318950394
C  C162  1  0.44470000  0.63790000  0.80410000  1.0 0.0907011412
C  C163  1  0.71740000  0.97610000  0.98580000  1.0 -0.1471034078
C  C164  1  0.87320000  0.69070000  0.76650000  1.0 -0.1029924317
C  C165  1  0.56860000  0.58410000  0.74440000  1.0 -0.1740964739
C  C166  1  0.85640000  0.63090000  0.76990000  1.0 -0.1205624672
C  C167  1  0.63370000  0.02940000  0.86640000  1.0 -0.1609953767
C  C168  1  0.47820000  0.97290000  0.89280000  1.0 0.0907011412
C  C169  1  0.80810000  0.96790000  0.91044000  1.0 -0.0505225317
C  C170  1  0.81790000  0.95810000  0.85423000  1.0 0.5716163615
C  C171  1  0.88510000  0.96430000  0.94110000  1.0 -0.1108458055
C  C172  1  0.55790000  0.95740000  0.91680000  1.0 -0.2033357177
C  C173  1  0.55110000  0.04210000  0.84420000  1.0 0.0318950394
C  C174  1  0.87750000  0.96230000  0.99350000  1.0 -0.1108458055
C  C175  1  0.78190000  0.96170000  0.07290000  1.0 0.5765054139
C  C176  1  0.79360000  0.96770000  0.01630000  1.0 -0.0168085564
C  C177  1  0.55150000  0.87430000  0.05110000  1.0 -0.5806511877
C  C178  1  0.56340000  0.84510000  0.10500000  1.0 0.2534569638
C  C179  1  0.48930000  0.76990000  0.05830000  1.0 -0.1442807901
C  C180  1  0.53530000  0.74720000  0.15270000  1.0 -0.1776533438
C  C181  1  0.25470000  0.45740000  0.71813000  1.0 0.5945628496
C  C182  1  0.09900000  0.37190000  0.72323000  1.0 0.1272135786
C  C183  1  0.19510000  0.35200000  0.72389000  1.0 0.0375890383
C  C184  1  0.26860000  0.39120000  0.72547000  1.0 -0.0505225317
C  C185  1  0.03480000  0.34470000  0.69260000  1.0 -0.2033357177
C  C186  1  0.13830000  0.01320000  0.59557000  1.0 0.1272135786
C  C187  1  0.21200000  0.29100000  0.72710000  1.0 -0.1609953767
C  C188  1  0.31460000  0.20280000  0.73580000  1.0 0.5716163615
C  C189  1  0.97800000  0.43040000  0.75670000  1.0 0.0907011412
C  C190  1  0.30020000  0.26920000  0.73140000  1.0 -0.0168085564
C  C191  1  0.22330000  0.02400000  0.56656000  1.0 0.0318950394
C  C192  1  0.94470000  0.36210000  0.69590000  1.0 0.0907011412
C  C193  1  0.21740000  0.02390000  0.51420000  1.0 -0.1471034078
C  C194  1  0.37320000  0.30930000  0.73350000  1.0 -0.1029924317
C  C195  1  0.06860000  0.41590000  0.75560000  1.0 -0.1740964739
C  C196  1  0.35640000  0.36910000  0.73010000  1.0 -0.1205624672
C  C197  1  0.13370000  0.97060000  0.63360000  1.0 -0.1609953767
C  C198  1  0.97820000  0.02710000  0.60720000  1.0 0.0907011412
C  C199  1  0.30810000  0.03210000  0.58956000  1.0 -0.0505225317
C  C200  1  0.31790000  0.04190000  0.64577000  1.0 0.5716163615
C  C201  1  0.38510000  0.03570000  0.55890000  1.0 -0.1108458055
C  C202  1  0.05790000  0.04260000  0.58320000  1.0 -0.2033357177
C  C203  1  0.05110000  0.95790000  0.65580000  1.0 0.0318950394
C  C204  1  0.37750000  0.03770000  0.50650000  1.0 -0.1108458055
C  C205  1  0.28190000  0.03830000  0.42710000  1.0 0.5765054139
C  C206  1  0.29360000  0.03230000  0.48370000  1.0 -0.0168085564
C  C207  1  0.05150000  0.12570000  0.44890000  1.0 -0.5806511877
C  C208  1  0.06340000  0.15490000  0.39500000  1.0 0.2534569638
C  C209  1  0.98930000  0.23010000  0.44170000  1.0 -0.1442807901
C  C210  1  0.03530000  0.25280000  0.34730000  1.0 -0.1776533438
C  C211  1  0.24530000  0.95740000  0.78187000  1.0 0.5945628496
C  C212  1  0.40100000  0.87190000  0.77677000  1.0 0.1272135786
C  C213  1  0.30490000  0.85200000  0.77611000  1.0 0.0375890383
C  C214  1  0.23140000  0.89120000  0.77453000  1.0 -0.0505225317
C  C215  1  0.46520000  0.84470000  0.80740000  1.0 -0.2033357177
C  C216  1  0.36170000  0.51320000  0.90443000  1.0 0.1272135786
C  C217  1  0.28800000  0.79100000  0.77290000  1.0 -0.1609953767
C  C218  1  0.18540000  0.70280000  0.76420000  1.0 0.5716163615
C  C219  1  0.52200000  0.93040000  0.74330000  1.0 0.0907011412
C  C220  1  0.19980000  0.76920000  0.76860000  1.0 -0.0168085564
C  C221  1  0.27670000  0.52400000  0.93344000  1.0 0.0318950394
C  C222  1  0.55530000  0.86210000  0.80410000  1.0 0.0907011412
C  C223  1  0.28260000  0.52390000  0.98580000  1.0 -0.1471034078
C  C224  1  0.12680000  0.80930000  0.76650000  1.0 -0.1029924317
C  C225  1  0.43140000  0.91590000  0.74440000  1.0 -0.1740964739
C  C226  1  0.14360000  0.86910000  0.76990000  1.0 -0.1205624672
C  C227  1  0.36630000  0.47060000  0.86640000  1.0 -0.1609953767
C  C228  1  0.52180000  0.52710000  0.89280000  1.0 0.0907011412
C  C229  1  0.19190000  0.53210000  0.91044000  1.0 -0.0505225317
C  C230  1  0.18210000  0.54190000  0.85423000  1.0 0.5716163615
C  C231  1  0.11490000  0.53570000  0.94110000  1.0 -0.1108458055
C  C232  1  0.44210000  0.54260000  0.91680000  1.0 -0.2033357177
C  C233  1  0.44890000  0.45790000  0.84420000  1.0 0.0318950394
C  C234  1  0.12250000  0.53770000  0.99350000  1.0 -0.1108458055
C  C235  1  0.21810000  0.53830000  0.07290000  1.0 0.5765054139
C  C236  1  0.20640000  0.53230000  0.01630000  1.0 -0.0168085564
C  C237  1  0.44850000  0.62570000  0.05110000  1.0 -0.5806511877
C  C238  1  0.43660000  0.65490000  0.10500000  1.0 0.2534569638
C  C239  1  0.51070000  0.73010000  0.05830000  1.0 -0.1442807901
C  C240  1  0.46470000  0.75280000  0.15270000  1.0 -0.1776533438
N  N1  1  0.91510000  0.90410000  0.27179000  1.0 -0.2516462201
N  N2  1  0.97270000  0.48410000  0.35801000  1.0 -0.2823551609
N  N3  1  0.03050000  0.71090000  0.60580000  1.0 -0.0665976437
N  N4  1  0.58490000  0.40410000  0.22821000  1.0 -0.2516462201
N  N5  1  0.52730000  0.98410000  0.14199000  1.0 -0.2823551609
N  N6  1  0.46950000  0.21090000  0.89420000  1.0 -0.0665976437
N  N7  1  0.08490000  0.59590000  0.27179000  1.0 -0.2516462201
N  N8  1  0.02730000  0.01590000  0.35801000  1.0 -0.2823551609
N  N9  1  0.96950000  0.78910000  0.60580000  1.0 -0.0665976437
N  N10  1  0.41510000  0.09590000  0.22821000  1.0 -0.2516462201
N  N11  1  0.47270000  0.51590000  0.14199000  1.0 -0.2823551609
N  N12  1  0.53050000  0.28910000  0.89420000  1.0 -0.0665976437
N  N13  1  0.08490000  0.09590000  0.72821000  1.0 -0.2516462201
N  N14  1  0.02730000  0.51590000  0.64199000  1.0 -0.2823551609
N  N15  1  0.96950000  0.28910000  0.39420000  1.0 -0.0665976437
N  N16  1  0.41510000  0.59590000  0.77179000  1.0 -0.2516462201
N  N17  1  0.47270000  0.01590000  0.85801000  1.0 -0.2823551609
N  N18  1  0.53050000  0.78910000  0.10580000  1.0 -0.0665976437
N  N19  1  0.91510000  0.40410000  0.72821000  1.0 -0.2516462201
N  N20  1  0.97270000  0.98410000  0.64199000  1.0 -0.2823551609
N  N21  1  0.03050000  0.21090000  0.39420000  1.0 -0.0665976437
N  N22  1  0.58490000  0.90410000  0.77179000  1.0 -0.2516462201
N  N23  1  0.52730000  0.48410000  0.85801000  1.0 -0.2823551609
N  N24  1  0.46950000  0.71090000  0.10580000  1.0 -0.0665976437
O  O1  1  0.20310000  0.97185000  0.31769000  1.0 -0.5372825094
O  O2  1  0.12630000  0.57349000  0.73927000  1.0 -0.7462101741
O  O3  1  0.29520000  0.99171000  0.25227000  1.0 -0.566960731
O  O4  1  0.39400000  0.68393000  0.25910000  1.0 -0.5512701063
O  O5  1  0.24410000  0.67170000  0.26506000  1.0 -0.5806511877
O  O6  1  0.20090000  0.53820000  0.58877000  1.0 -0.5956071032
O  O7  1  0.25390000  0.57023000  0.33437000  1.0 -0.557366663
O  O8  1  0.21530000  0.59616000  0.17904000  1.0 -0.7178397043
O  O9  1  0.38700000  0.52220000  0.33210000  1.0 -0.5806511877
O  O10  1  0.10400000  0.63542000  0.64245000  1.0 -0.43921926
O  O11  1  0.35060000  0.54510000  0.59941000  1.0 -0.5372825094
O  O12  1  0.29690000  0.47185000  0.18231000  1.0 -0.5372825094
O  O13  1  0.37370000  0.07349000  0.76073000  1.0 -0.7462101741
O  O14  1  0.20480000  0.49171000  0.24773000  1.0 -0.566960731
O  O15  1  0.10600000  0.18393000  0.24090000  1.0 -0.5512701063
O  O16  1  0.25590000  0.17170000  0.23494000  1.0 -0.5806511877
O  O17  1  0.29910000  0.03820000  0.91123000  1.0 -0.5956071032
O  O18  1  0.24610000  0.07023000  0.16563000  1.0 -0.557366663
O  O19  1  0.28470000  0.09616000  0.32096000  1.0 -0.7178397043
O  O20  1  0.11300000  0.02220000  0.16790000  1.0 -0.5806511877
O  O21  1  0.39600000  0.13542000  0.85755000  1.0 -0.43921926
O  O22  1  0.14940000  0.04510000  0.90059000  1.0 -0.5341983227
O  O23  1  0.79690000  0.52815000  0.31769000  1.0 -0.5372825094
O  O24  1  0.87370000  0.92651000  0.73927000  1.0 -0.7462101741
O  O25  1  0.70480000  0.50829000  0.25227000  1.0 -0.566960731
O  O26  1  0.60600000  0.81607000  0.25910000  1.0 -0.5512701063
O  O27  1  0.75590000  0.82830000  0.26506000  1.0 -0.5806511877
O  O28  1  0.79910000  0.96180000  0.58877000  1.0 -0.5956071032
O  O29  1  0.74610000  0.92977000  0.33437000  1.0 -0.557366663
O  O30  1  0.78470000  0.90384000  0.17904000  1.0 -0.7178397043
O  O31  1  0.61300000  0.97780000  0.33210000  1.0 -0.5806511877
O  O32  1  0.89600000  0.86458000  0.64245000  1.0 -0.43921926
O  O33  1  0.64940000  0.95490000  0.59941000  1.0 -0.5372825094
O  O34  1  0.70310000  0.02815000  0.18231000  1.0 -0.5372825094
O  O35  1  0.62630000  0.42651000  0.76073000  1.0 -0.7462101741
O  O36  1  0.79520000  0.00829000  0.24773000  1.0 -0.566960731
O  O37  1  0.89400000  0.31607000  0.24090000  1.0 -0.5512701063
O  O38  1  0.74410000  0.32830000  0.23494000  1.0 -0.5806511877
O  O39  1  0.70090000  0.46180000  0.91123000  1.0 -0.5956071032
O  O40  1  0.75390000  0.42977000  0.16563000  1.0 -0.557366663
O  O41  1  0.71530000  0.40384000  0.32096000  1.0 -0.7178397043
O  O42  1  0.88700000  0.47780000  0.16790000  1.0 -0.5806511877
O  O43  1  0.60400000  0.36458000  0.85755000  1.0 -0.43921926
O  O44  1  0.85060000  0.45490000  0.90059000  1.0 -0.5372825094
O  O45  1  0.79690000  0.02815000  0.68231000  1.0 -0.5372825094
O  O46  1  0.87370000  0.42651000  0.26073000  1.0 -0.7462101741
O  O47  1  0.70480000  0.00829000  0.74773000  1.0 -0.566960731
O  O48  1  0.60600000  0.31607000  0.74090000  1.0 -0.5512701063
O  O49  1  0.75590000  0.32830000  0.73494000  1.0 -0.5806511877
O  O50  1  0.79910000  0.46180000  0.41123000  1.0 -0.5956071032
O  O51  1  0.74610000  0.42977000  0.66563000  1.0 -0.557366663
O  O52  1  0.78470000  0.40384000  0.82096000  1.0 -0.7178397043
O  O53  1  0.61300000  0.47780000  0.66790000  1.0 -0.5806511877
O  O54  1  0.89600000  0.36458000  0.35755000  1.0 -0.43921926
O  O55  1  0.64940000  0.45490000  0.40059000  1.0 -0.5372825094
O  O56  1  0.70310000  0.52815000  0.81769000  1.0 -0.5372825094
O  O57  1  0.62630000  0.92651000  0.23927000  1.0 -0.7462101741
O  O58  1  0.79520000  0.50829000  0.75227000  1.0 -0.566960731
O  O59  1  0.89400000  0.81607000  0.75910000  1.0 -0.5512701063
O  O60  1  0.74410000  0.82830000  0.76506000  1.0 -0.5806511877
O  O61  1  0.70090000  0.96180000  0.08877000  1.0 -0.5956071032
O  O62  1  0.75390000  0.92977000  0.83437000  1.0 -0.557366663
O  O63  1  0.71530000  0.90384000  0.67904000  1.0 -0.7178397043
O  O64  1  0.88700000  0.97780000  0.83210000  1.0 -0.5806511877
O  O65  1  0.60400000  0.86458000  0.14245000  1.0 -0.43921926
O  O66  1  0.85060000  0.95490000  0.09941000  1.0 -0.5372825094
O  O67  1  0.20310000  0.47185000  0.68231000  1.0 -0.5372825094
O  O68  1  0.12630000  0.07349000  0.26073000  1.0 -0.7462101741
O  O69  1  0.29520000  0.49171000  0.74773000  1.0 -0.566960731
O  O70  1  0.39400000  0.18393000  0.74090000  1.0 -0.5512701063
O  O71  1  0.24410000  0.17170000  0.73494000  1.0 -0.5806511877
O  O72  1  0.20090000  0.03820000  0.41123000  1.0 -0.5956071032
O  O73  1  0.25390000  0.07023000  0.66563000  1.0 -0.557366663
O  O74  1  0.21530000  0.09616000  0.82096000  1.0 -0.7178397043
O  O75  1  0.38700000  0.02220000  0.66790000  1.0 -0.5806511877
O  O76  1  0.10400000  0.13542000  0.35755000  1.0 -0.43921926
O  O77  1  0.35060000  0.04510000  0.40059000  1.0 -0.5372825094
O  O78  1  0.29690000  0.97185000  0.81769000  1.0 -0.5372825094
O  O79  1  0.37370000  0.57349000  0.23927000  1.0 -0.7462101741
O  O80  1  0.20480000  0.99171000  0.75227000  1.0 -0.566960731
O  O81  1  0.10600000  0.68393000  0.75910000  1.0 -0.5512701063
O  O82  1  0.25590000  0.67170000  0.76506000  1.0 -0.5806511877
O  O83  1  0.29910000  0.53820000  0.08877000  1.0 -0.5956071032
O  O84  1  0.24610000  0.57023000  0.83437000  1.0 -0.557366663
O  O85  1  0.28470000  0.59616000  0.67904000  1.0 -0.7178397043
O  O86  1  0.11300000  0.52220000  0.83210000  1.0 -0.5806511877
O  O87  1  0.39600000  0.63542000  0.14245000  1.0 -0.43921926
O  O88  1  0.14940000  0.54510000  0.09941000  1.0 -0.5372825094
