# DDEC6 charges by PACMAN v1.1 (https://github.com/mtap-research/PACMAN-charge/)
data_YISGUG_ASR_pacman
_symmetry_space_group_name_H-M   'P 1'
_cell_length_a   23.84310000
_cell_length_b   23.84310000
_cell_length_c   23.84310000
_cell_angle_alpha   80.55890000
_cell_angle_beta   80.55890000
_cell_angle_gamma   80.55890000
_symmetry_Int_Tables_number   1
_chemical_formula_structural   In3H16C46N4O13
_chemical_formula_sum   'In18 H96 C276 N24 O78'
_cell_volume   13058.31091532
_cell_formula_units_Z   6
loop_
 _symmetry_equiv_pos_site_id
 _symmetry_equiv_pos_as_xyz
  1  'x, y, z'
loop_
 _atom_site_type_symbol
 _atom_site_label
 _atom_site_symmetry_multiplicity
 _atom_site_fract_x
 _atom_site_fract_y
 _atom_site_fract_z
 _atom_site_occupancy
 _atom_site_charge
In  In1  1  0.37563000  0.84293000  0.26131000  1.0 1.5320302682
In  In2  1  0.26131000  0.37563000  0.84293000  1.0 1.5320302682
In  In3  1  0.84293000  0.26131000  0.37563000  1.0 1.5320302682
In  In4  1  0.37563000  0.26131000  0.84293000  1.0 1.5320302682
In  In5  1  0.26131000  0.84293000  0.37563000  1.0 1.5320302682
In  In6  1  0.84293000  0.37563000  0.26131000  1.0 1.5320302682
In  In7  1  0.23954000  0.81720000  0.23953000  1.0 1.481360916
In  In8  1  0.23953000  0.23954000  0.81720000  1.0 1.481360916
In  In9  1  0.81720000  0.23953000  0.23954000  1.0 1.481360916
In  In10  1  0.62437000  0.73869000  0.15707000  1.0 1.5320302682
In  In11  1  0.73869000  0.15707000  0.62437000  1.0 1.5320302682
In  In12  1  0.15707000  0.62437000  0.73869000  1.0 1.5320302682
In  In13  1  0.62437000  0.15707000  0.73869000  1.0 1.5320302682
In  In14  1  0.73869000  0.62437000  0.15707000  1.0 1.5320302682
In  In15  1  0.15707000  0.73869000  0.62437000  1.0 1.5320302682
In  In16  1  0.76046000  0.76047000  0.18280000  1.0 1.481360916
In  In17  1  0.76047000  0.18280000  0.76046000  1.0 1.481360916
In  In18  1  0.18280000  0.76046000  0.76047000  1.0 1.481360916
H  H1  1  0.35963000  0.72024000  0.48904000  1.0 0.1108896408
H  H2  1  0.48904000  0.35963000  0.72024000  1.0 0.1108896408
H  H3  1  0.72024000  0.48904000  0.35963000  1.0 0.1108896408
H  H4  1  0.35963000  0.48904000  0.72024000  1.0 0.1108896408
H  H5  1  0.48904000  0.72024000  0.35963000  1.0 0.1108896408
H  H6  1  0.72024000  0.35963000  0.48904000  1.0 0.1108896408
H  H7  1  0.41456000  0.64659000  0.54273000  1.0 0.1043509504
H  H8  1  0.54273000  0.41456000  0.64659000  1.0 0.1043509504
H  H9  1  0.64659000  0.54273000  0.41456000  1.0 0.1043509504
H  H10  1  0.41456000  0.54273000  0.64659000  1.0 0.1043509504
H  H11  1  0.54273000  0.64659000  0.41456000  1.0 0.1043509504
H  H12  1  0.64659000  0.41456000  0.54273000  1.0 0.1043509504
H  H13  1  0.31931000  0.96770000  0.45045000  1.0 0.1108896408
H  H14  1  0.45045000  0.31931000  0.96770000  1.0 0.1108896408
H  H15  1  0.96770000  0.45045000  0.31931000  1.0 0.1108896408
H  H16  1  0.31931000  0.45045000  0.96770000  1.0 0.1108896408
H  H17  1  0.45045000  0.96770000  0.31931000  1.0 0.1108896408
H  H18  1  0.96770000  0.31931000  0.45045000  1.0 0.1108896408
H  H19  1  0.69726000  0.18839000  0.46199000  1.0 0.1108896408
H  H20  1  0.46199000  0.69726000  0.18839000  1.0 0.1108896408
H  H21  1  0.18839000  0.46199000  0.69726000  1.0 0.1108896408
H  H22  1  0.69726000  0.46199000  0.18839000  1.0 0.1108896408
H  H23  1  0.46199000  0.18839000  0.69726000  1.0 0.1108896408
H  H24  1  0.18839000  0.69726000  0.46199000  1.0 0.1108896408
H  H25  1  0.66882000  0.14885000  0.31309000  1.0 0.1176317817
H  H26  1  0.31309000  0.66882000  0.14885000  1.0 0.1176317817
H  H27  1  0.14885000  0.31309000  0.66882000  1.0 0.1176317817
H  H28  1  0.66882000  0.31309000  0.14885000  1.0 0.1176317817
H  H29  1  0.31309000  0.14885000  0.66882000  1.0 0.1176317817
H  H30  1  0.14885000  0.66882000  0.31309000  1.0 0.1176317817
H  H31  1  0.36598000  0.02397000  0.49608000  1.0 0.1043509504
H  H32  1  0.49608000  0.36598000  0.02397000  1.0 0.1043509504
H  H33  1  0.02397000  0.49608000  0.36598000  1.0 0.1043509504
H  H34  1  0.36598000  0.49608000  0.02397000  1.0 0.1043509504
H  H35  1  0.49608000  0.02397000  0.36598000  1.0 0.1043509504
H  H36  1  0.02397000  0.36598000  0.49608000  1.0 0.1043509504
H  H37  1  0.59218000  0.10861000  0.35853000  1.0 0.1176317817
H  H38  1  0.35853000  0.59218000  0.10861000  1.0 0.1176317817
H  H39  1  0.10861000  0.35853000  0.59218000  1.0 0.1176317817
H  H40  1  0.59218000  0.35853000  0.10861000  1.0 0.1176317817
H  H41  1  0.35853000  0.10861000  0.59218000  1.0 0.1176317817
H  H42  1  0.10861000  0.59218000  0.35853000  1.0 0.1176317817
H  H43  1  0.61406000  0.15478000  0.50839000  1.0 0.1108896408
H  H44  1  0.50839000  0.61406000  0.15478000  1.0 0.1108896408
H  H45  1  0.15478000  0.50839000  0.61406000  1.0 0.1108896408
H  H46  1  0.61406000  0.50839000  0.15478000  1.0 0.1108896408
H  H47  1  0.50839000  0.15478000  0.61406000  1.0 0.1108896408
H  H48  1  0.15478000  0.61406000  0.50839000  1.0 0.1108896408
H  H49  1  0.64037000  0.51096000  0.27976000  1.0 0.1108896408
H  H50  1  0.51096000  0.27976000  0.64037000  1.0 0.1108896408
H  H51  1  0.27976000  0.64037000  0.51096000  1.0 0.1108896408
H  H52  1  0.64037000  0.27976000  0.51096000  1.0 0.1108896408
H  H53  1  0.51096000  0.64037000  0.27976000  1.0 0.1108896408
H  H54  1  0.27976000  0.51096000  0.64037000  1.0 0.1108896408
H  H55  1  0.58544000  0.45727000  0.35341000  1.0 0.1043509504
H  H56  1  0.45727000  0.35341000  0.58544000  1.0 0.1043509504
H  H57  1  0.35341000  0.58544000  0.45727000  1.0 0.1043509504
H  H58  1  0.58544000  0.35341000  0.45727000  1.0 0.1043509504
H  H59  1  0.45727000  0.58544000  0.35341000  1.0 0.1043509504
H  H60  1  0.35341000  0.45727000  0.58544000  1.0 0.1043509504
H  H61  1  0.68069000  0.54955000  0.03230000  1.0 0.1108896408
H  H62  1  0.54955000  0.03230000  0.68069000  1.0 0.1108896408
H  H63  1  0.03230000  0.68069000  0.54955000  1.0 0.1108896408
H  H64  1  0.68069000  0.03230000  0.54955000  1.0 0.1108896408
H  H65  1  0.54955000  0.68069000  0.03230000  1.0 0.1108896408
H  H66  1  0.03230000  0.54955000  0.68069000  1.0 0.1108896408
H  H67  1  0.30274000  0.53801000  0.81161000  1.0 0.1108896408
H  H68  1  0.53801000  0.81161000  0.30274000  1.0 0.1108896408
H  H69  1  0.81161000  0.30274000  0.53801000  1.0 0.1108896408
H  H70  1  0.30274000  0.81161000  0.53801000  1.0 0.1108896408
H  H71  1  0.53801000  0.30274000  0.81161000  1.0 0.1108896408
H  H72  1  0.81161000  0.53801000  0.30274000  1.0 0.1108896408
H  H73  1  0.33118000  0.68691000  0.85115000  1.0 0.1176317817
H  H74  1  0.68691000  0.85115000  0.33118000  1.0 0.1176317817
H  H75  1  0.85115000  0.33118000  0.68691000  1.0 0.1176317817
H  H76  1  0.33118000  0.85115000  0.68691000  1.0 0.1176317817
H  H77  1  0.68691000  0.33118000  0.85115000  1.0 0.1176317817
H  H78  1  0.85115000  0.68691000  0.33118000  1.0 0.1176317817
H  H79  1  0.63402000  0.50392000  0.97603000  1.0 0.1043509504
H  H80  1  0.50392000  0.97603000  0.63402000  1.0 0.1043509504
H  H81  1  0.97603000  0.63402000  0.50392000  1.0 0.1043509504
H  H82  1  0.63402000  0.97603000  0.50392000  1.0 0.1043509504
H  H83  1  0.50392000  0.63402000  0.97603000  1.0 0.1043509504
H  H84  1  0.97603000  0.50392000  0.63402000  1.0 0.1043509504
H  H85  1  0.40782000  0.64147000  0.89139000  1.0 0.1176317817
H  H86  1  0.64147000  0.89139000  0.40782000  1.0 0.1176317817
H  H87  1  0.89139000  0.40782000  0.64147000  1.0 0.1176317817
H  H88  1  0.40782000  0.89139000  0.64147000  1.0 0.1176317817
H  H89  1  0.64147000  0.40782000  0.89139000  1.0 0.1176317817
H  H90  1  0.89139000  0.64147000  0.40782000  1.0 0.1176317817
H  H91  1  0.38594000  0.49161000  0.84522000  1.0 0.1108896408
H  H92  1  0.49161000  0.84522000  0.38594000  1.0 0.1108896408
H  H93  1  0.84522000  0.38594000  0.49161000  1.0 0.1108896408
H  H94  1  0.38594000  0.84522000  0.49161000  1.0 0.1108896408
H  H95  1  0.49161000  0.38594000  0.84522000  1.0 0.1108896408
H  H96  1  0.84522000  0.49161000  0.38594000  1.0 0.1108896408
C  C1  1  0.41840000  0.72840000  0.41830000  1.0 -0.0639423916
C  C2  1  0.41830000  0.41840000  0.72840000  1.0 -0.0639423916
C  C3  1  0.72840000  0.41830000  0.41840000  1.0 -0.0639423916
C  C4  1  0.51090000  0.58570000  0.51080000  1.0 0.3430965802
C  C5  1  0.51080000  0.51090000  0.58570000  1.0 0.3430965802
C  C6  1  0.58570000  0.51080000  0.51090000  1.0 0.3430965802
C  C7  1  0.38350000  0.77200000  0.38350000  1.0 0.5906265613
C  C8  1  0.38350000  0.38350000  0.77200000  1.0 0.5906265613
C  C9  1  0.77200000  0.38350000  0.38350000  1.0 0.5906265613
C  C10  1  0.48120000  0.63690000  0.48120000  1.0 0.0091914318
C  C11  1  0.48120000  0.48120000  0.63690000  1.0 0.0091914318
C  C12  1  0.63690000  0.48120000  0.48120000  1.0 0.0091914318
C  C13  1  0.35100000  0.92790000  0.35100000  1.0 0.5996545788
C  C14  1  0.35100000  0.35100000  0.92790000  1.0 0.5996545788
C  C15  1  0.92790000  0.35100000  0.35100000  1.0 0.5996545788
C  C16  1  0.69070000  0.17340000  0.38440000  1.0 -0.0376646185
C  C17  1  0.38440000  0.69070000  0.17340000  1.0 -0.0376646185
C  C18  1  0.17340000  0.38440000  0.69070000  1.0 -0.0376646185
C  C19  1  0.69070000  0.38440000  0.17340000  1.0 -0.0376646185
C  C20  1  0.38440000  0.17340000  0.69070000  1.0 -0.0376646185
C  C21  1  0.17340000  0.69070000  0.38440000  1.0 -0.0376646185
C  C22  1  0.74270000  0.19890000  0.35490000  1.0 0.5996545788
C  C23  1  0.35490000  0.74270000  0.19890000  1.0 0.5996545788
C  C24  1  0.19890000  0.35490000  0.74270000  1.0 0.5996545788
C  C25  1  0.74270000  0.35490000  0.19890000  1.0 0.5996545788
C  C26  1  0.35490000  0.19890000  0.74270000  1.0 0.5996545788
C  C27  1  0.19890000  0.74270000  0.35490000  1.0 0.5996545788
C  C28  1  0.38080000  0.96420000  0.38090000  1.0 -0.0376646185
C  C29  1  0.38090000  0.38080000  0.96420000  1.0 -0.0376646185
C  C30  1  0.96420000  0.38090000  0.38080000  1.0 -0.0376646185
C  C31  1  0.39710000  0.70540000  0.47250000  1.0 -0.1101322684
C  C32  1  0.47250000  0.39710000  0.70540000  1.0 -0.1101322684
C  C33  1  0.70540000  0.47250000  0.39710000  1.0 -0.1101322684
C  C34  1  0.39710000  0.47250000  0.70540000  1.0 -0.1101322684
C  C35  1  0.47250000  0.70540000  0.39710000  1.0 -0.1101322684
C  C36  1  0.70540000  0.39710000  0.47250000  1.0 -0.1101322684
C  C37  1  0.59270000  0.12870000  0.43830000  1.0 0.0091914318
C  C38  1  0.43830000  0.59270000  0.12870000  1.0 0.0091914318
C  C39  1  0.12870000  0.43830000  0.59270000  1.0 0.0091914318
C  C40  1  0.59270000  0.43830000  0.12870000  1.0 0.0091914318
C  C41  1  0.43830000  0.12870000  0.59270000  1.0 0.0091914318
C  C42  1  0.12870000  0.59270000  0.43830000  1.0 0.0091914318
C  C43  1  0.42950000  0.66050000  0.50450000  1.0 -0.1220648824
C  C44  1  0.50450000  0.42950000  0.66050000  1.0 -0.1220648824
C  C45  1  0.66050000  0.50450000  0.42950000  1.0 -0.1220648824
C  C46  1  0.42950000  0.50450000  0.66050000  1.0 -0.1220648824
C  C47  1  0.50450000  0.66050000  0.42950000  1.0 -0.1220648824
C  C48  1  0.66050000  0.42950000  0.50450000  1.0 -0.1220648824
C  C49  1  0.53950000  0.10800000  0.46630000  1.0 0.3343600667
C  C50  1  0.46630000  0.53950000  0.10800000  1.0 0.3343600667
C  C51  1  0.10800000  0.46630000  0.53950000  1.0 0.3343600667
C  C52  1  0.53950000  0.46630000  0.10800000  1.0 0.3343600667
C  C53  1  0.46630000  0.10800000  0.53950000  1.0 0.3343600667
C  C54  1  0.10800000  0.53950000  0.46630000  1.0 0.3343600667
C  C55  1  0.46470000  0.06170000  0.46470000  1.0 0.3430965802
C  C56  1  0.46470000  0.46470000  0.06170000  1.0 0.3430965802
C  C57  1  0.06170000  0.46470000  0.46470000  1.0 0.3430965802
C  C58  1  0.35520000  0.97920000  0.43320000  1.0 -0.1101322684
C  C59  1  0.43320000  0.35520000  0.97920000  1.0 -0.1101322684
C  C60  1  0.97920000  0.43320000  0.35520000  1.0 -0.1101322684
C  C61  1  0.35520000  0.43320000  0.97920000  1.0 -0.1101322684
C  C62  1  0.43320000  0.97920000  0.35520000  1.0 -0.1101322684
C  C63  1  0.97920000  0.35520000  0.43320000  1.0 -0.1101322684
C  C64  1  0.43560000  0.02670000  0.43550000  1.0 0.0091914318
C  C65  1  0.43550000  0.43560000  0.02670000  1.0 0.0091914318
C  C66  1  0.02670000  0.43550000  0.43560000  1.0 0.0091914318
C  C67  1  0.67420000  0.17350000  0.44070000  1.0 -0.1016107985
C  C68  1  0.44070000  0.67420000  0.17350000  1.0 -0.1016107985
C  C69  1  0.17350000  0.44070000  0.67420000  1.0 -0.1016107985
C  C70  1  0.67420000  0.44070000  0.17350000  1.0 -0.1016107985
C  C71  1  0.44070000  0.17350000  0.67420000  1.0 -0.1016107985
C  C72  1  0.17350000  0.67420000  0.44070000  1.0 -0.1016107985
C  C73  1  0.65800000  0.14910000  0.35320000  1.0 -0.1101322684
C  C74  1  0.35320000  0.65800000  0.14910000  1.0 -0.1101322684
C  C75  1  0.14910000  0.35320000  0.65800000  1.0 -0.1101322684
C  C76  1  0.65800000  0.35320000  0.14910000  1.0 -0.1101322684
C  C77  1  0.35320000  0.14910000  0.65800000  1.0 -0.1101322684
C  C78  1  0.14910000  0.65800000  0.35320000  1.0 -0.1101322684
C  C79  1  0.38340000  0.01200000  0.46040000  1.0 -0.1220648824
C  C80  1  0.46040000  0.38340000  0.01200000  1.0 -0.1220648824
C  C81  1  0.01200000  0.46040000  0.38340000  1.0 -0.1220648824
C  C82  1  0.38340000  0.46040000  0.01200000  1.0 -0.1220648824
C  C83  1  0.46040000  0.01200000  0.38340000  1.0 -0.1220648824
C  C84  1  0.01200000  0.38340000  0.46040000  1.0 -0.1220648824
C  C85  1  0.61270000  0.12680000  0.37970000  1.0 -0.1282139999
C  C86  1  0.37970000  0.61270000  0.12680000  1.0 -0.1282139999
C  C87  1  0.12680000  0.37970000  0.61270000  1.0 -0.1282139999
C  C88  1  0.61270000  0.37970000  0.12680000  1.0 -0.1282139999
C  C89  1  0.37970000  0.12680000  0.61270000  1.0 -0.1282139999
C  C90  1  0.12680000  0.61270000  0.37970000  1.0 -0.1282139999
C  C91  1  0.62540000  0.15270000  0.46860000  1.0 -0.1351405439
C  C92  1  0.46860000  0.62540000  0.15270000  1.0 -0.1351405439
C  C93  1  0.15270000  0.46860000  0.62540000  1.0 -0.1351405439
C  C94  1  0.62540000  0.46860000  0.15270000  1.0 -0.1351405439
C  C95  1  0.46860000  0.15270000  0.62540000  1.0 -0.1351405439
C  C96  1  0.15270000  0.62540000  0.46860000  1.0 -0.1351405439
C  C97  1  0.31300000  0.94830000  0.11330000  1.0 -0.1282139999
C  C98  1  0.11330000  0.31300000  0.94830000  1.0 -0.1282139999
C  C99  1  0.94830000  0.11330000  0.31300000  1.0 -0.1282139999
C  C100  1  0.31300000  0.11330000  0.94830000  1.0 -0.1282139999
C  C101  1  0.11330000  0.94830000  0.31300000  1.0 -0.1282139999
C  C102  1  0.94830000  0.31300000  0.11330000  1.0 -0.1282139999
C  C103  1  0.36370000  0.97150000  0.09160000  1.0 0.0532865569
C  C104  1  0.09160000  0.36370000  0.97150000  1.0 0.0581761543
C  C105  1  0.97150000  0.09160000  0.36370000  1.0 0.0532865569
C  C106  1  0.36370000  0.09160000  0.97150000  1.0 0.0581761543
C  C107  1  0.09160000  0.97150000  0.36370000  1.0 0.0532865569
C  C108  1  0.97150000  0.36370000  0.09160000  1.0 0.0532865569
C  C109  1  0.36430000  0.01420000  0.04410000  1.0 0.0581761543
C  C110  1  0.04410000  0.36430000  0.01420000  1.0 0.0581761543
C  C111  1  0.01420000  0.04410000  0.36430000  1.0 0.0581761543
C  C112  1  0.36430000  0.04410000  0.01420000  1.0 0.0581761543
C  C113  1  0.04410000  0.01420000  0.36430000  1.0 0.0581761543
C  C114  1  0.01420000  0.36430000  0.04410000  1.0 0.0581761543
C  C115  1  0.31580000  0.03280000  0.01790000  1.0 0.0312194348
C  C116  1  0.01790000  0.31580000  0.03280000  1.0 0.0312194348
C  C117  1  0.03280000  0.01790000  0.31580000  1.0 0.0312194348
C  C118  1  0.31580000  0.01790000  0.03280000  1.0 0.0312194348
C  C119  1  0.01790000  0.03280000  0.31580000  1.0 0.0312194348
C  C120  1  0.03280000  0.31580000  0.01790000  1.0 0.0312194348
C  C121  1  0.26570000  0.00950000  0.03910000  1.0 0.0532865569
C  C122  1  0.03910000  0.26570000  0.00950000  1.0 0.0532865569
C  C123  1  0.00950000  0.03910000  0.26570000  1.0 0.0532865569
C  C124  1  0.26570000  0.03910000  0.00950000  1.0 0.0532865569
C  C125  1  0.03910000  0.00950000  0.26570000  1.0 0.0532865569
C  C126  1  0.00950000  0.26570000  0.03910000  1.0 0.0532865569
C  C127  1  0.26390000  0.96740000  0.08690000  1.0 0.0179474272
C  C128  1  0.08690000  0.26390000  0.96740000  1.0 0.0179474272
C  C129  1  0.96740000  0.08690000  0.26390000  1.0 0.0179474272
C  C130  1  0.26390000  0.08690000  0.96740000  1.0 0.0179474272
C  C131  1  0.08690000  0.96740000  0.26390000  1.0 0.0179474272
C  C132  1  0.96740000  0.26390000  0.08690000  1.0 0.0179474272
C  C133  1  0.29850000  0.90040000  0.16490000  1.0 0.5126498377
C  C134  1  0.16490000  0.29850000  0.90040000  1.0 0.5126498377
C  C135  1  0.90040000  0.16490000  0.29850000  1.0 0.5126498377
C  C136  1  0.29850000  0.16490000  0.90040000  1.0 0.5126498377
C  C137  1  0.16490000  0.90040000  0.29850000  1.0 0.5126498377
C  C138  1  0.90040000  0.29850000  0.16490000  1.0 0.5126498377
C  C139  1  0.58160000  0.58170000  0.27160000  1.0 -0.0639423916
C  C140  1  0.58170000  0.27160000  0.58160000  1.0 -0.0639423916
C  C141  1  0.27160000  0.58160000  0.58170000  1.0 -0.0639423916
C  C142  1  0.48910000  0.48920000  0.41430000  1.0 0.3430965802
C  C143  1  0.48920000  0.41430000  0.48910000  1.0 0.3430965802
C  C144  1  0.41430000  0.48910000  0.48920000  1.0 0.3430965802
C  C145  1  0.61650000  0.61650000  0.22800000  1.0 0.5906265613
C  C146  1  0.61650000  0.22800000  0.61650000  1.0 0.5906265613
C  C147  1  0.22800000  0.61650000  0.61650000  1.0 0.5906265613
C  C148  1  0.51880000  0.51880000  0.36310000  1.0 0.0091914318
C  C149  1  0.51880000  0.36310000  0.51880000  1.0 0.0091914318
C  C150  1  0.36310000  0.51880000  0.51880000  1.0 0.0091914318
C  C151  1  0.64900000  0.64900000  0.07210000  1.0 0.5996545788
C  C152  1  0.64900000  0.07210000  0.64900000  1.0 0.5996545788
C  C153  1  0.07210000  0.64900000  0.64900000  1.0 0.5996545788
C  C154  1  0.30930000  0.61560000  0.82660000  1.0 -0.0376646185
C  C155  1  0.61560000  0.82660000  0.30930000  1.0 -0.0376646185
C  C156  1  0.82660000  0.30930000  0.61560000  1.0 -0.0376646185
C  C157  1  0.30930000  0.82660000  0.61560000  1.0 -0.0376646185
C  C158  1  0.61560000  0.30930000  0.82660000  1.0 -0.0376646185
C  C159  1  0.82660000  0.61560000  0.30930000  1.0 -0.0376646185
C  C160  1  0.25730000  0.64510000  0.80110000  1.0 0.5996545788
C  C161  1  0.64510000  0.80110000  0.25730000  1.0 0.5996545788
C  C162  1  0.80110000  0.25730000  0.64510000  1.0 0.5996545788
C  C163  1  0.25730000  0.80110000  0.64510000  1.0 0.5996545788
C  C164  1  0.64510000  0.25730000  0.80110000  1.0 0.5996545788
C  C165  1  0.80110000  0.64510000  0.25730000  1.0 0.5996545788
C  C166  1  0.61920000  0.61910000  0.03580000  1.0 -0.0376646185
C  C167  1  0.61910000  0.03580000  0.61920000  1.0 -0.0376646185
C  C168  1  0.03580000  0.61920000  0.61910000  1.0 -0.0376646185
C  C169  1  0.60290000  0.52750000  0.29460000  1.0 -0.1101322684
C  C170  1  0.52750000  0.29460000  0.60290000  1.0 -0.1101322684
C  C171  1  0.29460000  0.60290000  0.52750000  1.0 -0.1101322684
C  C172  1  0.60290000  0.29460000  0.52750000  1.0 -0.1101322684
C  C173  1  0.52750000  0.60290000  0.29460000  1.0 -0.1101322684
C  C174  1  0.29460000  0.52750000  0.60290000  1.0 -0.1101322684
C  C175  1  0.40730000  0.56170000  0.87130000  1.0 0.0091914318
C  C176  1  0.56170000  0.87130000  0.40730000  1.0 0.0091914318
C  C177  1  0.87130000  0.40730000  0.56170000  1.0 0.0091914318
C  C178  1  0.40730000  0.87130000  0.56170000  1.0 0.0091914318
C  C179  1  0.56170000  0.40730000  0.87130000  1.0 0.0091914318
C  C180  1  0.87130000  0.56170000  0.40730000  1.0 0.0091914318
C  C181  1  0.57050000  0.49550000  0.33950000  1.0 -0.1220648824
C  C182  1  0.49550000  0.33950000  0.57050000  1.0 -0.1220648824
C  C183  1  0.33950000  0.57050000  0.49550000  1.0 -0.1220648824
C  C184  1  0.57050000  0.33950000  0.49550000  1.0 -0.1220648824
C  C185  1  0.49550000  0.57050000  0.33950000  1.0 -0.1220648824
C  C186  1  0.33950000  0.49550000  0.57050000  1.0 -0.1220648824
C  C187  1  0.46050000  0.53370000  0.89200000  1.0 0.3343600667
C  C188  1  0.53370000  0.89200000  0.46050000  1.0 0.3343600667
C  C189  1  0.89200000  0.46050000  0.53370000  1.0 0.3343600667
C  C190  1  0.46050000  0.89200000  0.53370000  1.0 0.3343600667
C  C191  1  0.53370000  0.46050000  0.89200000  1.0 0.3343600667
C  C192  1  0.89200000  0.53370000  0.46050000  1.0 0.3343600667
C  C193  1  0.53530000  0.53530000  0.93830000  1.0 0.3430965802
C  C194  1  0.53530000  0.93830000  0.53530000  1.0 0.3430965802
C  C195  1  0.93830000  0.53530000  0.53530000  1.0 0.3430965802
C  C196  1  0.64480000  0.56680000  0.02080000  1.0 -0.1101322684
C  C197  1  0.56680000  0.02080000  0.64480000  1.0 -0.1101322684
C  C198  1  0.02080000  0.64480000  0.56680000  1.0 -0.1101322684
C  C199  1  0.64480000  0.02080000  0.56680000  1.0 -0.1101322684
C  C200  1  0.56680000  0.64480000  0.02080000  1.0 -0.1101322684
C  C201  1  0.02080000  0.56680000  0.64480000  1.0 -0.1101322684
C  C202  1  0.56440000  0.56450000  0.97330000  1.0 0.0091914318
C  C203  1  0.56450000  0.97330000  0.56440000  1.0 0.0091914318
C  C204  1  0.97330000  0.56440000  0.56450000  1.0 0.0091914318
C  C205  1  0.32580000  0.55930000  0.82650000  1.0 -0.1016107985
C  C206  1  0.55930000  0.82650000  0.32580000  1.0 -0.1016107985
C  C207  1  0.82650000  0.32580000  0.55930000  1.0 -0.1016107985
C  C208  1  0.32580000  0.82650000  0.55930000  1.0 -0.1016107985
C  C209  1  0.55930000  0.32580000  0.82650000  1.0 -0.1016107985
C  C210  1  0.82650000  0.55930000  0.32580000  1.0 -0.1016107985
C  C211  1  0.34200000  0.64680000  0.85090000  1.0 -0.1101322684
C  C212  1  0.64680000  0.85090000  0.34200000  1.0 -0.1101322684
C  C213  1  0.85090000  0.34200000  0.64680000  1.0 -0.1101322684
C  C214  1  0.34200000  0.85090000  0.64680000  1.0 -0.1101322684
C  C215  1  0.64680000  0.34200000  0.85090000  1.0 -0.1101322684
C  C216  1  0.85090000  0.64680000  0.34200000  1.0 -0.1101322684
C  C217  1  0.61660000  0.53960000  0.98800000  1.0 -0.1220648824
C  C218  1  0.53960000  0.98800000  0.61660000  1.0 -0.1220648824
C  C219  1  0.98800000  0.61660000  0.53960000  1.0 -0.1220648824
C  C220  1  0.61660000  0.98800000  0.53960000  1.0 -0.1220648824
C  C221  1  0.53960000  0.61660000  0.98800000  1.0 -0.1220648824
C  C222  1  0.98800000  0.53960000  0.61660000  1.0 -0.1220648824
C  C223  1  0.38730000  0.62030000  0.87320000  1.0 -0.1282139999
C  C224  1  0.62030000  0.87320000  0.38730000  1.0 -0.1282139999
C  C225  1  0.87320000  0.38730000  0.62030000  1.0 -0.1282139999
C  C226  1  0.38730000  0.87320000  0.62030000  1.0 -0.1282139999
C  C227  1  0.62030000  0.38730000  0.87320000  1.0 -0.1282139999
C  C228  1  0.87320000  0.62030000  0.38730000  1.0 -0.1282139999
C  C229  1  0.37460000  0.53140000  0.84730000  1.0 -0.1351405439
C  C230  1  0.53140000  0.84730000  0.37460000  1.0 -0.1351405439
C  C231  1  0.84730000  0.37460000  0.53140000  1.0 -0.1351405439
C  C232  1  0.37460000  0.84730000  0.53140000  1.0 -0.1351405439
C  C233  1  0.53140000  0.37460000  0.84730000  1.0 -0.1351405439
C  C234  1  0.84730000  0.53140000  0.37460000  1.0 -0.1351405439
C  C235  1  0.68700000  0.88670000  0.05170000  1.0 -0.1282139999
C  C236  1  0.88670000  0.05170000  0.68700000  1.0 -0.1282139999
C  C237  1  0.05170000  0.68700000  0.88670000  1.0 -0.1282139999
C  C238  1  0.68700000  0.05170000  0.88670000  1.0 -0.1282139999
C  C239  1  0.88670000  0.68700000  0.05170000  1.0 -0.1282139999
C  C240  1  0.05170000  0.88670000  0.68700000  1.0 -0.1282139999
C  C241  1  0.63630000  0.90840000  0.02850000  1.0 0.0532865569
C  C242  1  0.90840000  0.02850000  0.63630000  1.0 0.0581761543
C  C243  1  0.02850000  0.63630000  0.90840000  1.0 0.0581761543
C  C244  1  0.63630000  0.02850000  0.90840000  1.0 0.0581761543
C  C245  1  0.90840000  0.63630000  0.02850000  1.0 0.0532865569
C  C246  1  0.02850000  0.90840000  0.63630000  1.0 0.0581761543
C  C247  1  0.63570000  0.95590000  0.98580000  1.0 0.0581761543
C  C248  1  0.95590000  0.98580000  0.63570000  1.0 0.0581761543
C  C249  1  0.98580000  0.63570000  0.95590000  1.0 0.0581761543
C  C250  1  0.63570000  0.98580000  0.95590000  1.0 0.0581761543
C  C251  1  0.95590000  0.63570000  0.98580000  1.0 0.0581761543
C  C252  1  0.98580000  0.95590000  0.63570000  1.0 0.0581761543
C  C253  1  0.68420000  0.98210000  0.96720000  1.0 0.0312194348
C  C254  1  0.98210000  0.96720000  0.68420000  1.0 0.0312194348
C  C255  1  0.96720000  0.68420000  0.98210000  1.0 0.0312194348
C  C256  1  0.68420000  0.96720000  0.98210000  1.0 0.0312194348
C  C257  1  0.98210000  0.68420000  0.96720000  1.0 0.0312194348
C  C258  1  0.96720000  0.98210000  0.68420000  1.0 0.0312194348
C  C259  1  0.73430000  0.96090000  0.99050000  1.0 0.0532865569
C  C260  1  0.96090000  0.99050000  0.73430000  1.0 0.0532865569
C  C261  1  0.99050000  0.73430000  0.96090000  1.0 0.0532865569
C  C262  1  0.73430000  0.99050000  0.96090000  1.0 0.0532865569
C  C263  1  0.96090000  0.73430000  0.99050000  1.0 0.0532865569
C  C264  1  0.99050000  0.96090000  0.73430000  1.0 0.0532865569
C  C265  1  0.73610000  0.91310000  0.03260000  1.0 0.0179474272
C  C266  1  0.91310000  0.03260000  0.73610000  1.0 0.0179474272
C  C267  1  0.03260000  0.73610000  0.91310000  1.0 0.0179474272
C  C268  1  0.73610000  0.03260000  0.91310000  1.0 0.0179474272
C  C269  1  0.91310000  0.73610000  0.03260000  1.0 0.0179474272
C  C270  1  0.03260000  0.91310000  0.73610000  1.0 0.0179474272
C  C271  1  0.70150000  0.83510000  0.09960000  1.0 0.5126498377
C  C272  1  0.83510000  0.09960000  0.70150000  1.0 0.5126498377
C  C273  1  0.09960000  0.70150000  0.83510000  1.0 0.5126498377
C  C274  1  0.70150000  0.09960000  0.83510000  1.0 0.5126498377
C  C275  1  0.83510000  0.70150000  0.09960000  1.0 0.5126498377
C  C276  1  0.09960000  0.83510000  0.70150000  1.0 0.5126498377
N  N1  1  0.48700000  0.56200000  0.56200000  1.0 -0.4266224766
N  N2  1  0.56200000  0.48700000  0.56200000  1.0 -0.4266224766
N  N3  1  0.56200000  0.56200000  0.48700000  1.0 -0.4266224766
N  N4  1  0.51650000  0.12430000  0.51650000  1.0 -0.4090407157
N  N5  1  0.51650000  0.51650000  0.12430000  1.0 -0.4090407157
N  N6  1  0.12430000  0.51650000  0.51650000  1.0 -0.4090407157
N  N7  1  0.51456000  0.07626000  0.43916000  1.0 -0.4190851625
N  N8  1  0.43916000  0.51456000  0.07626000  1.0 -0.4190851625
N  N9  1  0.07626000  0.43916000  0.51456000  1.0 -0.4190851625
N  N10  1  0.51456000  0.43916000  0.07626000  1.0 -0.4190851625
N  N11  1  0.43916000  0.07626000  0.51456000  1.0 -0.4190851625
N  N12  1  0.07626000  0.51456000  0.43916000  1.0 -0.4190851625
N  N13  1  0.51300000  0.43800000  0.43800000  1.0 -0.4266224766
N  N14  1  0.43800000  0.43800000  0.51300000  1.0 -0.4266224766
N  N15  1  0.43800000  0.51300000  0.43800000  1.0 -0.4266224766
N  N16  1  0.48350000  0.48350000  0.87570000  1.0 -0.4090407157
N  N17  1  0.48350000  0.87570000  0.48350000  1.0 -0.4090407157
N  N18  1  0.87570000  0.48350000  0.48350000  1.0 -0.4090407157
N  N19  1  0.48544000  0.56084000  0.92374000  1.0 -0.4190851625
N  N20  1  0.56084000  0.92374000  0.48544000  1.0 -0.4190851625
N  N21  1  0.92374000  0.48544000  0.56084000  1.0 -0.4190851625
N  N22  1  0.48544000  0.92374000  0.56084000  1.0 -0.4190851625
N  N23  1  0.56084000  0.48544000  0.92374000  1.0 -0.4190851625
N  N24  1  0.92374000  0.56084000  0.48544000  1.0 -0.4190851625
O  O1  1  0.29354000  0.83264000  0.29354000  1.0 -1.0804294312
O  O2  1  0.29354000  0.29354000  0.83264000  1.0 -1.0804294312
O  O3  1  0.83264000  0.29354000  0.29354000  1.0 -1.0804294312
O  O4  1  0.40680000  0.78820000  0.33350000  1.0 -0.5828540885
O  O5  1  0.33350000  0.40680000  0.78820000  1.0 -0.5828540885
O  O6  1  0.78820000  0.33350000  0.40680000  1.0 -0.5828540885
O  O7  1  0.40680000  0.33350000  0.78820000  1.0 -0.5828540885
O  O8  1  0.33350000  0.78820000  0.40680000  1.0 -0.5828540885
O  O9  1  0.78820000  0.40680000  0.33350000  1.0 -0.5828540885
O  O10  1  0.75275000  0.20345000  0.30235000  1.0 -0.5158524775
O  O11  1  0.30235000  0.75275000  0.20345000  1.0 -0.5158524775
O  O12  1  0.20345000  0.30235000  0.75275000  1.0 -0.5158524775
O  O13  1  0.75275000  0.30235000  0.20345000  1.0 -0.5158524775
O  O14  1  0.30235000  0.20345000  0.75275000  1.0 -0.5158524775
O  O15  1  0.20345000  0.75275000  0.30235000  1.0 -0.5158524775
O  O16  1  0.37842000  0.91362000  0.30522000  1.0 -0.5568290913
O  O17  1  0.30522000  0.37842000  0.91362000  1.0 -0.5568290913
O  O18  1  0.91362000  0.30522000  0.37842000  1.0 -0.5568290913
O  O19  1  0.37842000  0.30522000  0.91362000  1.0 -0.5568290913
O  O20  1  0.30522000  0.91362000  0.37842000  1.0 -0.5568290913
O  O21  1  0.91362000  0.37842000  0.30522000  1.0 -0.5568290913
O  O22  1  0.77125000  0.21455000  0.38765000  1.0 -0.5700634583
O  O23  1  0.38765000  0.77125000  0.21455000  1.0 -0.5700634583
O  O24  1  0.21455000  0.38765000  0.77125000  1.0 -0.5700634583
O  O25  1  0.77125000  0.38765000  0.21455000  1.0 -0.5700634583
O  O26  1  0.38765000  0.21455000  0.77125000  1.0 -0.5700634583
O  O27  1  0.21455000  0.77125000  0.38765000  1.0 -0.5700634583
O  O28  1  0.35080000  0.90160000  0.18820000  1.0 -0.6018903915
O  O29  1  0.18820000  0.35080000  0.90160000  1.0 -0.6018903915
O  O30  1  0.90160000  0.18820000  0.35080000  1.0 -0.6018903915
O  O31  1  0.35080000  0.18820000  0.90160000  1.0 -0.6018903915
O  O32  1  0.18820000  0.90160000  0.35080000  1.0 -0.6018903915
O  O33  1  0.90160000  0.35080000  0.18820000  1.0 -0.6018903915
O  O34  1  0.26130000  0.88060000  0.17150000  1.0 -0.4190851625
O  O35  1  0.17150000  0.26130000  0.88060000  1.0 -0.4190851625
O  O36  1  0.88060000  0.17150000  0.26130000  1.0 -0.4190851625
O  O37  1  0.26130000  0.17150000  0.88060000  1.0 -0.4190851625
O  O38  1  0.17150000  0.88060000  0.26130000  1.0 -0.4190851625
O  O39  1  0.88060000  0.26130000  0.17150000  1.0 -0.4190851625
O  O40  1  0.70646000  0.70646000  0.16736000  1.0 -1.0804294312
O  O41  1  0.70646000  0.16736000  0.70646000  1.0 -1.0804294312
O  O42  1  0.16736000  0.70646000  0.70646000  1.0 -1.0804294312
O  O43  1  0.59320000  0.66650000  0.21180000  1.0 -0.5828540885
O  O44  1  0.66650000  0.21180000  0.59320000  1.0 -0.5828540885
O  O45  1  0.21180000  0.59320000  0.66650000  1.0 -0.5828540885
O  O46  1  0.59320000  0.21180000  0.66650000  1.0 -0.5828540885
O  O47  1  0.66650000  0.59320000  0.21180000  1.0 -0.5828540885
O  O48  1  0.21180000  0.66650000  0.59320000  1.0 -0.5828540885
O  O49  1  0.24725000  0.69765000  0.79655000  1.0 -0.5158524775
O  O50  1  0.69765000  0.79655000  0.24725000  1.0 -0.5158524775
O  O51  1  0.79655000  0.24725000  0.69765000  1.0 -0.5158524775
O  O52  1  0.24725000  0.79655000  0.69765000  1.0 -0.5158524775
O  O53  1  0.69765000  0.24725000  0.79655000  1.0 -0.5158524775
O  O54  1  0.79655000  0.69765000  0.24725000  1.0 -0.5158524775
O  O55  1  0.62158000  0.69478000  0.08638000  1.0 -0.5568290913
O  O56  1  0.69478000  0.08638000  0.62158000  1.0 -0.5568290913
O  O57  1  0.08638000  0.62158000  0.69478000  1.0 -0.5568290913
O  O58  1  0.62158000  0.08638000  0.69478000  1.0 -0.5568290913
O  O59  1  0.69478000  0.62158000  0.08638000  1.0 -0.5568290913
O  O60  1  0.08638000  0.69478000  0.62158000  1.0 -0.5568290913
O  O61  1  0.22875000  0.61235000  0.78545000  1.0 -0.5700634583
O  O62  1  0.61235000  0.78545000  0.22875000  1.0 -0.5700634583
O  O63  1  0.78545000  0.22875000  0.61235000  1.0 -0.5700634583
O  O64  1  0.22875000  0.78545000  0.61235000  1.0 -0.5700634583
O  O65  1  0.61235000  0.22875000  0.78545000  1.0 -0.5700634583
O  O66  1  0.78545000  0.61235000  0.22875000  1.0 -0.5700634583
O  O67  1  0.64920000  0.81180000  0.09840000  1.0 -0.6018903915
O  O68  1  0.81180000  0.09840000  0.64920000  1.0 -0.6018903915
O  O69  1  0.09840000  0.64920000  0.81180000  1.0 -0.6018903915
O  O70  1  0.64920000  0.09840000  0.81180000  1.0 -0.6018903915
O  O71  1  0.81180000  0.64920000  0.09840000  1.0 -0.6018903915
O  O72  1  0.09840000  0.81180000  0.64920000  1.0 -0.6018903915
O  O73  1  0.73870000  0.82850000  0.11940000  1.0 -0.4190851625
O  O74  1  0.82850000  0.11940000  0.73870000  1.0 -0.4190851625
O  O75  1  0.11940000  0.73870000  0.82850000  1.0 -0.4190851625
O  O76  1  0.73870000  0.11940000  0.82850000  1.0 -0.4190851625
O  O77  1  0.82850000  0.73870000  0.11940000  1.0 -0.4190851625
O  O78  1  0.11940000  0.82850000  0.73870000  1.0 -0.4190851625
