# DDEC6 charges by PACMAN v1.1 (https://github.com/mtap-research/PACMAN-charge/)
data_YISGOA_ASR_pacman
_symmetry_space_group_name_H-M   'P 1'
_cell_length_a   25.78620000
_cell_length_b   25.78620000
_cell_length_c   24.76090000
_cell_angle_alpha   86.91620000
_cell_angle_beta   93.08380000
_cell_angle_gamma   93.38490000
_symmetry_Int_Tables_number   1
_chemical_formula_structural   Sc9H116C200O43
_chemical_formula_sum   'Sc18 H232 C400 O86'
_cell_volume   16390.52032691
_cell_formula_units_Z   2
loop_
 _symmetry_equiv_pos_site_id
 _symmetry_equiv_pos_as_xyz
  1  'x, y, z'
loop_
 _atom_site_type_symbol
 _atom_site_label
 _atom_site_symmetry_multiplicity
 _atom_site_fract_x
 _atom_site_fract_y
 _atom_site_fract_z
 _atom_site_occupancy
 _atom_site_charge
Sc  Sc1  1  0.19357000  0.39855000  0.26452000  1.0 1.8145890306
Sc  Sc2  1  0.39855000  0.19357000  0.73548000  1.0 1.8145890306
Sc  Sc3  1  0.80643000  0.60145000  0.73548000  1.0 1.8145890306
Sc  Sc4  1  0.60145000  0.80643000  0.26452000  1.0 1.8145890306
Sc  Sc5  1  0.18373000  0.30135000  0.36729000  1.0 1.8018111358
Sc  Sc6  1  0.30135000  0.18373000  0.63271000  1.0 1.8018111358
Sc  Sc7  1  0.81627000  0.69865000  0.63271000  1.0 1.8018111358
Sc  Sc8  1  0.69865000  0.81627000  0.36729000  1.0 1.8018111358
Sc  Sc9  1  0.70966000  0.38958000  0.78241000  1.0 1.8203278254
Sc  Sc10  1  0.38958000  0.70966000  0.21759000  1.0 1.8203278254
Sc  Sc11  1  0.29034000  0.61042000  0.21759000  1.0 1.8203278254
Sc  Sc12  1  0.61042000  0.29034000  0.78241000  1.0 1.8203278254
Sc  Sc13  1  0.21797000  0.27055000  0.23938000  1.0 1.7543990682
Sc  Sc14  1  0.27055000  0.21797000  0.76062000  1.0 1.7543990682
Sc  Sc15  1  0.78203000  0.72945000  0.76062000  1.0 1.7557913731
Sc  Sc16  1  0.72945000  0.78203000  0.23938000  1.0 1.7557913731
Sc  Sc17  1  0.73154000  0.26846000  0.73506000  1.0 1.7543990682
Sc  Sc18  1  0.26846000  0.73154000  0.26494000  1.0 1.7543990682
H  H1  1  0.42080000  0.57920000  0.44600000  1.0 0.0993837734
H  H2  1  0.57920000  0.42080000  0.55400000  1.0 0.0993837734
H  H3  1  0.48839000  0.51161000  0.17085000  1.0 0.1110138494
H  H4  1  0.51161000  0.48839000  0.82915000  1.0 0.1110138494
H  H5  1  0.32801000  0.45896000  0.20352000  1.0 0.1266570422
H  H6  1  0.45896000  0.32802000  0.79648000  1.0 0.1266570422
H  H7  1  0.67199000  0.54104000  0.79648000  1.0 0.1266570422
H  H8  1  0.54104000  0.67199000  0.20352000  1.0 0.1266570422
H  H9  1  0.41594000  0.46972000  0.56920000  1.0 0.0993837734
H  H10  1  0.46972000  0.41594000  0.43080000  1.0 0.0993837734
H  H11  1  0.58406000  0.53028000  0.43080000  1.0 0.0993837734
H  H12  1  0.53028000  0.58406000  0.56920000  1.0 0.0993837734
H  H13  1  0.79438000  0.47074000  0.66349000  1.0 0.1266570422
H  H14  1  0.47074000  0.79438000  0.33651000  1.0 0.1266570422
H  H15  1  0.20562000  0.52926000  0.33651000  1.0 0.1266570422
H  H16  1  0.52926000  0.20562000  0.66349000  1.0 0.1266570422
H  H17  1  0.40148000  0.49732000  0.16505000  1.0 0.1110138494
H  H18  1  0.49732000  0.40148000  0.83495000  1.0 0.1110138494
H  H19  1  0.59852000  0.50268000  0.83495000  1.0 0.1110138494
H  H20  1  0.50268000  0.59852000  0.16505000  1.0 0.1110138494
H  H21  1  0.83920000  0.51504000  0.59600000  1.0 0.1110138494
H  H22  1  0.51504000  0.83920000  0.40400000  1.0 0.1110138494
H  H23  1  0.16080000  0.48496000  0.40400000  1.0 0.1110138494
H  H24  1  0.48496000  0.16080000  0.59600000  1.0 0.1110138494
H  H25  1  0.93872000  0.55366000  0.39128000  1.0 0.1110138494
H  H26  1  0.55366000  0.93872000  0.60872000  1.0 0.1110138494
H  H27  1  0.06128000  0.44634000  0.60872000  1.0 0.1110138494
H  H28  1  0.44634000  0.06128000  0.39128000  1.0 0.1110138494
H  H29  1  0.78531000  0.69745000  0.44832000  1.0 0.1191215796
H  H30  1  0.69745000  0.78531000  0.55168000  1.0 0.1191215796
H  H31  1  0.21469000  0.30255000  0.55168000  1.0 0.1191215796
H  H32  1  0.30255000  0.21469000  0.44832000  1.0 0.1191215796
H  H33  1  0.92849000  0.42867000  0.49533000  1.0 0.1110138494
H  H34  1  0.42867000  0.92849000  0.50467000  1.0 0.1110138494
H  H35  1  0.07151000  0.57133000  0.50467000  1.0 0.1110138494
H  H36  1  0.57133000  0.07151000  0.49533000  1.0 0.1110138494
H  H37  1  0.04683000  0.46433000  0.30514000  1.0 0.1266570422
H  H38  1  0.46433000  0.04683000  0.69486000  1.0 0.1266570422
H  H39  1  0.95317000  0.53567000  0.69486000  1.0 0.1266570422
H  H40  1  0.53567000  0.95317000  0.30514000  1.0 0.1266570422
H  H41  1  0.83015000  0.62825000  0.48905000  1.0 0.1110138494
H  H42  1  0.62825000  0.83015000  0.51095000  1.0 0.1110138494
H  H43  1  0.16985000  0.37175000  0.51095000  1.0 0.1110138494
H  H44  1  0.37175000  0.16985000  0.48905000  1.0 0.1110138494
H  H45  1  0.48182000  0.40478000  0.05689000  1.0 0.1110138494
H  H46  1  0.40478000  0.48182000  0.94311000  1.0 0.1110138494
H  H47  1  0.51818000  0.59522000  0.94311000  1.0 0.1110138494
H  H48  1  0.59522000  0.51818000  0.05689000  1.0 0.1110138494
H  H49  1  0.85169000  0.38006000  0.52280000  1.0 0.1110138494
H  H50  1  0.38005000  0.85169000  0.47720000  1.0 0.1110138494
H  H51  1  0.14830000  0.61994000  0.47720000  1.0 0.1110138494
H  H52  1  0.61994000  0.14830000  0.52280000  1.0 0.1110138494
H  H53  1  0.80593000  0.33649000  0.58926000  1.0 0.1191215796
H  H54  1  0.33649000  0.80593000  0.41074000  1.0 0.1191215796
H  H55  1  0.19407000  0.66351000  0.41074000  1.0 0.1191215796
H  H56  1  0.66351000  0.19407000  0.58926000  1.0 0.1191215796
H  H57  1  0.36655000  0.31785000  0.16037000  1.0 0.1191215796
H  H58  1  0.31785000  0.36655000  0.83963000  1.0 0.1191215796
H  H59  1  0.63345000  0.68215000  0.83963000  1.0 0.1191215796
H  H60  1  0.68215000  0.63345000  0.16037000  1.0 0.1191215796
H  H61  1  0.44228000  0.35526000  0.12614000  1.0 0.1110138494
H  H62  1  0.35526000  0.44228000  0.87386000  1.0 0.1110138494
H  H63  1  0.55772000  0.64474000  0.87386000  1.0 0.1110138494
H  H64  1  0.64474000  0.55772000  0.12614000  1.0 0.1110138494
H  H65  1  0.07370000  0.38188000  0.44521000  1.0 0.1110138494
H  H66  1  0.38188000  0.07370000  0.55479000  1.0 0.1110138494
H  H67  1  0.92630000  0.61812000  0.55479000  1.0 0.1110138494
H  H68  1  0.61812000  0.92630000  0.44521000  1.0 0.1110138494
H  H69  1  0.82762000  0.54234000  0.50000000  1.0 0.1110138494
H  H70  1  0.54234000  0.82762000  0.50000000  1.0 0.1110138494
H  H71  1  0.17238000  0.45766000  0.50000000  1.0 0.1110138494
H  H72  1  0.45766000  0.17238000  0.50000000  1.0 0.1110138494
H  H73  1  0.97771000  0.50097000  0.34161000  1.0 0.1110138494
H  H74  1  0.50097000  0.97771000  0.65839000  1.0 0.1110138494
H  H75  1  0.02229000  0.49903000  0.65839000  1.0 0.1110138494
H  H76  1  0.49903000  0.02229000  0.34161000  1.0 0.1110138494
H  H77  1  0.87484000  0.59402000  0.34068000  1.0 0.1110138494
H  H78  1  0.59402000  0.87484000  0.65932000  1.0 0.1110138494
H  H79  1  0.12516000  0.40598000  0.65932000  1.0 0.1110138494
H  H80  1  0.40598000  0.12516000  0.34068000  1.0 0.1110138494
H  H81  1  0.83366000  0.66594000  0.30243000  1.0 0.1191215796
H  H82  1  0.66594000  0.83366000  0.69757000  1.0 0.1191215796
H  H83  1  0.16634000  0.33406000  0.69757000  1.0 0.1191215796
H  H84  1  0.33406000  0.16634000  0.30243000  1.0 0.1191215796
H  H85  1  0.00761000  0.42193000  0.48185000  1.0 0.1110138494
H  H86  1  0.42193000  0.00761000  0.51815000  1.0 0.1110138494
H  H87  1  0.99239000  0.57807000  0.51815000  1.0 0.1110138494
H  H88  1  0.57807000  0.99239000  0.48185000  1.0 0.1110138494
H  H89  1  0.66488000  0.44606000  0.92976000  1.0 0.1110138494
H  H90  1  0.44606000  0.66488000  0.07024000  1.0 0.1110138494
H  H91  1  0.33512000  0.55394000  0.07024000  1.0 0.1110138494
H  H92  1  0.55394000  0.33512000  0.92976000  1.0 0.1110138494
H  H93  1  0.29435000  0.49719000  0.36204000  1.0 0.1266570422
H  H94  1  0.49719000  0.29435000  0.63796000  1.0 0.1266570422
H  H95  1  0.70565000  0.50281000  0.63796000  1.0 0.1266570422
H  H96  1  0.50281000  0.70565000  0.36204000  1.0 0.1266570422
H  H97  1  0.49771000  0.39171000  0.70107000  1.0 0.1191215796
H  H98  1  0.39171000  0.49771000  0.29893000  1.0 0.1191215796
H  H99  1  0.50229000  0.60829000  0.29893000  1.0 0.1191215796
H  H100  1  0.60829000  0.50229000  0.70107000  1.0 0.1191215796
H  H101  1  0.35801000  0.54357000  0.40880000  1.0 0.1110138494
H  H102  1  0.54357000  0.35801000  0.59120000  1.0 0.1110138494
H  H103  1  0.64199000  0.45643000  0.59120000  1.0 0.1110138494
H  H104  1  0.45643000  0.64199000  0.40880000  1.0 0.1110138494
H  H105  1  0.62456000  0.48632000  0.99684000  1.0 0.1110138494
H  H106  1  0.48632000  0.62456000  0.00316000  1.0 0.1110138494
H  H107  1  0.37544000  0.51368000  0.00316000  1.0 0.1110138494
H  H108  1  0.51368000  0.37544000  0.99684000  1.0 0.1110138494
H  H109  1  0.44943000  0.44077000  0.63812000  1.0 0.1110138494
H  H110  1  0.44077000  0.44943000  0.36188000  1.0 0.1110138494
H  H111  1  0.55057000  0.55923000  0.36188000  1.0 0.1110138494
H  H112  1  0.55923000  0.55057000  0.63812000  1.0 0.1110138494
H  H113  1  0.29324000  0.38556000  0.47609000  1.0 0.1191215796
H  H114  1  0.38556000  0.29324000  0.52391000  1.0 0.1191215796
H  H115  1  0.70676000  0.61444000  0.52391000  1.0 0.1191215796
H  H116  1  0.61444000  0.70676000  0.47609000  1.0 0.1191215796
H  H117  1  0.35680000  0.43136000  0.52638000  1.0 0.1110138494
H  H118  1  0.43136000  0.35680000  0.47362000  1.0 0.1110138494
H  H119  1  0.64320000  0.56864000  0.47362000  1.0 0.1110138494
H  H120  1  0.56864000  0.64320000  0.52638000  1.0 0.1110138494
H  H121  1  0.93985000  0.24110000  0.89943000  1.0 0.0895599064
H  H122  1  0.24109000  0.93986000  0.10057000  1.0 0.0895599064
H  H123  1  0.06014000  0.75891000  0.10057000  1.0 0.0895599064
H  H124  1  0.75890000  0.06015000  0.89943000  1.0 0.0895599064
H  H125  1  0.87028000  0.24788000  0.83524000  1.0 0.0806074568
H  H126  1  0.24788000  0.87028000  0.16476000  1.0 0.0806074568
H  H127  1  0.12972000  0.75212000  0.16476000  1.0 0.0806074568
H  H128  1  0.75212000  0.12972000  0.83524000  1.0 0.0806074568
H  H129  1  0.82610000  0.37522000  0.90601000  1.0 0.0714277328
H  H130  1  0.37522000  0.82610000  0.09399000  1.0 0.0714277328
H  H131  1  0.17390000  0.62478000  0.09399000  1.0 0.0714277328
H  H132  1  0.62478000  0.17390000  0.90601000  1.0 0.0714277328
H  H133  1  0.89567000  0.36843000  0.97021000  1.0 0.0806074568
H  H134  1  0.36843000  0.89567000  0.02979000  1.0 0.0806074568
H  H135  1  0.10433000  0.63157000  0.02979000  1.0 0.0806074568
H  H136  1  0.63157000  0.10433000  0.97021000  1.0 0.0806074568
H  H137  1  0.15323000  0.28313000  0.07745000  1.0 0.0806074568
H  H138  1  0.28313000  0.15323000  0.92255000  1.0 0.0806074568
H  H139  1  0.84677000  0.71687000  0.92255000  1.0 0.0806074568
H  H140  1  0.71687000  0.84677000  0.07745000  1.0 0.0806074568
H  H141  1  0.09908000  0.27960000  0.99866000  1.0 0.0806074568
H  H142  1  0.27960000  0.09908000  0.00134000  1.0 0.0806074568
H  H143  1  0.90092000  0.72040000  0.00134000  1.0 0.0806074568
H  H144  1  0.72040000  0.90092000  0.99866000  1.0 0.0806074568
H  H145  1  0.02453000  0.40305000  0.04400000  1.0 0.0609262209
H  H146  1  0.40305000  0.02453000  0.95600000  1.0 0.0609262209
H  H147  1  0.97547000  0.59695000  0.95600000  1.0 0.0609262209
H  H148  1  0.59695000  0.97547000  0.04400000  1.0 0.0609262209
H  H149  1  0.07869000  0.40657000  0.12279000  1.0 0.0714277328
H  H150  1  0.40657000  0.07869000  0.87721000  1.0 0.0714277328
H  H151  1  0.92131000  0.59343000  0.87721000  1.0 0.0714277328
H  H152  1  0.59343000  0.92131000  0.12279000  1.0 0.0714277328
H  H153  1  0.10666000  0.13974000  0.23063000  1.0 0.0806074568
H  H154  1  0.13974000  0.10666000  0.76937000  1.0 0.0806074568
H  H155  1  0.89334000  0.86026000  0.76937000  1.0 0.0806074568
H  H156  1  0.86026000  0.89334000  0.23063000  1.0 0.0714277328
H  H157  1  0.06988000  0.17332000  0.38148000  1.0 0.0806074568
H  H158  1  0.17332000  0.06988000  0.61852000  1.0 0.0806074568
H  H159  1  0.93012000  0.82668000  0.61852000  1.0 0.0806074568
H  H160  1  0.82668000  0.93012000  0.38148000  1.0 0.0806074568
H  H161  1  0.01038000  0.10122000  0.38406000  1.0 0.0714277328
H  H162  1  0.10122000  0.01038000  0.61594000  1.0 0.0714277328
H  H163  1  0.98962000  0.89878000  0.61594000  1.0 0.0714277328
H  H164  1  0.89878000  0.98962000  0.38406000  1.0 0.0714277328
H  H165  1  0.04716000  0.06764000  0.23321000  1.0 0.0609262209
H  H166  1  0.06764000  0.04716000  0.76679000  1.0 0.0609262209
H  H167  1  0.95284000  0.93236000  0.76679000  1.0 0.0609262209
H  H168  1  0.93236000  0.95284000  0.23321000  1.0 0.0609262209
H  H169  1  0.74284000  0.46000000  0.89664000  1.0 0.1110138494
H  H170  1  0.46000000  0.74284000  0.10336000  1.0 0.1110138494
H  H171  1  0.25716000  0.54000000  0.10336000  1.0 0.1110138494
H  H172  1  0.54000000  0.25716000  0.89664000  1.0 0.1110138494
H  H173  1  0.87962000  0.52040000  0.84073000  1.0 0.1191215796
H  H174  1  0.52040000  0.87962000  0.15927000  1.0 0.1191215796
H  H175  1  0.12038000  0.47960000  0.15927000  1.0 0.1191215796
H  H176  1  0.47960000  0.12038000  0.84073000  1.0 0.1191215796
H  H177  1  0.91792000  0.51348000  0.92847000  1.0 0.1191215796
H  H178  1  0.51348000  0.91792000  0.07153000  1.0 0.1191215796
H  H179  1  0.08208000  0.48652000  0.07153000  1.0 0.1191215796
H  H180  1  0.48652000  0.08208000  0.92847000  1.0 0.1191215796
H  H181  1  0.78113000  0.45309000  0.98438000  1.0 0.1191215796
H  H182  1  0.45309000  0.78113000  0.01562000  1.0 0.1191215796
H  H183  1  0.21887000  0.54691000  0.01562000  1.0 0.1191215796
H  H184  1  0.54691000  0.21887000  0.98438000  1.0 0.1191215796
H  H185  1  0.06137000  0.39511000  0.14397000  1.0 0.0714277328
H  H186  1  0.39511000  0.06137000  0.85603000  1.0 0.0714277328
H  H187  1  0.93863000  0.60489000  0.85603000  1.0 0.0806074568
H  H188  1  0.60489000  0.93863000  0.14397000  1.0 0.0714277328
H  H189  1  0.99469000  0.38183000  0.07741000  1.0 0.0714277328
H  H190  1  0.38183000  0.99469000  0.92259000  1.0 0.0714277328
H  H191  1  0.00531000  0.61817000  0.92259000  1.0 0.0714277328
H  H192  1  0.61817000  0.00531000  0.07741000  1.0 0.0714277328
H  H193  1  0.06208000  0.25342000  0.03363000  1.0 0.0806074568
H  H194  1  0.25342000  0.06208000  0.96637000  1.0 0.0806074568
H  H195  1  0.93792000  0.74658000  0.96637000  1.0 0.0806074568
H  H196  1  0.74658000  0.93792000  0.03363000  1.0 0.0806074568
H  H197  1  0.12874000  0.26670000  0.10018000  1.0 0.0806074568
H  H198  1  0.26670000  0.12874000  0.89982000  1.0 0.0806074568
H  H199  1  0.87126000  0.73330000  0.89982000  1.0 0.0806074568
H  H200  1  0.73330000  0.87126000  0.10018000  1.0 0.0806074568
H  H201  1  0.91945000  0.38723000  0.94844000  1.0 0.0714277328
H  H202  1  0.38723000  0.91945000  0.05156000  1.0 0.0714277328
H  H203  1  0.08055000  0.61277000  0.05156000  1.0 0.0714277328
H  H204  1  0.61277000  0.08055000  0.94844000  1.0 0.0714277328
H  H205  1  0.85054000  0.39650000  0.87810000  1.0 0.0714277328
H  H206  1  0.39650000  0.85054000  0.12190000  1.0 0.0714277328
H  H207  1  0.14946000  0.60350000  0.12190000  1.0 0.0714277328
H  H208  1  0.60350000  0.14946000  0.87810000  1.0 0.0714277328
H  H209  1  0.88187000  0.26167000  0.82571000  1.0 0.0895599064
H  H210  1  0.26167000  0.88187000  0.17429000  1.0 0.0895599064
H  H211  1  0.11813000  0.73833000  0.17429000  1.0 0.0895599064
H  H212  1  0.73833000  0.11813000  0.82571000  1.0 0.0895599064
H  H213  1  0.97426000  0.27246000  0.85796000  1.0 0.0895599064
H  H214  1  0.27246000  0.97426000  0.14204000  1.0 0.0895599064
H  H215  1  0.02574000  0.72754000  0.14204000  1.0 0.0895599064
H  H216  1  0.72754000  0.02574000  0.85796000  1.0 0.0895599064
H  H217  1  0.08831000  0.15947000  0.21512000  1.0 0.0806074568
H  H218  1  0.15947000  0.08831000  0.78488000  1.0 0.0806074568
H  H219  1  0.91169000  0.84053000  0.78488000  1.0 0.0806074568
H  H220  1  0.84053000  0.91169000  0.21512000  1.0 0.0806074568
H  H221  1  0.05080000  0.19540000  0.36499000  1.0 0.0806074568
H  H222  1  0.19540000  0.05080000  0.63501000  1.0 0.0806074568
H  H223  1  0.94920000  0.80460000  0.63501000  1.0 0.0806074568
H  H224  1  0.80460000  0.94920000  0.36499000  1.0 0.0806074568
H  H225  1  0.98175000  0.13233000  0.36233000  1.0 0.0609262209
H  H226  1  0.13233000  0.98175000  0.63767000  1.0 0.0609262209
H  H227  1  0.01825000  0.86767000  0.63767000  1.0 0.0609262209
H  H228  1  0.86767000  0.01825000  0.36233000  1.0 0.0609262209
H  H229  1  0.01927000  0.09641000  0.21246000  1.0 0.0609262209
H  H230  1  0.09641000  0.01927000  0.78754000  1.0 0.0609262209
H  H231  1  0.98073000  0.90359000  0.78754000  1.0 0.0609262209
H  H232  1  0.90359000  0.98073000  0.21246000  1.0 0.0609262209
C  C1  1  0.61180000  0.38820000  0.92120000  1.0 -0.0294369488
C  C2  1  0.38820000  0.61180000  0.07880000  1.0 -0.0294369488
C  C3  1  0.63520000  0.36480000  0.87593000  1.0 0.6295273254
C  C4  1  0.36480000  0.63520000  0.12407000  1.0 0.6295273254
C  C5  1  0.25051000  0.40455000  0.38041000  1.0 0.6401455527
C  C6  1  0.40455000  0.25051000  0.61959000  1.0 0.6401455527
C  C7  1  0.74949000  0.59545000  0.61959000  1.0 0.6401455527
C  C8  1  0.59545000  0.74949000  0.38041000  1.0 0.6401455527
C  C9  1  0.59517000  0.40483000  0.73620000  1.0 0.6401455527
C  C10  1  0.40483000  0.59517000  0.26380000  1.0 0.6401455527
C  C11  1  0.56100000  0.43900000  0.70300000  1.0 -0.0483553965
C  C12  1  0.43900000  0.56100000  0.29700000  1.0 -0.0483553965
C  C13  1  0.28902000  0.43528000  0.41300000  1.0 -0.0483553965
C  C14  1  0.43528000  0.28902000  0.58700000  1.0 -0.0483553965
C  C15  1  0.71098000  0.56472000  0.58700000  1.0 -0.0483553965
C  C16  1  0.56472000  0.71098000  0.41300000  1.0 -0.0483553965
C  C17  1  0.79572000  0.39952000  0.63352000  1.0 -0.0483553965
C  C18  1  0.39952000  0.79572000  0.36648000  1.0 -0.0483553965
C  C19  1  0.20428000  0.60048000  0.36648000  1.0 -0.0483553965
C  C20  1  0.60048000  0.20428000  0.63352000  1.0 -0.0483553965
C  C21  1  0.10719000  0.39103000  0.34561000  1.0 0.6295273254
C  C22  1  0.39103000  0.10719000  0.65439000  1.0 0.6295273254
C  C23  1  0.89281000  0.60897000  0.65439000  1.0 0.6295273254
C  C24  1  0.60897000  0.89281000  0.34561000  1.0 0.6295273254
C  C25  1  0.43528000  0.56472000  0.47910000  1.0 -0.1976860717
C  C26  1  0.56472000  0.43528000  0.52090000  1.0 -0.1976860717
C  C27  1  0.76557000  0.37099000  0.67572000  1.0 0.6401455527
C  C28  1  0.37099000  0.76557000  0.32428000  1.0 0.6401455527
C  C29  1  0.23443000  0.62901000  0.32428000  1.0 0.6401455527
C  C30  1  0.62901000  0.23443000  0.67572000  1.0 0.6401455527
C  C31  1  0.06463000  0.41677000  0.36935000  1.0 -0.0483553965
C  C32  1  0.41677000  0.06463000  0.63065000  1.0 -0.0483553965
C  C33  1  0.93537000  0.58323000  0.63065000  1.0 -0.0483553965
C  C34  1  0.58323000  0.93537000  0.36935000  1.0 -0.0483553965
C  C35  1  0.50184000  0.49816000  0.13980000  1.0 -0.1976860717
C  C36  1  0.49816000  0.50184000  0.86020000  1.0 -0.1976860717
C  C37  1  0.35099000  0.43803000  0.18678000  1.0 -0.0901062526
C  C38  1  0.43803000  0.35099000  0.81322000  1.0 -0.0901062526
C  C39  1  0.64901000  0.56197000  0.81322000  1.0 -0.0901062526
C  C40  1  0.56197000  0.64901000  0.18678000  1.0 -0.0901062526
C  C41  1  0.34010000  0.38566000  0.18534000  1.0 -0.0394373706
C  C42  1  0.38566000  0.34010000  0.81466000  1.0 -0.0394373706
C  C43  1  0.65990000  0.61434000  0.81466000  1.0 -0.0394373706
C  C44  1  0.61434000  0.65990000  0.18534000  1.0 -0.0394373706
C  C45  1  0.29139000  0.36193000  0.20806000  1.0 0.6463937489
C  C46  1  0.36193000  0.29139000  0.79194000  1.0 0.6463937489
C  C47  1  0.70861000  0.63807000  0.79194000  1.0 0.6463937489
C  C48  1  0.63807000  0.70861000  0.20806000  1.0 0.6463937489
C  C49  1  0.41145000  0.52061000  0.50238000  1.0 0.0806074568
C  C50  1  0.52061000  0.41145000  0.49762000  1.0 0.0806074568
C  C51  1  0.58855000  0.47939000  0.49762000  1.0 0.0806074568
C  C52  1  0.47939000  0.58855000  0.50238000  1.0 0.0806074568
C  C53  1  0.43240000  0.49980000  0.55227000  1.0 -0.2100791899
C  C54  1  0.49980000  0.43240000  0.44773000  1.0 -0.2100791899
C  C55  1  0.56760000  0.50020000  0.44773000  1.0 -0.2100791899
C  C56  1  0.50020000  0.56760000  0.55227000  1.0 -0.2100791899
C  C57  1  0.36694000  0.49256000  0.47376000  1.0 0.0806074568
C  C58  1  0.49256000  0.36694000  0.52624000  1.0 0.0806074568
C  C59  1  0.63306000  0.50744000  0.52624000  1.0 0.0806074568
C  C60  1  0.50744000  0.63306000  0.47376000  1.0 0.0806074568
C  C61  1  0.77323000  0.72943000  0.34680000  1.0 0.6463937489
C  C62  1  0.72943000  0.77323000  0.65320000  1.0 0.6463937489
C  C63  1  0.22677000  0.27057000  0.65320000  1.0 0.6463937489
C  C64  1  0.27057000  0.22677000  0.34680000  1.0 0.6401455527
C  C65  1  0.47738000  0.45466000  0.11787000  1.0 0.0806074568
C  C66  1  0.45466000  0.47738000  0.88213000  1.0 0.0806074568
C  C67  1  0.52262000  0.54534000  0.88213000  1.0 0.0806074568
C  C68  1  0.54534000  0.52262000  0.11787000  1.0 0.0806074568
C  C69  1  0.84884000  0.45268000  0.55094000  1.0 0.0714277328
C  C70  1  0.45268000  0.84884000  0.44906000  1.0 0.0714277328
C  C71  1  0.15116000  0.54732000  0.44906000  1.0 0.0714277328
C  C72  1  0.54732000  0.15116000  0.55094000  1.0 0.0714277328
C  C73  1  0.80583000  0.45235000  0.63453000  1.0 -0.0815234218
C  C74  1  0.45235000  0.80583000  0.36547000  1.0 -0.0815234218
C  C75  1  0.19417000  0.54765000  0.36547000  1.0 -0.0815234218
C  C76  1  0.54765000  0.19417000  0.63453000  1.0 -0.0815234218
C  C77  1  0.39476000  0.46074000  0.16432000  1.0 -0.1482751498
C  C78  1  0.46074000  0.39476000  0.83568000  1.0 -0.1482751498
C  C79  1  0.60524000  0.53926000  0.83568000  1.0 -0.1482751498
C  C80  1  0.53926000  0.60524000  0.16432000  1.0 -0.1482751498
C  C81  1  0.83210000  0.47856000  0.59443000  1.0 -0.1482751498
C  C82  1  0.47856000  0.83210000  0.40557000  1.0 -0.1482751498
C  C83  1  0.16790000  0.52144000  0.40557000  1.0 -0.1482751498
C  C84  1  0.52144000  0.16790000  0.59443000  1.0 -0.1482751498
C  C85  1  0.42987000  0.43031000  0.14017000  1.0 0.0714277328
C  C86  1  0.43031000  0.42987000  0.85983000  1.0 0.0714277328
C  C87  1  0.57013000  0.56969000  0.85983000  1.0 0.0714277328
C  C88  1  0.56969000  0.57013000  0.14017000  1.0 0.0714277328
C  C89  1  0.47689000  0.52311000  0.57660000  1.0 0.0806074568
C  C90  1  0.52311000  0.47689000  0.42340000  1.0 0.0806074568
C  C91  1  0.92233000  0.53495000  0.42039000  1.0 -0.2100791899
C  C92  1  0.53495000  0.92233000  0.57961000  1.0 -0.2100791899
C  C93  1  0.07767000  0.46505000  0.57961000  1.0 -0.2100791899
C  C94  1  0.46505000  0.07767000  0.42039000  1.0 -0.2100791899
C  C95  1  0.80399000  0.67653000  0.42658000  1.0 -0.0815234218
C  C96  1  0.67653000  0.80399000  0.57342000  1.0 -0.0815234218
C  C97  1  0.19601000  0.32347000  0.57342000  1.0 -0.0815234218
C  C98  1  0.32347000  0.19601000  0.42658000  1.0 -0.0815234218
C  C99  1  0.91661000  0.46149000  0.48245000  1.0 -0.2100791899
C  C100  1  0.46149000  0.91661000  0.51755000  1.0 -0.2100791899
C  C101  1  0.08339000  0.53851000  0.51755000  1.0 -0.2100791899
C  C102  1  0.53851000  0.08339000  0.48245000  1.0 -0.2100791899
C  C103  1  0.50282000  0.49718000  0.62420000  1.0 0.0806074568
C  C104  1  0.49718000  0.50282000  0.37580000  1.0 0.0806074568
C  C105  1  0.87922000  0.55508000  0.44242000  1.0 0.0806074568
C  C106  1  0.55508000  0.87922000  0.55758000  1.0 0.0806074568
C  C107  1  0.12078000  0.44492000  0.55758000  1.0 0.0806074568
C  C108  1  0.44492000  0.12078000  0.44242000  1.0 0.0806074568
C  C109  1  0.03770000  0.45398000  0.34096000  1.0 -0.0901062526
C  C110  1  0.45398000  0.03770000  0.65904000  1.0 -0.0901062526
C  C111  1  0.96230000  0.54602000  0.65904000  1.0 -0.0901062526
C  C112  1  0.54602000  0.96230000  0.34096000  1.0 -0.0901062526
C  C113  1  0.80465000  0.68777000  0.37282000  1.0 -0.0483553965
C  C114  1  0.68777000  0.80465000  0.62718000  1.0 -0.0483553965
C  C115  1  0.19535000  0.31223000  0.62718000  1.0 -0.0483553965
C  C116  1  0.31223000  0.19535000  0.37282000  1.0 -0.0483553965
C  C117  1  0.83003000  0.63499000  0.45094000  1.0 -0.1695657657
C  C118  1  0.63499000  0.83003000  0.54906000  1.0 -0.1695657657
C  C119  1  0.16997000  0.36501000  0.54906000  1.0 -0.1695657657
C  C120  1  0.36501000  0.16997000  0.45094000  1.0 -0.1695657657
C  C121  1  0.87476000  0.48134000  0.50645000  1.0 0.0806074568
C  C122  1  0.48134000  0.87476000  0.49355000  1.0 0.0806074568
C  C123  1  0.12524000  0.51866000  0.49355000  1.0 0.0806074568
C  C124  1  0.51866000  0.12524000  0.50645000  1.0 0.0806074568
C  C125  1  0.94127000  0.48851000  0.44030000  1.0 0.0806074568
C  C126  1  0.48851000  0.94127000  0.55970000  1.0 0.0806074568
C  C127  1  0.05873000  0.51149000  0.55970000  1.0 0.0806074568
C  C128  1  0.51149000  0.05873000  0.44030000  1.0 0.0806074568
C  C129  1  0.85630000  0.60300000  0.41823000  1.0 0.0714277328
C  C130  1  0.60300000  0.85630000  0.58177000  1.0 0.0714277328
C  C131  1  0.14370000  0.39700000  0.58177000  1.0 0.0714277328
C  C132  1  0.39700000  0.14370000  0.41823000  1.0 0.0714277328
C  C133  1  0.56597000  0.43403000  0.00450000  1.0 0.0806074568
C  C134  1  0.43403000  0.56597000  0.99550000  1.0 0.0806074568
C  C135  1  0.49830000  0.43470000  0.07258000  1.0 -0.2100791899
C  C136  1  0.43470000  0.49830000  0.92742000  1.0 -0.2100791899
C  C137  1  0.50170000  0.56530000  0.92742000  1.0 -0.2100791899
C  C138  1  0.56530000  0.50170000  0.07258000  1.0 -0.2100791899
C  C139  1  0.83934000  0.39878000  0.55104000  1.0 -0.1482751498
C  C140  1  0.39878000  0.83934000  0.44896000  1.0 -0.1482751498
C  C141  1  0.16066000  0.60122000  0.44896000  1.0 -0.1482751498
C  C142  1  0.60122000  0.16066000  0.55104000  1.0 -0.1482751498
C  C143  1  0.81295000  0.37301000  0.59053000  1.0 -0.0985522669
C  C144  1  0.37301000  0.81295000  0.40947000  1.0 -0.0985522669
C  C145  1  0.18705000  0.62699000  0.40947000  1.0 -0.0985522669
C  C146  1  0.62699000  0.18705000  0.59053000  1.0 -0.0985522669
C  C147  1  0.37414000  0.35428000  0.16177000  1.0 -0.0985522669
C  C148  1  0.35428000  0.37414000  0.83823000  1.0 -0.0985522669
C  C149  1  0.62586000  0.64572000  0.83823000  1.0 -0.0985522669
C  C150  1  0.64572000  0.62586000  0.16177000  1.0 -0.0985522669
C  C151  1  0.41847000  0.37679000  0.14080000  1.0 -0.1590329028
C  C152  1  0.37679000  0.41847000  0.85920000  1.0 -0.1590329028
C  C153  1  0.58153000  0.62321000  0.85920000  1.0 -0.1590329028
C  C154  1  0.62321000  0.58153000  0.14080000  1.0 -0.1590329028
C  C155  1  0.05394000  0.40588000  0.42354000  1.0 -0.0985522669
C  C156  1  0.40588000  0.05394000  0.57646000  1.0 -0.0985522669
C  C157  1  0.94606000  0.59412000  0.57646000  1.0 -0.0985522669
C  C158  1  0.59412000  0.94606000  0.42354000  1.0 -0.0985522669
C  C159  1  0.85655000  0.52851000  0.48476000  1.0 -0.1976860717
C  C160  1  0.52851000  0.85655000  0.51524000  1.0 -0.1976860717
C  C161  1  0.14345000  0.47149000  0.51524000  1.0 -0.1976860717
C  C162  1  0.47149000  0.14345000  0.48476000  1.0 -0.1976860717
C  C163  1  0.98572000  0.46512000  0.41644000  1.0 0.0714277328
C  C164  1  0.46512000  0.98572000  0.58356000  1.0 0.0714277328
C  C165  1  0.01428000  0.53488000  0.58356000  1.0 0.0714277328
C  C166  1  0.53488000  0.01428000  0.41644000  1.0 0.0714277328
C  C167  1  0.54218000  0.45782000  0.05070000  1.0 0.0895599064
C  C168  1  0.45782000  0.54218000  0.94930000  1.0 0.0895599064
C  C169  1  0.12755000  0.21399000  0.30040000  1.0 0.4827485751
C  C170  1  0.21399000  0.12755000  0.69960000  1.0 0.4827485751
C  C171  1  0.87245000  0.78601000  0.69960000  1.0 0.4827485751
C  C172  1  0.78601000  0.87245000  0.30040000  1.0 0.4827485751
C  C173  1  0.99753000  0.47687000  0.36308000  1.0 -0.1695657657
C  C174  1  0.47687000  0.99753000  0.63692000  1.0 -0.1695657657
C  C175  1  0.00247000  0.52313000  0.63692000  1.0 -0.1695657657
C  C176  1  0.52313000  0.00247000  0.36308000  1.0 -0.1695657657
C  C177  1  0.85701000  0.61513000  0.36300000  1.0 -0.1695657657
C  C178  1  0.61513000  0.85701000  0.63700000  1.0 -0.1695657657
C  C179  1  0.14299000  0.38487000  0.63700000  1.0 -0.1695657657
C  C180  1  0.38487000  0.14299000  0.36300000  1.0 -0.1695657657
C  C181  1  0.14634000  0.34050000  0.16590000  1.0 0.4678782209
C  C182  1  0.34050000  0.14634000  0.83410000  1.0 0.4678782209
C  C183  1  0.85366000  0.65950000  0.83410000  1.0 0.4678782209
C  C184  1  0.65950000  0.85366000  0.16590000  1.0 0.4678782209
C  C185  1  0.78255000  0.49305000  0.80060000  1.0 0.6295273254
C  C186  1  0.49305000  0.78255000  0.19940000  1.0 0.6295273254
C  C187  1  0.21745000  0.50695000  0.19940000  1.0 0.6295273254
C  C188  1  0.50695000  0.21745000  0.80060000  1.0 0.6295273254
C  C189  1  0.83217000  0.65739000  0.34010000  1.0 -0.0815234218
C  C190  1  0.65739000  0.83217000  0.65990000  1.0 -0.0815234218
C  C191  1  0.16783000  0.34261000  0.65990000  1.0 -0.0815234218
C  C192  1  0.34261000  0.16783000  0.34010000  1.0 -0.0815234218
C  C193  1  0.80479000  0.32439000  0.81890000  1.0 0.4678782209
C  C194  1  0.32439000  0.80479000  0.18110000  1.0 0.4639298688
C  C195  1  0.19521000  0.67561000  0.18110000  1.0 0.4678782209
C  C196  1  0.67561000  0.19521000  0.81890000  1.0 0.4678782209
C  C197  1  0.01482000  0.43006000  0.44500000  1.0 -0.1590329028
C  C198  1  0.43006000  0.01482000  0.55500000  1.0 -0.1590329028
C  C199  1  0.98518000  0.56994000  0.55500000  1.0 -0.1590329028
C  C200  1  0.56994000  0.98518000  0.44500000  1.0 -0.1590329028
C  C201  1  0.63300000  0.43114000  0.94260000  1.0 -0.1073245883
C  C202  1  0.43114000  0.63300000  0.05740000  1.0 -0.1073245883
C  C203  1  0.36700000  0.56886000  0.05740000  1.0 -0.1073245883
C  C204  1  0.56886000  0.36700000  0.94260000  1.0 -0.1073245883
C  C205  1  0.30796000  0.48266000  0.39550000  1.0 -0.0985522669
C  C206  1  0.48266000  0.30796000  0.60450000  1.0 -0.0985522669
C  C207  1  0.69204000  0.51734000  0.60450000  1.0 -0.0985522669
C  C208  1  0.51734000  0.69204000  0.39550000  1.0 -0.0985522669
C  C209  1  0.51280000  0.42352000  0.68630000  1.0 -0.1073245883
C  C210  1  0.42352000  0.51280000  0.31370000  1.0 -0.1073245883
C  C211  1  0.48720000  0.57648000  0.31370000  1.0 -0.1073245883
C  C212  1  0.57648000  0.48720000  0.68630000  1.0 -0.1073245883
C  C213  1  0.34572000  0.51068000  0.42370000  1.0 -0.1590329028
C  C214  1  0.51068000  0.34572000  0.57630000  1.0 -0.1590329028
C  C215  1  0.65428000  0.48932000  0.57630000  1.0 -0.1590329028
C  C216  1  0.48932000  0.65428000  0.42370000  1.0 -0.1590329028
C  C217  1  0.60933000  0.45473000  0.98360000  1.0 -0.1766112377
C  C218  1  0.45473000  0.60933000  0.01640000  1.0 -0.1766112377
C  C219  1  0.39067000  0.54527000  0.01640000  1.0 -0.1766112377
C  C220  1  0.54527000  0.39067000  0.98360000  1.0 -0.1766112377
C  C221  1  0.48401000  0.45287000  0.64790000  1.0 -0.1766112377
C  C222  1  0.45287000  0.48401000  0.35210000  1.0 -0.1766112377
C  C223  1  0.51599000  0.54713000  0.35210000  1.0 -0.1766112377
C  C224  1  0.54713000  0.51599000  0.64790000  1.0 -0.1766112377
C  C225  1  0.30701000  0.41801000  0.46150000  1.0 -0.1073245883
C  C226  1  0.41801000  0.30701000  0.53850000  1.0 -0.1073245883
C  C227  1  0.69299000  0.58199000  0.53850000  1.0 -0.1073245883
C  C228  1  0.58199000  0.69299000  0.46150000  1.0 -0.1073245883
C  C229  1  0.34539000  0.44559000  0.49190000  1.0 -0.1695657657
C  C230  1  0.44559000  0.34539000  0.50810000  1.0 -0.1695657657
C  C231  1  0.65461000  0.55441000  0.50810000  1.0 -0.1695657657
C  C232  1  0.55441000  0.65461000  0.49190000  1.0 -0.1695657657
C  C233  1  0.91672000  0.26828000  0.90080000  1.0 -0.0116646384
C  C234  1  0.26828000  0.91672000  0.09920000  1.0 -0.0116646384
C  C235  1  0.08328000  0.73172000  0.09920000  1.0 -0.0116646384
C  C236  1  0.73172000  0.08328000  0.90080000  1.0 -0.0116646384
C  C237  1  0.87540000  0.27240000  0.86260000  1.0 -0.0614238314
C  C238  1  0.27240000  0.87540000  0.13740000  1.0 -0.0693499932
C  C239  1  0.12460000  0.72760000  0.13740000  1.0 -0.0693499932
C  C240  1  0.72760000  0.12460000  0.86260000  1.0 -0.0693499932
C  C241  1  0.84160000  0.31220000  0.86460000  1.0 0.0379509018
C  C242  1  0.31220000  0.84160000  0.13540000  1.0 0.0379509018
C  C243  1  0.15840000  0.68780000  0.13540000  1.0 0.0379509018
C  C244  1  0.68780000  0.15840000  0.86460000  1.0 0.0379509018
C  C245  1  0.84920000  0.34800000  0.90470000  1.0 -0.0483553965
C  C246  1  0.34800000  0.84920000  0.09530000  1.0 -0.0483553965
C  C247  1  0.15080000  0.65200000  0.09530000  1.0 -0.0483553965
C  C248  1  0.65200000  0.15080000  0.90470000  1.0 -0.0483553965
C  C249  1  0.89050000  0.34390000  0.94280000  1.0 -0.0693499932
C  C250  1  0.34390000  0.89050000  0.05720000  1.0 -0.0693499932
C  C251  1  0.10950000  0.65610000  0.05720000  1.0 -0.0693499932
C  C252  1  0.65610000  0.10950000  0.94280000  1.0 -0.0614238314
C  C253  1  0.92430000  0.30410000  0.94090000  1.0 -0.0614238314
C  C254  1  0.30410000  0.92430000  0.05910000  1.0 -0.0614238314
C  C255  1  0.07570000  0.69590000  0.05910000  1.0 -0.0614238314
C  C256  1  0.69590000  0.07570000  0.94090000  1.0 -0.0614238314
C  C257  1  0.12100000  0.34520000  0.10750000  1.0 0.0294516296
C  C258  1  0.34520000  0.12100000  0.89250000  1.0 0.0294516296
C  C259  1  0.87900000  0.65480000  0.89250000  1.0 0.0294516296
C  C260  1  0.65480000  0.87900000  0.10750000  1.0 0.0294516296
C  C261  1  0.12712000  0.30748000  0.07070000  1.0 -0.0693499932
C  C262  1  0.30748000  0.12712000  0.92930000  1.0 -0.0693499932
C  C263  1  0.87288000  0.69252000  0.92930000  1.0 -0.0693499932
C  C264  1  0.69252000  0.87288000  0.07070000  1.0 -0.0693499932
C  C265  1  0.09500000  0.30540000  0.02390000  1.0 -0.0815234218
C  C266  1  0.30540000  0.09500000  0.97610000  1.0 -0.0815234218
C  C267  1  0.90500000  0.69460000  0.97610000  1.0 -0.0815234218
C  C268  1  0.69460000  0.90500000  0.02390000  1.0 -0.0815234218
C  C269  1  0.05680000  0.34100000  0.01390000  1.0 -0.0985522669
C  C270  1  0.34100000  0.05680000  0.98610000  1.0 -0.0985522669
C  C271  1  0.94320000  0.65900000  0.98610000  1.0 -0.0985522669
C  C272  1  0.65900000  0.94320000  0.01390000  1.0 -0.1073245883
C  C273  1  0.05070000  0.37870000  0.05080000  1.0 -0.0483553965
C  C274  1  0.37870000  0.05070000  0.94920000  1.0 -0.0483553965
C  C275  1  0.94930000  0.62130000  0.94920000  1.0 -0.0394373706
C  C276  1  0.62130000  0.94930000  0.05080000  1.0 -0.0483553965
C  C277  1  0.08280000  0.38080000  0.09760000  1.0 -0.0294369488
C  C278  1  0.38080000  0.08280000  0.90240000  1.0 -0.0294369488
C  C279  1  0.91720000  0.61920000  0.90240000  1.0 -0.0294369488
C  C280  1  0.61920000  0.91720000  0.09760000  1.0 -0.0294369488
C  C281  1  0.08710000  0.13190000  0.26180000  1.0 -0.0214538526
C  C282  1  0.13190000  0.08710000  0.73820000  1.0 -0.0214538526
C  C283  1  0.91290000  0.86810000  0.73820000  1.0 -0.0214538526
C  C284  1  0.86810000  0.91290000  0.26180000  1.0 -0.0214538526
C  C285  1  0.09390000  0.16330000  0.30580000  1.0 0.0379509018
C  C286  1  0.16330000  0.09390000  0.69420000  1.0 0.0379509018
C  C287  1  0.90610000  0.83670000  0.69420000  1.0 0.0379509018
C  C288  1  0.83670000  0.90610000  0.30580000  1.0 0.0379509018
C  C289  1  0.06530000  0.15190000  0.35140000  1.0 -0.0214538526
C  C290  1  0.15190000  0.06530000  0.64860000  1.0 -0.0214538526
C  C291  1  0.93470000  0.84810000  0.64860000  1.0 -0.0294369488
C  C292  1  0.84810000  0.93470000  0.35140000  1.0 -0.0214538526
C  C293  1  0.02990000  0.10910000  0.35290000  1.0 -0.0394373706
C  C294  1  0.10910000  0.02990000  0.64710000  1.0 -0.0294369488
C  C295  1  0.97010000  0.89090000  0.64710000  1.0 -0.0294369488
C  C296  1  0.89090000  0.97010000  0.35290000  1.0 -0.0394373706
C  C297  1  0.02320000  0.07760000  0.30890000  1.0 -0.1073245883
C  C298  1  0.07760000  0.02320000  0.69110000  1.0 -0.1167493567
C  C299  1  0.97680000  0.92240000  0.69110000  1.0 -0.1167493567
C  C300  1  0.92240000  0.97680000  0.30890000  1.0 -0.1167493567
C  C301  1  0.05170000  0.08910000  0.26330000  1.0 -0.0116646384
C  C302  1  0.08910000  0.05170000  0.73670000  1.0 -0.0116646384
C  C303  1  0.94830000  0.91090000  0.73670000  1.0 -0.0048290566
C  C304  1  0.91090000  0.94830000  0.26330000  1.0 -0.0116646384
C  C305  1  0.77842000  0.47082000  0.90310000  1.0 -0.1073245883
C  C306  1  0.47082000  0.77842000  0.09690000  1.0 -0.1073245883
C  C307  1  0.22158000  0.52918000  0.09690000  1.0 -0.1073245883
C  C308  1  0.52918000  0.22158000  0.90310000  1.0 -0.1073245883
C  C309  1  0.80763000  0.49085000  0.86043000  1.0 -0.0116646384
C  C310  1  0.49085000  0.80763000  0.13957000  1.0 -0.0116646384
C  C311  1  0.19237000  0.50915000  0.13957000  1.0 -0.0116646384
C  C312  1  0.50915000  0.19237000  0.86043000  1.0 -0.0116646384
C  C313  1  0.85958000  0.50678000  0.86990000  1.0 -0.1386035648
C  C314  1  0.50678000  0.85958000  0.13010000  1.0 -0.1386035648
C  C315  1  0.14042000  0.49322000  0.13010000  1.0 -0.1386035648
C  C316  1  0.49322000  0.14042000  0.86990000  1.0 -0.1386035648
C  C317  1  0.88240000  0.50260000  0.92200000  1.0 -0.1976860717
C  C318  1  0.50260000  0.88240000  0.07800000  1.0 -0.1976860717
C  C319  1  0.11760000  0.49740000  0.07800000  1.0 -0.1976860717
C  C320  1  0.49740000  0.11760000  0.92200000  1.0 -0.1976860717
C  C321  1  0.85310000  0.48270000  0.96470000  1.0 -0.0214538526
C  C322  1  0.48270000  0.85310000  0.03530000  1.0 -0.0214538526
C  C323  1  0.14690000  0.51730000  0.03530000  1.0 -0.0214538526
C  C324  1  0.51730000  0.14690000  0.96470000  1.0 -0.0214538526
C  C325  1  0.80110000  0.46670000  0.95520000  1.0 -0.134075698
C  C326  1  0.46670000  0.80110000  0.04480000  1.0 -0.134075698
C  C327  1  0.19890000  0.53330000  0.04480000  1.0 -0.134075698
C  C328  1  0.53330000  0.19890000  0.95520000  1.0 -0.134075698
C  C329  1  0.10130000  0.33210000  0.12830000  1.0 0.010946725
C  C330  1  0.33210000  0.10130000  0.87170000  1.0 0.010946725
C  C331  1  0.89870000  0.66790000  0.87170000  1.0 0.010946725
C  C332  1  0.66790000  0.89870000  0.12830000  1.0 0.010946725
C  C333  1  0.06150000  0.36630000  0.12160000  1.0 -0.0815234218
C  C334  1  0.36630000  0.06150000  0.87840000  1.0 -0.0815234218
C  C335  1  0.93850000  0.63370000  0.87840000  1.0 -0.0815234218
C  C336  1  0.63370000  0.93850000  0.12160000  1.0 -0.0815234218
C  C337  1  0.02190000  0.35850000  0.08200000  1.0 -0.0614238314
C  C338  1  0.35850000  0.02190000  0.91800000  1.0 -0.0614238314
C  C339  1  0.97810000  0.64150000  0.91800000  1.0 -0.0614238314
C  C340  1  0.64150000  0.97810000  0.08200000  1.0 -0.0614238314
C  C341  1  0.02210000  0.31630000  0.04930000  1.0 -0.0985522669
C  C342  1  0.31630000  0.02210000  0.95070000  1.0 -0.0985522669
C  C343  1  0.97790000  0.68370000  0.95070000  1.0 -0.0985522669
C  C344  1  0.68370000  0.97790000  0.04930000  1.0 -0.0985522669
C  C345  1  0.06200000  0.28220000  0.05600000  1.0 -0.0614238314
C  C346  1  0.28220000  0.06200000  0.94400000  1.0 -0.0614238314
C  C347  1  0.93800000  0.71780000  0.94400000  1.0 -0.0614238314
C  C348  1  0.71780000  0.93800000  0.05600000  1.0 -0.0483553965
C  C349  1  0.10150000  0.29010000  0.09560000  1.0 -0.0214538526
C  C350  1  0.29010000  0.10150000  0.90440000  1.0 -0.0214538526
C  C351  1  0.89850000  0.70990000  0.90440000  1.0 -0.0214538526
C  C352  1  0.70990000  0.89850000  0.09560000  1.0 -0.0294369488
C  C353  1  0.91510000  0.36510000  0.91890000  1.0 -0.0394373706
C  C354  1  0.36510000  0.91510000  0.08110000  1.0 -0.0394373706
C  C355  1  0.08490000  0.63490000  0.08110000  1.0 -0.0394373706
C  C356  1  0.63490000  0.08490000  0.91890000  1.0 -0.0394373706
C  C357  1  0.87100000  0.36700000  0.88040000  1.0 -0.0483553965
C  C358  1  0.36700000  0.87100000  0.11960000  1.0 -0.0394373706
C  C359  1  0.12900000  0.63300000  0.11960000  1.0 -0.0394373706
C  C360  1  0.63300000  0.12900000  0.88040000  1.0 -0.0394373706
C  C361  1  0.85900000  0.32820000  0.84840000  1.0 0.0214251629
C  C362  1  0.32820000  0.85900000  0.15160000  1.0 0.0214251629
C  C363  1  0.14100000  0.67180000  0.15160000  1.0 0.0214251629
C  C364  1  0.67180000  0.14100000  0.84840000  1.0 0.0214251629
C  C365  1  0.89350000  0.29130000  0.84510000  1.0 -0.0116646384
C  C366  1  0.29130000  0.89350000  0.15490000  1.0 -0.0116646384
C  C367  1  0.10650000  0.70870000  0.15490000  1.0 -0.0116646384
C  C368  1  0.70870000  0.10650000  0.84510000  1.0 -0.0116646384
C  C369  1  0.94680000  0.29240000  0.86820000  1.0 -0.1073245883
C  C370  1  0.29240000  0.94680000  0.13180000  1.0 -0.0985522669
C  C371  1  0.05320000  0.70760000  0.13180000  1.0 -0.1073245883
C  C372  1  0.70760000  0.05320000  0.86820000  1.0 -0.1073245883
C  C373  1  0.94940000  0.33000000  0.91000000  1.0 -0.0693499932
C  C374  1  0.33000000  0.94940000  0.09000000  1.0 -0.0693499932
C  C375  1  0.05060000  0.67000000  0.09000000  1.0 -0.0693499932
C  C376  1  0.67000000  0.05060000  0.91000000  1.0 -0.0693499932
C  C377  1  0.06670000  0.15390000  0.24500000  1.0 -0.0483553965
C  C378  1  0.15390000  0.06670000  0.75500000  1.0 -0.0483553965
C  C379  1  0.93330000  0.84610000  0.75500000  1.0 -0.0483553965
C  C380  1  0.84610000  0.93330000  0.24500000  1.0 -0.0483553965
C  C381  1  0.07600000  0.18340000  0.29030000  1.0 0.0379509018
C  C382  1  0.18340000  0.07600000  0.70970000  1.0 0.0379509018
C  C383  1  0.92400000  0.81660000  0.70970000  1.0 0.0379509018
C  C384  1  0.81660000  0.92400000  0.29030000  1.0 0.0379509018
C  C385  1  0.04440000  0.17540000  0.33400000  1.0 -0.0214538526
C  C386  1  0.17540000  0.04440000  0.66600000  1.0 -0.0214538526
C  C387  1  0.95560000  0.82460000  0.66600000  1.0 -0.0214538526
C  C388  1  0.82460000  0.95560000  0.33400000  1.0 -0.0214538526
C  C389  1  0.00340000  0.13780000  0.33240000  1.0 -0.0116646384
C  C390  1  0.13780000  0.00340000  0.66760000  1.0 -0.0214538526
C  C391  1  0.99660000  0.86220000  0.66760000  1.0 -0.0214538526
C  C392  1  0.86220000  0.99660000  0.33240000  1.0 -0.0214538526
C  C393  1  0.99400000  0.10840000  0.28710000  1.0 -0.0815234218
C  C394  1  0.10840000  0.99400000  0.71290000  1.0 -0.0815234218
C  C395  1  0.00600000  0.89160000  0.71290000  1.0 -0.0901062526
C  C396  1  0.89160000  0.00600000  0.28710000  1.0 -0.0815234218
C  C397  1  0.02570000  0.11650000  0.24340000  1.0 -0.0394373706
C  C398  1  0.11650000  0.02570000  0.75660000  1.0 -0.0294369488
C  C399  1  0.97430000  0.88350000  0.75660000  1.0 -0.0294369488
C  C400  1  0.88350000  0.97430000  0.24340000  1.0 -0.0294369488
O  O1  1  0.19909000  0.32319000  0.29072000  1.0 -1.2402462095
O  O2  1  0.32319000  0.19909000  0.70928000  1.0 -1.2402462095
O  O3  1  0.80091000  0.67681000  0.70928000  1.0 -1.2402462095
O  O4  1  0.67681000  0.80091000  0.29072000  1.0 -1.2402462095
O  O5  1  0.68426000  0.31574000  0.76671000  1.0 -1.2402462095
O  O6  1  0.31574000  0.68426000  0.23329000  1.0 -1.2402462095
O  O7  1  0.23489000  0.42343000  0.33493000  1.0 -0.6218997419
O  O8  1  0.42343000  0.23489000  0.66507000  1.0 -0.6218997419
O  O9  1  0.76511000  0.57657000  0.66507000  1.0 -0.6218997419
O  O10  1  0.57657000  0.76511000  0.33493000  1.0 -0.6218997419
O  O11  1  0.12393000  0.40973000  0.30155000  1.0 -0.61408978
O  O12  1  0.40973000  0.12393000  0.69845000  1.0 -0.61408978
O  O13  1  0.87607000  0.59027000  0.69845000  1.0 -0.61408978
O  O14  1  0.59027000  0.87607000  0.30155000  1.0 -0.61408978
O  O15  1  0.61332000  0.32384000  0.85801000  1.0 -0.6218997419
O  O16  1  0.32384000  0.61332000  0.14199000  1.0 -0.6218997419
O  O17  1  0.38668000  0.67616000  0.14199000  1.0 -0.6218997419
O  O18  1  0.67616000  0.38668000  0.85801000  1.0 -0.6218997419
O  O19  1  0.74236000  0.46578000  0.79470000  1.0 -0.589420103
O  O20  1  0.46578000  0.74236000  0.20530000  1.0 -0.589420103
O  O21  1  0.25764000  0.53422000  0.20530000  1.0 -0.589420103
O  O22  1  0.53422000  0.25764000  0.79470000  1.0 -0.589420103
O  O23  1  0.80379000  0.52323000  0.76706000  1.0 -0.596326821
O  O24  1  0.52323000  0.80379000  0.23294000  1.0 -0.596326821
O  O25  1  0.19621000  0.47677000  0.23294000  1.0 -0.596326821
O  O26  1  0.47677000  0.19621000  0.76706000  1.0 -0.596326821
O  O27  1  0.64090000  0.42162000  0.74998000  1.0 -0.6392095466
O  O28  1  0.42162000  0.64090000  0.25002000  1.0 -0.6392095466
O  O29  1  0.35910000  0.57838000  0.25002000  1.0 -0.6392095466
O  O30  1  0.57838000  0.35910000  0.74998000  1.0 -0.6392095466
O  O31  1  0.25899000  0.39363000  0.22074000  1.0 -0.6492341488
O  O32  1  0.39363000  0.25899000  0.77926000  1.0 -0.6492341488
O  O33  1  0.74101000  0.60637000  0.77926000  1.0 -0.6492341488
O  O34  1  0.60637000  0.74101000  0.22074000  1.0 -0.6492341488
O  O35  1  0.28480000  0.31362000  0.21296000  1.0 -0.61408978
O  O36  1  0.31362000  0.28480000  0.78704000  1.0 -0.61408978
O  O37  1  0.71520000  0.68638000  0.78704000  1.0 -0.61408978
O  O38  1  0.68638000  0.71520000  0.21296000  1.0 -0.61408978
O  O39  1  0.23422000  0.36018000  0.39925000  1.0 -0.6392095466
O  O40  1  0.36018000  0.23422000  0.60075000  1.0 -0.6392095466
O  O41  1  0.76578000  0.63982000  0.60075000  1.0 -0.6392095466
O  O42  1  0.63982000  0.76578000  0.39925000  1.0 -0.6392095466
O  O43  1  0.76158000  0.32248000  0.67671000  1.0 -0.6257057567
O  O44  1  0.32248000  0.76158000  0.32329000  1.0 -0.6257057567
O  O45  1  0.23842000  0.67752000  0.32329000  1.0 -0.6257057567
O  O46  1  0.67752000  0.23842000  0.67671000  1.0 -0.6257057567
O  O47  1  0.74573000  0.39839000  0.70916000  1.0 -0.6392095466
O  O48  1  0.39839000  0.74573000  0.29084000  1.0 -0.6392095466
O  O49  1  0.25427000  0.60161000  0.29084000  1.0 -0.6392095466
O  O50  1  0.60161000  0.25427000  0.70916000  1.0 -0.6392095466
O  O51  1  0.12327000  0.35081000  0.37044000  1.0 -0.6492341488
O  O52  1  0.35081000  0.12327000  0.62956000  1.0 -0.6492341488
O  O53  1  0.87673000  0.64919000  0.62956000  1.0 -0.6492341488
O  O54  1  0.64919000  0.87673000  0.37044000  1.0 -0.6492341488
O  O55  1  0.77128000  0.73532000  0.29626000  1.0 -0.6218997419
O  O56  1  0.73532000  0.77128000  0.70374000  1.0 -0.6218997419
O  O57  1  0.22872000  0.26468000  0.70374000  1.0 -0.6218997419
O  O58  1  0.26468000  0.22872000  0.29626000  1.0 -0.6218997419
O  O59  1  0.75063000  0.75719000  0.37773000  1.0 -0.6492341488
O  O60  1  0.75719000  0.75063000  0.62227000  1.0 -0.6492341488
O  O61  1  0.24937000  0.24281000  0.62227000  1.0 -0.6492341488
O  O62  1  0.24281000  0.24937000  0.37773000  1.0 -0.6492341488
O  O63  1  0.17531000  0.30285000  0.17462000  1.0 -0.5690384586
O  O64  1  0.30285000  0.17531000  0.82538000  1.0 -0.5690384586
O  O65  1  0.82469000  0.69715000  0.82538000  1.0 -0.5690384586
O  O66  1  0.69715000  0.82469000  0.17462000  1.0 -0.5690384586
O  O67  1  0.13208000  0.24084000  0.34049000  1.0 -0.537201487
O  O68  1  0.24084000  0.13208000  0.65951000  1.0 -0.537201487
O  O69  1  0.86792000  0.75916000  0.65951000  1.0 -0.537201487
O  O70  1  0.75916000  0.86792000  0.34049000  1.0 -0.537201487
O  O71  1  0.77888000  0.36344000  0.82098000  1.0 -0.5690384586
O  O72  1  0.36344000  0.77888000  0.17902000  1.0 -0.5690384586
O  O73  1  0.22112000  0.63656000  0.17902000  1.0 -0.5690384586
O  O74  1  0.63656000  0.22112000  0.82098000  1.0 -0.5690384586
O  O75  1  0.14556000  0.37816000  0.19549000  1.0 -0.537201487
O  O76  1  0.37816000  0.14556000  0.80451000  1.0 -0.537201487
O  O77  1  0.85444000  0.62184000  0.80451000  1.0 -0.537201487
O  O78  1  0.62184000  0.85444000  0.19549000  1.0 -0.537201487
O  O79  1  0.15415000  0.22023000  0.25909000  1.0 -0.5598587622
O  O80  1  0.22023000  0.15415000  0.74091000  1.0 -0.5598587622
O  O81  1  0.84585000  0.77977000  0.74091000  1.0 -0.5598587622
O  O82  1  0.77977000  0.84585000  0.25909000  1.0 -0.5598587622
O  O83  1  0.79530000  0.28800000  0.78679000  1.0 -0.5758643378
O  O84  1  0.28800000  0.79530000  0.21321000  1.0 -0.5758643378
O  O85  1  0.20470000  0.71200000  0.21321000  1.0 -0.5758643378
O  O86  1  0.71200000  0.20470000  0.78679000  1.0 -0.5758643378
