# DDEC6 charges by PACMAN v1.1 (https://github.com/mtap-research/PACMAN-charge/)
data_YISHAN_ASR_pacman
_symmetry_space_group_name_H-M   'P 1'
_cell_length_a   34.78240000
_cell_length_b   34.78240000
_cell_length_c   37.13570000
_cell_angle_alpha   61.42290000
_cell_angle_beta   118.57700000
_cell_angle_gamma   120.11400000
_symmetry_Int_Tables_number   1
_chemical_formula_structural   Sc9H89C158O43
_chemical_formula_sum   'Sc36 H356 C632 O172'
_cell_volume   32405.46766395
_cell_formula_units_Z   4
loop_
 _symmetry_equiv_pos_site_id
 _symmetry_equiv_pos_as_xyz
  1  'x, y, z'
loop_
 _atom_site_type_symbol
 _atom_site_label
 _atom_site_symmetry_multiplicity
 _atom_site_fract_x
 _atom_site_fract_y
 _atom_site_fract_z
 _atom_site_occupancy
 _atom_site_charge
Sc  Sc1  1  0.23373000  0.81333000  0.98931000  1.0 1.8006328656
Sc  Sc2  1  0.81333000  0.23373000  0.51069000  1.0 1.8006328656
Sc  Sc3  1  0.76627000  0.18667000  0.01069000  1.0 1.8006328656
Sc  Sc4  1  0.18667000  0.76627000  0.48931000  1.0 1.8006328656
Sc  Sc5  1  0.63806000  0.84254000  0.48192000  1.0 1.8180699958
Sc  Sc6  1  0.84254000  0.63806000  0.01808000  1.0 1.8180699958
Sc  Sc7  1  0.36194000  0.15746000  0.51808000  1.0 1.8180699958
Sc  Sc8  1  0.15746000  0.36194000  0.98192000  1.0 1.8180699958
Sc  Sc9  1  0.69299000  0.45269000  0.98873000  1.0 1.8099672013
Sc  Sc10  1  0.45269000  0.69299000  0.51127000  1.0 1.8099672013
Sc  Sc11  1  0.30701000  0.54731000  0.01127000  1.0 1.8099672013
Sc  Sc12  1  0.54731000  0.30701000  0.48873000  1.0 1.8099672013
Sc  Sc13  1  0.73281000  0.94763000  0.48077000  1.0 1.828073652
Sc  Sc14  1  0.94763000  0.73281000  0.01923000  1.0 1.828073652
Sc  Sc15  1  0.26719000  0.05237000  0.51923000  1.0 1.828073652
Sc  Sc16  1  0.05237000  0.26719000  0.98077000  1.0 1.828073652
Sc  Sc17  1  0.13370000  0.81652000  0.98536000  1.0 1.8180699958
Sc  Sc18  1  0.81652000  0.13370000  0.51464000  1.0 1.8180699958
Sc  Sc19  1  0.86630000  0.18348000  0.01464000  1.0 1.8180699958
Sc  Sc20  1  0.18348000  0.86630000  0.48536000  1.0 1.8180699958
Sc  Sc21  1  0.67875000  0.34327000  0.99630000  1.0 1.8099672013
Sc  Sc22  1  0.34327000  0.67875000  0.50370000  1.0 1.8099672013
Sc  Sc23  1  0.32125000  0.65673000  0.00370000  1.0 1.8099672013
Sc  Sc24  1  0.65673000  0.32125000  0.49630000  1.0 1.8099672013
Sc  Sc25  1  0.17131000  0.87821000  0.89422000  1.0 1.8099672013
Sc  Sc26  1  0.87821000  0.17131000  0.60578000  1.0 1.8099672013
Sc  Sc27  1  0.82869000  0.12179000  0.10578000  1.0 1.8099672013
Sc  Sc28  1  0.12179000  0.82869000  0.39422000  1.0 1.8099672013
Sc  Sc29  1  0.62322000  0.41124000  0.89935000  1.0 1.8006328656
Sc  Sc30  1  0.41124000  0.62322000  0.60065000  1.0 1.8006328656
Sc  Sc31  1  0.37678000  0.58876000  0.10065000  1.0 1.8006328656
Sc  Sc32  1  0.58876000  0.37678000  0.39935000  1.0 1.8006328656
Sc  Sc33  1  0.66838000  0.91330000  0.38743000  1.0 1.8006328656
Sc  Sc34  1  0.91330000  0.66838000  0.11257000  1.0 1.8006328656
Sc  Sc35  1  0.33162000  0.08670000  0.61257000  1.0 1.8006328656
Sc  Sc36  1  0.08670000  0.33162000  0.88743000  1.0 1.8006328656
H  H1  1  0.74636000  0.70198000  0.74072000  1.0 0.1101703926
H  H2  1  0.70198000  0.74636000  0.75928000  1.0 0.1101703926
H  H3  1  0.25364000  0.29802000  0.25928000  1.0 0.1101703926
H  H4  1  0.29802000  0.25364000  0.24072000  1.0 0.1101703926
H  H5  1  0.24031000  0.79905000  0.25022000  1.0 0.1101703926
H  H6  1  0.79905000  0.24031000  0.24978000  1.0 0.1101703926
H  H7  1  0.75969000  0.20095000  0.74978000  1.0 0.1101703926
H  H8  1  0.20095000  0.75969000  0.75022000  1.0 0.1101703926
H  H9  1  0.68491000  0.54625000  0.80842000  1.0 0.1198121012
H  H10  1  0.54625000  0.68491000  0.69158000  1.0 0.1198121012
H  H11  1  0.31509000  0.45375000  0.19158000  1.0 0.1198121012
H  H12  1  0.45375000  0.31509000  0.30842000  1.0 0.1198121012
H  H13  1  0.91710000  0.73762000  0.88247000  1.0 0.1101703926
H  H14  1  0.73762000  0.91710000  0.61753000  1.0 0.1101703926
H  H15  1  0.08290000  0.26238000  0.11753000  1.0 0.1101703926
H  H16  1  0.26238000  0.08290000  0.38247000  1.0 0.1101703926
H  H17  1  0.99944000  0.33786000  0.00833000  1.0 0.1198121012
H  H18  1  0.33786000  0.99944000  0.49167000  1.0 0.1198121012
H  H19  1  0.00056000  0.66214000  0.99167000  1.0 0.1198121012
H  H20  1  0.66214000  0.00056000  0.50833000  1.0 0.1198121012
H  H21  1  0.73945000  0.72405000  0.67188000  1.0 0.1101703926
H  H22  1  0.72405000  0.73945000  0.82812000  1.0 0.1101703926
H  H23  1  0.26055000  0.27595000  0.32812000  1.0 0.1101703926
H  H24  1  0.27595000  0.26055000  0.17188000  1.0 0.1101703926
H  H25  1  0.41581000  0.79309000  0.38731000  1.0 0.1101703926
H  H26  1  0.79309000  0.41581000  0.11269000  1.0 0.1101703926
H  H27  1  0.58419000  0.20691000  0.61269000  1.0 0.1101703926
H  H28  1  0.20691000  0.58419000  0.88731000  1.0 0.1101703926
H  H29  1  0.09433000  0.50213000  0.06083000  1.0 0.1031231823
H  H30  1  0.50213000  0.09433000  0.43917000  1.0 0.1031231823
H  H31  1  0.90567000  0.49787000  0.93917000  1.0 0.1031231823
H  H32  1  0.49787000  0.90567000  0.56083000  1.0 0.1031231823
H  H33  1  0.52015000  0.89329000  0.30761000  1.0 0.1198121012
H  H34  1  0.89329000  0.52015000  0.19239000  1.0 0.1198121012
H  H35  1  0.47985000  0.10671000  0.69239000  1.0 0.1198121012
H  H36  1  0.10671000  0.47985000  0.80761000  1.0 0.1198121012
H  H37  1  0.35459000  0.81537000  0.35526000  1.0 0.1101703926
H  H38  1  0.81537000  0.35459000  0.14474000  1.0 0.1101703926
H  H39  1  0.64541000  0.18463000  0.64474000  1.0 0.1101703926
H  H40  1  0.18463000  0.64541000  0.85526000  1.0 0.1101703926
H  H41  1  0.67731000  0.31495000  0.25718000  1.0 0.1101703926
H  H42  1  0.31495000  0.67731000  0.24282000  1.0 0.1101703926
H  H43  1  0.32269000  0.68505000  0.74282000  1.0 0.1101703926
H  H44  1  0.68505000  0.32269000  0.75718000  1.0 0.1101703926
H  H45  1  0.09590000  0.67041000  0.06587000  1.0 0.1101703926
H  H46  1  0.67041000  0.09590000  0.43413000  1.0 0.1101703926
H  H47  1  0.90409000  0.32959000  0.93413000  1.0 0.1101703926
H  H48  1  0.32958000  0.90409000  0.56587000  1.0 0.1101703926
H  H49  1  0.79807000  0.88735000  0.61835000  1.0 0.1198121012
H  H50  1  0.88735000  0.79807000  0.88165000  1.0 0.1198121012
H  H51  1  0.20193000  0.11265000  0.38165000  1.0 0.1198121012
H  H52  1  0.11265000  0.20193000  0.11835000  1.0 0.1198121012
H  H53  1  0.68114000  0.19660000  0.35861000  1.0 0.1101703926
H  H54  1  0.19660000  0.68114000  0.14139000  1.0 0.1101703926
H  H55  1  0.31886000  0.80340000  0.64139000  1.0 0.1101703926
H  H56  1  0.80340000  0.31886000  0.85861000  1.0 0.1101703926
H  H57  1  0.23061000  0.84157000  0.17963000  1.0 0.1101703926
H  H58  1  0.84157000  0.23061000  0.32037000  1.0 0.1101703926
H  H59  1  0.76939000  0.15843000  0.82037000  1.0 0.1101703926
H  H60  1  0.15843000  0.76939000  0.67963000  1.0 0.1101703926
H  H61  1  0.65211000  0.12993000  0.27283000  1.0 0.1101703926
H  H62  1  0.12992000  0.65210000  0.22717000  1.0 0.1101703926
H  H63  1  0.34789000  0.87007000  0.72717000  1.0 0.1101703926
H  H64  1  0.87008000  0.34789000  0.77283000  1.0 0.1101703926
H  H65  1  0.99484000  0.84936000  0.36856000  1.0 0.1269685575
H  H66  1  0.84936000  0.99484000  0.13144000  1.0 0.1269685575
H  H67  1  0.00516000  0.15064000  0.63144000  1.0 0.1269685575
H  H68  1  0.15064000  0.00516000  0.86856000  1.0 0.1269685575
H  H69  1  0.61788000  0.33900000  0.32401000  1.0 0.1198121012
H  H70  1  0.33900000  0.61788000  0.17599000  1.0 0.1198121012
H  H71  1  0.38212000  0.66100000  0.67599000  1.0 0.1198121012
H  H72  1  0.66100000  0.38212000  0.82401000  1.0 0.1198121012
H  H73  1  0.82801000  0.36515000  0.06516000  1.0 0.1101703926
H  H74  1  0.36515000  0.82801000  0.43484000  1.0 0.1101703926
H  H75  1  0.17199000  0.63485000  0.93484000  1.0 0.1101703926
H  H76  1  0.63485000  0.17199000  0.56516000  1.0 0.1101703926
H  H77  1  0.36718000  0.82916000  0.24674000  1.0 0.1101703926
H  H78  1  0.82916000  0.36718000  0.25326000  1.0 0.1101703926
H  H79  1  0.63282000  0.17084000  0.75326000  1.0 0.1101703926
H  H80  1  0.17084000  0.63282000  0.74674000  1.0 0.1101703926
H  H81  1  0.75957000  0.58249000  0.91808000  1.0 0.1269685575
H  H82  1  0.58249000  0.75957000  0.58192000  1.0 0.1269685575
H  H83  1  0.24043000  0.41751000  0.08192000  1.0 0.1269685575
H  H84  1  0.41751000  0.24043000  0.41808000  1.0 0.1269685575
H  H85  1  0.99660000  0.53400000  0.05971000  1.0 0.1031231823
H  H86  1  0.53400000  0.99660000  0.44029000  1.0 0.1031231823
H  H87  1  0.00340000  0.46600000  0.94029000  1.0 0.1031231823
H  H88  1  0.46600000  0.00340000  0.55971000  1.0 0.1031231823
H  H89  1  0.02665000  0.83151000  0.80759000  1.0 0.1198121012
H  H90  1  0.83151000  0.02665000  0.69241000  1.0 0.1198121012
H  H91  1  0.97335000  0.16849000  0.19241000  1.0 0.1198121012
H  H92  1  0.16849000  0.97335000  0.30759000  1.0 0.1198121012
H  H93  1  0.70728000  0.76268000  0.59925000  1.0 0.1198121012
H  H94  1  0.76268000  0.70728000  0.90075000  1.0 0.1198121012
H  H95  1  0.29272000  0.23732000  0.40075000  1.0 0.1198121012
H  H96  1  0.23732000  0.29272000  0.09925000  1.0 0.1198121012
H  H97  1  0.82897000  0.84877000  0.69113000  1.0 0.1101703926
H  H98  1  0.84877000  0.82897000  0.80887000  1.0 0.1101703926
H  H99  1  0.17103000  0.15123000  0.30887000  1.0 0.1101703926
H  H100  1  0.15123000  0.17103000  0.19113000  1.0 0.1101703926
H  H101  1  0.64902000  0.27506000  0.11013000  1.0 0.1198121012
H  H102  1  0.27506000  0.64902000  0.38987000  1.0 0.1198121012
H  H103  1  0.35098000  0.72494000  0.88987000  1.0 0.1198121012
H  H104  1  0.72494000  0.35098000  0.61013000  1.0 0.1198121012
H  H105  1  0.85755000  0.69043000  0.84744000  1.0 0.1101703926
H  H106  1  0.69043000  0.85755000  0.65256000  1.0 0.1101703926
H  H107  1  0.14245000  0.30957000  0.15256000  1.0 0.1101703926
H  H108  1  0.30957000  0.14245000  0.34744000  1.0 0.1101703926
H  H109  1  0.96609000  0.40547000  0.05997000  1.0 0.1031231823
H  H110  1  0.40547000  0.96608000  0.44003000  1.0 0.1031231823
H  H111  1  0.03391000  0.59452000  0.94003000  1.0 0.1031231823
H  H112  1  0.59452000  0.03391000  0.55997000  1.0 0.1031231823
H  H113  1  0.84435000  0.50281000  0.01073000  1.0 0.1198121012
H  H114  1  0.50281000  0.84435000  0.48927000  1.0 0.1198121012
H  H115  1  0.15565000  0.49719000  0.98927000  1.0 0.1198121012
H  H116  1  0.49719000  0.15565000  0.51073000  1.0 0.1198121012
H  H117  1  0.22002000  0.83118000  0.27650000  1.0 0.1101703926
H  H118  1  0.83118000  0.22002000  0.22350000  1.0 0.1101703926
H  H119  1  0.77997000  0.16881000  0.72350000  1.0 0.1101703926
H  H120  1  0.16881000  0.77997000  0.77650000  1.0 0.1101703926
H  H121  1  0.69418000  0.21262000  0.24931000  1.0 0.1101703926
H  H122  1  0.21262000  0.69418000  0.25069000  1.0 0.1101703926
H  H123  1  0.30582000  0.78738000  0.75069000  1.0 0.1101703926
H  H124  1  0.78738000  0.30582000  0.74931000  1.0 0.1101703926
H  H125  1  0.16257000  0.65843000  0.00886000  1.0 0.1198121012
H  H126  1  0.65843000  0.16257000  0.49114000  1.0 0.1198121012
H  H127  1  0.83743000  0.34157000  0.99114000  1.0 0.1198121012
H  H128  1  0.34157000  0.83743000  0.50886000  1.0 0.1198121012
H  H129  1  0.32348000  0.79204000  0.19674000  1.0 0.1101703926
H  H130  1  0.79204000  0.32348000  0.30326000  1.0 0.1101703926
H  H131  1  0.67652000  0.20796000  0.80326000  1.0 0.1101703926
H  H132  1  0.20796000  0.67652000  0.69674000  1.0 0.1101703926
H  H133  1  0.30001000  0.76785000  0.38957000  1.0 0.1101703926
H  H134  1  0.76785000  0.30001000  0.11043000  1.0 0.1101703926
H  H135  1  0.69999000  0.23215000  0.61043000  1.0 0.1101703926
H  H136  1  0.23215000  0.69999000  0.88957000  1.0 0.1101703926
H  H137  1  0.87377000  0.80375000  0.74219000  1.0 0.1101703926
H  H138  1  0.80375000  0.87377000  0.75781000  1.0 0.1101703926
H  H139  1  0.12624000  0.19624000  0.25781000  1.0 0.1101703926
H  H140  1  0.19624000  0.12623000  0.24219000  1.0 0.1101703926
H  H141  1  0.29117000  0.79635000  0.12418000  1.0 0.1198121012
H  H142  1  0.79635000  0.29117000  0.37582000  1.0 0.1198121012
H  H143  1  0.70883000  0.20365000  0.87582000  1.0 0.1198121012
H  H144  1  0.20365000  0.70883000  0.62418000  1.0 0.1198121012
H  H145  1  0.73241000  0.15581000  0.38684000  1.0 0.1101703926
H  H146  1  0.15581000  0.73241000  0.11316000  1.0 0.1101703926
H  H147  1  0.26759000  0.84419000  0.61316000  1.0 0.1101703926
H  H148  1  0.84419000  0.26759000  0.88684000  1.0 0.1101703926
H  H149  1  0.97901000  0.38013000  0.02492000  1.0 0.1031231823
H  H150  1  0.38013000  0.97901000  0.47508000  1.0 0.1031231823
H  H151  1  0.02099000  0.61987000  0.97508000  1.0 0.1031231823
H  H152  1  0.61987000  0.02099000  0.52492000  1.0 0.1031231823
H  H153  1  0.72640000  0.61940000  0.77033000  1.0 0.1198121012
H  H154  1  0.61940000  0.72640000  0.72967000  1.0 0.1198121012
H  H155  1  0.27360000  0.38060000  0.22967000  1.0 0.1198121012
H  H156  1  0.38060000  0.27360000  0.27033000  1.0 0.1198121012
H  H157  1  0.70660000  0.24298000  0.39688000  1.0 0.1101703926
H  H158  1  0.24298000  0.70660000  0.10312000  1.0 0.1101703926
H  H159  1  0.29340000  0.75702000  0.60312000  1.0 0.1101703926
H  H160  1  0.75702000  0.29340000  0.89688000  1.0 0.1101703926
H  H161  1  0.19754000  0.84454000  0.10729000  1.0 0.1198121012
H  H162  1  0.84454000  0.19754000  0.39271000  1.0 0.1198121012
H  H163  1  0.80246000  0.15546000  0.89271000  1.0 0.1198121012
H  H164  1  0.15546000  0.80246000  0.60729000  1.0 0.1198121012
H  H165  1  0.25826000  0.76378000  0.42618000  1.0 0.1198121012
H  H166  1  0.76378000  0.25826000  0.07382000  1.0 0.1198121012
H  H167  1  0.74174000  0.23622000  0.57382000  1.0 0.1198121012
H  H168  1  0.23622000  0.74174000  0.92618000  1.0 0.1198121012
H  H169  1  0.90689000  0.38467000  0.08197000  1.0 0.1101703926
H  H170  1  0.38467000  0.90689000  0.41803000  1.0 0.1101703926
H  H171  1  0.09311000  0.61533000  0.91803000  1.0 0.1101703926
H  H172  1  0.61533000  0.09311000  0.58197000  1.0 0.1101703926
H  H173  1  0.73556000  0.08058000  0.41872000  1.0 0.1269685575
H  H174  1  0.08058000  0.73556000  0.08128000  1.0 0.1269685575
H  H175  1  0.26444000  0.91942000  0.58128000  1.0 0.1269685575
H  H176  1  0.91942000  0.26444000  0.91872000  1.0 0.1269685575
H  H177  1  0.18077000  0.83027000  0.31302000  1.0 0.1198121012
H  H178  1  0.83027000  0.18077000  0.18698000  1.0 0.1198121012
H  H179  1  0.81923000  0.16973000  0.68698000  1.0 0.1198121012
H  H180  1  0.16973000  0.81923000  0.81302000  1.0 0.1198121012
H  H181  1  0.13637000  0.40261000  0.06538000  1.0 0.1198121012
H  H182  1  0.40261000  0.13637000  0.43462000  1.0 0.1198121012
H  H183  1  0.86363000  0.59739000  0.93462000  1.0 0.1198121012
H  H184  1  0.59739000  0.86363000  0.56538000  1.0 0.1198121012
H  H185  1  0.44077000  0.87643000  0.27274000  1.0 0.1101703926
H  H186  1  0.87643000  0.44077000  0.22726000  1.0 0.1101703926
H  H187  1  0.55923000  0.12357000  0.72726000  1.0 0.1101703926
H  H188  1  0.12357000  0.55923000  0.77274000  1.0 0.1101703926
H  H189  1  0.69048000  0.26612000  0.43584000  1.0 0.1198121012
H  H190  1  0.26612000  0.69048000  0.06416000  1.0 0.1198121012
H  H191  1  0.30952000  0.73388000  0.56416000  1.0 0.1198121012
H  H192  1  0.73388000  0.30952000  0.93584000  1.0 0.1198121012
H  H193  1  0.62991000  0.72417000  0.47895000  1.0 0.1198121012
H  H194  1  0.72417000  0.62991000  0.02105000  1.0 0.1198121012
H  H195  1  0.37009000  0.27583000  0.52105000  1.0 0.1198121012
H  H196  1  0.27583000  0.37009000  0.97895000  1.0 0.1198121012
H  H197  1  0.99583000  0.75983000  0.92029000  1.0 0.1198121012
H  H198  1  0.75983000  0.99583000  0.57971000  1.0 0.1198121012
H  H199  1  0.00417000  0.24017000  0.07971000  1.0 0.1198121012
H  H200  1  0.24017000  0.00417000  0.42029000  1.0 0.1198121012
H  H201  1  0.11878000  0.57832000  0.02364000  1.0 0.1031231823
H  H202  1  0.57832000  0.11878000  0.47636000  1.0 0.1031231823
H  H203  1  0.88122000  0.42168000  0.97636000  1.0 0.1031231823
H  H204  1  0.42168000  0.88122000  0.52364000  1.0 0.1031231823
H  H205  1  0.65355000  0.05411000  0.30482000  1.0 0.1101703926
H  H206  1  0.05411000  0.65355000  0.19518000  1.0 0.1101703926
H  H207  1  0.34645000  0.94589000  0.69518000  1.0 0.1101703926
H  H208  1  0.94589000  0.34645000  0.80482000  1.0 0.1101703926
H  H209  1  0.94750000  0.80494000  0.76980000  1.0 0.1101703926
H  H210  1  0.80494000  0.94750000  0.73020000  1.0 0.1101703926
H  H211  1  0.05250000  0.19506000  0.23020000  1.0 0.1101703926
H  H212  1  0.19506000  0.05250000  0.26980000  1.0 0.1101703926
H  H213  1  0.92233000  0.52181000  0.02341000  1.0 0.1031231823
H  H214  1  0.52181000  0.92233000  0.47659000  1.0 0.1031231823
H  H215  1  0.07767000  0.47819000  0.97659000  1.0 0.1031231823
H  H216  1  0.47819000  0.07767000  0.52341000  1.0 0.1031231823
H  H217  1  0.80067000  0.65593000  0.87978000  1.0 0.1101703926
H  H218  1  0.65593000  0.80067000  0.62022000  1.0 0.1101703926
H  H219  1  0.19933000  0.34407000  0.12022000  1.0 0.1101703926
H  H220  1  0.34407000  0.19933000  0.37978000  1.0 0.1101703926
H  H221  1  0.63166000  0.31410000  0.28497000  1.0 0.1101703926
H  H222  1  0.31410000  0.63166000  0.21503000  1.0 0.1101703926
H  H223  1  0.36834000  0.68590000  0.71503000  1.0 0.1101703926
H  H224  1  0.68590000  0.36834000  0.78497000  1.0 0.1101703926
H  H225  1  0.11522000  0.44118000  0.08575000  1.0 0.1101703926
H  H226  1  0.44118000  0.11522000  0.41425000  1.0 0.1101703926
H  H227  1  0.88478000  0.55882000  0.91425000  1.0 0.1101703926
H  H228  1  0.55882000  0.88478000  0.58575000  1.0 0.1101703926
H  H229  1  0.05769000  0.59011000  0.08548000  1.0 0.1101703926
H  H230  1  0.59011000  0.05769000  0.41452000  1.0 0.1101703926
H  H231  1  0.94231000  0.40989000  0.91452000  1.0 0.1101703926
H  H232  1  0.40989000  0.94231000  0.58548000  1.0 0.1101703926
H  H233  1  0.49565000  0.81375000  0.42253000  1.0 0.1198121012
H  H234  1  0.81375000  0.49565000  0.07747000  1.0 0.1198121012
H  H235  1  0.50435000  0.18625000  0.57747000  1.0 0.1198121012
H  H236  1  0.18625000  0.50435000  0.92253000  1.0 0.1198121012
H  H237  1  0.65145000  0.23613000  0.18191000  1.0 0.1101703926
H  H238  1  0.23613000  0.65145000  0.31809000  1.0 0.1101703926
H  H239  1  0.34855000  0.76387000  0.81809000  1.0 0.1101703926
H  H240  1  0.76387000  0.34855000  0.68191000  1.0 0.1101703926
H  H241  1  0.66014000  0.78944000  0.36796000  1.0 0.1269685575
H  H242  1  0.78944000  0.66014000  0.13204000  1.0 0.1269685575
H  H243  1  0.33986000  0.21056000  0.63204000  1.0 0.1269685575
H  H244  1  0.21056000  0.33986000  0.86796000  1.0 0.1269685575
H  H245  1  0.36181000  0.93795000  0.00053000  1.0 0.1269685575
H  H246  1  0.93795000  0.36181000  0.49947000  1.0 0.1269685575
H  H247  1  0.63819000  0.06205000  0.99947000  1.0 0.1269685575
H  H248  1  0.06205000  0.63819000  0.50053000  1.0 0.1269685575
H  H249  1  0.64255000  0.71753000  0.36369000  1.0 0.1101703926
H  H250  1  0.71753000  0.64255000  0.13631000  1.0 0.1101703926
H  H251  1  0.35745000  0.28247000  0.63631000  1.0 0.1101703926
H  H252  1  0.28247000  0.35745000  0.86369000  1.0 0.1101703926
H  H253  1  0.58043000  0.49211000  0.38463000  1.0 0.1269685575
H  H254  1  0.49211000  0.58043000  0.11537000  1.0 0.1269685575
H  H255  1  0.41957000  0.50789000  0.61537000  1.0 0.1269685575
H  H256  1  0.50789000  0.41957000  0.88463000  1.0 0.1269685575
H  H257  1  0.48735000  0.29173000  0.88245000  1.0 0.1198121012
H  H258  1  0.29173000  0.48735000  0.61755000  1.0 0.1198121012
H  H259  1  0.51265000  0.70827000  0.11755000  1.0 0.1198121012
H  H260  1  0.70827000  0.51265000  0.38245000  1.0 0.1198121012
H  H261  1  0.56040000  0.22192000  0.99546000  1.0 0.1198121012
H  H262  1  0.22192000  0.56040000  0.50454000  1.0 0.1198121012
H  H263  1  0.43960000  0.77808000  0.00454000  1.0 0.1198121012
H  H264  1  0.77808000  0.43960000  0.49546000  1.0 0.1198121012
H  H265  1  0.63035000  0.63343000  0.39790000  1.0 0.1031231823
H  H266  1  0.63343000  0.63035000  0.10210000  1.0 0.1031231823
H  H267  1  0.36965000  0.36657000  0.60210000  1.0 0.1031231823
H  H268  1  0.36657000  0.36965000  0.89790000  1.0 0.1101703926
H  H269  1  0.28041000  0.00141000  0.88673000  1.0 0.1269685575
H  H270  1  0.00141000  0.28041000  0.61327000  1.0 0.1269685575
H  H271  1  0.71959000  0.99859000  0.11327000  1.0 0.1269685575
H  H272  1  0.99859000  0.71959000  0.38673000  1.0 0.1269685575
H  H273  1  0.78324000  0.92434000  0.37187000  1.0 0.1198121012
H  H274  1  0.92434000  0.78324000  0.12813000  1.0 0.1198121012
H  H275  1  0.21676000  0.07566000  0.62813000  1.0 0.1198121012
H  H276  1  0.07566000  0.21676000  0.87187000  1.0 0.1198121012
H  H277  1  0.61515000  0.65213000  0.47631000  1.0 0.1101703926
H  H278  1  0.65213000  0.61515000  0.02369000  1.0 0.1101703926
H  H279  1  0.38485000  0.34787000  0.52369000  1.0 0.1101703926
H  H280  1  0.34787000  0.38485000  0.97631000  1.0 0.1101703926
H  H281  1  0.07207000  0.88893000  0.47563000  1.0 0.1198121012
H  H282  1  0.88893000  0.07207000  0.02437000  1.0 0.1198121012
H  H283  1  0.92793000  0.11107000  0.52437000  1.0 0.1198121012
H  H284  1  0.11107000  0.92793000  0.97563000  1.0 0.1198121012
H  H285  1  0.93415000  0.86609000  0.36142000  1.0 0.1101703926
H  H286  1  0.86609000  0.93415000  0.13858000  1.0 0.1101703926
H  H287  1  0.06585000  0.13391000  0.63858000  1.0 0.1101703926
H  H288  1  0.13391000  0.06585000  0.86142000  1.0 0.1101703926
H  H289  1  0.60697000  0.56735000  0.38843000  1.0 0.1101703926
H  H290  1  0.56735000  0.60697000  0.11157000  1.0 0.1101703926
H  H291  1  0.39303000  0.43265000  0.61157000  1.0 0.1101703926
H  H292  1  0.43265000  0.39303000  0.88843000  1.0 0.1101703926
H  H293  1  0.89902000  0.88980000  0.38572000  1.0 0.1031231823
H  H294  1  0.88980000  0.89902000  0.11428000  1.0 0.1031231823
H  H295  1  0.10099000  0.11020000  0.61428000  1.0 0.1101703926
H  H296  1  0.11020000  0.10098000  0.88572000  1.0 0.1101703926
H  H297  1  0.85966000  0.94090000  0.49041000  1.0 0.1269685575
H  H298  1  0.94090000  0.85966000  0.00959000  1.0 0.1269685575
H  H299  1  0.14034000  0.05910000  0.50959000  1.0 0.1269685575
H  H300  1  0.05910000  0.14034000  0.99041000  1.0 0.1269685575
H  H301  1  0.92010000  0.93140000  0.48927000  1.0 0.1101703926
H  H302  1  0.93140000  0.92010000  0.01073000  1.0 0.1101703926
H  H303  1  0.07990000  0.06860000  0.51073000  1.0 0.1101703926
H  H304  1  0.06860000  0.07990000  0.98927000  1.0 0.1101703926
H  H305  1  0.55525000  0.43563000  0.49750000  1.0 0.1198121012
H  H306  1  0.43563000  0.55525000  0.00250000  1.0 0.1198121012
H  H307  1  0.44475000  0.56437000  0.50250000  1.0 0.1198121012
H  H308  1  0.56437000  0.44475000  0.99750000  1.0 0.1198121012
H  H309  1  0.49973000  0.15281000  0.98942000  1.0 0.1101703926
H  H310  1  0.15281000  0.49973000  0.51058000  1.0 0.1101703926
H  H311  1  0.50027000  0.84719000  0.01058000  1.0 0.1101703926
H  H312  1  0.84719000  0.50027000  0.48942000  1.0 0.1101703926
H  H313  1  0.42593000  0.22041000  0.87900000  1.0 0.1101703926
H  H314  1  0.22041000  0.42593000  0.62100000  1.0 0.1101703926
H  H315  1  0.57407000  0.77959000  0.12100000  1.0 0.1101703926
H  H316  1  0.77959000  0.57407000  0.37900000  1.0 0.1101703926
H  H317  1  0.84533000  0.91509000  0.37148000  1.0 0.1101703926
H  H318  1  0.91509000  0.84533000  0.12852000  1.0 0.1101703926
H  H319  1  0.15467000  0.08491000  0.62852000  1.0 0.1101703926
H  H320  1  0.08491000  0.15467000  0.87148000  1.0 0.1101703926
H  H321  1  0.57994000  0.51024000  0.50020000  1.0 0.1101703926
H  H322  1  0.51024000  0.57994000  0.99980000  1.0 0.1101703926
H  H323  1  0.42006000  0.48976000  0.49980000  1.0 0.1101703926
H  H324  1  0.48976000  0.42006000  0.00020000  1.0 0.1101703926
H  H325  1  0.39368000  0.13670000  0.90011000  1.0 0.1101703926
H  H326  1  0.13670000  0.39368000  0.59989000  1.0 0.1101703926
H  H327  1  0.60632000  0.86330000  0.09989000  1.0 0.1101703926
H  H328  1  0.86330000  0.60632000  0.40011000  1.0 0.1101703926
H  H329  1  0.59488000  0.59168000  0.46557000  1.0 0.1031231823
H  H330  1  0.59168000  0.59488000  0.03443000  1.0 0.1031231823
H  H331  1  0.40512000  0.40832000  0.53443000  1.0 0.1031231823
H  H332  1  0.40832000  0.40512000  0.96557000  1.0 0.1031231823
H  H333  1  0.34292000  0.07382000  0.88726000  1.0 0.1101703926
H  H334  1  0.07382000  0.34292000  0.61274000  1.0 0.1101703926
H  H335  1  0.65708000  0.92618000  0.11274000  1.0 0.1101703926
H  H336  1  0.92618000  0.65708000  0.38726000  1.0 0.1101703926
H  H337  1  0.95522000  0.91570000  0.45940000  1.0 0.1031231823
H  H338  1  0.91570000  0.95522000  0.04060000  1.0 0.1031231823
H  H339  1  0.04478000  0.08430000  0.54060000  1.0 0.1031231823
H  H340  1  0.08430000  0.04478000  0.95940000  1.0 0.1031231823
H  H341  1  0.01283000  0.90643000  0.46875000  1.0 0.1101703926
H  H342  1  0.90643000  0.01283000  0.03125000  1.0 0.1101703926
H  H343  1  0.98717000  0.09357000  0.53125000  1.0 0.1101703926
H  H344  1  0.09357000  0.98717000  0.96875000  1.0 0.1101703926
H  H345  1  0.44935000  0.09471000  0.97568000  1.0 0.1031231823
H  H346  1  0.09471000  0.44936000  0.52432000  1.0 0.1031231823
H  H347  1  0.55064000  0.90528000  0.02432000  1.0 0.1031231823
H  H348  1  0.90529000  0.55065000  0.47568000  1.0 0.1031231823
H  H349  1  0.71181000  0.39937000  0.13230000  1.0 0.1198121012
H  H350  1  0.39937000  0.71181000  0.36770000  1.0 0.1198121012
H  H351  1  0.28819000  0.60063000  0.86770000  1.0 0.1198121012
H  H352  1  0.60063000  0.28819000  0.63230000  1.0 0.1198121012
H  H353  1  0.71594000  0.35976000  0.20460000  1.0 0.1101703926
H  H354  1  0.35976000  0.71594000  0.29540000  1.0 0.1101703926
H  H355  1  0.28406000  0.64024000  0.79540000  1.0 0.1101703926
H  H356  1  0.64024000  0.28406000  0.70460000  1.0 0.1101703926
C  C1  1  0.77863000  0.71461000  0.75561000  1.0 -0.2014293793
C  C2  1  0.71461000  0.77863000  0.74439000  1.0 -0.2014293793
C  C3  1  0.22137000  0.28539000  0.24439000  1.0 -0.2014293793
C  C4  1  0.28539000  0.22137000  0.25561000  1.0 -0.2014293793
C  C5  1  0.71924000  0.55702000  0.86682000  1.0 -0.0498090406
C  C6  1  0.55702000  0.71924000  0.63318000  1.0 -0.0498090406
C  C7  1  0.28076000  0.44298000  0.13318000  1.0 -0.0498090406
C  C8  1  0.44298000  0.28076000  0.36682000  1.0 -0.0498090406
C  C9  1  0.79737000  0.69009000  0.79792000  1.0 0.0787734982
C  C10  1  0.69009000  0.79737000  0.70208000  1.0 0.0787734982
C  C11  1  0.20263000  0.30991000  0.20208000  1.0 0.0787734982
C  C12  1  0.30991000  0.20263000  0.29792000  1.0 0.0787734982
C  C13  1  0.13216000  0.67304000  0.03394000  1.0 -0.0575060649
C  C14  1  0.67304000  0.13216000  0.46606000  1.0 -0.0575060649
C  C15  1  0.86784000  0.32696000  0.96606000  1.0 -0.0575060649
C  C16  1  0.32696000  0.86784000  0.53394000  1.0 -0.0575060649
C  C17  1  0.27302000  0.80554000  0.26395000  1.0 -0.2014293793
C  C18  1  0.80554000  0.27302000  0.23605000  1.0 -0.2014293793
C  C19  1  0.72698000  0.19446000  0.73605000  1.0 -0.2014293793
C  C20  1  0.19446000  0.72698000  0.76395000  1.0 -0.2014293793
C  C21  1  0.53179000  0.26453000  0.93806000  1.0 -0.0822328382
C  C22  1  0.26453000  0.53179000  0.56194000  1.0 -0.0822328382
C  C23  1  0.46821000  0.73547000  0.06194000  1.0 -0.0822328382
C  C24  1  0.73547000  0.46821000  0.43806000  1.0 -0.0822328382
C  C25  1  0.70890000  0.56836000  0.82298000  1.0 -0.0903450696
C  C26  1  0.56836000  0.70890000  0.67702000  1.0 -0.0903450696
C  C27  1  0.29110000  0.43164000  0.17702000  1.0 -0.0903450696
C  C28  1  0.43164000  0.29110000  0.32298000  1.0 -0.0903450696
C  C29  1  0.07044000  0.36798000  0.03330000  1.0 -0.0575060649
C  C30  1  0.36798000  0.07044000  0.46670000  1.0 -0.0575060649
C  C31  1  0.92956000  0.63202000  0.96670000  1.0 -0.0575060649
C  C32  1  0.63202000  0.92956000  0.53330000  1.0 -0.0575060649
C  C33  1  0.78625000  0.78285000  0.68876000  1.0 0.0787734982
C  C34  1  0.78285000  0.78625000  0.81124000  1.0 0.0787734982
C  C35  1  0.21375000  0.21715000  0.31124000  1.0 0.0787734982
C  C36  1  0.21715000  0.21375000  0.18876000  1.0 0.0787734982
C  C37  1  0.42007000  0.83419000  0.32645000  1.0 0.0787734982
C  C38  1  0.83419000  0.42007000  0.17355000  1.0 0.0787734982
C  C39  1  0.57993000  0.16581000  0.67355000  1.0 0.0787734982
C  C40  1  0.16581000  0.57993000  0.82645000  1.0 0.0787734982
C  C41  1  0.82705000  0.43211000  0.03484000  1.0 -0.0498090406
C  C42  1  0.43211000  0.82705000  0.46516000  1.0 -0.0498090406
C  C43  1  0.17295000  0.56789000  0.96516000  1.0 -0.0498090406
C  C44  1  0.56789000  0.17295000  0.53484000  1.0 -0.0498090406
C  C45  1  0.93936000  0.75576000  0.86729000  1.0 -0.1514572123
C  C46  1  0.75576000  0.93936000  0.63271000  1.0 -0.1514572123
C  C47  1  0.06064000  0.24424000  0.13271000  1.0 -0.1514572123
C  C48  1  0.24424000  0.06064000  0.36729000  1.0 -0.1514572123
C  C49  1  0.02319000  0.36023000  0.02268000  1.0 -0.0903450696
C  C50  1  0.36023000  0.02319000  0.47732000  1.0 -0.0903450696
C  C51  1  0.97681000  0.63977000  0.97732000  1.0 -0.0903450696
C  C52  1  0.63977000  0.97681000  0.52268000  1.0 -0.0903450696
C  C53  1  0.75098000  0.75728000  0.66118000  1.0 -0.1591402439
C  C54  1  0.75728000  0.75098000  0.83882000  1.0 -0.1591402439
C  C55  1  0.24902000  0.24272000  0.33882000  1.0 -0.1591402439
C  C56  1  0.24272000  0.24902000  0.16118000  1.0 -0.1591402439
C  C57  1  0.67853000  0.25877000  0.31226000  1.0 0.0787734982
C  C58  1  0.25877000  0.67853000  0.18774000  1.0 0.0787734982
C  C59  1  0.32147000  0.74123000  0.68774000  1.0 0.0787734982
C  C60  1  0.74123000  0.32147000  0.81226000  1.0 0.0787734982
C  C61  1  0.43710000  0.81456000  0.37126000  1.0 -0.1514572123
C  C62  1  0.81456000  0.43710000  0.12874000  1.0 -0.1514572123
C  C63  1  0.56290000  0.18544000  0.62874000  1.0 -0.1514572123
C  C64  1  0.18544000  0.56290000  0.87126000  1.0 -0.1514572123
C  C65  1  0.29300000  0.80622000  0.30651000  1.0 0.0859373131
C  C66  1  0.80622000  0.29300000  0.19349000  1.0 0.0859373131
C  C67  1  0.70700000  0.19378000  0.69349000  1.0 0.0859373131
C  C68  1  0.19378000  0.70700000  0.80651000  1.0 0.0859373131
C  C69  1  0.06350000  0.49348000  0.06026000  1.0 -0.2014293793
C  C70  1  0.49348000  0.06350000  0.43974000  1.0 -0.2014293793
C  C71  1  0.93650000  0.50652000  0.93974000  1.0 -0.2014293793
C  C72  1  0.50652000  0.93650000  0.56026000  1.0 -0.2014293793
C  C73  1  0.49892000  0.87392000  0.32388000  1.0 -0.0903450696
C  C74  1  0.87392000  0.49892000  0.17612000  1.0 -0.0903450696
C  C75  1  0.50108000  0.12608000  0.67612000  1.0 -0.0903450696
C  C76  1  0.12608000  0.50108000  0.82388000  1.0 -0.0903450696
C  C77  1  0.69396000  0.05966000  0.36507000  1.0 -0.0575060649
C  C78  1  0.05966000  0.69396000  0.13493000  1.0 -0.0575060649
C  C79  1  0.30604000  0.94034000  0.63493000  1.0 -0.0575060649
C  C80  1  0.94034000  0.30604000  0.86507000  1.0 -0.0575060649
C  C81  1  0.21535000  0.79609000  0.37321000  1.0 -0.0575060649
C  C82  1  0.79609000  0.21535000  0.12679000  1.0 -0.0498090406
C  C83  1  0.78465000  0.20391000  0.62679000  1.0 -0.0498090406
C  C84  1  0.20391000  0.78465000  0.87321000  1.0 -0.0575060649
C  C85  1  0.34082000  0.81500000  0.32627000  1.0 -0.1933529996
C  C86  1  0.81500000  0.34082000  0.17373000  1.0 -0.1933529996
C  C87  1  0.65918000  0.18500000  0.67373000  1.0 -0.1933529996
C  C88  1  0.18500000  0.65918000  0.82627000  1.0 -0.1933529996
C  C89  1  0.68008000  0.28502000  0.26991000  1.0 -0.2086920128
C  C90  1  0.28502000  0.68008000  0.23009000  1.0 -0.2086920128
C  C91  1  0.31992000  0.71498000  0.73009000  1.0 -0.2086920128
C  C92  1  0.71498000  0.31992000  0.76991000  1.0 -0.2086920128
C  C93  1  0.26496000  0.80130000  0.32944000  1.0 0.0787734982
C  C94  1  0.80130000  0.26496000  0.17056000  1.0 0.0787734982
C  C95  1  0.73504000  0.19870000  0.67056000  1.0 0.0787734982
C  C96  1  0.19870000  0.73504000  0.82944000  1.0 0.0787734982
C  C97  1  0.68815000  0.19715000  0.30723000  1.0 0.0787734982
C  C98  1  0.19715000  0.68815000  0.19277000  1.0 0.0787734982
C  C99  1  0.31185000  0.80285000  0.69277000  1.0 0.0787734982
C  C100  1  0.80285000  0.31185000  0.80723000  1.0 0.0787734982
C  C101  1  0.06905000  0.81375000  0.89241000  1.0 0.6312005876
C  C102  1  0.81375000  0.06905000  0.60759000  1.0 0.6312005876
C  C103  1  0.93095000  0.18625000  0.10759000  1.0 0.6312005876
C  C104  1  0.18625000  0.93095000  0.39241000  1.0 0.6312005876
C  C105  1  0.30062000  0.81430000  0.24142000  1.0 0.0787734982
C  C106  1  0.81430000  0.30062000  0.25858000  1.0 0.0787734982
C  C107  1  0.69938000  0.18570000  0.75858000  1.0 0.0787734982
C  C108  1  0.18570000  0.69938000  0.74142000  1.0 0.0787734982
C  C109  1  0.51584000  0.85634000  0.36852000  1.0 -0.0498090406
C  C110  1  0.85634000  0.51584000  0.13148000  1.0 -0.0498090406
C  C111  1  0.48416000  0.14366000  0.63148000  1.0 -0.0498090406
C  C112  1  0.14366000  0.48416000  0.86852000  1.0 -0.0498090406
C  C113  1  0.01918000  0.79790000  0.86762000  1.0 -0.0575060649
C  C114  1  0.79790000  0.01918000  0.63238000  1.0 -0.0575060649
C  C115  1  0.98082000  0.20210000  0.13238000  1.0 -0.0498090406
C  C116  1  0.20210000  0.98082000  0.36762000  1.0 -0.0575060649
C  C117  1  0.65207000  0.30469000  0.38356000  1.0 -0.0498090406
C  C118  1  0.30469000  0.65207000  0.11644000  1.0 -0.0498090406
C  C119  1  0.34793000  0.69531000  0.61644000  1.0 -0.0498090406
C  C120  1  0.69531000  0.34793000  0.88356000  1.0 -0.0498090406
C  C121  1  0.10089000  0.65183000  0.05747000  1.0 -0.0983866312
C  C122  1  0.65183000  0.10089000  0.44253000  1.0 -0.0983866312
C  C123  1  0.89911000  0.34817000  0.94253000  1.0 -0.0983866312
C  C124  1  0.34817000  0.89911000  0.55747000  1.0 -0.0983866312
C  C125  1  0.92394000  0.76802000  0.82219000  1.0 0.0724535971
C  C126  1  0.76802000  0.92394000  0.67781000  1.0 0.0724535971
C  C127  1  0.07606000  0.23198000  0.17781000  1.0 0.0724535971
C  C128  1  0.23198000  0.07606000  0.32219000  1.0 0.0724535971
C  C129  1  0.75108000  0.82906000  0.60206000  1.0 -0.0498090406
C  C130  1  0.82906000  0.75108000  0.89794000  1.0 -0.0498090406
C  C131  1  0.24892000  0.17094000  0.39794000  1.0 -0.0498090406
C  C132  1  0.17094000  0.24892000  0.10206000  1.0 -0.0498090406
C  C133  1  0.68556000  0.26806000  0.24634000  1.0 0.0787734982
C  C134  1  0.26806000  0.68556000  0.25366000  1.0 0.0787734982
C  C135  1  0.31444000  0.73194000  0.75366000  1.0 0.0787734982
C  C136  1  0.73194000  0.31444000  0.74634000  1.0 0.0787734982
C  C137  1  0.78604000  0.85414000  0.62912000  1.0 -0.0903450696
C  C138  1  0.85414000  0.78604000  0.87088000  1.0 -0.0903450696
C  C139  1  0.21396000  0.14586000  0.37088000  1.0 -0.0903450696
C  C140  1  0.14586000  0.21396000  0.12912000  1.0 -0.0903450696
C  C141  1  0.05100000  0.52654000  0.05976000  1.0 0.0724535971
C  C142  1  0.52654000  0.05100000  0.44024000  1.0 0.0724535971
C  C143  1  0.94900000  0.47346000  0.94024000  1.0 0.0724535971
C  C144  1  0.47346000  0.94900000  0.55976000  1.0 0.0724535971
C  C145  1  0.68243000  0.21487000  0.33006000  1.0 -0.2014293793
C  C146  1  0.21487000  0.68243000  0.16994000  1.0 -0.2014293793
C  C147  1  0.31757000  0.78513000  0.66994000  1.0 -0.2014293793
C  C148  1  0.78513000  0.31757000  0.83006000  1.0 -0.2014293793
C  C149  1  0.24272000  0.83192000  0.16848000  1.0 -0.1591402439
C  C150  1  0.83192000  0.24272000  0.33152000  1.0 -0.1591402439
C  C151  1  0.75728000  0.16808000  0.83152000  1.0 -0.1591402439
C  C152  1  0.16808000  0.75728000  0.66848000  1.0 -0.1591402439
C  C153  1  0.66851000  0.11973000  0.30269000  1.0 -0.1591402439
C  C154  1  0.11973000  0.66851000  0.19731000  1.0 -0.1591402439
C  C155  1  0.33149000  0.88027000  0.69731000  1.0 -0.1591402439
C  C156  1  0.88027000  0.33149000  0.80269000  1.0 -0.1591402439
C  C157  1  0.99804000  0.86036000  0.38920000  1.0 -0.0983866312
C  C158  1  0.86036000  0.99804000  0.11080000  1.0 -0.0983866312
C  C159  1  0.00196000  0.13964000  0.61080000  1.0 -0.0983866312
C  C160  1  0.13964000  0.00196000  0.88920000  1.0 -0.0983866312
C  C161  1  0.64375000  0.76365000  0.42216000  1.0 -0.0656319098
C  C162  1  0.76365000  0.64375000  0.07784000  1.0 -0.0656319098
C  C163  1  0.35625000  0.23635000  0.57784000  1.0 -0.0656319098
C  C164  1  0.23635000  0.35625000  0.92216000  1.0 -0.0656319098
C  C165  1  0.63545000  0.31893000  0.33886000  1.0 -0.0903450696
C  C166  1  0.31893000  0.63545000  0.16114000  1.0 -0.0903450696
C  C167  1  0.36455000  0.68107000  0.66114000  1.0 -0.0903450696
C  C168  1  0.68107000  0.36455000  0.83886000  1.0 -0.0903450696
C  C169  1  0.84723000  0.39713000  0.05684000  1.0 -0.0983866312
C  C170  1  0.39713000  0.84723000  0.44316000  1.0 -0.0983866312
C  C171  1  0.15277000  0.60287000  0.94316000  1.0 -0.0983866312
C  C172  1  0.60287000  0.15277000  0.55684000  1.0 -0.0983866312
C  C173  1  0.08277000  0.34565000  0.01695000  1.0 0.6312005876
C  C174  1  0.34565000  0.08277000  0.48305000  1.0 0.6312005876
C  C175  1  0.91723000  0.65435000  0.98305000  1.0 0.6312005876
C  C176  1  0.65435000  0.91723000  0.51695000  1.0 0.6312005876
C  C177  1  0.34819000  0.82309000  0.26195000  1.0 -0.2014293793
C  C178  1  0.82309000  0.34819000  0.23805000  1.0 -0.2014293793
C  C179  1  0.65181000  0.17691000  0.73805000  1.0 -0.2014293793
C  C180  1  0.17691000  0.65181000  0.76195000  1.0 -0.2014293793
C  C181  1  0.57180000  0.30764000  0.94064000  1.0 0.6312005876
C  C182  1  0.30764000  0.57180000  0.55936000  1.0 0.6312005876
C  C183  1  0.42820000  0.69236000  0.05936000  1.0 0.6312005876
C  C184  1  0.69236000  0.42820000  0.44064000  1.0 0.6312005876
C  C185  1  0.75327000  0.59003000  0.88808000  1.0 -0.0822328382
C  C186  1  0.59003000  0.75327000  0.61192000  1.0 -0.0822328382
C  C187  1  0.24673000  0.40997000  0.11192000  1.0 -0.0822328382
C  C188  1  0.40997000  0.24673000  0.38808000  1.0 -0.0822328382
C  C189  1  0.69373000  0.50993000  0.89187000  1.0 0.6411414671
C  C190  1  0.50993000  0.69373000  0.60813000  1.0 0.6411414671
C  C191  1  0.30627000  0.49007000  0.10813000  1.0 0.6411414671
C  C192  1  0.49007000  0.30627000  0.39187000  1.0 0.6411414671
C  C193  1  0.00555000  0.51245000  0.05944000  1.0 -0.2014293793
C  C194  1  0.51245000  0.00555000  0.44056000  1.0 -0.2014293793
C  C195  1  0.99445000  0.48755000  0.94056000  1.0 -0.2014293793
C  C196  1  0.48755000  0.99445000  0.55944000  1.0 -0.2014293793
C  C197  1  0.00440000  0.81162000  0.82277000  1.0 -0.0903450696
C  C198  1  0.81162000  0.00440000  0.67723000  1.0 -0.0903450696
C  C199  1  0.99560000  0.18838000  0.17723000  1.0 -0.0903450696
C  C200  1  0.18838000  0.99560000  0.32277000  1.0 -0.0903450696
C  C201  1  0.73241000  0.78011000  0.61792000  1.0 -0.0983866312
C  C202  1  0.78011000  0.73241000  0.88208000  1.0 -0.0983866312
C  C203  1  0.26759000  0.21989000  0.38208000  1.0 -0.0983866312
C  C204  1  0.21989000  0.26759000  0.11792000  1.0 -0.0983866312
C  C205  1  0.80413000  0.83117000  0.67250000  1.0 -0.1675942198
C  C206  1  0.83117000  0.80413000  0.82750000  1.0 -0.1675942198
C  C207  1  0.19587000  0.16883000  0.32750000  1.0 -0.1675942198
C  C208  1  0.16883000  0.19587000  0.17250000  1.0 -0.1675942198
C  C209  1  0.27953000  0.81565000  0.19552000  1.0 0.0787734982
C  C210  1  0.81565000  0.27953000  0.30448000  1.0 0.0787734982
C  C211  1  0.72047000  0.18435000  0.80448000  1.0 0.0787734982
C  C212  1  0.18435000  0.72047000  0.69552000  1.0 0.0787734982
C  C213  1  0.66236000  0.29254000  0.12922000  1.0 -0.0903450696
C  C214  1  0.29254000  0.66236000  0.37078000  1.0 -0.0903450696
C  C215  1  0.33764000  0.70746000  0.87078000  1.0 -0.0903450696
C  C216  1  0.70746000  0.33764000  0.62922000  1.0 -0.0903450696
C  C217  1  0.84451000  0.70781000  0.81876000  1.0 -0.1933529996
C  C218  1  0.70781000  0.84451000  0.68124000  1.0 -0.1933529996
C  C219  1  0.15549000  0.29219000  0.18124000  1.0 -0.1933529996
C  C220  1  0.29219000  0.15549000  0.31876000  1.0 -0.1933529996
C  C221  1  0.98749000  0.43637000  0.05960000  1.0 -0.2014293793
C  C222  1  0.43637000  0.98749000  0.44040000  1.0 -0.2014293793
C  C223  1  0.01251000  0.56363000  0.94040000  1.0 -0.2014293793
C  C224  1  0.56363000  0.01251000  0.55960000  1.0 -0.2014293793
C  C225  1  0.69571000  0.01209000  0.38622000  1.0 0.6411414671
C  C226  1  0.01209000  0.69571000  0.11378000  1.0 0.6411414671
C  C227  1  0.30429000  0.98791000  0.61378000  1.0 0.6411414671
C  C228  1  0.98791000  0.30429000  0.88622000  1.0 0.6411414671
C  C229  1  0.85667000  0.47853000  0.02403000  1.0 -0.0903450696
C  C230  1  0.47853000  0.85667000  0.47597000  1.0 -0.0903450696
C  C231  1  0.14333000  0.52147000  0.97597000  1.0 -0.0903450696
C  C232  1  0.52147000  0.14333000  0.52403000  1.0 -0.0903450696
C  C233  1  0.67070000  0.27576000  0.33700000  1.0 0.0724535971
C  C234  1  0.27576000  0.67070000  0.16300000  1.0 0.0724535971
C  C235  1  0.32930000  0.72424000  0.66300000  1.0 0.0724535971
C  C236  1  0.72424000  0.32930000  0.83700000  1.0 0.0724535971
C  C237  1  0.22855000  0.81837000  0.30708000  1.0 -0.1591402439
C  C238  1  0.81837000  0.22855000  0.19292000  1.0 -0.1591402439
C  C239  1  0.77145000  0.18163000  0.69292000  1.0 -0.1591402439
C  C240  1  0.18163000  0.77145000  0.80708000  1.0 -0.1591402439
C  C241  1  0.31561000  0.96273000  0.94476000  1.0 -0.0498090406
C  C242  1  0.96273000  0.31561000  0.55524000  1.0 -0.043745345
C  C243  1  0.68439000  0.03727000  0.05524000  1.0 -0.0498090406
C  C244  1  0.03727000  0.68439000  0.44476000  1.0 -0.0498090406
C  C245  1  0.68994000  0.22420000  0.26520000  1.0 -0.2014293793
C  C246  1  0.22420000  0.68994000  0.23480000  1.0 -0.2014293793
C  C247  1  0.31006000  0.77580000  0.73480000  1.0 -0.2014293793
C  C248  1  0.77580000  0.31006000  0.76520000  1.0 -0.2014293793
C  C249  1  0.13987000  0.64489000  0.02289000  1.0 -0.0983866312
C  C250  1  0.64489000  0.13987000  0.47711000  1.0 -0.0983866312
C  C251  1  0.86013000  0.35511000  0.97711000  1.0 -0.0983866312
C  C252  1  0.35511000  0.86013000  0.52289000  1.0 -0.0983866312
C  C253  1  0.29790000  0.80274000  0.17865000  1.0 -0.1675942198
C  C254  1  0.80274000  0.29790000  0.32135000  1.0 -0.1675942198
C  C255  1  0.70210000  0.19726000  0.82135000  1.0 -0.1675942198
C  C256  1  0.19726000  0.70210000  0.67865000  1.0 -0.1675942198
C  C257  1  0.27569000  0.78043000  0.37400000  1.0 -0.1591402439
C  C258  1  0.78043000  0.27569000  0.12600000  1.0 -0.1591402439
C  C259  1  0.72431000  0.21957000  0.62600000  1.0 -0.1591402439
C  C260  1  0.21957000  0.72431000  0.87400000  1.0 -0.1591402439
C  C261  1  0.85420000  0.77490000  0.75646000  1.0 -0.2014293793
C  C262  1  0.77490000  0.85420000  0.74354000  1.0 -0.2014293793
C  C263  1  0.14580000  0.22510000  0.24354000  1.0 -0.2014293793
C  C264  1  0.22510000  0.14580000  0.25646000  1.0 -0.2014293793
C  C265  1  0.87357000  0.75079000  0.79865000  1.0 0.0787734982
C  C266  1  0.75079000  0.87357000  0.70135000  1.0 0.0787734982
C  C267  1  0.12643000  0.24921000  0.20135000  1.0 0.0787734982
C  C268  1  0.24921000  0.12643000  0.29865000  1.0 0.0787734982
C  C269  1  0.27889000  0.80553000  0.13558000  1.0 -0.0903450696
C  C270  1  0.80553000  0.27889000  0.36442000  1.0 -0.0903450696
C  C271  1  0.72111000  0.19447000  0.86442000  1.0 -0.0903450696
C  C272  1  0.19447000  0.72111000  0.63558000  1.0 -0.0903450696
C  C273  1  0.36863000  0.82313000  0.30496000  1.0 0.0859373131
C  C274  1  0.82313000  0.36863000  0.19504000  1.0 0.0859373131
C  C275  1  0.63137000  0.17687000  0.69504000  1.0 0.0859373131
C  C276  1  0.17687000  0.63137000  0.80496000  1.0 0.0859373131
C  C277  1  0.97270000  0.46758000  0.05874000  1.0 0.0724535971
C  C278  1  0.46758000  0.97270000  0.44126000  1.0 0.0724535971
C  C279  1  0.02730000  0.53242000  0.94126000  1.0 0.0724535971
C  C280  1  0.53242000  0.02730000  0.55874000  1.0 0.0724535971
C  C281  1  0.15464000  0.72460000  0.01945000  1.0 0.6312005876
C  C282  1  0.72460000  0.15464000  0.48055000  1.0 0.6312005876
C  C283  1  0.84536000  0.27540000  0.98055000  1.0 0.6312005876
C  C284  1  0.27540000  0.84536000  0.51945000  1.0 0.6312005876
C  C285  1  0.71629000  0.13517000  0.37017000  1.0 -0.1514572123
C  C286  1  0.13517000  0.71629000  0.12983000  1.0 -0.1514572123
C  C287  1  0.28371000  0.86483000  0.62983000  1.0 -0.1514572123
C  C288  1  0.86483000  0.28371000  0.87017000  1.0 -0.1514572123
C  C289  1  0.80686000  0.75798000  0.73446000  1.0 0.0787734982
C  C290  1  0.75798000  0.80686000  0.76554000  1.0 0.0787734982
C  C291  1  0.19314000  0.24202000  0.26554000  1.0 0.0787734982
C  C292  1  0.24202000  0.19314000  0.23446000  1.0 0.0787734982
C  C293  1  0.77612000  0.41982000  0.02289000  1.0 0.6312005876
C  C294  1  0.41982000  0.77612000  0.47711000  1.0 0.6312005876
C  C295  1  0.22388000  0.58018000  0.97711000  1.0 0.6312005876
C  C296  1  0.58018000  0.22388000  0.52289000  1.0 0.6312005876
C  C297  1  0.01110000  0.38502000  0.03302000  1.0 -0.1591402439
C  C298  1  0.38502000  0.01110000  0.46698000  1.0 -0.1591402439
C  C299  1  0.98890000  0.61498000  0.96698000  1.0 -0.1591402439
C  C300  1  0.61498000  0.98890000  0.53302000  1.0 -0.1591402439
C  C301  1  0.56679000  0.86799000  0.39145000  1.0 0.6411414671
C  C302  1  0.86799000  0.56679000  0.10855000  1.0 0.6411414671
C  C303  1  0.43321000  0.13201000  0.60855000  1.0 0.6411414671
C  C304  1  0.13201000  0.43321000  0.89145000  1.0 0.6411414671
C  C305  1  0.73344000  0.61176000  0.80048000  1.0 -0.1591402439
C  C306  1  0.61176000  0.73344000  0.69952000  1.0 -0.1591402439
C  C307  1  0.26656000  0.38824000  0.19952000  1.0 -0.1591402439
C  C308  1  0.38824000  0.26656000  0.30048000  1.0 -0.1591402439
C  C309  1  0.68807000  0.26213000  0.38198000  1.0 -0.1591402439
C  C310  1  0.26213000  0.68807000  0.11802000  1.0 -0.1591402439
C  C311  1  0.31193000  0.73787000  0.61802000  1.0 -0.1591402439
C  C312  1  0.73787000  0.31193000  0.88198000  1.0 -0.1591402439
C  C313  1  0.92337000  0.45527000  0.05336000  1.0 0.0724535971
C  C314  1  0.45527000  0.92337000  0.44664000  1.0 0.0724535971
C  C315  1  0.07663000  0.54473000  0.94664000  1.0 0.0724535971
C  C316  1  0.54473000  0.07663000  0.55336000  1.0 0.0724535971
C  C317  1  0.22340000  0.83430000  0.12543000  1.0 -0.0903450696
C  C318  1  0.83430000  0.22340000  0.37457000  1.0 -0.0903450696
C  C319  1  0.77660000  0.16570000  0.87457000  1.0 -0.0903450696
C  C320  1  0.16570000  0.77660000  0.62543000  1.0 -0.0903450696
C  C321  1  0.25082000  0.77796000  0.39575000  1.0 -0.0903450696
C  C322  1  0.77796000  0.25082000  0.10425000  1.0 -0.0903450696
C  C323  1  0.74918000  0.22204000  0.60425000  1.0 -0.0903450696
C  C324  1  0.22204000  0.74918000  0.89575000  1.0 -0.0903450696
C  C325  1  0.89396000  0.40874000  0.06626000  1.0 -0.1514572123
C  C326  1  0.40874000  0.89396000  0.43374000  1.0 -0.1514572123
C  C327  1  0.10604000  0.59126000  0.93374000  1.0 -0.1514572123
C  C328  1  0.59126000  0.10604000  0.56626000  1.0 -0.1514572123
C  C329  1  0.71798000  0.09034000  0.38918000  1.0 -0.0822328382
C  C330  1  0.09034000  0.71798000  0.11082000  1.0 -0.0822328382
C  C331  1  0.28202000  0.90966000  0.61082000  1.0 -0.0822328382
C  C332  1  0.90966000  0.28202000  0.88918000  1.0 -0.0822328382
C  C333  1  0.20457000  0.81701000  0.32855000  1.0 -0.0822328382
C  C334  1  0.81701000  0.20457000  0.17145000  1.0 -0.0822328382
C  C335  1  0.79543000  0.18299000  0.67145000  1.0 -0.0822328382
C  C336  1  0.18299000  0.79543000  0.82855000  1.0 -0.0822328382
C  C337  1  0.08212000  0.57560000  0.05479000  1.0 0.0724535971
C  C338  1  0.57560000  0.08212000  0.44521000  1.0 0.0724535971
C  C339  1  0.91788000  0.42440000  0.94521000  1.0 0.0724535971
C  C340  1  0.42440000  0.91788000  0.55479000  1.0 0.0724535971
C  C341  1  0.10433000  0.39805000  0.05696000  1.0 -0.0983866312
C  C342  1  0.39805000  0.10433000  0.44304000  1.0 -0.0983866312
C  C343  1  0.89567000  0.60195000  0.94304000  1.0 -0.0983866312
C  C344  1  0.60195000  0.89567000  0.55696000  1.0 -0.0983866312
C  C345  1  0.76835000  0.64457000  0.82119000  1.0 0.0787734982
C  C346  1  0.64457000  0.76835000  0.67881000  1.0 0.0787734982
C  C347  1  0.23165000  0.35543000  0.17881000  1.0 0.0787734982
C  C348  1  0.35543000  0.23165000  0.32119000  1.0 0.0787734982
C  C349  1  0.45192000  0.86354000  0.30323000  1.0 -0.1591402439
C  C350  1  0.86354000  0.45192000  0.19677000  1.0 -0.1591402439
C  C351  1  0.54808000  0.13646000  0.69677000  1.0 -0.1591402439
C  C352  1  0.13646000  0.54808000  0.80323000  1.0 -0.1591402439
C  C353  1  0.67874000  0.27604000  0.40518000  1.0 -0.0822328382
C  C354  1  0.27604000  0.67874000  0.09482000  1.0 -0.0822328382
C  C355  1  0.32126000  0.72396000  0.59482000  1.0 -0.0822328382
C  C356  1  0.72396000  0.32126000  0.90518000  1.0 -0.0822328382
C  C357  1  0.63239000  0.72291000  0.45518000  1.0 -0.0903450696
C  C358  1  0.72291000  0.63239000  0.04482000  1.0 -0.0903450696
C  C359  1  0.36761000  0.27709000  0.54482000  1.0 -0.0903450696
C  C360  1  0.27709000  0.36761000  0.95518000  1.0 -0.0903450696
C  C361  1  0.24214000  0.82158000  0.10911000  1.0 -0.0498090406
C  C362  1  0.82158000  0.24214000  0.39089000  1.0 -0.0498090406
C  C363  1  0.75786000  0.17842000  0.89089000  1.0 -0.0498090406
C  C364  1  0.17842000  0.75786000  0.60911000  1.0 -0.0498090406
C  C365  1  0.03213000  0.44889000  0.05994000  1.0 0.0787734982
C  C366  1  0.44889000  0.03213000  0.44006000  1.0 0.0787734982
C  C367  1  0.96787000  0.55111000  0.94006000  1.0 0.0724535971
C  C368  1  0.55111000  0.96787000  0.55994000  1.0 0.0724535971
C  C369  1  0.72993000  0.85229000  0.55578000  1.0 0.6312005876
C  C370  1  0.85229000  0.72993000  0.94422000  1.0 0.6312005876
C  C371  1  0.27007000  0.14771000  0.44422000  1.0 0.6312005876
C  C372  1  0.14771000  0.27007000  0.05578000  1.0 0.6312005876
C  C373  1  0.98586000  0.76950000  0.88963000  1.0 -0.0822328382
C  C374  1  0.76950000  0.98586000  0.61037000  1.0 -0.0822328382
C  C375  1  0.01414000  0.23050000  0.11037000  1.0 -0.0822328382
C  C376  1  0.23050000  0.01414000  0.38963000  1.0 -0.0822328382
C  C377  1  0.04496000  0.41702000  0.05506000  1.0 0.0787734982
C  C378  1  0.41702000  0.04496000  0.44494000  1.0 0.0787734982
C  C379  1  0.95504000  0.58298000  0.94494000  1.0 0.0787734982
C  C380  1  0.58298000  0.95504000  0.55506000  1.0 0.0787734982
C  C381  1  0.11426000  0.59688000  0.03247000  1.0 -0.1591402439
C  C382  1  0.59688000  0.11426000  0.46753000  1.0 -0.1591402439
C  C383  1  0.88574000  0.40312000  0.96753000  1.0 -0.1591402439
C  C384  1  0.40312000  0.88574000  0.53247000  1.0 -0.1591402439
C  C385  1  0.77620000  0.93872000  0.43155000  1.0 0.6411414671
C  C386  1  0.93872000  0.77620000  0.06845000  1.0 0.6411414671
C  C387  1  0.22380000  0.06128000  0.56845000  1.0 0.6411414671
C  C388  1  0.06128000  0.22380000  0.93155000  1.0 0.6411414671
C  C389  1  0.56890000  0.45728000  0.44193000  1.0 -0.0575060649
C  C390  1  0.45728000  0.56890000  0.05807000  1.0 -0.0575060649
C  C391  1  0.43110000  0.54272000  0.55807000  1.0 -0.0575060649
C  C392  1  0.54272000  0.43110000  0.94193000  1.0 -0.0575060649
C  C393  1  0.19031000  0.79483000  0.39679000  1.0 0.6411414671
C  C394  1  0.79483000  0.19031000  0.10321000  1.0 0.6411414671
C  C395  1  0.80969000  0.20517000  0.60321000  1.0 0.6411414671
C  C396  1  0.20517000  0.80969000  0.89679000  1.0 0.6411414671
C  C397  1  0.66952000  0.07462000  0.32161000  1.0 -0.0903450696
C  C398  1  0.07462000  0.66952000  0.17839000  1.0 -0.0903450696
C  C399  1  0.33048000  0.92538000  0.67839000  1.0 -0.0903450696
C  C400  1  0.92538000  0.33048000  0.82161000  1.0 -0.0903450696
C  C401  1  0.69094000  0.15000000  0.32656000  1.0 0.0724535971
C  C402  1  0.15000000  0.69094000  0.17344000  1.0 0.0724535971
C  C403  1  0.30906000  0.85000000  0.67344000  1.0 0.0724535971
C  C404  1  0.85000000  0.30906000  0.82656000  1.0 0.0724535971
C  C405  1  0.64171000  0.31969000  0.40812000  1.0 0.6411414671
C  C406  1  0.31969000  0.64171000  0.09188000  1.0 0.6411414671
C  C407  1  0.35829000  0.68031000  0.59188000  1.0 0.6411414671
C  C408  1  0.68031000  0.35829000  0.90812000  1.0 0.6411414671
C  C409  1  0.27782000  0.91770000  0.94295000  1.0 0.6411414671
C  C410  1  0.91770000  0.27782000  0.55705000  1.0 0.6411414671
C  C411  1  0.72218000  0.08230000  0.05705000  1.0 0.6411414671
C  C412  1  0.08230000  0.72218000  0.44295000  1.0 0.6411414671
C  C413  1  0.95739000  0.79627000  0.80040000  1.0 -0.1591402439
C  C414  1  0.79627000  0.95739000  0.69960000  1.0 -0.1591402439
C  C415  1  0.04261000  0.20373000  0.19960000  1.0 -0.1591402439
C  C416  1  0.20373000  0.04261000  0.30040000  1.0 -0.1591402439
C  C417  1  0.90324000  0.48986000  0.03222000  1.0 -0.1514572123
C  C418  1  0.48986000  0.90324000  0.46778000  1.0 -0.1514572123
C  C419  1  0.09676000  0.51014000  0.96778000  1.0 -0.1514572123
C  C420  1  0.51014000  0.09676000  0.53222000  1.0 -0.1514572123
C  C421  1  0.77754000  0.63340000  0.86542000  1.0 -0.1514572123
C  C422  1  0.63340000  0.77754000  0.63458000  1.0 -0.1514572123
C  C423  1  0.22246000  0.36660000  0.13458000  1.0 -0.1514572123
C  C424  1  0.36660000  0.22246000  0.36542000  1.0 -0.1514572123
C  C425  1  0.64395000  0.30453000  0.31560000  1.0 -0.1591402439
C  C426  1  0.30453000  0.64395000  0.18440000  1.0 -0.1591402439
C  C427  1  0.35605000  0.69547000  0.68440000  1.0 -0.1591402439
C  C428  1  0.69547000  0.35605000  0.81560000  1.0 -0.1591402439
C  C429  1  0.68430000  0.29438000  0.20040000  1.0 0.0787734982
C  C430  1  0.29438000  0.68430000  0.29960000  1.0 0.0787734982
C  C431  1  0.31570000  0.70562000  0.79960000  1.0 0.0787734982
C  C432  1  0.70562000  0.31570000  0.70040000  1.0 0.0787734982
C  C433  1  0.81514000  0.93318000  0.43074000  1.0 -0.0575060649
C  C434  1  0.93318000  0.81514000  0.06926000  1.0 -0.0575060649
C  C435  1  0.18486000  0.06682000  0.56926000  1.0 -0.0575060649
C  C436  1  0.06682000  0.18486000  0.93074000  1.0 -0.0575060649
C  C437  1  0.09171000  0.42159000  0.06846000  1.0 -0.1591402439
C  C438  1  0.42159000  0.09171000  0.43154000  1.0 -0.1591402439
C  C439  1  0.90829000  0.57841000  0.93154000  1.0 -0.1591402439
C  C440  1  0.57841000  0.90829000  0.56846000  1.0 -0.1591402439
C  C441  1  0.07749000  0.60413000  0.06835000  1.0 -0.1591402439
C  C442  1  0.60413000  0.07749000  0.43165000  1.0 -0.1591402439
C  C443  1  0.92251000  0.39587000  0.93165000  1.0 -0.1591402439
C  C444  1  0.39587000  0.92251000  0.56835000  1.0 -0.1591402439
C  C445  1  0.48430000  0.82622000  0.39200000  1.0 -0.0903450696
C  C446  1  0.82622000  0.48430000  0.10800000  1.0 -0.0903450696
C  C447  1  0.51570000  0.17378000  0.60800000  1.0 -0.0903450696
C  C448  1  0.17378000  0.51570000  0.89200000  1.0 -0.0903450696
C  C449  1  0.22138000  0.82402000  0.06281000  1.0 0.6312005876
C  C450  1  0.82402000  0.22138000  0.43719000  1.0 0.6312005876
C  C451  1  0.77862000  0.17598000  0.93719000  1.0 0.6312005876
C  C452  1  0.17598000  0.77862000  0.56281000  1.0 0.6312005876
C  C453  1  0.66411000  0.26935000  0.17195000  1.0 -0.1591402439
C  C454  1  0.26935000  0.66411000  0.32805000  1.0 -0.1591402439
C  C455  1  0.33589000  0.73065000  0.82805000  1.0 -0.1591402439
C  C456  1  0.73065000  0.33589000  0.67195000  1.0 -0.1591402439
C  C457  1  0.64854000  0.80740000  0.42331000  1.0 0.6312005876
C  C458  1  0.80740000  0.64854000  0.07669000  1.0 0.6312005876
C  C459  1  0.35146000  0.19260000  0.57669000  1.0 0.6312005876
C  C460  1  0.19260000  0.35146000  0.92331000  1.0 0.6312005876
C  C461  1  0.63036000  0.67804000  0.42110000  1.0 0.1101703926
C  C462  1  0.67804000  0.63036000  0.07890000  1.0 0.1101703926
C  C463  1  0.36964000  0.32196000  0.57890000  1.0 0.1101703926
C  C464  1  0.32196000  0.36964000  0.92110000  1.0 0.1101703926
C  C465  1  0.64982000  0.76144000  0.38967000  1.0 -0.0903450696
C  C466  1  0.76144000  0.64982000  0.11033000  1.0 -0.0903450696
C  C467  1  0.35018000  0.23856000  0.61033000  1.0 -0.0903450696
C  C468  1  0.23856000  0.35018000  0.88967000  1.0 -0.0903450696
C  C469  1  0.35692000  0.96578000  0.97887000  1.0 -0.1218443666
C  C470  1  0.96578000  0.35692000  0.52113000  1.0 -0.1218443666
C  C471  1  0.64308000  0.03422000  0.02113000  1.0 -0.1218443666
C  C472  1  0.03422000  0.64308000  0.47887000  1.0 -0.1218443666
C  C473  1  0.64110000  0.71876000  0.38801000  1.0 -0.1591402439
C  C474  1  0.71876000  0.64110000  0.11199000  1.0 -0.1591402439
C  C475  1  0.35890000  0.28124000  0.61199000  1.0 -0.1591402439
C  C476  1  0.28124000  0.35890000  0.88801000  1.0 -0.1591402439
C  C477  1  0.58117000  0.49563000  0.40881000  1.0 -0.0903450696
C  C478  1  0.49563000  0.58117000  0.09119000  1.0 -0.0903450696
C  C479  1  0.41883000  0.50437000  0.59119000  1.0 -0.0903450696
C  C480  1  0.50437000  0.41883000  0.90881000  1.0 -0.0903450696
C  C481  1  0.49086000  0.26346000  0.90430000  1.0 -0.0903450696
C  C482  1  0.26346000  0.49086000  0.59570000  1.0 -0.0903450696
C  C483  1  0.50914000  0.73654000  0.09570000  1.0 -0.0903450696
C  C484  1  0.73654000  0.50914000  0.40430000  1.0 -0.0903450696
C  C485  1  0.53356000  0.22212000  0.97050000  1.0 -0.0822328382
C  C486  1  0.22212000  0.53356000  0.52950000  1.0 -0.0822328382
C  C487  1  0.46644000  0.77788000  0.02950000  1.0 -0.0822328382
C  C488  1  0.77788000  0.46644000  0.47050000  1.0 -0.0822328382
C  C489  1  0.62152000  0.63268000  0.41890000  1.0 -0.1514572123
C  C490  1  0.63268000  0.62152000  0.08110000  1.0 -0.1514572123
C  C491  1  0.37848000  0.36732000  0.58110000  1.0 -0.1514572123
C  C492  1  0.36732000  0.37848000  0.91890000  1.0 -0.1514572123
C  C493  1  0.30883000  0.00341000  0.91010000  1.0 -0.0983866312
C  C494  1  0.00341000  0.30883000  0.58990000  1.0 -0.0983866312
C  C495  1  0.69117000  0.99659000  0.08990000  1.0 -0.0983866312
C  C496  1  0.99659000  0.69117000  0.41010000  1.0 -0.0983866312
C  C497  1  0.07922000  0.85896000  0.42759000  1.0 0.6312005876
C  C498  1  0.85896000  0.07922000  0.07241000  1.0 0.6312005876
C  C499  1  0.92078000  0.14104000  0.57241000  1.0 0.6312005876
C  C500  1  0.14104000  0.92078000  0.92759000  1.0 0.6312005876
C  C501  1  0.81104000  0.92556000  0.39592000  1.0 -0.0903450696
C  C502  1  0.92556000  0.81104000  0.10408000  1.0 -0.0903450696
C  C503  1  0.18896000  0.07444000  0.60408000  1.0 -0.0903450696
C  C504  1  0.07444000  0.18896000  0.89592000  1.0 -0.0903450696
C  C505  1  0.62455000  0.68005000  0.45413000  1.0 -0.1675942198
C  C506  1  0.68005000  0.62455000  0.04587000  1.0 -0.1675942198
C  C507  1  0.37545000  0.31995000  0.54587000  1.0 -0.1675942198
C  C508  1  0.31995000  0.37545000  0.95413000  1.0 -0.1675942198
C  C509  1  0.04373000  0.88387000  0.45250000  1.0 -0.0903450696
C  C510  1  0.88387000  0.04373000  0.04750000  1.0 -0.0903450696
C  C511  1  0.95627000  0.11613000  0.54750000  1.0 -0.0903450696
C  C512  1  0.11613000  0.95627000  0.95250000  1.0 -0.0903450696
C  C513  1  0.96183000  0.86977000  0.38540000  1.0 -0.1514572123
C  C514  1  0.86977000  0.96183000  0.11460000  1.0 -0.1514572123
C  C515  1  0.03817000  0.13023000  0.61460000  1.0 -0.1514572123
C  C516  1  0.13023000  0.03817000  0.88540000  1.0 -0.1514572123
C  C517  1  0.39130000  0.00884000  0.98190000  1.0 -0.0822328382
C  C518  1  0.00884000  0.39130000  0.51810000  1.0 -0.0822328382
C  C519  1  0.60870000  0.99116000  0.01810000  1.0 -0.0822328382
C  C520  1  0.99116000  0.60870000  0.48190000  1.0 -0.0822328382
C  C521  1  0.59500000  0.54060000  0.41010000  1.0 -0.1591402439
C  C522  1  0.54060000  0.59500000  0.08990000  1.0 -0.1591402439
C  C523  1  0.40500000  0.45940000  0.58990000  1.0 -0.1591402439
C  C524  1  0.45940000  0.40500000  0.91010000  1.0 -0.1591402439
C  C525  1  0.92634000  0.89466000  0.40980000  1.0 -0.1514572123
C  C526  1  0.89466000  0.92634000  0.09020000  1.0 -0.1514572123
C  C527  1  0.07366000  0.10534000  0.59020000  1.0 -0.1514572123
C  C528  1  0.10534000  0.07366000  0.90980000  1.0 -0.1514572123
C  C529  1  0.85652000  0.93530000  0.46631000  1.0 -0.0903450696
C  C530  1  0.93530000  0.85652000  0.03369000  1.0 -0.0903450696
C  C531  1  0.14348000  0.06470000  0.53369000  1.0 -0.0903450696
C  C532  1  0.06470000  0.14348000  0.96631000  1.0 -0.0903450696
C  C533  1  0.89194000  0.92926000  0.46570000  1.0 -0.1514572123
C  C534  1  0.92926000  0.89194000  0.03430000  1.0 -0.1514572123
C  C535  1  0.10806000  0.07074000  0.53430000  1.0 -0.1514572123
C  C536  1  0.07074000  0.10806000  0.96570000  1.0 -0.1514572123
C  C537  1  0.56611000  0.46243000  0.47525000  1.0 -0.0983866312
C  C538  1  0.46243000  0.56611000  0.02475000  1.0 -0.0983866312
C  C539  1  0.43389000  0.53757000  0.52475000  1.0 -0.0983866312
C  C540  1  0.53757000  0.43389000  0.97525000  1.0 -0.0903450696
C  C541  1  0.49765000  0.18125000  0.96700000  1.0 -0.1591402439
C  C542  1  0.18125000  0.49765000  0.53300000  1.0 -0.1591402439
C  C543  1  0.50235000  0.81875000  0.03300000  1.0 -0.1591402439
C  C544  1  0.81875000  0.50235000  0.46700000  1.0 -0.1591402439
C  C545  1  0.45437000  0.22067000  0.90210000  1.0 -0.1591402439
C  C546  1  0.22067000  0.45437000  0.59790000  1.0 -0.1591402439
C  C547  1  0.54563000  0.77933000  0.09790000  1.0 -0.1591402439
C  C548  1  0.77933000  0.54563000  0.40210000  1.0 -0.1591402439
C  C549  1  0.84785000  0.91955000  0.39600000  1.0 -0.1675942198
C  C550  1  0.91955000  0.84785000  0.10400000  1.0 -0.1675942198
C  C551  1  0.15215000  0.08045000  0.60400000  1.0 -0.1675942198
C  C552  1  0.08045000  0.15215000  0.89600000  1.0 -0.1675942198
C  C553  1  0.57922000  0.50684000  0.47600000  1.0 -0.1591402439
C  C554  1  0.50684000  0.57922000  0.02400000  1.0 -0.1591402439
C  C555  1  0.42078000  0.49316000  0.52400000  1.0 -0.1591402439
C  C556  1  0.49316000  0.42078000  0.97600000  1.0 -0.1591402439
C  C557  1  0.42036000  0.13536000  0.92510000  1.0 -0.1514572123
C  C558  1  0.13536000  0.42036000  0.57490000  1.0 -0.1514572123
C  C559  1  0.57964000  0.86464000  0.07490000  1.0 -0.1514572123
C  C560  1  0.86464000  0.57964000  0.42510000  1.0 -0.1514572123
C  C561  1  0.60235000  0.59165000  0.44410000  1.0 -0.1514572123
C  C562  1  0.59165000  0.60235000  0.05590000  1.0 -0.1514572123
C  C563  1  0.39765000  0.40835000  0.55590000  1.0 -0.1514572123
C  C564  1  0.40835000  0.39765000  0.94410000  1.0 -0.1514572123
C  C565  1  0.34526000  0.04648000  0.91130000  1.0 -0.1591402439
C  C566  1  0.04648000  0.34526000  0.58870000  1.0 -0.1591402439
C  C567  1  0.65474000  0.95352000  0.08870000  1.0 -0.1591402439
C  C568  1  0.95352000  0.65474000  0.41130000  1.0 -0.1591402439
C  C569  1  0.88766000  0.91994000  0.43110000  1.0 0.1101703926
C  C570  1  0.91994000  0.88766000  0.06890000  1.0 0.1101703926
C  C571  1  0.11234000  0.08006000  0.56890000  1.0 0.1101703926
C  C572  1  0.08006000  0.11234000  0.93110000  1.0 0.1101703926
C  C573  1  0.45837000  0.18047000  0.93150000  1.0 0.1101703926
C  C574  1  0.18047000  0.45837000  0.56850000  1.0 0.1101703926
C  C575  1  0.54163000  0.81953000  0.06850000  1.0 0.1101703926
C  C576  1  0.81953000  0.54163000  0.43150000  1.0 0.1101703926
C  C577  1  0.92746000  0.91014000  0.43580000  1.0 -0.1514572123
C  C578  1  0.91014000  0.92746000  0.06420000  1.0 -0.1514572123
C  C579  1  0.07254000  0.08986000  0.56420000  1.0 -0.1514572123
C  C580  1  0.08986000  0.07254000  0.93580000  1.0 -0.1514572123
C  C581  1  0.38520000  0.04950000  0.94780000  1.0 0.0859373131
C  C582  1  0.04950000  0.38520000  0.55220000  1.0 0.0787734982
C  C583  1  0.61480000  0.95050000  0.05220000  1.0 0.0859373131
C  C584  1  0.95050000  0.61480000  0.44780000  1.0 0.0859373131
C  C585  1  0.00842000  0.89358000  0.44890000  1.0 -0.1591402439
C  C586  1  0.89358000  0.00842000  0.05110000  1.0 -0.1591402439
C  C587  1  0.99158000  0.10642000  0.55110000  1.0 -0.1591402439
C  C588  1  0.10642000  0.99158000  0.94890000  1.0 -0.1591402439
C  C589  1  0.96485000  0.88435000  0.41560000  1.0 0.1101703926
C  C590  1  0.88435000  0.96485000  0.08440000  1.0 0.1101703926
C  C591  1  0.03515000  0.11565000  0.58440000  1.0 0.1101703926
C  C592  1  0.11565000  0.03515000  0.91560000  1.0 0.1101703926
C  C593  1  0.42193000  0.09525000  0.95140000  1.0 -0.1329299198
C  C594  1  0.09525000  0.42193000  0.54860000  1.0 -0.1329299198
C  C595  1  0.57807000  0.90475000  0.04860000  1.0 -0.1329299198
C  C596  1  0.90475000  0.57807000  0.45140000  1.0 -0.1329299198
C  C597  1  0.59117000  0.54601000  0.44260000  1.0 0.1031231823
C  C598  1  0.54601000  0.59117000  0.05740000  1.0 0.1031231823
C  C599  1  0.40883000  0.45399000  0.55740000  1.0 0.1031231823
C  C600  1  0.45399000  0.40883000  0.94260000  1.0 0.1031231823
C  C601  1  0.67786000  0.36418000  0.06803000  1.0 0.6245700135
C  C602  1  0.36418000  0.67786000  0.43197000  1.0 0.6245700135
C  C603  1  0.32214000  0.63582000  0.93197000  1.0 0.6245700135
C  C604  1  0.63582000  0.32214000  0.56803000  1.0 0.6245700135
C  C605  1  0.67990000  0.34122000  0.11375000  1.0 -0.0575060649
C  C606  1  0.34122000  0.67990000  0.38625000  1.0 -0.0575060649
C  C607  1  0.32010000  0.65878000  0.88625000  1.0 -0.0575060649
C  C608  1  0.65878000  0.32010000  0.61375000  1.0 -0.0575060649
C  C609  1  0.69975000  0.36613000  0.14224000  1.0 -0.0903450696
C  C610  1  0.36613000  0.69975000  0.35776000  1.0 -0.0903450696
C  C611  1  0.30025000  0.63387000  0.85776000  1.0 -0.0903450696
C  C612  1  0.63387000  0.30025000  0.64224000  1.0 -0.0903450696
C  C613  1  0.55857000  0.41059000  0.44240000  1.0 0.6312005876
C  C614  1  0.41059000  0.55857000  0.05760000  1.0 0.6312005876
C  C615  1  0.44143000  0.58941000  0.55760000  1.0 0.6312005876
C  C616  1  0.58941000  0.44143000  0.94240000  1.0 0.6312005876
C  C617  1  0.70195000  0.34243000  0.18524000  1.0 -0.1675942198
C  C618  1  0.34243000  0.70195000  0.31476000  1.0 -0.1675942198
C  C619  1  0.29805000  0.65757000  0.81476000  1.0 -0.1675942198
C  C620  1  0.65757000  0.29805000  0.68524000  1.0 -0.1675942198
C  C621  1  0.55099000  0.74865000  0.49080000  1.0 0.7267078473
C  C622  1  0.74865000  0.55099000  0.00920000  1.0 0.7183447673
C  C623  1  0.44901000  0.25135000  0.50920000  1.0 0.7267078473
C  C624  1  0.25135000  0.44901000  0.99080000  1.0 0.7267078473
C  C625  1  0.03971000  0.86727000  0.42404000  1.0 -0.0498090406
C  C626  1  0.86727000  0.03971000  0.07596000  1.0 -0.0498090406
C  C627  1  0.96029000  0.13273000  0.57596000  1.0 -0.0498090406
C  C628  1  0.13273000  0.96029000  0.92404000  1.0 -0.0498090406
C  C629  1  0.04089000  0.80689000  0.98797000  1.0 0.7183447673
C  C630  1  0.80689000  0.04089000  0.51203000  1.0 0.7183447673
C  C631  1  0.95911000  0.19311000  0.01203000  1.0 0.7183447673
C  C632  1  0.19311000  0.95911000  0.48797000  1.0 0.7183447673
O  O1  1  0.07906000  0.79626000  0.93311000  1.0 -0.639874759
O  O2  1  0.79626000  0.07906000  0.56689000  1.0 -0.639874759
O  O3  1  0.92094000  0.20374000  0.06689000  1.0 -0.639874759
O  O4  1  0.20374000  0.92094000  0.43311000  1.0 -0.639874759
O  O5  1  0.70022000  0.50424000  0.93054000  1.0 -0.639874759
O  O6  1  0.50424000  0.70022000  0.56946000  1.0 -0.639874759
O  O7  1  0.29978000  0.49576000  0.06946000  1.0 -0.639874759
O  O8  1  0.49576000  0.29978000  0.43054000  1.0 -0.639874759
O  O9  1  0.24247000  0.91797000  0.90916000  1.0 -0.6485784152
O  O10  1  0.91797000  0.24247000  0.59084000  1.0 -0.6485784152
O  O11  1  0.75753000  0.08203000  0.09084000  1.0 -0.6485784152
O  O12  1  0.08203000  0.75753000  0.40916000  1.0 -0.6485784152
O  O13  1  0.66624000  0.40342000  0.96076000  1.0 -1.2497785772
O  O14  1  0.40342000  0.66624000  0.53924000  1.0 -1.2497785772
O  O15  1  0.33376000  0.59658000  0.03924000  1.0 -1.2497785772
O  O16  1  0.59658000  0.33376000  0.46076000  1.0 -1.2497785772
O  O17  1  0.74029000  0.93665000  0.39886000  1.0 -0.6320684505
O  O18  1  0.93665000  0.74029000  0.10114000  1.0 -0.6320684505
O  O19  1  0.25971000  0.06335000  0.60114000  1.0 -0.6320684505
O  O20  1  0.06335000  0.25971000  0.89886000  1.0 -0.6320684505
O  O21  1  0.12424000  0.36220000  0.01674000  1.0 -0.6320684505
O  O22  1  0.36220000  0.12424000  0.48326000  1.0 -0.6320684505
O  O23  1  0.87576000  0.63780000  0.98326000  1.0 -0.6320684505
O  O24  1  0.63780000  0.87576000  0.51674000  1.0 -0.6320684505
O  O25  1  0.13629000  0.74869000  0.01884000  1.0 -0.639874759
O  O26  1  0.74869000  0.13629000  0.48116000  1.0 -0.639874759
O  O27  1  0.86371000  0.25131000  0.98116000  1.0 -0.639874759
O  O28  1  0.25131000  0.86371000  0.51884000  1.0 -0.639874759
O  O29  1  0.57882000  0.85416000  0.43226000  1.0 -0.639874759
O  O30  1  0.85416000  0.57882000  0.06774000  1.0 -0.639874759
O  O31  1  0.42118000  0.14584000  0.56774000  1.0 -0.639874759
O  O32  1  0.14584000  0.42118000  0.93226000  1.0 -0.639874759
O  O33  1  0.17983000  0.83661000  0.95610000  1.0 -1.2446002648
O  O34  1  0.83661000  0.17983000  0.54390000  1.0 -1.2497785772
O  O35  1  0.82017000  0.16339000  0.04390000  1.0 -1.2497785772
O  O36  1  0.16339000  0.82017000  0.45610000  1.0 -1.2446002648
O  O37  1  0.24166000  0.81670000  0.04780000  1.0 -0.639874759
O  O38  1  0.81670000  0.24166000  0.45220000  1.0 -0.639874759
O  O39  1  0.75834000  0.18330000  0.95220000  1.0 -0.639874759
O  O40  1  0.18330000  0.75834000  0.54780000  1.0 -0.639874759
O  O41  1  0.72165000  0.00257000  0.42503000  1.0 -0.6320684505
O  O42  1  0.00257000  0.72165000  0.07497000  1.0 -0.6320684505
O  O43  1  0.27835000  0.99743000  0.57497000  1.0 -0.6320684505
O  O44  1  0.99743000  0.27835000  0.92503000  1.0 -0.6320684505
O  O45  1  0.19723000  0.77105000  0.43602000  1.0 -0.639874759
O  O46  1  0.77105000  0.19723000  0.06398000  1.0 -0.639874759
O  O47  1  0.80277000  0.22895000  0.56398000  1.0 -0.639874759
O  O48  1  0.22895000  0.80277000  0.93602000  1.0 -0.639874759
O  O49  1  0.59499000  0.89029000  0.37013000  1.0 -0.6320684505
O  O50  1  0.89029000  0.59499000  0.12987000  1.0 -0.6320684505
O  O51  1  0.40501000  0.10971000  0.62987000  1.0 -0.6320684505
O  O52  1  0.10971000  0.40501000  0.87013000  1.0 -0.6320684505
O  O53  1  0.66767000  0.47861000  0.87400000  1.0 -0.6197011953
O  O54  1  0.47861000  0.66767000  0.62600000  1.0 -0.6197011953
O  O55  1  0.33233000  0.52139000  0.12600000  1.0 -0.6197011953
O  O56  1  0.52139000  0.33233000  0.37400000  1.0 -0.6197011953
O  O57  1  0.75004000  0.37738000  0.02668000  1.0 -0.6485784152
O  O58  1  0.37738000  0.75004000  0.47332000  1.0 -0.6485784152
O  O59  1  0.24996000  0.62262000  0.97332000  1.0 -0.6485784152
O  O60  1  0.62262000  0.24996000  0.52668000  1.0 -0.6485784152
O  O61  1  0.74867000  0.89603000  0.54068000  1.0 -0.6197011953
O  O62  1  0.89603000  0.74867000  0.95932000  1.0 -0.6197011953
O  O63  1  0.25133000  0.10397000  0.45932000  1.0 -0.6197011953
O  O64  1  0.10397000  0.25133000  0.04068000  1.0 -0.6197011953
O  O65  1  0.67092000  0.98278000  0.36532000  1.0 -0.6320684505
O  O66  1  0.98278000  0.67092000  0.13468000  1.0 -0.6320684505
O  O67  1  0.32908000  0.01722000  0.63468000  1.0 -0.6320684505
O  O68  1  0.01722000  0.32908000  0.86532000  1.0 -0.6320684505
O  O69  1  0.61927000  0.34705000  0.38701000  1.0 -0.6320684505
O  O70  1  0.34705000  0.61927000  0.11299000  1.0 -0.6320684505
O  O71  1  0.38073000  0.65295000  0.61299000  1.0 -0.6320684505
O  O72  1  0.65295000  0.38073000  0.88701000  1.0 -0.6320684505
O  O73  1  0.69428000  0.82674000  0.53424000  1.0 -0.6197011953
O  O74  1  0.82674000  0.69428000  0.96576000  1.0 -0.6197011953
O  O75  1  0.30572000  0.17326000  0.46576000  1.0 -0.6197011953
O  O76  1  0.17326000  0.30572000  0.03424000  1.0 -0.6197011953
O  O77  1  0.18406000  0.83320000  0.04130000  1.0 -0.6197011953
O  O78  1  0.83320000  0.18406000  0.45870000  1.0 -0.6197011953
O  O79  1  0.81594000  0.16680000  0.95870000  1.0 -0.6197011953
O  O80  1  0.16680000  0.81594000  0.54130000  1.0 -0.6197011953
O  O81  1  0.19024000  0.74198000  0.00803000  1.0 -0.6320684505
O  O82  1  0.74198000  0.19024000  0.49197000  1.0 -0.6320684505
O  O83  1  0.80976000  0.25802000  0.99197000  1.0 -0.6320684505
O  O84  1  0.25802000  0.80976000  0.50803000  1.0 -0.6320684505
O  O85  1  0.65662000  0.30440000  0.44888000  1.0 -0.6485784152
O  O86  1  0.30440000  0.65662000  0.05112000  1.0 -0.6485784152
O  O87  1  0.34338000  0.69560000  0.55112000  1.0 -0.6485784152
O  O88  1  0.69560000  0.34338000  0.94888000  1.0 -0.6485784152
O  O89  1  0.28240000  0.88244000  0.97459000  1.0 -0.6115774101
O  O90  1  0.88244000  0.28240000  0.52541000  1.0 -0.6115774101
O  O91  1  0.71760000  0.11756000  0.02541000  1.0 -0.6115774101
O  O92  1  0.11756000  0.71760000  0.47459000  1.0 -0.6115774101
O  O93  1  0.16291000  0.81781000  0.37578000  1.0 -0.639874759
O  O94  1  0.81781000  0.16291000  0.12422000  1.0 -0.639874759
O  O95  1  0.83709000  0.18219000  0.62422000  1.0 -0.639874759
O  O96  1  0.18219000  0.83709000  0.87578000  1.0 -0.639874759
O  O97  1  0.60895000  0.30407000  0.97101000  1.0 -0.639874759
O  O98  1  0.30407000  0.60895000  0.52899000  1.0 -0.639874759
O  O99  1  0.39105000  0.69593000  0.02899000  1.0 -0.639874759
O  O100  1  0.69593000  0.39105000  0.47101000  1.0 -0.639874759
O  O101  1  0.09865000  0.84279000  0.87283000  1.0 -0.6320684505
O  O102  1  0.84279000  0.09865000  0.62717000  1.0 -0.6320684505
O  O103  1  0.90135000  0.15721000  0.12717000  1.0 -0.6320684505
O  O104  1  0.15721000  0.90135000  0.37283000  1.0 -0.6320684505
O  O105  1  0.76135000  0.45229000  0.00932000  1.0 -0.6197011953
O  O106  1  0.45229000  0.76135000  0.49068000  1.0 -0.6197011953
O  O107  1  0.23865000  0.54771000  0.99068000  1.0 -0.6197011953
O  O108  1  0.54771000  0.23865000  0.50932000  1.0 -0.6197011953
O  O109  1  0.66241000  0.84549000  0.39581000  1.0 -0.6115774101
O  O110  1  0.84549000  0.66241000  0.10419000  1.0 -0.6115774101
O  O111  1  0.33759000  0.15451000  0.60419000  1.0 -0.6115774101
O  O112  1  0.15451000  0.33759000  0.89581000  1.0 -0.6115774101
O  O113  1  0.78177000  0.94589000  0.46392000  1.0 -0.6006135926
O  O114  1  0.94589000  0.78177000  0.03608000  1.0 -0.6006135926
O  O115  1  0.21823000  0.05411000  0.53608000  1.0 -0.6006135926
O  O116  1  0.05411000  0.21823000  0.96392000  1.0 -0.6006135926
O  O117  1  0.07348000  0.84164000  0.40198000  1.0 -0.6115774101
O  O118  1  0.84164000  0.07348000  0.09802000  1.0 -0.6115774101
O  O119  1  0.92652000  0.15836000  0.59802000  1.0 -0.6115774101
O  O120  1  0.15836000  0.92652000  0.90198000  1.0 -0.6115774101
O  O121  1  0.05069000  0.31183000  0.00300000  1.0 -0.6320684505
O  O122  1  0.31183000  0.05069000  0.49700000  1.0 -0.6320684505
O  O123  1  0.94931000  0.68817000  0.99700000  1.0 -0.6320684505
O  O124  1  0.68817000  0.94931000  0.50300000  1.0 -0.6320684505
O  O125  1  0.56871000  0.34589000  0.91183000  1.0 -0.6197011953
O  O126  1  0.34589000  0.56871000  0.58817000  1.0 -0.6197011953
O  O127  1  0.43129000  0.65411000  0.08817000  1.0 -0.6197011953
O  O128  1  0.65411000  0.43129000  0.41183000  1.0 -0.6197011953
O  O129  1  0.63821000  0.80383000  0.45332000  1.0 -0.639874759
O  O130  1  0.80383000  0.63821000  0.04668000  1.0 -0.639874759
O  O131  1  0.36179000  0.19617000  0.54668000  1.0 -0.639874759
O  O132  1  0.19617000  0.36179000  0.95332000  1.0 -0.639874759
O  O133  1  0.11668000  0.87008000  0.45726000  1.0 -0.639874759
O  O134  1  0.87008000  0.11668000  0.04274000  1.0 -0.639874759
O  O135  1  0.88332000  0.12992000  0.54274000  1.0 -0.639874759
O  O136  1  0.12992000  0.88332000  0.95726000  1.0 -0.639874759
O  O137  1  0.00159000  0.78725000  0.99206000  1.0 -0.5408544526
O  O138  1  0.78725000  0.00159000  0.50794000  1.0 -0.5408544526
O  O139  1  0.99841000  0.21275000  0.00794000  1.0 -0.5408544526
O  O140  1  0.21275000  0.99841000  0.49206000  1.0 -0.5408544526
O  O141  1  0.67943000  0.90159000  0.44955000  1.0 -1.2446002648
O  O142  1  0.90159000  0.67943000  0.05045000  1.0 -1.2446002648
O  O143  1  0.32057000  0.09841000  0.55045000  1.0 -1.2446002648
O  O144  1  0.09841000  0.32057000  0.94955000  1.0 -1.2446002648
O  O145  1  0.69029000  0.40769000  0.05225000  1.0 -0.6006135926
O  O146  1  0.40769000  0.69029000  0.44775000  1.0 -0.6006135926
O  O147  1  0.30971000  0.59231000  0.94775000  1.0 -0.6006135926
O  O148  1  0.59231000  0.30971000  0.55225000  1.0 -0.6006135926
O  O149  1  0.55977000  0.40911000  0.40938000  1.0 -0.639874759
O  O150  1  0.40911000  0.55977000  0.09062000  1.0 -0.639874759
O  O151  1  0.44023000  0.59089000  0.59062000  1.0 -0.639874759
O  O152  1  0.59089000  0.44023000  0.90938000  1.0 -0.639874759
O  O153  1  0.66278000  0.33652000  0.04684000  1.0 -0.6485784152
O  O154  1  0.33652000  0.66278000  0.45316000  1.0 -0.6485784152
O  O155  1  0.33722000  0.66348000  0.95316000  1.0 -0.6485784152
O  O156  1  0.66348000  0.33722000  0.54684000  1.0 -0.6485784152
O  O157  1  0.51086000  0.72376000  0.48897000  1.0 -0.4857566864
O  O158  1  0.72376000  0.51086000  0.01103000  1.0 -0.4857566864
O  O159  1  0.48914000  0.27624000  0.51103000  1.0 -0.4857566864
O  O160  1  0.27624000  0.48914000  0.98897000  1.0 -0.4857566864
O  O161  1  0.55023000  0.37535000  0.47448000  1.0 -0.6006135926
O  O162  1  0.37535000  0.55023000  0.02552000  1.0 -0.6006135926
O  O163  1  0.44977000  0.62465000  0.52552000  1.0 -0.6006135926
O  O164  1  0.62465000  0.44977000  0.97448000  1.0 -0.6006135926
O  O165  1  0.58573000  0.77771000  0.50701000  1.0 -0.5535271451
O  O166  1  0.77771000  0.58573000  0.99299000  1.0 -0.5535271451
O  O167  1  0.41427000  0.22229000  0.49299000  1.0 -0.5535271451
O  O168  1  0.22229000  0.41427000  0.00701000  1.0 -0.5535271451
O  O169  1  0.07569000  0.79631000  0.00663000  1.0 -0.5408544526
O  O170  1  0.79631000  0.07569000  0.49337000  1.0 -0.5408544526
O  O171  1  0.92431000  0.20369000  0.99337000  1.0 -0.5408544526
O  O172  1  0.20369000  0.92431000  0.50663000  1.0 -0.5408544526
