# DDEC6 charges by PACMAN v1.1 (https://github.com/mtap-research/PACMAN-charge/)
data_YISHER_ASR_pacman
_symmetry_space_group_name_H-M   'P 1'
_cell_length_a   35.91420000
_cell_length_b   35.91420000
_cell_length_c   35.91420000
_cell_angle_alpha   47.07020000
_cell_angle_beta   47.07020000
_cell_angle_gamma   47.07020000
_symmetry_Int_Tables_number   1
_chemical_formula_structural   Sc3C44O13
_chemical_formula_sum   'Sc36 C528 O156'
_cell_volume   22704.36434203
_cell_formula_units_Z   12
loop_
 _symmetry_equiv_pos_site_id
 _symmetry_equiv_pos_as_xyz
  1  'x, y, z'
loop_
 _atom_site_type_symbol
 _atom_site_label
 _atom_site_symmetry_multiplicity
 _atom_site_fract_x
 _atom_site_fract_y
 _atom_site_fract_z
 _atom_site_occupancy
 _atom_site_charge
Sc  Sc1  1  0.31593000  0.33383000  0.95063000  1.0 1.7042167331
Sc  Sc2  1  0.95063000  0.31593000  0.33383000  1.0 1.7042167331
Sc  Sc3  1  0.33383000  0.95063000  0.31593000  1.0 1.7042167331
Sc  Sc4  1  0.81593000  0.45063000  0.83383000  1.0 1.7042167331
Sc  Sc5  1  0.45063000  0.83383000  0.81593000  1.0 1.7042167331
Sc  Sc6  1  0.83383000  0.81593000  0.45063000  1.0 1.7042167331
Sc  Sc7  1  0.24381000  0.38881000  0.88071000  1.0 1.7592195814
Sc  Sc8  1  0.88071000  0.24381000  0.38881000  1.0 1.7592195814
Sc  Sc9  1  0.38881000  0.88071000  0.24381000  1.0 1.7592195814
Sc  Sc10  1  0.74381000  0.38071000  0.88881000  1.0 1.7592195814
Sc  Sc11  1  0.38071000  0.88881000  0.74381000  1.0 1.7592195814
Sc  Sc12  1  0.88881000  0.74381000  0.38071000  1.0 1.7592195814
Sc  Sc13  1  0.36421000  0.26551000  0.88091000  1.0 1.7814641143
Sc  Sc14  1  0.88091000  0.36421000  0.26551000  1.0 1.7814641143
Sc  Sc15  1  0.26551000  0.88091000  0.36421000  1.0 1.7814641143
Sc  Sc16  1  0.86421000  0.38091000  0.76551000  1.0 1.7814641143
Sc  Sc17  1  0.38091000  0.76551000  0.86421000  1.0 1.7814641143
Sc  Sc18  1  0.76551000  0.86421000  0.38091000  1.0 1.7814641143
Sc  Sc19  1  0.18407000  0.54937000  0.16617000  1.0 1.7042167331
Sc  Sc20  1  0.54937000  0.16617000  0.18407000  1.0 1.7042167331
Sc  Sc21  1  0.16617000  0.18407000  0.54937000  1.0 1.7042167331
Sc  Sc22  1  0.68407000  0.66617000  0.04937000  1.0 1.7042167331
Sc  Sc23  1  0.04937000  0.68407000  0.66617000  1.0 1.7042167331
Sc  Sc24  1  0.66617000  0.04937000  0.68407000  1.0 1.7042167331
Sc  Sc25  1  0.25619000  0.61929000  0.11119000  1.0 1.7592195814
Sc  Sc26  1  0.61929000  0.11119000  0.25619000  1.0 1.7592195814
Sc  Sc27  1  0.11119000  0.25619000  0.61929000  1.0 1.7592195814
Sc  Sc28  1  0.75619000  0.61119000  0.11929000  1.0 1.7592195814
Sc  Sc29  1  0.11929000  0.75619000  0.61119000  1.0 1.7592195814
Sc  Sc30  1  0.61119000  0.11929000  0.75619000  1.0 1.7592195814
Sc  Sc31  1  0.13579000  0.61909000  0.23449000  1.0 1.7814641143
Sc  Sc32  1  0.61909000  0.23449000  0.13579000  1.0 1.7814641143
Sc  Sc33  1  0.23449000  0.13579000  0.61909000  1.0 1.7814641143
Sc  Sc34  1  0.63579000  0.73449000  0.11909000  1.0 1.7814641143
Sc  Sc35  1  0.11909000  0.63579000  0.73449000  1.0 1.7814641143
Sc  Sc36  1  0.73449000  0.11909000  0.63579000  1.0 1.7814641143
C  C1  1  0.76180000  0.39110000  0.78160000  1.0 0.6211033983
C  C2  1  0.78160000  0.76180000  0.39110000  1.0 0.6211033983
C  C3  1  0.39110000  0.78160000  0.76180000  1.0 0.6211033983
C  C4  1  0.26180000  0.28160000  0.89110000  1.0 0.6211033983
C  C5  1  0.28160000  0.89110000  0.26180000  1.0 0.6211033983
C  C6  1  0.89110000  0.26180000  0.28160000  1.0 0.6211033983
C  C7  1  0.36140000  0.39130000  0.71620000  1.0 -0.0519791058
C  C8  1  0.71620000  0.36140000  0.39130000  1.0 -0.0519791058
C  C9  1  0.39130000  0.71620000  0.36140000  1.0 -0.0519791058
C  C10  1  0.86140000  0.21620000  0.89130000  1.0 -0.0519791058
C  C11  1  0.21620000  0.89130000  0.86140000  1.0 -0.0519791058
C  C12  1  0.89130000  0.86140000  0.21620000  1.0 -0.0519791058
C  C13  1  0.44530000  0.46030000  0.53630000  1.0 0.0525826675
C  C14  1  0.53630000  0.44530000  0.46030000  1.0 0.0525826675
C  C15  1  0.46030000  0.53630000  0.44530000  1.0 0.0525826675
C  C16  1  0.94530000  0.03630000  0.96030000  1.0 0.0525826675
C  C17  1  0.03630000  0.96030000  0.94530000  1.0 0.0525826675
C  C18  1  0.96030000  0.94530000  0.03630000  1.0 0.0525826675
C  C19  1  0.41680000  0.42940000  0.59900000  1.0 0.0267883765
C  C20  1  0.59900000  0.41680000  0.42940000  1.0 0.0267883765
C  C21  1  0.42940000  0.59900000  0.41680000  1.0 0.0267883765
C  C22  1  0.91680000  0.09900000  0.92940000  1.0 0.0267883765
C  C23  1  0.09900000  0.92940000  0.91680000  1.0 0.0267883765
C  C24  1  0.92940000  0.91680000  0.09900000  1.0 0.0267883765
C  C25  1  0.34420000  0.43960000  0.68840000  1.0 0.0433359676
C  C26  1  0.68840000  0.34420000  0.43960000  1.0 0.0433359676
C  C27  1  0.43960000  0.68840000  0.34420000  1.0 0.0433359676
C  C28  1  0.84420000  0.18840000  0.93960000  1.0 0.0433359676
C  C29  1  0.18840000  0.93960000  0.84420000  1.0 0.0433359676
C  C30  1  0.93960000  0.84420000  0.18840000  1.0 0.0433359676
C  C31  1  0.42520000  0.51670000  0.50120000  1.0 -0.088429748
C  C32  1  0.50120000  0.42520000  0.51670000  1.0 -0.088429748
C  C33  1  0.51670000  0.50120000  0.42520000  1.0 -0.088429748
C  C34  1  0.92520000  0.00120000  0.01670000  1.0 -0.088429748
C  C35  1  0.00120000  0.01670000  0.92520000  1.0 -0.088429748
C  C36  1  0.01670000  0.92520000  0.00120000  1.0 -0.088429748
C  C37  1  0.43040000  0.37740000  0.63290000  1.0 -0.0115885525
C  C38  1  0.63290000  0.43040000  0.37740000  1.0 -0.0115885525
C  C39  1  0.37740000  0.63290000  0.43040000  1.0 -0.0115885525
C  C40  1  0.93040000  0.13290000  0.87740000  1.0 -0.0115885525
C  C41  1  0.13290000  0.87740000  0.93040000  1.0 -0.0115885525
C  C42  1  0.87740000  0.93040000  0.13290000  1.0 -0.0115885525
C  C43  1  0.83710000  0.28560000  0.50490000  1.0 -0.1503668929
C  C44  1  0.50490000  0.83710000  0.28560000  1.0 -0.1503668929
C  C45  1  0.28560000  0.50490000  0.83710000  1.0 -0.1503668929
C  C46  1  0.33710000  0.00490000  0.78560000  1.0 -0.1503668929
C  C47  1  0.00490000  0.78560000  0.33710000  1.0 -0.1503668929
C  C48  1  0.78560000  0.33710000  0.00490000  1.0 -0.1503668929
C  C49  1  0.80373000  0.25593000  0.54823000  1.0 0.0525826675
C  C50  1  0.54823000  0.80373000  0.25593000  1.0 0.0525826675
C  C51  1  0.25593000  0.54823000  0.80373000  1.0 0.0613629022
C  C52  1  0.30373000  0.04823000  0.75593000  1.0 0.0613629022
C  C53  1  0.04823000  0.75593000  0.30373000  1.0 0.0525826675
C  C54  1  0.75593000  0.30373000  0.04823000  1.0 0.0525826675
C  C55  1  0.76960000  0.26010000  0.59910000  1.0 -0.0609157848
C  C56  1  0.59910000  0.76960000  0.26010000  1.0 -0.0609157848
C  C57  1  0.26010000  0.59910000  0.76960000  1.0 -0.0609157848
C  C58  1  0.26960000  0.09910000  0.76010000  1.0 -0.0609157848
C  C59  1  0.09910000  0.76010000  0.26960000  1.0 -0.0609157848
C  C60  1  0.76010000  0.26960000  0.09910000  1.0 -0.0609157848
C  C61  1  0.76870000  0.29410000  0.60650000  1.0 0.0613629022
C  C62  1  0.60650000  0.76870000  0.29410000  1.0 0.0613629022
C  C63  1  0.29410000  0.60650000  0.76870000  1.0 0.0723090465
C  C64  1  0.26870000  0.10650000  0.79410000  1.0 0.0723090465
C  C65  1  0.10650000  0.79410000  0.26870000  1.0 0.0613629022
C  C66  1  0.79410000  0.26870000  0.10650000  1.0 0.0613629022
C  C67  1  0.80201000  0.32379000  0.56297000  1.0 -0.03044554
C  C68  1  0.56297000  0.80201000  0.32379000  1.0 -0.03044554
C  C69  1  0.32379000  0.56297000  0.80201000  1.0 -0.03044554
C  C70  1  0.30201000  0.06297000  0.82379000  1.0 -0.03044554
C  C71  1  0.06297000  0.82379000  0.30201000  1.0 -0.03044554
C  C72  1  0.82379000  0.30201000  0.06297000  1.0 -0.03044554
C  C73  1  0.83610000  0.31960000  0.51210000  1.0 0.0766847794
C  C74  1  0.51210000  0.83610000  0.31960000  1.0 0.0723090465
C  C75  1  0.31960000  0.51210000  0.83610000  1.0 0.0766847794
C  C76  1  0.33610000  0.01210000  0.81960000  1.0 0.0766847794
C  C77  1  0.01210000  0.81960000  0.33610000  1.0 0.0723090465
C  C78  1  0.81960000  0.33610000  0.01210000  1.0 0.0723090465
C  C79  1  0.59160000  0.30610000  0.76890000  1.0 0.0613629022
C  C80  1  0.76890000  0.59160000  0.30610000  1.0 0.0613629022
C  C81  1  0.30610000  0.76890000  0.59160000  1.0 0.0613629022
C  C82  1  0.09160000  0.26890000  0.80610000  1.0 0.0613629022
C  C83  1  0.26890000  0.80610000  0.09160000  1.0 0.0613629022
C  C84  1  0.80610000  0.09160000  0.26890000  1.0 0.0613629022
C  C85  1  0.54895000  0.33345000  0.80445000  1.0 -0.038603226
C  C86  1  0.80445000  0.54895000  0.33345000  1.0 -0.03044554
C  C87  1  0.33345000  0.80445000  0.54895000  1.0 -0.03044554
C  C88  1  0.04895000  0.30445000  0.83345000  1.0 -0.03044554
C  C89  1  0.30445000  0.83345000  0.04895000  1.0 -0.03044554
C  C90  1  0.83345000  0.04895000  0.30445000  1.0 -0.03044554
C  C91  1  0.49730000  0.33140000  0.83640000  1.0 0.0267883765
C  C92  1  0.83640000  0.49730000  0.33140000  1.0 0.0267883765
C  C93  1  0.33140000  0.83640000  0.49730000  1.0 0.0213857297
C  C94  1  0.99730000  0.33640000  0.83140000  1.0 0.0213857297
C  C95  1  0.33640000  0.83140000  0.99730000  1.0 0.0267883765
C  C96  1  0.83140000  0.99730000  0.33640000  1.0 0.0213857297
C  C97  1  0.48840000  0.30210000  0.83290000  1.0 -0.1176480732
C  C98  1  0.83290000  0.48840000  0.30210000  1.0 -0.1176480732
C  C99  1  0.30210000  0.83290000  0.48840000  1.0 -0.1176480732
C  C100  1  0.98840000  0.33290000  0.80210000  1.0 -0.1072335127
C  C101  1  0.33290000  0.80210000  0.98840000  1.0 -0.1176480732
C  C102  1  0.80210000  0.98840000  0.33290000  1.0 -0.1072335127
C  C103  1  0.53114000  0.27474000  0.79724000  1.0 0.0613629022
C  C104  1  0.79724000  0.53114000  0.27474000  1.0 0.0613629022
C  C105  1  0.27474000  0.79724000  0.53114000  1.0 0.0613629022
C  C106  1  0.03114000  0.29724000  0.77474000  1.0 0.0613629022
C  C107  1  0.29724000  0.77474000  0.03114000  1.0 0.0613629022
C  C108  1  0.77474000  0.03114000  0.29724000  1.0 0.0613629022
C  C109  1  0.58280000  0.27680000  0.76530000  1.0 -0.0741889352
C  C110  1  0.76530000  0.58280000  0.27680000  1.0 -0.0741889352
C  C111  1  0.27680000  0.76530000  0.58280000  1.0 -0.0758518333
C  C112  1  0.08280000  0.26530000  0.77680000  1.0 -0.0741889352
C  C113  1  0.26530000  0.77680000  0.08280000  1.0 -0.0741889352
C  C114  1  0.77680000  0.08280000  0.26530000  1.0 -0.0741889352
C  C115  1  0.19690000  0.36820000  0.99920000  1.0 0.6575257338
C  C116  1  0.99920000  0.19690000  0.36820000  1.0 0.6575257338
C  C117  1  0.36820000  0.99920000  0.19690000  1.0 0.6575257338
C  C118  1  0.69690000  0.49920000  0.86820000  1.0 0.6575257338
C  C119  1  0.49920000  0.86820000  0.69690000  1.0 0.6575257338
C  C120  1  0.86820000  0.69690000  0.49920000  1.0 0.6575257338
C  C121  1  0.37170000  0.46290000  0.62770000  1.0 -0.0519791058
C  C122  1  0.62770000  0.37170000  0.46290000  1.0 -0.0519791058
C  C123  1  0.46290000  0.62770000  0.37170000  1.0 -0.0519791058
C  C124  1  0.87170000  0.12770000  0.96290000  1.0 -0.0519791058
C  C125  1  0.12770000  0.96290000  0.87170000  1.0 -0.0519791058
C  C126  1  0.96290000  0.87170000  0.12770000  1.0 -0.0519791058
C  C127  1  0.86610000  0.27580000  0.45900000  1.0 0.581644634
C  C128  1  0.45900000  0.86610000  0.27580000  1.0 0.581644634
C  C129  1  0.27580000  0.45900000  0.86610000  1.0 0.581644634
C  C130  1  0.36610000  0.95900000  0.77580000  1.0 0.581644634
C  C131  1  0.95900000  0.77580000  0.36610000  1.0 0.581644634
C  C132  1  0.77580000  0.36610000  0.95900000  1.0 0.581644634
C  C133  1  0.04750000  0.37130000  0.10680000  1.0 0.0031298784
C  C134  1  0.10680000  0.04750000  0.37130000  1.0 0.0031298784
C  C135  1  0.37130000  0.10680000  0.04750000  1.0 0.0031298784
C  C136  1  0.54750000  0.60680000  0.87130000  1.0 0.0031298784
C  C137  1  0.60680000  0.87130000  0.54750000  1.0 0.0031298784
C  C138  1  0.87130000  0.54750000  0.60680000  1.0 0.0031298784
C  C139  1  0.09340000  0.37650000  0.05600000  1.0 0.0213857297
C  C140  1  0.05600000  0.09340000  0.37650000  1.0 0.0213857297
C  C141  1  0.37650000  0.05600000  0.09340000  1.0 0.0213857297
C  C142  1  0.59340000  0.55600000  0.87650000  1.0 0.0213857297
C  C143  1  0.55600000  0.87650000  0.59340000  1.0 0.0213857297
C  C144  1  0.87650000  0.59340000  0.55600000  1.0 0.0213857297
C  C145  1  0.14080000  0.36590000  0.05220000  1.0 -0.038603226
C  C146  1  0.05220000  0.14080000  0.36590000  1.0 -0.038603226
C  C147  1  0.36590000  0.05220000  0.14080000  1.0 -0.038603226
C  C148  1  0.64080000  0.55220000  0.86590000  1.0 -0.038603226
C  C149  1  0.55220000  0.86590000  0.64080000  1.0 -0.038603226
C  C150  1  0.86590000  0.64080000  0.55220000  1.0 -0.038603226
C  C151  1  0.14250000  0.34990000  0.09890000  1.0 -0.0115885525
C  C152  1  0.09890000  0.14250000  0.34990000  1.0 -0.0115885525
C  C153  1  0.34990000  0.09890000  0.14250000  1.0 -0.0115885525
C  C154  1  0.64250000  0.59890000  0.84990000  1.0 -0.0115885525
C  C155  1  0.59890000  0.84990000  0.64250000  1.0 -0.0115885525
C  C156  1  0.84990000  0.64250000  0.59890000  1.0 -0.0115885525
C  C157  1  0.09670000  0.34470000  0.14960000  1.0 0.0077512764
C  C158  1  0.14960000  0.09670000  0.34470000  1.0 0.0077512764
C  C159  1  0.34470000  0.14960000  0.09670000  1.0 0.0077512764
C  C160  1  0.59670000  0.64960000  0.84470000  1.0 0.0077512764
C  C161  1  0.64960000  0.84470000  0.59670000  1.0 0.0077512764
C  C162  1  0.84470000  0.59670000  0.64960000  1.0 0.0077512764
C  C163  1  0.04910000  0.35540000  0.15350000  1.0 -0.0115885525
C  C164  1  0.15350000  0.04910000  0.35540000  1.0 -0.0115885525
C  C165  1  0.35540000  0.15350000  0.04910000  1.0 -0.0115885525
C  C166  1  0.54910000  0.65350000  0.85540000  1.0 -0.0115885525
C  C167  1  0.65350000  0.85540000  0.54910000  1.0 -0.0115885525
C  C168  1  0.85540000  0.54910000  0.65350000  1.0 -0.0115885525
C  C169  1  0.99740000  0.34580000  0.21990000  1.0 0.653339013
C  C170  1  0.21990000  0.99740000  0.34580000  1.0 0.653339013
C  C171  1  0.34580000  0.21990000  0.99740000  1.0 0.653339013
C  C172  1  0.49740000  0.71990000  0.84580000  1.0 0.6575257338
C  C173  1  0.71990000  0.84580000  0.49740000  1.0 0.653339013
C  C174  1  0.84580000  0.49740000  0.71990000  1.0 0.653339013
C  C175  1  0.64390000  0.30890000  0.73930000  1.0 0.0525826675
C  C176  1  0.73930000  0.64390000  0.30890000  1.0 0.0525826675
C  C177  1  0.30890000  0.73930000  0.64390000  1.0 0.0525826675
C  C178  1  0.14390000  0.23930000  0.80890000  1.0 0.0525826675
C  C179  1  0.23930000  0.80890000  0.14390000  1.0 0.0525826675
C  C180  1  0.80890000  0.14390000  0.23930000  1.0 0.0525826675
C  C181  1  0.68071000  0.30081000  0.69021000  1.0 -0.1503668929
C  C182  1  0.69021000  0.68071000  0.30081000  1.0 -0.1503668929
C  C183  1  0.30081000  0.69021000  0.68071000  1.0 -0.1503668929
C  C184  1  0.18071000  0.19021000  0.80081000  1.0 -0.1503668929
C  C185  1  0.19021000  0.80081000  0.18071000  1.0 -0.1503668929
C  C186  1  0.80081000  0.18071000  0.19021000  1.0 -0.1503668929
C  C187  1  0.73090000  0.30520000  0.65870000  1.0 0.0525826675
C  C188  1  0.65870000  0.73090000  0.30520000  1.0 0.0525826675
C  C189  1  0.30520000  0.65870000  0.73090000  1.0 0.0525826675
C  C190  1  0.23090000  0.15870000  0.80520000  1.0 0.0525826675
C  C191  1  0.15870000  0.80520000  0.23090000  1.0 0.0525826675
C  C192  1  0.80520000  0.23090000  0.15870000  1.0 0.0525826675
C  C193  1  0.74470000  0.31750000  0.67610000  1.0 -0.1072335127
C  C194  1  0.67610000  0.74470000  0.31750000  1.0 -0.1072335127
C  C195  1  0.31750000  0.67610000  0.74470000  1.0 -0.1072335127
C  C196  1  0.24470000  0.17610000  0.81750000  1.0 -0.1072335127
C  C197  1  0.17610000  0.81750000  0.24470000  1.0 -0.1072335127
C  C198  1  0.81750000  0.24470000  0.17610000  1.0 -0.1072335127
C  C199  1  0.70804000  0.32564000  0.72514000  1.0 0.0525826675
C  C200  1  0.72514000  0.70804000  0.32564000  1.0 0.0525826675
C  C201  1  0.32564000  0.72514000  0.70804000  1.0 0.0525826675
C  C202  1  0.20804000  0.22514000  0.82564000  1.0 0.0525826675
C  C203  1  0.22514000  0.82564000  0.20804000  1.0 0.0525826675
C  C204  1  0.82564000  0.20804000  0.22514000  1.0 0.0525826675
C  C205  1  0.65770000  0.32120000  0.75670000  1.0 -0.088429748
C  C206  1  0.75670000  0.65770000  0.32120000  1.0 -0.088429748
C  C207  1  0.32120000  0.75670000  0.65770000  1.0 -0.088429748
C  C208  1  0.15770000  0.25670000  0.82120000  1.0 -0.088429748
C  C209  1  0.25670000  0.82120000  0.15770000  1.0 -0.088429748
C  C210  1  0.82120000  0.15770000  0.25670000  1.0 -0.088429748
C  C211  1  0.71960000  0.34630000  0.73750000  1.0 0.0433359676
C  C212  1  0.73750000  0.71960000  0.34630000  1.0 0.0433359676
C  C213  1  0.34630000  0.73750000  0.71960000  1.0 0.0433359676
C  C214  1  0.21960000  0.23750000  0.84630000  1.0 0.0433359676
C  C215  1  0.23750000  0.84630000  0.21960000  1.0 0.0433359676
C  C216  1  0.84630000  0.21960000  0.23750000  1.0 0.0433359676
C  C217  1  0.76200000  0.36480000  0.69880000  1.0 -0.0184643828
C  C218  1  0.69880000  0.76200000  0.36480000  1.0 -0.0184643828
C  C219  1  0.36480000  0.69880000  0.76200000  1.0 -0.0184643828
C  C220  1  0.26200000  0.19880000  0.86480000  1.0 -0.0184643828
C  C221  1  0.19880000  0.86480000  0.26200000  1.0 -0.0184643828
C  C222  1  0.86480000  0.26200000  0.19880000  1.0 -0.0184643828
C  C223  1  0.77590000  0.37960000  0.71390000  1.0 0.0613629022
C  C224  1  0.71390000  0.77590000  0.37960000  1.0 0.0613629022
C  C225  1  0.37960000  0.71390000  0.77590000  1.0 0.0613629022
C  C226  1  0.27590000  0.21390000  0.87960000  1.0 0.0613629022
C  C227  1  0.21390000  0.87960000  0.27590000  1.0 0.0613629022
C  C228  1  0.87960000  0.27590000  0.21390000  1.0 0.0613629022
C  C229  1  0.74738000  0.37568000  0.76758000  1.0 -0.1176480732
C  C230  1  0.76758000  0.74738000  0.37568000  1.0 -0.1176480732
C  C231  1  0.37568000  0.76758000  0.74738000  1.0 -0.1176480732
C  C232  1  0.24738000  0.26758000  0.87568000  1.0 -0.1176480732
C  C233  1  0.26758000  0.87568000  0.24738000  1.0 -0.1176480732
C  C234  1  0.87568000  0.24738000  0.26758000  1.0 -0.1176480732
C  C235  1  0.70500000  0.35720000  0.80630000  1.0 0.0613629022
C  C236  1  0.80630000  0.70500000  0.35720000  1.0 0.0613629022
C  C237  1  0.35720000  0.80630000  0.70500000  1.0 0.0613629022
C  C238  1  0.20500000  0.30630000  0.85720000  1.0 0.0613629022
C  C239  1  0.30630000  0.85720000  0.20500000  1.0 0.0613629022
C  C240  1  0.85720000  0.20500000  0.30630000  1.0 0.0613629022
C  C241  1  0.69110000  0.34260000  0.79130000  1.0 -0.03044554
C  C242  1  0.79130000  0.69110000  0.34260000  1.0 -0.03044554
C  C243  1  0.34260000  0.79130000  0.69110000  1.0 -0.038603226
C  C244  1  0.19110000  0.29130000  0.84260000  1.0 -0.038603226
C  C245  1  0.29130000  0.84260000  0.19110000  1.0 -0.038603226
C  C246  1  0.84260000  0.19110000  0.29130000  1.0 -0.038603226
C  C247  1  0.43840000  0.29600000  0.86530000  1.0 0.6146203903
C  C248  1  0.86530000  0.43840000  0.29600000  1.0 0.6146203903
C  C249  1  0.29600000  0.86530000  0.43840000  1.0 0.6146203903
C  C250  1  0.93840000  0.36530000  0.79600000  1.0 0.6211033983
C  C251  1  0.36530000  0.79600000  0.93840000  1.0 0.6146203903
C  C252  1  0.79600000  0.93840000  0.36530000  1.0 0.6146203903
C  C253  1  0.40550000  0.35760000  0.69500000  1.0 0.0031298784
C  C254  1  0.69500000  0.40550000  0.35760000  1.0 0.0031298784
C  C255  1  0.35760000  0.69500000  0.40550000  1.0 0.0031298784
C  C256  1  0.90550000  0.19500000  0.85760000  1.0 0.0031298784
C  C257  1  0.19500000  0.85760000  0.90550000  1.0 0.0031298784
C  C258  1  0.85760000  0.90550000  0.19500000  1.0 0.0031298784
C  C259  1  0.33360000  0.36940000  0.77850000  1.0 0.6575257338
C  C260  1  0.77850000  0.33360000  0.36940000  1.0 0.6575257338
C  C261  1  0.36940000  0.77850000  0.33360000  1.0 0.6575257338
C  C262  1  0.83360000  0.27850000  0.86940000  1.0 0.6575257338
C  C263  1  0.27850000  0.86940000  0.83360000  1.0 0.6575257338
C  C264  1  0.86940000  0.83360000  0.27850000  1.0 0.6575257338
C  C265  1  0.73820000  0.71840000  0.10890000  1.0 0.6211033983
C  C266  1  0.71840000  0.10890000  0.73820000  1.0 0.6211033983
C  C267  1  0.10890000  0.73820000  0.71840000  1.0 0.6211033983
C  C268  1  0.23820000  0.60890000  0.21840000  1.0 0.6211033983
C  C269  1  0.21840000  0.23820000  0.60890000  1.0 0.6211033983
C  C270  1  0.60890000  0.21840000  0.23820000  1.0 0.6211033983
C  C271  1  0.13860000  0.78380000  0.10870000  1.0 -0.0519791058
C  C272  1  0.78380000  0.10870000  0.13860000  1.0 -0.0519791058
C  C273  1  0.10870000  0.13860000  0.78380000  1.0 -0.0519791058
C  C274  1  0.63860000  0.60870000  0.28380000  1.0 -0.0519791058
C  C275  1  0.28380000  0.63860000  0.60870000  1.0 -0.0519791058
C  C276  1  0.60870000  0.28380000  0.63860000  1.0 -0.0519791058
C  C277  1  0.05470000  0.96370000  0.03970000  1.0 0.0525826675
C  C278  1  0.96370000  0.03970000  0.05470000  1.0 0.0525826675
C  C279  1  0.03970000  0.05470000  0.96370000  1.0 0.0525826675
C  C280  1  0.55470000  0.53970000  0.46370000  1.0 0.0525826675
C  C281  1  0.46370000  0.55470000  0.53970000  1.0 0.0525826675
C  C282  1  0.53970000  0.46370000  0.55470000  1.0 0.0525826675
C  C283  1  0.08320000  0.90100000  0.07060000  1.0 0.0267883765
C  C284  1  0.90100000  0.07060000  0.08320000  1.0 0.0267883765
C  C285  1  0.07060000  0.08320000  0.90100000  1.0 0.0267883765
C  C286  1  0.58320000  0.57060000  0.40100000  1.0 0.0267883765
C  C287  1  0.40100000  0.58320000  0.57060000  1.0 0.0267883765
C  C288  1  0.57060000  0.40100000  0.58320000  1.0 0.0267883765
C  C289  1  0.15580000  0.81160000  0.06040000  1.0 0.0433359676
C  C290  1  0.81160000  0.06040000  0.15580000  1.0 0.0433359676
C  C291  1  0.06040000  0.15580000  0.81160000  1.0 0.0433359676
C  C292  1  0.65580000  0.56040000  0.31160000  1.0 0.0433359676
C  C293  1  0.31160000  0.65580000  0.56040000  1.0 0.0433359676
C  C294  1  0.56040000  0.31160000  0.65580000  1.0 0.0433359676
C  C295  1  0.07480000  0.99880000  0.98330000  1.0 -0.088429748
C  C296  1  0.99880000  0.98330000  0.07480000  1.0 -0.088429748
C  C297  1  0.98330000  0.07480000  0.99880000  1.0 -0.088429748
C  C298  1  0.57480000  0.48330000  0.49880000  1.0 -0.088429748
C  C299  1  0.49880000  0.57480000  0.48330000  1.0 -0.088429748
C  C300  1  0.48330000  0.49880000  0.57480000  1.0 -0.088429748
C  C301  1  0.06960000  0.86710000  0.12260000  1.0 -0.0115885525
C  C302  1  0.86710000  0.12260000  0.06960000  1.0 -0.0115885525
C  C303  1  0.12260000  0.06960000  0.86710000  1.0 -0.0115885525
C  C304  1  0.56960000  0.62260000  0.36710000  1.0 -0.0115885525
C  C305  1  0.36710000  0.56960000  0.62260000  1.0 -0.0115885525
C  C306  1  0.62260000  0.36710000  0.56960000  1.0 -0.0115885525
C  C307  1  0.66290000  0.99510000  0.21440000  1.0 -0.1503668929
C  C308  1  0.99510000  0.21440000  0.66290000  1.0 -0.1503668929
C  C309  1  0.21440000  0.66290000  0.99510000  1.0 -0.1503668929
C  C310  1  0.16290000  0.71440000  0.49510000  1.0 -0.1503668929
C  C311  1  0.49510000  0.16290000  0.71440000  1.0 -0.1503668929
C  C312  1  0.71440000  0.49510000  0.16290000  1.0 -0.1503668929
C  C313  1  0.69627000  0.95177000  0.24407000  1.0 0.0525826675
C  C314  1  0.95177000  0.24407000  0.69627000  1.0 0.0525826675
C  C315  1  0.24407000  0.69627000  0.95177000  1.0 0.0613629022
C  C316  1  0.19627000  0.74407000  0.45177000  1.0 0.0525826675
C  C317  1  0.45177000  0.19627000  0.74407000  1.0 0.0613629022
C  C318  1  0.74407000  0.45177000  0.19627000  1.0 0.0525826675
C  C319  1  0.73040000  0.90090000  0.23990000  1.0 -0.0609157848
C  C320  1  0.90090000  0.23990000  0.73040000  1.0 -0.0609157848
C  C321  1  0.23990000  0.73040000  0.90090000  1.0 -0.0609157848
C  C322  1  0.23040000  0.73990000  0.40090000  1.0 -0.0609157848
C  C323  1  0.40090000  0.23040000  0.73990000  1.0 -0.0609157848
C  C324  1  0.73990000  0.40090000  0.23040000  1.0 -0.0609157848
C  C325  1  0.73130000  0.89350000  0.20590000  1.0 0.0613629022
C  C326  1  0.89350000  0.20590000  0.73130000  1.0 0.0613629022
C  C327  1  0.20590000  0.73130000  0.89350000  1.0 0.0613629022
C  C328  1  0.23130000  0.70590000  0.39350000  1.0 0.0613629022
C  C329  1  0.39350000  0.23130000  0.70590000  1.0 0.0613629022
C  C330  1  0.70590000  0.39350000  0.23130000  1.0 0.0613629022
C  C331  1  0.69799000  0.93703000  0.17621000  1.0 -0.03044554
C  C332  1  0.93703000  0.17621000  0.69799000  1.0 -0.03044554
C  C333  1  0.17621000  0.69799000  0.93703000  1.0 -0.03044554
C  C334  1  0.19799000  0.67621000  0.43703000  1.0 -0.03044554
C  C335  1  0.43703000  0.19799000  0.67621000  1.0 -0.03044554
C  C336  1  0.67621000  0.43703000  0.19799000  1.0 -0.03044554
C  C337  1  0.66390000  0.98790000  0.18040000  1.0 0.0723090465
C  C338  1  0.98790000  0.18040000  0.66390000  1.0 0.0766847794
C  C339  1  0.18040000  0.66390000  0.98790000  1.0 0.0766847794
C  C340  1  0.16390000  0.68040000  0.48790000  1.0 0.0723090465
C  C341  1  0.48790000  0.16390000  0.68040000  1.0 0.0723090465
C  C342  1  0.68040000  0.48790000  0.16390000  1.0 0.0723090465
C  C343  1  0.90840000  0.73110000  0.19390000  1.0 0.0613629022
C  C344  1  0.73110000  0.19390000  0.90840000  1.0 0.0613629022
C  C345  1  0.19390000  0.90840000  0.73110000  1.0 0.0613629022
C  C346  1  0.40840000  0.69390000  0.23110000  1.0 0.0613629022
C  C347  1  0.23110000  0.40840000  0.69390000  1.0 0.0613629022
C  C348  1  0.69390000  0.23110000  0.40840000  1.0 0.0613629022
C  C349  1  0.95105000  0.69555000  0.16655000  1.0 -0.03044554
C  C350  1  0.69555000  0.16655000  0.95105000  1.0 -0.03044554
C  C351  1  0.16655000  0.95105000  0.69555000  1.0 -0.03044554
C  C352  1  0.45105000  0.66655000  0.19555000  1.0 -0.03044554
C  C353  1  0.19555000  0.45105000  0.66655000  1.0 -0.03044554
C  C354  1  0.66655000  0.19555000  0.45105000  1.0 -0.03044554
C  C355  1  0.00270000  0.66360000  0.16860000  1.0 0.0213857297
C  C356  1  0.66360000  0.16860000  0.00270000  1.0 0.0267883765
C  C357  1  0.16860000  0.00270000  0.66360000  1.0 0.0267883765
C  C358  1  0.50270000  0.66860000  0.16360000  1.0 0.0213857297
C  C359  1  0.16360000  0.50270000  0.66860000  1.0 0.0213857297
C  C360  1  0.66860000  0.16360000  0.50270000  1.0 0.0267883765
C  C361  1  0.01160000  0.66710000  0.19790000  1.0 -0.1176480732
C  C362  1  0.66710000  0.19790000  0.01160000  1.0 -0.1176480732
C  C363  1  0.19790000  0.01160000  0.66710000  1.0 -0.1176480732
C  C364  1  0.51160000  0.69790000  0.16710000  1.0 -0.1176480732
C  C365  1  0.16710000  0.51160000  0.69790000  1.0 -0.1176480732
C  C366  1  0.69790000  0.16710000  0.51160000  1.0 -0.1176480732
C  C367  1  0.96886000  0.70276000  0.22526000  1.0 0.0613629022
C  C368  1  0.70276000  0.22526000  0.96886000  1.0 0.0613629022
C  C369  1  0.22526000  0.96886000  0.70276000  1.0 0.0613629022
C  C370  1  0.46886000  0.72526000  0.20276000  1.0 0.0613629022
C  C371  1  0.20276000  0.46886000  0.72526000  1.0 0.0613629022
C  C372  1  0.72526000  0.20276000  0.46886000  1.0 0.0613629022
C  C373  1  0.91720000  0.73470000  0.22320000  1.0 -0.0741889352
C  C374  1  0.73470000  0.22320000  0.91720000  1.0 -0.0741889352
C  C375  1  0.22320000  0.91720000  0.73470000  1.0 -0.0741889352
C  C376  1  0.41720000  0.72320000  0.23470000  1.0 -0.0741889352
C  C377  1  0.23470000  0.41720000  0.72320000  1.0 -0.0741889352
C  C378  1  0.72320000  0.23470000  0.41720000  1.0 -0.0758518333
C  C379  1  0.30310000  0.50080000  0.13180000  1.0 0.6575257338
C  C380  1  0.50080000  0.13180000  0.30310000  1.0 0.6575257338
C  C381  1  0.13180000  0.30310000  0.50080000  1.0 0.6575257338
C  C382  1  0.80310000  0.63180000  0.00080000  1.0 0.6575257338
C  C383  1  0.00080000  0.80310000  0.63180000  1.0 0.6575257338
C  C384  1  0.63180000  0.00080000  0.80310000  1.0 0.6575257338
C  C385  1  0.12830000  0.87230000  0.03710000  1.0 -0.0519791058
C  C386  1  0.87230000  0.03710000  0.12830000  1.0 -0.0519791058
C  C387  1  0.03710000  0.12830000  0.87230000  1.0 -0.0519791058
C  C388  1  0.62830000  0.53710000  0.37230000  1.0 -0.0519791058
C  C389  1  0.37230000  0.62830000  0.53710000  1.0 -0.0519791058
C  C390  1  0.53710000  0.37230000  0.62830000  1.0 -0.0519791058
C  C391  1  0.63390000  0.04100000  0.22420000  1.0 0.581644634
C  C392  1  0.04100000  0.22420000  0.63390000  1.0 0.581644634
C  C393  1  0.22420000  0.63390000  0.04100000  1.0 0.581644634
C  C394  1  0.13390000  0.72420000  0.54100000  1.0 0.581644634
C  C395  1  0.54100000  0.13390000  0.72420000  1.0 0.581644634
C  C396  1  0.72420000  0.54100000  0.13390000  1.0 0.581644634
C  C397  1  0.45250000  0.39320000  0.12870000  1.0 0.0031298784
C  C398  1  0.39320000  0.12870000  0.45250000  1.0 0.0077512764
C  C399  1  0.12870000  0.45250000  0.39320000  1.0 0.0077512764
C  C400  1  0.95250000  0.62870000  0.89320000  1.0 0.0077512764
C  C401  1  0.89320000  0.95250000  0.62870000  1.0 0.0031298784
C  C402  1  0.62870000  0.89320000  0.95250000  1.0 0.0031298784
C  C403  1  0.40660000  0.44400000  0.12350000  1.0 0.0213857297
C  C404  1  0.44400000  0.12350000  0.40660000  1.0 0.0213857297
C  C405  1  0.12350000  0.40660000  0.44400000  1.0 0.0213857297
C  C406  1  0.90660000  0.62350000  0.94400000  1.0 0.0213857297
C  C407  1  0.94400000  0.90660000  0.62350000  1.0 0.0213857297
C  C408  1  0.62350000  0.94400000  0.90660000  1.0 0.0213857297
C  C409  1  0.35920000  0.44780000  0.13410000  1.0 -0.038603226
C  C410  1  0.44780000  0.13410000  0.35920000  1.0 -0.038603226
C  C411  1  0.13410000  0.35920000  0.44780000  1.0 -0.038603226
C  C412  1  0.85920000  0.63410000  0.94780000  1.0 -0.038603226
C  C413  1  0.94780000  0.85920000  0.63410000  1.0 -0.038603226
C  C414  1  0.63410000  0.94780000  0.85920000  1.0 -0.038603226
C  C415  1  0.35750000  0.40110000  0.15010000  1.0 -0.0115885525
C  C416  1  0.40110000  0.15010000  0.35750000  1.0 -0.0115885525
C  C417  1  0.15010000  0.35750000  0.40110000  1.0 -0.0115885525
C  C418  1  0.85750000  0.65010000  0.90110000  1.0 -0.0115885525
C  C419  1  0.90110000  0.85750000  0.65010000  1.0 -0.0115885525
C  C420  1  0.65010000  0.90110000  0.85750000  1.0 -0.0115885525
C  C421  1  0.40330000  0.35040000  0.15530000  1.0 0.0077512764
C  C422  1  0.35040000  0.15530000  0.40330000  1.0 0.0077512764
C  C423  1  0.15530000  0.40330000  0.35040000  1.0 0.0077512764
C  C424  1  0.90330000  0.65530000  0.85040000  1.0 0.0077512764
C  C425  1  0.85040000  0.90330000  0.65530000  1.0 0.0077512764
C  C426  1  0.65530000  0.85040000  0.90330000  1.0 0.0077512764
C  C427  1  0.45090000  0.34650000  0.14460000  1.0 -0.0115885525
C  C428  1  0.34650000  0.14460000  0.45090000  1.0 -0.0115885525
C  C429  1  0.14460000  0.45090000  0.34650000  1.0 -0.0115885525
C  C430  1  0.95090000  0.64460000  0.84650000  1.0 -0.0115885525
C  C431  1  0.84650000  0.95090000  0.64460000  1.0 -0.0115885525
C  C432  1  0.64460000  0.84650000  0.95090000  1.0 -0.0115885525
C  C433  1  0.50260000  0.28010000  0.15420000  1.0 0.653339013
C  C434  1  0.28010000  0.15420000  0.50260000  1.0 0.653339013
C  C435  1  0.15420000  0.50260000  0.28010000  1.0 0.653339013
C  C436  1  0.00260000  0.65420000  0.78010000  1.0 0.653339013
C  C437  1  0.78010000  0.00260000  0.65420000  1.0 0.6575257338
C  C438  1  0.65420000  0.78010000  0.00260000  1.0 0.6575257338
C  C439  1  0.85610000  0.76070000  0.19110000  1.0 0.0525826675
C  C440  1  0.76070000  0.19110000  0.85610000  1.0 0.0525826675
C  C441  1  0.19110000  0.85610000  0.76070000  1.0 0.0525826675
C  C442  1  0.35610000  0.69110000  0.26070000  1.0 0.0525826675
C  C443  1  0.26070000  0.35610000  0.69110000  1.0 0.0525826675
C  C444  1  0.69110000  0.26070000  0.35610000  1.0 0.0525826675
C  C445  1  0.81929000  0.80979000  0.19919000  1.0 -0.1503668929
C  C446  1  0.80979000  0.19919000  0.81929000  1.0 -0.1503668929
C  C447  1  0.19919000  0.81929000  0.80979000  1.0 -0.1503668929
C  C448  1  0.31929000  0.69919000  0.30979000  1.0 -0.1503668929
C  C449  1  0.30979000  0.31929000  0.69919000  1.0 -0.1503668929
C  C450  1  0.69919000  0.30979000  0.31929000  1.0 -0.1503668929
C  C451  1  0.76910000  0.84130000  0.19480000  1.0 0.0525826675
C  C452  1  0.84130000  0.19480000  0.76910000  1.0 0.0525826675
C  C453  1  0.19480000  0.76910000  0.84130000  1.0 0.0525826675
C  C454  1  0.26910000  0.69480000  0.34130000  1.0 0.0525826675
C  C455  1  0.34130000  0.26910000  0.69480000  1.0 0.0525826675
C  C456  1  0.69480000  0.34130000  0.26910000  1.0 0.0525826675
C  C457  1  0.75530000  0.82390000  0.18250000  1.0 -0.1072335127
C  C458  1  0.82390000  0.18250000  0.75530000  1.0 -0.1072335127
C  C459  1  0.18250000  0.75530000  0.82390000  1.0 -0.1072335127
C  C460  1  0.25530000  0.68250000  0.32390000  1.0 -0.1072335127
C  C461  1  0.32390000  0.25530000  0.68250000  1.0 -0.1072335127
C  C462  1  0.68250000  0.32390000  0.25530000  1.0 -0.1072335127
C  C463  1  0.79196000  0.77486000  0.17436000  1.0 0.0525826675
C  C464  1  0.77486000  0.17436000  0.79196000  1.0 0.0525826675
C  C465  1  0.17436000  0.79196000  0.77486000  1.0 0.0525826675
C  C466  1  0.29196000  0.67436000  0.27486000  1.0 0.0525826675
C  C467  1  0.27486000  0.29196000  0.67436000  1.0 0.0525826675
C  C468  1  0.67436000  0.27486000  0.29196000  1.0 0.0525826675
C  C469  1  0.84230000  0.74330000  0.17880000  1.0 -0.088429748
C  C470  1  0.74330000  0.17880000  0.84230000  1.0 -0.088429748
C  C471  1  0.17880000  0.84230000  0.74330000  1.0 -0.088429748
C  C472  1  0.34230000  0.67880000  0.24330000  1.0 -0.088429748
C  C473  1  0.24330000  0.34230000  0.67880000  1.0 -0.088429748
C  C474  1  0.67880000  0.24330000  0.34230000  1.0 -0.088429748
C  C475  1  0.78040000  0.76250000  0.15370000  1.0 0.0433359676
C  C476  1  0.76250000  0.15370000  0.78040000  1.0 0.0433359676
C  C477  1  0.15370000  0.78040000  0.76250000  1.0 0.0433359676
C  C478  1  0.28040000  0.65370000  0.26250000  1.0 0.0433359676
C  C479  1  0.26250000  0.28040000  0.65370000  1.0 0.0433359676
C  C480  1  0.65370000  0.26250000  0.28040000  1.0 0.0433359676
C  C481  1  0.73800000  0.80120000  0.13520000  1.0 -0.0184643828
C  C482  1  0.80120000  0.13520000  0.73800000  1.0 -0.0184643828
C  C483  1  0.13520000  0.73800000  0.80120000  1.0 -0.0184643828
C  C484  1  0.23800000  0.63520000  0.30120000  1.0 -0.0184643828
C  C485  1  0.30120000  0.23800000  0.63520000  1.0 -0.0184643828
C  C486  1  0.63520000  0.30120000  0.23800000  1.0 -0.0184643828
C  C487  1  0.72410000  0.78610000  0.12040000  1.0 0.0613629022
C  C488  1  0.78610000  0.12040000  0.72410000  1.0 0.0613629022
C  C489  1  0.12040000  0.72410000  0.78610000  1.0 0.0613629022
C  C490  1  0.22410000  0.62040000  0.28610000  1.0 0.0613629022
C  C491  1  0.28610000  0.22410000  0.62040000  1.0 0.0613629022
C  C492  1  0.62040000  0.28610000  0.22410000  1.0 0.0613629022
C  C493  1  0.75262000  0.73242000  0.12432000  1.0 -0.1176480732
C  C494  1  0.73242000  0.12432000  0.75262000  1.0 -0.1176480732
C  C495  1  0.12432000  0.75262000  0.73242000  1.0 -0.1176480732
C  C496  1  0.25262000  0.62432000  0.23242000  1.0 -0.1176480732
C  C497  1  0.23242000  0.25262000  0.62432000  1.0 -0.1176480732
C  C498  1  0.62432000  0.23242000  0.25262000  1.0 -0.1176480732
C  C499  1  0.79500000  0.69370000  0.14280000  1.0 0.0613629022
C  C500  1  0.69370000  0.14280000  0.79500000  1.0 0.0613629022
C  C501  1  0.14280000  0.79500000  0.69370000  1.0 0.0613629022
C  C502  1  0.29500000  0.64280000  0.19370000  1.0 0.0613629022
C  C503  1  0.19370000  0.29500000  0.64280000  1.0 0.0613629022
C  C504  1  0.64280000  0.19370000  0.29500000  1.0 0.0613629022
C  C505  1  0.80890000  0.70870000  0.15740000  1.0 -0.038603226
C  C506  1  0.70870000  0.15740000  0.80890000  1.0 -0.038603226
C  C507  1  0.15740000  0.80890000  0.70870000  1.0 -0.038603226
C  C508  1  0.30890000  0.65740000  0.20870000  1.0 -0.038603226
C  C509  1  0.20870000  0.30890000  0.65740000  1.0 -0.038603226
C  C510  1  0.65740000  0.20870000  0.30890000  1.0 -0.038603226
C  C511  1  0.06160000  0.63470000  0.20400000  1.0 0.6146203903
C  C512  1  0.63470000  0.20400000  0.06160000  1.0 0.6146203903
C  C513  1  0.20400000  0.06160000  0.63470000  1.0 0.6146203903
C  C514  1  0.56160000  0.70400000  0.13470000  1.0 0.6146203903
C  C515  1  0.13470000  0.56160000  0.70400000  1.0 0.6146203903
C  C516  1  0.70400000  0.13470000  0.56160000  1.0 0.6146203903
C  C517  1  0.09450000  0.80500000  0.14240000  1.0 0.0031298784
C  C518  1  0.80500000  0.14240000  0.09450000  1.0 0.0031298784
C  C519  1  0.14240000  0.09450000  0.80500000  1.0 0.0031298784
C  C520  1  0.59450000  0.64240000  0.30500000  1.0 0.0031298784
C  C521  1  0.30500000  0.59450000  0.64240000  1.0 0.0031298784
C  C522  1  0.64240000  0.30500000  0.59450000  1.0 0.0031298784
C  C523  1  0.16640000  0.72150000  0.13060000  1.0 0.6575257338
C  C524  1  0.72150000  0.13060000  0.16640000  1.0 0.6575257338
C  C525  1  0.13060000  0.16640000  0.72150000  1.0 0.6575257338
C  C526  1  0.66640000  0.63060000  0.22150000  1.0 0.6575257338
C  C527  1  0.22150000  0.66640000  0.63060000  1.0 0.6575257338
C  C528  1  0.63060000  0.22150000  0.66640000  1.0 0.6575257338
O  O1  1  0.18620000  0.37700000  0.96570000  1.0 -0.5943951661
O  O2  1  0.96570000  0.18620000  0.37700000  1.0 -0.5978600104
O  O3  1  0.37700000  0.96570000  0.18620000  1.0 -0.5978600104
O  O4  1  0.68620000  0.46570000  0.87700000  1.0 -0.5978600104
O  O5  1  0.46570000  0.87700000  0.68620000  1.0 -0.5978600104
O  O6  1  0.87700000  0.68620000  0.46570000  1.0 -0.5978600104
O  O7  1  0.90334000  0.29794000  0.41924000  1.0 -0.5715142063
O  O8  1  0.41924000  0.90334000  0.29794000  1.0 -0.5715142063
O  O9  1  0.29794000  0.41924000  0.90334000  1.0 -0.5715142063
O  O10  1  0.40334000  0.91924000  0.79794000  1.0 -0.5715142063
O  O11  1  0.91924000  0.79794000  0.40334000  1.0 -0.5715142063
O  O12  1  0.79794000  0.40334000  0.91924000  1.0 -0.5715142063
O  O13  1  0.39470000  0.31400000  0.90750000  1.0 -0.6738272662
O  O14  1  0.90750000  0.39470000  0.31400000  1.0 -0.6738272662
O  O15  1  0.31400000  0.90750000  0.39470000  1.0 -0.6751397009
O  O16  1  0.89470000  0.40750000  0.81400000  1.0 -0.6751397009
O  O17  1  0.40750000  0.81400000  0.89470000  1.0 -0.6751397009
O  O18  1  0.81400000  0.89470000  0.40750000  1.0 -0.6751397009
O  O19  1  0.73080000  0.39100000  0.83310000  1.0 -0.6928603057
O  O20  1  0.83310000  0.73080000  0.39100000  1.0 -0.6928603057
O  O21  1  0.39100000  0.83310000  0.73080000  1.0 -0.6928603057
O  O22  1  0.23080000  0.33310000  0.89100000  1.0 -0.6928603057
O  O23  1  0.33310000  0.89100000  0.23080000  1.0 -0.6928603057
O  O24  1  0.89100000  0.23080000  0.33310000  1.0 -0.6928603057
O  O25  1  0.23950000  0.35200000  0.00250000  1.0 -0.6058777079
O  O26  1  0.00250000  0.23950000  0.35200000  1.0 -0.6058777079
O  O27  1  0.35200000  0.00250000  0.23950000  1.0 -0.6058777079
O  O28  1  0.73950000  0.50250000  0.85200000  1.0 -0.6058777079
O  O29  1  0.50250000  0.85200000  0.73950000  1.0 -0.6058777079
O  O30  1  0.85200000  0.73950000  0.50250000  1.0 -0.6058777079
O  O31  1  0.96430000  0.35840000  0.20560000  1.0 -0.5978600104
O  O32  1  0.20560000  0.96430000  0.35840000  1.0 -0.5978600104
O  O33  1  0.35840000  0.20560000  0.96430000  1.0 -0.5978600104
O  O34  1  0.46430000  0.70560000  0.85840000  1.0 -0.5978600104
O  O35  1  0.70560000  0.85840000  0.46430000  1.0 -0.5978600104
O  O36  1  0.85840000  0.46430000  0.70560000  1.0 -0.5978600104
O  O37  1  0.29330000  0.40540000  0.79690000  1.0 -0.5978600104
O  O38  1  0.79690000  0.29330000  0.40540000  1.0 -0.5978600104
O  O39  1  0.40540000  0.79690000  0.29330000  1.0 -0.5978600104
O  O40  1  0.79330000  0.29690000  0.90540000  1.0 -0.5978600104
O  O41  1  0.29690000  0.90540000  0.79330000  1.0 -0.5978600104
O  O42  1  0.90540000  0.79330000  0.29690000  1.0 -0.5978600104
O  O43  1  0.31030000  0.32880000  0.90450000  1.0 -1.2973959202
O  O44  1  0.90450000  0.31030000  0.32880000  1.0 -1.2924836088
O  O45  1  0.32880000  0.90450000  0.31030000  1.0 -1.2924836088
O  O46  1  0.81030000  0.40450000  0.82880000  1.0 -1.2924836088
O  O47  1  0.40450000  0.82880000  0.81030000  1.0 -1.2924836088
O  O48  1  0.82880000  0.81030000  0.40450000  1.0 -1.2924836088
O  O49  1  0.36900000  0.31840000  0.79590000  1.0 -0.6346196993
O  O50  1  0.79590000  0.36900000  0.31840000  1.0 -0.6358075494
O  O51  1  0.31840000  0.79590000  0.36900000  1.0 -0.6346196993
O  O52  1  0.86900000  0.29590000  0.81840000  1.0 -0.6346196993
O  O53  1  0.29590000  0.81840000  0.86900000  1.0 -0.6346196993
O  O54  1  0.81840000  0.86900000  0.29590000  1.0 -0.6346196993
O  O55  1  0.80380000  0.39880000  0.75290000  1.0 -0.5715142063
O  O56  1  0.75290000  0.80380000  0.39880000  1.0 -0.5715142063
O  O57  1  0.39880000  0.75290000  0.80380000  1.0 -0.5715142063
O  O58  1  0.30380000  0.25290000  0.89880000  1.0 -0.5715142063
O  O59  1  0.25290000  0.89880000  0.30380000  1.0 -0.5715142063
O  O60  1  0.89880000  0.30380000  0.25290000  1.0 -0.5715142063
O  O61  1  0.00550000  0.32590000  0.26020000  1.0 -0.5715142063
O  O62  1  0.26020000  0.00550000  0.32590000  1.0 -0.5715142063
O  O63  1  0.32590000  0.26020000  0.00550000  1.0 -0.5715142063
O  O64  1  0.50550000  0.76020000  0.82590000  1.0 -0.5715142063
O  O65  1  0.76020000  0.82590000  0.50550000  1.0 -0.5715142063
O  O66  1  0.82590000  0.50550000  0.76020000  1.0 -0.5715142063
O  O67  1  0.86870000  0.24870000  0.44840000  1.0 -0.5432049637
O  O68  1  0.44840000  0.86870000  0.24870000  1.0 -0.5432049637
O  O69  1  0.24870000  0.44840000  0.86870000  1.0 -0.5432049637
O  O70  1  0.36870000  0.94840000  0.74870000  1.0 -0.5432049637
O  O71  1  0.94840000  0.74870000  0.36870000  1.0 -0.5432049637
O  O72  1  0.74870000  0.36870000  0.94840000  1.0 -0.5432049637
O  O73  1  0.42890000  0.27240000  0.85790000  1.0 -0.6537767405
O  O74  1  0.85790000  0.42890000  0.27240000  1.0 -0.6551174278
O  O75  1  0.27240000  0.85790000  0.42890000  1.0 -0.6551174278
O  O76  1  0.92890000  0.35790000  0.77240000  1.0 -0.6551174278
O  O77  1  0.35790000  0.77240000  0.92890000  1.0 -0.6537767405
O  O78  1  0.77240000  0.92890000  0.35790000  1.0 -0.6551174278
O  O79  1  0.31380000  0.53430000  0.12300000  1.0 -0.5978600104
O  O80  1  0.53430000  0.12300000  0.31380000  1.0 -0.5978600104
O  O81  1  0.12300000  0.31380000  0.53430000  1.0 -0.5978600104
O  O82  1  0.81380000  0.62300000  0.03430000  1.0 -0.5943951661
O  O83  1  0.03430000  0.81380000  0.62300000  1.0 -0.5978600104
O  O84  1  0.62300000  0.03430000  0.81380000  1.0 -0.5978600104
O  O85  1  0.59666000  0.08076000  0.20206000  1.0 -0.5715142063
O  O86  1  0.08076000  0.20206000  0.59666000  1.0 -0.5715142063
O  O87  1  0.20206000  0.59666000  0.08076000  1.0 -0.5715142063
O  O88  1  0.09666000  0.70206000  0.58076000  1.0 -0.5715142063
O  O89  1  0.58076000  0.09666000  0.70206000  1.0 -0.5715142063
O  O90  1  0.70206000  0.58076000  0.09666000  1.0 -0.5715142063
O  O91  1  0.10530000  0.59250000  0.18600000  1.0 -0.6751397009
O  O92  1  0.59250000  0.18600000  0.10530000  1.0 -0.6751397009
O  O93  1  0.18600000  0.10530000  0.59250000  1.0 -0.6751397009
O  O94  1  0.60530000  0.68600000  0.09250000  1.0 -0.6751397009
O  O95  1  0.09250000  0.60530000  0.68600000  1.0 -0.6751397009
O  O96  1  0.68600000  0.09250000  0.60530000  1.0 -0.6738272662
O  O97  1  0.76920000  0.66690000  0.10900000  1.0 -0.6928603057
O  O98  1  0.66690000  0.10900000  0.76920000  1.0 -0.6928603057
O  O99  1  0.10900000  0.76920000  0.66690000  1.0 -0.6928603057
O  O100  1  0.26920000  0.60900000  0.16690000  1.0 -0.6928603057
O  O101  1  0.16690000  0.26920000  0.60900000  1.0 -0.6928603057
O  O102  1  0.60900000  0.16690000  0.26920000  1.0 -0.6928603057
O  O103  1  0.26050000  0.49750000  0.14800000  1.0 -0.6058777079
O  O104  1  0.49750000  0.14800000  0.26050000  1.0 -0.6058777079
O  O105  1  0.14800000  0.26050000  0.49750000  1.0 -0.6058777079
O  O106  1  0.76050000  0.64800000  0.99750000  1.0 -0.6058777079
O  O107  1  0.99750000  0.76050000  0.64800000  1.0 -0.6058777079
O  O108  1  0.64800000  0.99750000  0.76050000  1.0 -0.6058777079
O  O109  1  0.53570000  0.29440000  0.14160000  1.0 -0.5978600104
O  O110  1  0.29440000  0.14160000  0.53570000  1.0 -0.5978600104
O  O111  1  0.14160000  0.53570000  0.29440000  1.0 -0.5978600104
O  O112  1  0.03570000  0.64160000  0.79440000  1.0 -0.5978600104
O  O113  1  0.79440000  0.03570000  0.64160000  1.0 -0.5978600104
O  O114  1  0.64160000  0.79440000  0.03570000  1.0 -0.5978600104
O  O115  1  0.20670000  0.70310000  0.09460000  1.0 -0.5978600104
O  O116  1  0.70310000  0.09460000  0.20670000  1.0 -0.5978600104
O  O117  1  0.09460000  0.20670000  0.70310000  1.0 -0.5978600104
O  O118  1  0.70670000  0.59460000  0.20310000  1.0 -0.5978600104
O  O119  1  0.20310000  0.70670000  0.59460000  1.0 -0.5978600104
O  O120  1  0.59460000  0.20310000  0.70670000  1.0 -0.5978600104
O  O121  1  0.18970000  0.59550000  0.17120000  1.0 -1.2924836088
O  O122  1  0.59550000  0.17120000  0.18970000  1.0 -1.2924836088
O  O123  1  0.17120000  0.18970000  0.59550000  1.0 -1.2924836088
O  O124  1  0.68970000  0.67120000  0.09550000  1.0 -1.2924836088
O  O125  1  0.09550000  0.68970000  0.67120000  1.0 -1.2924836088
O  O126  1  0.67120000  0.09550000  0.68970000  1.0 -1.2924836088
O  O127  1  0.13100000  0.70410000  0.18160000  1.0 -0.6346196993
O  O128  1  0.70410000  0.18160000  0.13100000  1.0 -0.6346196993
O  O129  1  0.18160000  0.13100000  0.70410000  1.0 -0.6346196993
O  O130  1  0.63100000  0.68160000  0.20410000  1.0 -0.6346196993
O  O131  1  0.20410000  0.63100000  0.68160000  1.0 -0.6346196993
O  O132  1  0.68160000  0.20410000  0.63100000  1.0 -0.6346196993
O  O133  1  0.69620000  0.74710000  0.10120000  1.0 -0.5715142063
O  O134  1  0.74710000  0.10120000  0.69620000  1.0 -0.5715142063
O  O135  1  0.10120000  0.69620000  0.74710000  1.0 -0.5715142063
O  O136  1  0.19620000  0.60120000  0.24710000  1.0 -0.5715142063
O  O137  1  0.24710000  0.19620000  0.60120000  1.0 -0.5715142063
O  O138  1  0.60120000  0.24710000  0.19620000  1.0 -0.5715142063
O  O139  1  0.49450000  0.23980000  0.17410000  1.0 -0.5715142063
O  O140  1  0.23980000  0.17410000  0.49450000  1.0 -0.5715142063
O  O141  1  0.17410000  0.49450000  0.23980000  1.0 -0.5715142063
O  O142  1  0.99450000  0.67410000  0.73980000  1.0 -0.5715142063
O  O143  1  0.73980000  0.99450000  0.67410000  1.0 -0.5715142063
O  O144  1  0.67410000  0.73980000  0.99450000  1.0 -0.5715142063
O  O145  1  0.63130000  0.05160000  0.25130000  1.0 -0.5432049637
O  O146  1  0.05160000  0.25130000  0.63130000  1.0 -0.5432049637
O  O147  1  0.25130000  0.63130000  0.05160000  1.0 -0.5432049637
O  O148  1  0.13130000  0.75130000  0.55160000  1.0 -0.5432049637
O  O149  1  0.55160000  0.13130000  0.75130000  1.0 -0.5432049637
O  O150  1  0.75130000  0.55160000  0.13130000  1.0 -0.5432049637
O  O151  1  0.07110000  0.64210000  0.22760000  1.0 -0.6537767405
O  O152  1  0.64210000  0.22760000  0.07110000  1.0 -0.6551174278
O  O153  1  0.22760000  0.07110000  0.64210000  1.0 -0.6537767405
O  O154  1  0.57110000  0.72760000  0.14210000  1.0 -0.6551174278
O  O155  1  0.14210000  0.57110000  0.72760000  1.0 -0.6551174278
O  O156  1  0.72760000  0.14210000  0.57110000  1.0 -0.6551174278
