# DDEC6 charges by PACMAN v1.1 (https://github.com/mtap-research/PACMAN-charge/)
data_YISVEE_ASR_pacman
_symmetry_space_group_name_H-M   'P 1'
_cell_length_a   18.62240000
_cell_length_b   23.40070000
_cell_length_c   28.51750000
_cell_angle_alpha   90.00000000
_cell_angle_beta   90.00000000
_cell_angle_gamma   90.00000000
_symmetry_Int_Tables_number   1
_chemical_formula_structural   Ca3H24C42(NO6)2
_chemical_formula_sum   'Ca24 H192 C336 N16 O96'
_cell_volume   12427.27617780
_cell_formula_units_Z   8
loop_
 _symmetry_equiv_pos_site_id
 _symmetry_equiv_pos_as_xyz
  1  'x, y, z'
loop_
 _atom_site_type_symbol
 _atom_site_label
 _atom_site_symmetry_multiplicity
 _atom_site_fract_x
 _atom_site_fract_y
 _atom_site_fract_z
 _atom_site_occupancy
 _atom_site_charge
Ca  Ca1  1  0.36579000  0.59663000  0.90309000  1.0 1.4008569639
Ca  Ca2  1  0.18605000  0.69415000  0.93451000  1.0 1.4064278676
Ca  Ca3  1  0.97326000  0.66757000  0.36681000  1.0 1.3578609506
Ca  Ca4  1  0.13256000  0.59028000  0.40198000  1.0 1.4008569639
Ca  Ca5  1  0.31104000  0.68823000  0.43665000  1.0 1.4008569639
Ca  Ca6  1  0.47166000  0.67168000  0.36876000  1.0 1.3578609506
Ca  Ca7  1  0.63421000  0.09663000  0.09691000  1.0 1.4008569639
Ca  Ca8  1  0.81395000  0.19415000  0.06549000  1.0 1.4064278676
Ca  Ca9  1  0.02674000  0.16757000  0.63319000  1.0 1.3578609506
Ca  Ca10  1  0.86744000  0.09028000  0.59802000  1.0 1.4008569639
Ca  Ca11  1  0.68896000  0.18823000  0.56335000  1.0 1.4064278676
Ca  Ca12  1  0.52834000  0.17168000  0.63124000  1.0 1.3578609506
Ca  Ca13  1  0.63421000  0.59663000  0.40309000  1.0 1.4008569639
Ca  Ca14  1  0.81395000  0.69415000  0.43451000  1.0 1.4064278676
Ca  Ca15  1  0.02674000  0.66757000  0.86681000  1.0 1.3536905839
Ca  Ca16  1  0.86744000  0.59028000  0.90198000  1.0 1.4008569639
Ca  Ca17  1  0.68896000  0.68823000  0.93665000  1.0 1.4008569639
Ca  Ca18  1  0.52834000  0.67168000  0.86876000  1.0 1.3578609506
Ca  Ca19  1  0.36579000  0.09663000  0.59691000  1.0 1.4008569639
Ca  Ca20  1  0.18605000  0.19415000  0.56549000  1.0 1.4064278676
Ca  Ca21  1  0.97326000  0.16757000  0.13319000  1.0 1.3578609506
Ca  Ca22  1  0.13256000  0.09028000  0.09802000  1.0 1.4008569639
Ca  Ca23  1  0.31104000  0.18823000  0.06335000  1.0 1.4008569639
Ca  Ca24  1  0.47166000  0.17168000  0.13124000  1.0 1.3578609506
H  H1  1  0.59431000  0.63057000  0.03675000  1.0 0.1200515371
H  H2  1  0.60601000  0.57421000  0.10362000  1.0 0.1108728904
H  H3  1  0.50223000  0.44600000  0.03944000  1.0 0.1297557584
H  H4  1  0.48812000  0.50241000  0.97227000  1.0 0.1200515371
H  H5  1  0.68237000  0.32366000  0.05653000  1.0 0.1108728904
H  H6  1  0.65074000  0.41921000  0.06082000  1.0 0.1297557584
H  H7  1  0.52050000  0.38468000  0.16936000  1.0 0.1200515371
H  H8  1  0.55245000  0.28882000  0.16488000  1.0 0.1200515371
H  H9  1  0.62781000  0.49194000  0.26839000  1.0 0.1108728904
H  H10  1  0.63674000  0.44935000  0.19558000  1.0 0.1200515371
H  H11  1  0.48323000  0.55552000  0.14878000  1.0 0.1200515371
H  H12  1  0.48108000  0.60116000  0.21988000  1.0 0.1108728904
H  H13  1  0.38028000  0.54485000  0.03415000  1.0 0.1045029515
H  H14  1  0.38888000  0.49399000  0.10340000  1.0 0.1200515371
H  H15  1  0.22744000  0.58855000  0.15774000  1.0 0.1297557584
H  H16  1  0.22275000  0.64110000  0.08975000  1.0 0.1108728904
H  H17  1  0.41933000  0.34009000  0.22169000  1.0 0.1200515371
H  H18  1  0.29831000  0.33433000  0.10493000  1.0 0.1108728904
H  H19  1  0.26014000  0.42684000  0.11915000  1.0 0.1200515371
H  H20  1  0.38784000  0.43627000  0.23266000  1.0 0.1297557584
H  H21  1  0.35521000  0.64279000  0.27738000  1.0 0.1297557584
H  H22  1  0.35368000  0.60222000  0.20348000  1.0 0.1200515371
H  H23  1  0.25426000  0.46341000  0.25746000  1.0 0.1200515371
H  H24  1  0.24787000  0.50925000  0.32882000  1.0 0.1200515371
H  H25  1  0.98769000  0.50103000  0.97129000  1.0 0.1200515371
H  H26  1  0.99944000  0.44468000  0.03692000  1.0 0.1297557584
H  H27  1  0.11372000  0.56975000  0.09909000  1.0 0.1200515371
H  H28  1  0.10351000  0.62451000  0.03350000  1.0 0.1200515371
H  H29  1  0.13017000  0.48603000  0.26704000  1.0 0.1045029515
H  H30  1  0.13405000  0.44334000  0.19397000  1.0 0.1200515371
H  H31  1  0.98745000  0.55367000  0.14550000  1.0 0.1200515371
H  H32  1  0.98793000  0.60152000  0.21578000  1.0 0.1108728904
H  H33  1  0.17429000  0.31915000  0.05027000  1.0 0.1108728904
H  H34  1  0.14417000  0.41397000  0.05586000  1.0 0.1297557584
H  H35  1  0.02012000  0.38002000  0.16716000  1.0 0.1200515371
H  H36  1  0.05103000  0.28584000  0.16334000  1.0 0.1200515371
H  H37  1  0.28491000  0.62378000  0.58623000  1.0 0.1108728904
H  H38  1  0.27610000  0.57846000  0.65779000  1.0 0.1297557584
H  H39  1  0.11095000  0.48681000  0.60936000  1.0 0.1200515371
H  H40  1  0.11670000  0.53364000  0.53823000  1.0 0.1108728904
H  H41  1  0.19733000  0.32720000  0.60983000  1.0 0.1108728904
H  H42  1  0.23827000  0.41909000  0.62341000  1.0 0.1200515371
H  H43  1  0.11470000  0.43004000  0.73897000  1.0 0.1297557584
H  H44  1  0.08082000  0.33579000  0.72836000  1.0 0.1200515371
H  H45  1  0.25243000  0.50504000  0.83335000  1.0 0.1200515371
H  H46  1  0.24674000  0.45917000  0.76119000  1.0 0.1200515371
H  H47  1  0.14329000  0.59545000  0.70636000  1.0 0.1200515371
H  H48  1  0.14040000  0.63707000  0.77888000  1.0 0.1297557584
H  H49  1  0.40569000  0.13057000  0.96325000  1.0 0.1200515371
H  H50  1  0.39399000  0.07421000  0.89638000  1.0 0.1108728904
H  H51  1  0.49777000  0.94600000  0.96056000  1.0 0.1297557584
H  H52  1  0.51188000  0.00241000  0.02773000  1.0 0.1200515371
H  H53  1  0.31763000  0.82366000  0.94347000  1.0 0.1108728904
H  H54  1  0.34926000  0.91921000  0.93918000  1.0 0.1297557584
H  H55  1  0.47950000  0.88468000  0.83064000  1.0 0.1200515371
H  H56  1  0.44755000  0.78882000  0.83512000  1.0 0.1200515371
H  H57  1  0.37219000  0.99194000  0.73161000  1.0 0.1108728904
H  H58  1  0.36326000  0.94935000  0.80442000  1.0 0.1200515371
H  H59  1  0.51677000  0.05552000  0.85122000  1.0 0.1200515371
H  H60  1  0.51892000  0.10116000  0.78012000  1.0 0.1108728904
H  H61  1  0.61972000  0.04485000  0.96585000  1.0 0.1045029515
H  H62  1  0.61112000  0.99399000  0.89660000  1.0 0.1200515371
H  H63  1  0.77256000  0.08855000  0.84226000  1.0 0.1297557584
H  H64  1  0.77725000  0.14110000  0.91025000  1.0 0.1108728904
H  H65  1  0.58067000  0.84009000  0.77831000  1.0 0.1200515371
H  H66  1  0.70169000  0.83433000  0.89507000  1.0 0.1108728904
H  H67  1  0.73986000  0.92684000  0.88085000  1.0 0.1200515371
H  H68  1  0.61216000  0.93627000  0.76734000  1.0 0.1297557584
H  H69  1  0.64479000  0.14279000  0.72262000  1.0 0.1297557584
H  H70  1  0.64632000  0.10222000  0.79652000  1.0 0.1200515371
H  H71  1  0.74574000  0.96341000  0.74254000  1.0 0.1200515371
H  H72  1  0.75213000  0.00925000  0.67118000  1.0 0.1200515371
H  H73  1  0.01231000  0.00103000  0.02871000  1.0 0.1200515371
H  H74  1  0.00056000  0.94468000  0.96308000  1.0 0.1297557584
H  H75  1  0.88628000  0.06975000  0.90091000  1.0 0.1200515371
H  H76  1  0.89649000  0.12451000  0.96650000  1.0 0.1200515371
H  H77  1  0.86983000  0.98603000  0.73296000  1.0 0.1045029515
H  H78  1  0.86595000  0.94334000  0.80603000  1.0 0.1200515371
H  H79  1  0.01255000  0.05367000  0.85450000  1.0 0.1200515371
H  H80  1  0.01207000  0.10152000  0.78422000  1.0 0.1108728904
H  H81  1  0.82571000  0.81915000  0.94973000  1.0 0.1108728904
H  H82  1  0.85583000  0.91397000  0.94414000  1.0 0.1297557584
H  H83  1  0.97988000  0.88002000  0.83284000  1.0 0.1200515371
H  H84  1  0.94897000  0.78584000  0.83666000  1.0 0.1200515371
H  H85  1  0.71509000  0.12378000  0.41377000  1.0 0.1108728904
H  H86  1  0.72390000  0.07846000  0.34221000  1.0 0.1297557584
H  H87  1  0.88905000  0.98681000  0.39064000  1.0 0.1200515371
H  H88  1  0.88330000  0.03364000  0.46177000  1.0 0.1108728904
H  H89  1  0.80267000  0.82720000  0.39017000  1.0 0.1108728904
H  H90  1  0.76173000  0.91909000  0.37659000  1.0 0.1200515371
H  H91  1  0.88530000  0.93004000  0.26103000  1.0 0.1297557584
H  H92  1  0.91918000  0.83579000  0.27164000  1.0 0.1200515371
H  H93  1  0.74757000  0.00504000  0.16665000  1.0 0.1200515371
H  H94  1  0.75326000  0.95917000  0.23881000  1.0 0.1200515371
H  H95  1  0.85671000  0.09545000  0.29364000  1.0 0.1200515371
H  H96  1  0.85960000  0.13707000  0.22112000  1.0 0.1297557584
H  H97  1  0.40569000  0.63057000  0.53675000  1.0 0.1200515371
H  H98  1  0.39399000  0.57421000  0.60362000  1.0 0.1108728904
H  H99  1  0.49777000  0.44600000  0.53944000  1.0 0.1297557584
H  H100  1  0.51188000  0.50241000  0.47227000  1.0 0.1200515371
H  H101  1  0.31763000  0.32366000  0.55653000  1.0 0.1108728904
H  H102  1  0.34926000  0.41921000  0.56082000  1.0 0.1297557584
H  H103  1  0.47950000  0.38468000  0.66936000  1.0 0.1200515371
H  H104  1  0.44755000  0.28882000  0.66488000  1.0 0.1200515371
H  H105  1  0.37219000  0.49194000  0.76839000  1.0 0.1108728904
H  H106  1  0.36326000  0.44935000  0.69558000  1.0 0.1200515371
H  H107  1  0.51677000  0.55552000  0.64878000  1.0 0.1200515371
H  H108  1  0.51892000  0.60116000  0.71988000  1.0 0.1108728904
H  H109  1  0.61972000  0.54485000  0.53415000  1.0 0.1045029515
H  H110  1  0.61112000  0.49399000  0.60340000  1.0 0.1200515371
H  H111  1  0.77256000  0.58855000  0.65774000  1.0 0.1297557584
H  H112  1  0.77725000  0.64110000  0.58975000  1.0 0.1108728904
H  H113  1  0.58067000  0.34009000  0.72169000  1.0 0.1200515371
H  H114  1  0.70169000  0.33433000  0.60493000  1.0 0.1108728904
H  H115  1  0.73986000  0.42684000  0.61915000  1.0 0.1200515371
H  H116  1  0.61216000  0.43627000  0.73266000  1.0 0.1297557584
H  H117  1  0.64479000  0.64279000  0.77738000  1.0 0.1297557584
H  H118  1  0.64632000  0.60222000  0.70348000  1.0 0.1200515371
H  H119  1  0.74574000  0.46341000  0.75746000  1.0 0.1200515371
H  H120  1  0.75213000  0.50925000  0.82882000  1.0 0.1200515371
H  H121  1  0.01231000  0.50103000  0.47129000  1.0 0.1200515371
H  H122  1  0.00056000  0.44468000  0.53692000  1.0 0.1297557584
H  H123  1  0.88628000  0.56975000  0.59909000  1.0 0.1200515371
H  H124  1  0.89649000  0.62451000  0.53350000  1.0 0.1200515371
H  H125  1  0.86983000  0.48603000  0.76704000  1.0 0.1045029515
H  H126  1  0.86595000  0.44334000  0.69397000  1.0 0.1200515371
H  H127  1  0.01255000  0.55367000  0.64550000  1.0 0.1200515371
H  H128  1  0.01207000  0.60152000  0.71578000  1.0 0.1108728904
H  H129  1  0.82571000  0.31915000  0.55027000  1.0 0.1108728904
H  H130  1  0.85583000  0.41397000  0.55586000  1.0 0.1297557584
H  H131  1  0.97988000  0.38002000  0.66716000  1.0 0.1200515371
H  H132  1  0.94897000  0.28584000  0.66334000  1.0 0.1200515371
H  H133  1  0.71509000  0.62378000  0.08623000  1.0 0.1108728904
H  H134  1  0.72390000  0.57846000  0.15779000  1.0 0.1297557584
H  H135  1  0.88905000  0.48681000  0.10936000  1.0 0.1200515371
H  H136  1  0.88330000  0.53364000  0.03823000  1.0 0.1108728904
H  H137  1  0.80267000  0.32720000  0.10983000  1.0 0.1108728904
H  H138  1  0.76173000  0.41909000  0.12341000  1.0 0.1200515371
H  H139  1  0.88530000  0.43004000  0.23897000  1.0 0.1297557584
H  H140  1  0.91918000  0.33579000  0.22836000  1.0 0.1200515371
H  H141  1  0.74757000  0.50504000  0.33333333  1.0 0.1200515371
H  H142  1  0.75326000  0.45917000  0.26119000  1.0 0.1200515371
H  H143  1  0.85671000  0.59545000  0.20636000  1.0 0.1200515371
H  H144  1  0.85960000  0.63707000  0.27888000  1.0 0.1297557584
H  H145  1  0.59431000  0.13057000  0.46325000  1.0 0.1200515371
H  H146  1  0.60601000  0.07421000  0.39638000  1.0 0.1108728904
H  H147  1  0.50223000  0.94600000  0.46056000  1.0 0.1297557584
H  H148  1  0.48812000  0.00241000  0.52773000  1.0 0.1200515371
H  H149  1  0.68237000  0.82366000  0.44347000  1.0 0.1108728904
H  H150  1  0.65074000  0.91921000  0.43918000  1.0 0.1297557584
H  H151  1  0.52050000  0.88468000  0.33064000  1.0 0.1200515371
H  H152  1  0.55245000  0.78882000  0.33512000  1.0 0.1200515371
H  H153  1  0.62781000  0.99194000  0.23161000  1.0 0.1108728904
H  H154  1  0.63674000  0.94935000  0.30442000  1.0 0.1200515371
H  H155  1  0.48323000  0.05552000  0.35122000  1.0 0.1200515371
H  H156  1  0.48108000  0.10116000  0.28012000  1.0 0.1108728904
H  H157  1  0.38028000  0.04485000  0.46585000  1.0 0.1045029515
H  H158  1  0.38888000  0.99399000  0.39660000  1.0 0.1200515371
H  H159  1  0.22744000  0.08855000  0.34226000  1.0 0.1297557584
H  H160  1  0.22275000  0.14110000  0.41025000  1.0 0.1108728904
H  H161  1  0.41933000  0.84009000  0.27831000  1.0 0.1200515371
H  H162  1  0.29831000  0.83433000  0.39507000  1.0 0.1108728904
H  H163  1  0.26014000  0.92684000  0.38085000  1.0 0.1200515371
H  H164  1  0.38784000  0.93627000  0.26734000  1.0 0.1297557584
H  H165  1  0.35521000  0.14279000  0.22262000  1.0 0.1297557584
H  H166  1  0.35368000  0.10222000  0.29652000  1.0 0.1200515371
H  H167  1  0.25426000  0.96341000  0.24254000  1.0 0.1200515371
H  H168  1  0.24787000  0.00925000  0.17118000  1.0 0.1200515371
H  H169  1  0.98769000  0.00103000  0.52871000  1.0 0.1200515371
H  H170  1  0.99944000  0.94468000  0.46308000  1.0 0.1297557584
H  H171  1  0.11372000  0.06975000  0.40091000  1.0 0.1200515371
H  H172  1  0.10351000  0.12451000  0.46650000  1.0 0.1200515371
H  H173  1  0.13017000  0.98603000  0.23296000  1.0 0.1045029515
H  H174  1  0.13405000  0.94334000  0.30603000  1.0 0.1200515371
H  H175  1  0.98745000  0.05367000  0.35450000  1.0 0.1200515371
H  H176  1  0.98793000  0.10152000  0.28422000  1.0 0.1108728904
H  H177  1  0.17429000  0.81915000  0.44973000  1.0 0.1108728904
H  H178  1  0.14417000  0.91397000  0.44414000  1.0 0.1297557584
H  H179  1  0.02012000  0.88002000  0.33284000  1.0 0.1200515371
H  H180  1  0.05103000  0.78584000  0.33666000  1.0 0.1200515371
H  H181  1  0.28491000  0.12378000  0.91377000  1.0 0.1108728904
H  H182  1  0.27610000  0.07846000  0.84221000  1.0 0.1297557584
H  H183  1  0.11095000  0.98681000  0.89064000  1.0 0.1200515371
H  H184  1  0.11670000  0.03364000  0.96177000  1.0 0.1108728904
H  H185  1  0.19733000  0.82720000  0.89017000  1.0 0.1108728904
H  H186  1  0.23827000  0.91909000  0.87659000  1.0 0.1200515371
H  H187  1  0.11470000  0.93004000  0.76103000  1.0 0.1297557584
H  H188  1  0.08082000  0.83579000  0.77164000  1.0 0.1200515371
H  H189  1  0.25243000  0.00504000  0.66666667  1.0 0.1200515371
H  H190  1  0.24674000  0.95917000  0.73881000  1.0 0.1200515371
H  H191  1  0.14329000  0.09545000  0.79364000  1.0 0.1200515371
H  H192  1  0.14040000  0.13707000  0.72112000  1.0 0.1297557584
C  C1  1  0.53100000  0.60996000  0.95556000  1.0 0.620083401
C  C2  1  0.53970000  0.57248000  0.99798000  1.0 -0.0479529061
C  C3  1  0.57540000  0.59379000  0.03721000  1.0 -0.0798817404
C  C4  1  0.58280000  0.55979000  0.07730000  1.0 -0.1980305434
C  C5  1  0.55560000  0.50480000  0.07787000  1.0 0.1808328977
C  C6  1  0.52030000  0.48303000  0.03885000  1.0 -0.1980305434
C  C7  1  0.51190000  0.51683000  0.99840000  1.0 -0.0798817404
C  C8  1  0.64020000  0.23296000  0.10753000  1.0 0.6311799034
C  C9  1  0.62010000  0.29578000  0.11005000  1.0 -0.0418465658
C  C10  1  0.64970000  0.33566000  0.07914000  1.0 -0.0901084803
C  C11  1  0.63080000  0.39319000  0.08176000  1.0 -0.1980305434
C  C12  1  0.58280000  0.41169000  0.11528000  1.0 0.1808328977
C  C13  1  0.55290000  0.37249000  0.14668000  1.0 -0.1913014998
C  C14  1  0.57210000  0.31481000  0.14382000  1.0 -0.0798817404
C  C15  1  0.55520000  0.58098000  0.29952000  1.0 0.6093974679
C  C16  1  0.55530000  0.55191000  0.25186000  1.0 -0.0348996774
C  C17  1  0.59990000  0.50572000  0.24382000  1.0 -0.0901084803
C  C18  1  0.60450000  0.47914000  0.20046000  1.0 -0.1980305434
C  C19  1  0.55930000  0.49825000  0.16372000  1.0 0.1808328977
C  C20  1  0.51370000  0.54309000  0.17249000  1.0 -0.1980305434
C  C21  1  0.51180000  0.57030000  0.21538000  1.0 -0.0901084803
C  C22  1  0.29190000  0.62760000  0.00835000  1.0 0.620083401
C  C23  1  0.29830000  0.59801000  0.05379000  1.0 -0.0687467629
C  C24  1  0.34950000  0.55333000  0.05888000  1.0 -0.0798817404
C  C25  1  0.35430000  0.52234000  0.09998000  1.0 -0.1980305434
C  C26  1  0.30510000  0.53454000  0.13723000  1.0 0.1808328977
C  C27  1  0.25770000  0.57933000  0.13292000  1.0 -0.2072483779
C  C28  1  0.25470000  0.61070000  0.09189000  1.0 -0.0798817404
C  C29  1  0.39420000  0.27111000  0.15082000  1.0 0.5790781124
C  C30  1  0.38930000  0.35815000  0.20028000  1.0 -0.0901084803
C  C31  1  0.36360000  0.32799000  0.16148000  1.0 -0.059607531
C  C32  1  0.31580000  0.35426000  0.13073000  1.0 -0.0798817404
C  C33  1  0.29430000  0.41018000  0.13861000  1.0 -0.1980305434
C  C34  1  0.32360000  0.44170000  0.17564000  1.0 0.1893209643
C  C35  1  0.36990000  0.41590000  0.20725000  1.0 -0.2072483779
C  C36  1  0.30280000  0.60677000  0.35808000  1.0 0.6311799034
C  C37  1  0.30150000  0.57989000  0.31113000  1.0 -0.059607531
C  C38  1  0.33380000  0.60728000  0.27303000  1.0 -0.059607531
C  C39  1  0.33450000  0.58251000  0.22887000  1.0 -0.1980305434
C  C40  1  0.30640000  0.52847000  0.22283000  1.0 0.1893209643
C  C41  1  0.27360000  0.49978000  0.26115000  1.0 -0.1913014998
C  C42  1  0.27100000  0.52714000  0.30394000  1.0 -0.0798817404
C  C43  1  0.03385000  0.60709000  0.95316000  1.0 0.6093974679
C  C44  1  0.04220000  0.56945000  0.99523000  1.0 -0.0418465658
C  C45  1  0.01280000  0.51491000  0.99708000  1.0 -0.0798817404
C  C46  1  0.02000000  0.48089000  0.03633000  1.0 -0.1980305434
C  C47  1  0.05890000  0.50128000  0.07593000  1.0 0.1893209643
C  C48  1  0.08860000  0.55559000  0.07343000  1.0 -0.1913014998
C  C49  1  0.08180000  0.58874000  0.03438000  1.0 -0.0687467629
C  C50  1  0.05490000  0.57840000  0.29649000  1.0 0.6033768549
C  C51  1  0.05790000  0.54948000  0.24995000  1.0 -0.0479529061
C  C52  1  0.10250000  0.50049000  0.24261000  1.0 -0.0951600925
C  C53  1  0.10420000  0.47469000  0.19878000  1.0 -0.1980305434
C  C54  1  0.06230000  0.49477000  0.16190000  1.0 0.1808328977
C  C55  1  0.01740000  0.54121000  0.16951000  1.0 -0.1980305434
C  C56  1  0.01640000  0.56919000  0.21208000  1.0 -0.0901084803
C  C57  1  0.13810000  0.22934000  0.10300000  1.0 0.6311799034
C  C58  1  0.11630000  0.29110000  0.10621000  1.0 -0.0418465658
C  C59  1  0.14370000  0.33121000  0.07406000  1.0 -0.0901084803
C  C60  1  0.12560000  0.38819000  0.07751000  1.0 -0.1980305434
C  C61  1  0.08000000  0.40804000  0.11287000  1.0 0.1808328977
C  C62  1  0.05190000  0.36795000  0.14402000  1.0 -0.1913014998
C  C63  1  0.06980000  0.31131000  0.14150000  1.0 -0.0798817404
C  C64  1  0.20860000  0.61160000  0.50717000  1.0 0.620083401
C  C65  1  0.20170000  0.58329000  0.55435000  1.0 -0.0418465658
C  C66  1  0.24960000  0.59622000  0.59085000  1.0 -0.0901084803
C  C67  1  0.24510000  0.56855000  0.63356000  1.0 -0.1913014998
C  C68  1  0.19440000  0.52610000  0.64027000  1.0 0.1727011396
C  C69  1  0.14630000  0.51427000  0.60454000  1.0 -0.1980305434
C  C70  1  0.14950000  0.54230000  0.56177000  1.0 -0.0901084803
C  C71  1  0.10000000  0.26659000  0.65633000  1.0 0.5790781124
C  C72  1  0.13250000  0.32290000  0.66656000  1.0 -0.059607531
C  C73  1  0.18070000  0.34772000  0.63556000  1.0 -0.0798817404
C  C74  1  0.20380000  0.40321000  0.64309000  1.0 -0.1980305434
C  C75  1  0.17600000  0.43530000  0.67972000  1.0 0.1893209643
C  C76  1  0.13060000  0.40965000  0.71297000  1.0 -0.1980305434
C  C77  1  0.11000000  0.35354000  0.70626000  1.0 -0.0901084803
C  C78  1  0.19590000  0.60530000  0.85927000  1.0 0.6311799034
C  C79  1  0.19710000  0.57581000  0.81339000  1.0 -0.0479529061
C  C80  1  0.22950000  0.52238000  0.80812000  1.0 -0.0798817404
C  C81  1  0.22700000  0.49543000  0.76471000  1.0 -0.1980305434
C  C82  1  0.19510000  0.52254000  0.72628000  1.0 0.1893209643
C  C83  1  0.16370000  0.57688000  0.73193000  1.0 -0.1913014998
C  C84  1  0.16330000  0.60207000  0.77489000  1.0 -0.0687467629
C  C85  1  0.46900000  0.10996000  0.04444000  1.0 0.620083401
C  C86  1  0.46030000  0.07248000  0.00202000  1.0 -0.0479529061
C  C87  1  0.42460000  0.09379000  0.96279000  1.0 -0.0798817404
C  C88  1  0.41720000  0.05979000  0.92270000  1.0 -0.1980305434
C  C89  1  0.44440000  0.00480000  0.92213000  1.0 0.1808328977
C  C90  1  0.47970000  0.98303000  0.96115000  1.0 -0.1980305434
C  C91  1  0.48810000  0.01683000  0.00160000  1.0 -0.0798817404
C  C92  1  0.35980000  0.73296000  0.89247000  1.0 0.6311799034
C  C93  1  0.37990000  0.79578000  0.88995000  1.0 -0.0479529061
C  C94  1  0.35030000  0.83566000  0.92086000  1.0 -0.0901084803
C  C95  1  0.36920000  0.89319000  0.91824000  1.0 -0.1980305434
C  C96  1  0.41720000  0.91169000  0.88472000  1.0 0.1808328977
C  C97  1  0.44710000  0.87249000  0.85332000  1.0 -0.1913014998
C  C98  1  0.42790000  0.81481000  0.85618000  1.0 -0.0798817404
C  C99  1  0.44480000  0.08098000  0.70048000  1.0 0.6093974679
C  C100  1  0.44470000  0.05191000  0.74814000  1.0 -0.0348996774
C  C101  1  0.40010000  0.00572000  0.75618000  1.0 -0.0901084803
C  C102  1  0.39550000  0.97914000  0.79954000  1.0 -0.1980305434
C  C103  1  0.44070000  0.99825000  0.83628000  1.0 0.1808328977
C  C104  1  0.48630000  0.04309000  0.82751000  1.0 -0.1980305434
C  C105  1  0.48820000  0.07030000  0.78462000  1.0 -0.0901084803
C  C106  1  0.70810000  0.12760000  0.99165000  1.0 0.620083401
C  C107  1  0.70170000  0.09801000  0.94621000  1.0 -0.0687467629
C  C108  1  0.65050000  0.05333000  0.94112000  1.0 -0.0798817404
C  C109  1  0.64570000  0.02234000  0.90002000  1.0 -0.1980305434
C  C110  1  0.69490000  0.03454000  0.86277000  1.0 0.1808328977
C  C111  1  0.74230000  0.07933000  0.86708000  1.0 -0.2072483779
C  C112  1  0.74530000  0.11070000  0.90811000  1.0 -0.0798817404
C  C113  1  0.60580000  0.77111000  0.84918000  1.0 0.5790781124
C  C114  1  0.61070000  0.85815000  0.79972000  1.0 -0.0901084803
C  C115  1  0.63640000  0.82799000  0.83852000  1.0 -0.059607531
C  C116  1  0.68420000  0.85426000  0.86927000  1.0 -0.0798817404
C  C117  1  0.70570000  0.91018000  0.86139000  1.0 -0.1980305434
C  C118  1  0.67640000  0.94170000  0.82436000  1.0 0.1893209643
C  C119  1  0.63010000  0.91590000  0.79275000  1.0 -0.2072483779
C  C120  1  0.69720000  0.10677000  0.64192000  1.0 0.6311799034
C  C121  1  0.69850000  0.07989000  0.68887000  1.0 -0.059607531
C  C122  1  0.66620000  0.10728000  0.72697000  1.0 -0.059607531
C  C123  1  0.66550000  0.08251000  0.77113000  1.0 -0.1980305434
C  C124  1  0.69360000  0.02847000  0.77717000  1.0 0.1893209643
C  C125  1  0.72640000  0.99978000  0.73885000  1.0 -0.1913014998
C  C126  1  0.72900000  0.02714000  0.69606000  1.0 -0.0798817404
C  C127  1  0.96615000  0.10709000  0.04684000  1.0 0.6093974679
C  C128  1  0.95780000  0.06945000  0.00477000  1.0 -0.0418465658
C  C129  1  0.98720000  0.01491000  0.00292000  1.0 -0.0798817404
C  C130  1  0.98000000  0.98089000  0.96367000  1.0 -0.1980305434
C  C131  1  0.94110000  0.00128000  0.92407000  1.0 0.1893209643
C  C132  1  0.91140000  0.05559000  0.92657000  1.0 -0.1913014998
C  C133  1  0.91820000  0.08874000  0.96562000  1.0 -0.0687467629
C  C134  1  0.94510000  0.07840000  0.70351000  1.0 0.6033768549
C  C135  1  0.94210000  0.04948000  0.75005000  1.0 -0.0479529061
C  C136  1  0.89750000  0.00049000  0.75739000  1.0 -0.0951600925
C  C137  1  0.89580000  0.97469000  0.80122000  1.0 -0.1980305434
C  C138  1  0.93770000  0.99477000  0.83810000  1.0 0.1808328977
C  C139  1  0.98260000  0.04121000  0.83049000  1.0 -0.1980305434
C  C140  1  0.98360000  0.06919000  0.78792000  1.0 -0.0901084803
C  C141  1  0.86190000  0.72934000  0.89700000  1.0 0.6311799034
C  C142  1  0.88370000  0.79110000  0.89379000  1.0 -0.0418465658
C  C143  1  0.85630000  0.83121000  0.92594000  1.0 -0.0951600925
C  C144  1  0.87440000  0.88819000  0.92249000  1.0 -0.1980305434
C  C145  1  0.92000000  0.90804000  0.88713000  1.0 0.1808328977
C  C146  1  0.94810000  0.86795000  0.85598000  1.0 -0.1913014998
C  C147  1  0.93020000  0.81131000  0.85850000  1.0 -0.0798817404
C  C148  1  0.79140000  0.11160000  0.49283000  1.0 0.620083401
C  C149  1  0.79830000  0.08329000  0.44565000  1.0 -0.0418465658
C  C150  1  0.75040000  0.09622000  0.40915000  1.0 -0.0901084803
C  C151  1  0.75490000  0.06855000  0.36644000  1.0 -0.1913014998
C  C152  1  0.80560000  0.02610000  0.35973000  1.0 0.1727011396
C  C153  1  0.85370000  0.01427000  0.39546000  1.0 -0.1980305434
C  C154  1  0.85050000  0.04230000  0.43823000  1.0 -0.0901084803
C  C155  1  0.90000000  0.76659000  0.34367000  1.0 0.5790781124
C  C156  1  0.86750000  0.82290000  0.33344000  1.0 -0.059607531
C  C157  1  0.81930000  0.84772000  0.36444000  1.0 -0.0798817404
C  C158  1  0.79620000  0.90321000  0.35691000  1.0 -0.1980305434
C  C159  1  0.82400000  0.93530000  0.32028000  1.0 0.1893209643
C  C160  1  0.86940000  0.90965000  0.28703000  1.0 -0.1980305434
C  C161  1  0.89000000  0.85354000  0.29374000  1.0 -0.0901084803
C  C162  1  0.80410000  0.10530000  0.14073000  1.0 0.6311799034
C  C163  1  0.80290000  0.07581000  0.18661000  1.0 -0.0479529061
C  C164  1  0.77050000  0.02238000  0.19188000  1.0 -0.0798817404
C  C165  1  0.77300000  0.99543000  0.23529000  1.0 -0.1980305434
C  C166  1  0.80490000  0.02254000  0.27372000  1.0 0.1893209643
C  C167  1  0.83630000  0.07688000  0.26807000  1.0 -0.1913014998
C  C168  1  0.83670000  0.10207000  0.22511000  1.0 -0.0687467629
C  C169  1  0.46900000  0.60996000  0.45556000  1.0 0.620083401
C  C170  1  0.46030000  0.57248000  0.49798000  1.0 -0.0479529061
C  C171  1  0.42460000  0.59379000  0.53721000  1.0 -0.0798817404
C  C172  1  0.41720000  0.55979000  0.57730000  1.0 -0.1980305434
C  C173  1  0.44440000  0.50480000  0.57787000  1.0 0.1808328977
C  C174  1  0.47970000  0.48303000  0.53885000  1.0 -0.1980305434
C  C175  1  0.48810000  0.51683000  0.49840000  1.0 -0.0798817404
C  C176  1  0.35980000  0.23296000  0.60753000  1.0 0.6311799034
C  C177  1  0.37990000  0.29578000  0.61005000  1.0 -0.0479529061
C  C178  1  0.35030000  0.33566000  0.57914000  1.0 -0.0901084803
C  C179  1  0.36920000  0.39319000  0.58176000  1.0 -0.1980305434
C  C180  1  0.41720000  0.41169000  0.61528000  1.0 0.1808328977
C  C181  1  0.44710000  0.37249000  0.64668000  1.0 -0.1913014998
C  C182  1  0.42790000  0.31481000  0.64382000  1.0 -0.0798817404
C  C183  1  0.44480000  0.58098000  0.79952000  1.0 0.6093974679
C  C184  1  0.44470000  0.55191000  0.75186000  1.0 -0.0348996774
C  C185  1  0.40010000  0.50572000  0.74382000  1.0 -0.0901084803
C  C186  1  0.39550000  0.47914000  0.70046000  1.0 -0.1980305434
C  C187  1  0.44070000  0.49825000  0.66372000  1.0 0.1808328977
C  C188  1  0.48630000  0.54309000  0.67249000  1.0 -0.1980305434
C  C189  1  0.48820000  0.57030000  0.71538000  1.0 -0.0901084803
C  C190  1  0.70810000  0.62760000  0.50835000  1.0 0.620083401
C  C191  1  0.70170000  0.59801000  0.55379000  1.0 -0.0687467629
C  C192  1  0.65050000  0.55333000  0.55888000  1.0 -0.0798817404
C  C193  1  0.64570000  0.52234000  0.59998000  1.0 -0.1980305434
C  C194  1  0.69490000  0.53454000  0.63723000  1.0 0.1808328977
C  C195  1  0.74230000  0.57933000  0.63292000  1.0 -0.2072483779
C  C196  1  0.74530000  0.61070000  0.59189000  1.0 -0.0798817404
C  C197  1  0.60580000  0.27111000  0.65082000  1.0 0.5790781124
C  C198  1  0.61070000  0.35815000  0.70028000  1.0 -0.0901084803
C  C199  1  0.63640000  0.32799000  0.66148000  1.0 -0.059607531
C  C200  1  0.68420000  0.35426000  0.63073000  1.0 -0.0798817404
C  C201  1  0.70570000  0.41018000  0.63861000  1.0 -0.1980305434
C  C202  1  0.67640000  0.44170000  0.67564000  1.0 0.1893209643
C  C203  1  0.63010000  0.41590000  0.70725000  1.0 -0.2072483779
C  C204  1  0.69720000  0.60677000  0.85808000  1.0 0.6311799034
C  C205  1  0.69850000  0.57989000  0.81113000  1.0 -0.059607531
C  C206  1  0.66620000  0.60728000  0.77303000  1.0 -0.059607531
C  C207  1  0.66550000  0.58251000  0.72887000  1.0 -0.1980305434
C  C208  1  0.69360000  0.52847000  0.72283000  1.0 0.1893209643
C  C209  1  0.72640000  0.49978000  0.76115000  1.0 -0.1913014998
C  C210  1  0.72900000  0.52714000  0.80394000  1.0 -0.0798817404
C  C211  1  0.96615000  0.60709000  0.45316000  1.0 0.6093974679
C  C212  1  0.95780000  0.56945000  0.49523000  1.0 -0.0418465658
C  C213  1  0.98720000  0.51491000  0.49708000  1.0 -0.0798817404
C  C214  1  0.98000000  0.48089000  0.53633000  1.0 -0.1980305434
C  C215  1  0.94110000  0.50128000  0.57593000  1.0 0.1893209643
C  C216  1  0.91140000  0.55559000  0.57343000  1.0 -0.1913014998
C  C217  1  0.91820000  0.58874000  0.53438000  1.0 -0.0687467629
C  C218  1  0.94510000  0.57840000  0.79649000  1.0 0.6033768549
C  C219  1  0.94210000  0.54948000  0.74995000  1.0 -0.0479529061
C  C220  1  0.89750000  0.50049000  0.74261000  1.0 -0.0951600925
C  C221  1  0.89580000  0.47469000  0.69878000  1.0 -0.1980305434
C  C222  1  0.93770000  0.49477000  0.66190000  1.0 0.1808328977
C  C223  1  0.98260000  0.54121000  0.66951000  1.0 -0.1980305434
C  C224  1  0.98360000  0.56919000  0.71208000  1.0 -0.0901084803
C  C225  1  0.86190000  0.22934000  0.60300000  1.0 0.6311799034
C  C226  1  0.88370000  0.29110000  0.60621000  1.0 -0.0418465658
C  C227  1  0.85630000  0.33121000  0.57406000  1.0 -0.0901084803
C  C228  1  0.87440000  0.38819000  0.57751000  1.0 -0.1980305434
C  C229  1  0.92000000  0.40804000  0.61287000  1.0 0.1808328977
C  C230  1  0.94810000  0.36795000  0.64402000  1.0 -0.1913014998
C  C231  1  0.93020000  0.31131000  0.64150000  1.0 -0.0798817404
C  C232  1  0.79140000  0.61160000  0.00717000  1.0 0.620083401
C  C233  1  0.79830000  0.58329000  0.05435000  1.0 -0.0418465658
C  C234  1  0.75040000  0.59622000  0.09085000  1.0 -0.0901084803
C  C235  1  0.75490000  0.56855000  0.13356000  1.0 -0.1913014998
C  C236  1  0.80560000  0.52610000  0.14027000  1.0 0.1727011396
C  C237  1  0.85370000  0.51427000  0.10454000  1.0 -0.1980305434
C  C238  1  0.85050000  0.54230000  0.06177000  1.0 -0.0901084803
C  C239  1  0.90000000  0.26659000  0.15633000  1.0 0.5790781124
C  C240  1  0.86750000  0.32290000  0.16656000  1.0 -0.059607531
C  C241  1  0.81930000  0.34772000  0.13556000  1.0 -0.0798817404
C  C242  1  0.79620000  0.40321000  0.14309000  1.0 -0.1980305434
C  C243  1  0.82400000  0.43530000  0.17972000  1.0 0.1893209643
C  C244  1  0.86940000  0.40965000  0.21297000  1.0 -0.1980305434
C  C245  1  0.89000000  0.35354000  0.20626000  1.0 -0.0901084803
C  C246  1  0.80410000  0.60530000  0.35927000  1.0 0.6311799034
C  C247  1  0.80290000  0.57581000  0.31339000  1.0 -0.0479529061
C  C248  1  0.77050000  0.52238000  0.30812000  1.0 -0.0798817404
C  C249  1  0.77300000  0.49543000  0.26471000  1.0 -0.1980305434
C  C250  1  0.80490000  0.52254000  0.22628000  1.0 0.1893209643
C  C251  1  0.83630000  0.57688000  0.23193000  1.0 -0.1913014998
C  C252  1  0.83670000  0.60207000  0.27489000  1.0 -0.0687467629
C  C253  1  0.53100000  0.10996000  0.54444000  1.0 0.620083401
C  C254  1  0.53970000  0.07248000  0.50202000  1.0 -0.0479529061
C  C255  1  0.57540000  0.09379000  0.46279000  1.0 -0.0798817404
C  C256  1  0.58280000  0.05979000  0.42270000  1.0 -0.1980305434
C  C257  1  0.55560000  0.00480000  0.42213000  1.0 0.1808328977
C  C258  1  0.52030000  0.98303000  0.46115000  1.0 -0.1980305434
C  C259  1  0.51190000  0.01683000  0.50160000  1.0 -0.0798817404
C  C260  1  0.64020000  0.73296000  0.39247000  1.0 0.6311799034
C  C261  1  0.62010000  0.79578000  0.38995000  1.0 -0.0479529061
C  C262  1  0.64970000  0.83566000  0.42086000  1.0 -0.0901084803
C  C263  1  0.63080000  0.89319000  0.41824000  1.0 -0.1980305434
C  C264  1  0.58280000  0.91169000  0.38472000  1.0 0.1808328977
C  C265  1  0.55290000  0.87249000  0.35332000  1.0 -0.1913014998
C  C266  1  0.57210000  0.81481000  0.35618000  1.0 -0.0798817404
C  C267  1  0.55520000  0.08098000  0.20048000  1.0 0.6093974679
C  C268  1  0.55530000  0.05191000  0.24814000  1.0 -0.0348996774
C  C269  1  0.59990000  0.00572000  0.25618000  1.0 -0.0901084803
C  C270  1  0.60450000  0.97914000  0.29954000  1.0 -0.1980305434
C  C271  1  0.55930000  0.99825000  0.33628000  1.0 0.1808328977
C  C272  1  0.51370000  0.04309000  0.32751000  1.0 -0.1980305434
C  C273  1  0.51180000  0.07030000  0.28462000  1.0 -0.0901084803
C  C274  1  0.29190000  0.12760000  0.49165000  1.0 0.620083401
C  C275  1  0.29830000  0.09801000  0.44621000  1.0 -0.0687467629
C  C276  1  0.34950000  0.05333000  0.44112000  1.0 -0.0798817404
C  C277  1  0.35430000  0.02234000  0.40002000  1.0 -0.1980305434
C  C278  1  0.30510000  0.03454000  0.36277000  1.0 0.1808328977
C  C279  1  0.25770000  0.07933000  0.36708000  1.0 -0.2072483779
C  C280  1  0.25470000  0.11070000  0.40811000  1.0 -0.0798817404
C  C281  1  0.39420000  0.77111000  0.34918000  1.0 0.5790781124
C  C282  1  0.38930000  0.85815000  0.29972000  1.0 -0.0901084803
C  C283  1  0.36360000  0.82799000  0.33852000  1.0 -0.059607531
C  C284  1  0.31580000  0.85426000  0.36927000  1.0 -0.0798817404
C  C285  1  0.29430000  0.91018000  0.36139000  1.0 -0.1980305434
C  C286  1  0.32360000  0.94170000  0.32436000  1.0 0.1893209643
C  C287  1  0.36990000  0.91590000  0.29275000  1.0 -0.2072483779
C  C288  1  0.30280000  0.10677000  0.14192000  1.0 0.6311799034
C  C289  1  0.30150000  0.07989000  0.18887000  1.0 -0.059607531
C  C290  1  0.33380000  0.10728000  0.22697000  1.0 -0.059607531
C  C291  1  0.33450000  0.08251000  0.27113000  1.0 -0.1980305434
C  C292  1  0.30640000  0.02847000  0.27717000  1.0 0.1893209643
C  C293  1  0.27360000  0.99978000  0.23885000  1.0 -0.1913014998
C  C294  1  0.27100000  0.02714000  0.19606000  1.0 -0.0798817404
C  C295  1  0.03385000  0.10709000  0.54684000  1.0 0.6093974679
C  C296  1  0.04220000  0.06945000  0.50477000  1.0 -0.0418465658
C  C297  1  0.01280000  0.01491000  0.50292000  1.0 -0.0798817404
C  C298  1  0.02000000  0.98089000  0.46367000  1.0 -0.1980305434
C  C299  1  0.05890000  0.00128000  0.42407000  1.0 0.1893209643
C  C300  1  0.08860000  0.05559000  0.42657000  1.0 -0.1913014998
C  C301  1  0.08180000  0.08874000  0.46562000  1.0 -0.0687467629
C  C302  1  0.05490000  0.07840000  0.20351000  1.0 0.6033768549
C  C303  1  0.05790000  0.04948000  0.25005000  1.0 -0.0479529061
C  C304  1  0.10250000  0.00049000  0.25739000  1.0 -0.0951600925
C  C305  1  0.10420000  0.97469000  0.30122000  1.0 -0.1980305434
C  C306  1  0.06230000  0.99477000  0.33810000  1.0 0.1808328977
C  C307  1  0.01740000  0.04121000  0.33049000  1.0 -0.1980305434
C  C308  1  0.01640000  0.06919000  0.28792000  1.0 -0.0901084803
C  C309  1  0.13810000  0.72934000  0.39700000  1.0 0.6311799034
C  C310  1  0.11630000  0.79110000  0.39379000  1.0 -0.0418465658
C  C311  1  0.14370000  0.83121000  0.42594000  1.0 -0.0901084803
C  C312  1  0.12560000  0.88819000  0.42249000  1.0 -0.1980305434
C  C313  1  0.08000000  0.90804000  0.38713000  1.0 0.1808328977
C  C314  1  0.05190000  0.86795000  0.35598000  1.0 -0.1913014998
C  C315  1  0.06980000  0.81131000  0.35850000  1.0 -0.0798817404
C  C316  1  0.20860000  0.11160000  0.99283000  1.0 0.620083401
C  C317  1  0.20170000  0.08329000  0.94565000  1.0 -0.0418465658
C  C318  1  0.24960000  0.09622000  0.90915000  1.0 -0.0901084803
C  C319  1  0.24510000  0.06855000  0.86644000  1.0 -0.1913014998
C  C320  1  0.19440000  0.02610000  0.85973000  1.0 0.1727011396
C  C321  1  0.14630000  0.01427000  0.89546000  1.0 -0.1980305434
C  C322  1  0.14950000  0.04230000  0.93823000  1.0 -0.0901084803
C  C323  1  0.10000000  0.76659000  0.84367000  1.0 0.5790781124
C  C324  1  0.13250000  0.82290000  0.83344000  1.0 -0.059607531
C  C325  1  0.18070000  0.84772000  0.86444000  1.0 -0.0798817404
C  C326  1  0.20380000  0.90321000  0.85691000  1.0 -0.1980305434
C  C327  1  0.17600000  0.93530000  0.82028000  1.0 0.1893209643
C  C328  1  0.13060000  0.90965000  0.78703000  1.0 -0.1980305434
C  C329  1  0.11000000  0.85354000  0.79374000  1.0 -0.0901084803
C  C330  1  0.19590000  0.10530000  0.64073000  1.0 0.6311799034
C  C331  1  0.19710000  0.07581000  0.68661000  1.0 -0.0479529061
C  C332  1  0.22950000  0.02238000  0.69188000  1.0 -0.0798817404
C  C333  1  0.22700000  0.99543000  0.73529000  1.0 -0.1980305434
C  C334  1  0.19510000  0.02254000  0.77372000  1.0 0.1893209643
C  C335  1  0.16370000  0.07688000  0.76807000  1.0 -0.1913014998
C  C336  1  0.16330000  0.10207000  0.72511000  1.0 -0.0687467629
N  N1  1  0.06414000  0.46713000  0.11698000  1.0 -0.1980305434
N  N2  1  0.30890000  0.50059000  0.17848000  1.0 -0.1695191593
N  N3  1  0.56319000  0.47073000  0.11908000  1.0 -0.1980305434
N  N4  1  0.19370000  0.49403000  0.68268000  1.0 -0.1779411391
N  N5  1  0.93586000  0.96713000  0.88302000  1.0 -0.1980305434
N  N6  1  0.69110000  0.00059000  0.82152000  1.0 -0.1695191593
N  N7  1  0.43681000  0.97073000  0.88092000  1.0 -0.1980305434
N  N8  1  0.80630000  0.99403000  0.31732000  1.0 -0.1779411391
N  N9  1  0.93586000  0.46713000  0.61698000  1.0 -0.1980305434
N  N10  1  0.69110000  0.50059000  0.67848000  1.0 -0.1695191593
N  N11  1  0.43681000  0.47073000  0.61908000  1.0 -0.1980305434
N  N12  1  0.80630000  0.49403000  0.18268000  1.0 -0.1779411391
N  N13  1  0.06414000  0.96713000  0.38302000  1.0 -0.1980305434
N  N14  1  0.30890000  0.00059000  0.32152000  1.0 -0.1695191593
N  N15  1  0.56319000  0.97073000  0.38092000  1.0 -0.1980305434
N  N16  1  0.19370000  0.99403000  0.81732000  1.0 -0.1779411391
O  O1  1  0.48810000  0.59548000  0.92323000  1.0 -0.6791826635
O  O2  1  0.56860000  0.65577000  0.95272000  1.0 -0.6683313979
O  O3  1  0.50693000  0.61789000  0.30584000  1.0 -0.6201982305
O  O4  1  0.60219000  0.56772000  0.32828000  1.0 -0.6383589214
O  O5  1  0.70389000  0.22138000  0.09599000  1.0 -0.6587900081
O  O6  1  0.59472000  0.19605000  0.11756000  1.0 -0.6505644427
O  O7  1  0.34153000  0.62046000  0.97853000  1.0 -0.6587900081
O  O8  1  0.23597000  0.65691000  0.00170000  1.0 -0.6505644427
O  O9  1  0.38685000  0.25071000  0.10969000  1.0 -0.6791826635
O  O10  1  0.42880000  0.24433000  0.18196000  1.0 -0.5914548815
O  O11  1  0.35460000  0.63859000  0.36735000  1.0 -0.6505644427
O  O12  1  0.25310000  0.59786000  0.38735000  1.0 -0.6587900081
O  O13  1  0.06846000  0.65298000  0.95124000  1.0 -0.6318720833
O  O14  1  0.99165000  0.59110000  0.92100000  1.0 -0.6683313979
O  O15  1  0.20022000  0.21877000  0.08862000  1.0 -0.6505644427
O  O16  1  0.09302000  0.19125000  0.11548000  1.0 -0.6851406501
O  O17  1  0.01003000  0.61709000  0.30231000  1.0 -0.6059589789
O  O18  1  0.10009000  0.56255000  0.32730000  1.0 -0.6683313979
O  O19  1  0.15853000  0.60288000  0.47886000  1.0 -0.6383589214
O  O20  1  0.26410000  0.63965000  0.49964000  1.0 -0.6383589214
O  O21  1  0.10498000  0.24762000  0.61416000  1.0 -0.6791826635
O  O22  1  0.06267000  0.24060000  0.68677000  1.0 -0.5914548815
O  O23  1  0.24406000  0.59586000  0.88928000  1.0 -0.6505644427
O  O24  1  0.14527000  0.63958000  0.86747000  1.0 -0.6587900081
O  O25  1  0.51190000  0.09548000  0.07677000  1.0 -0.6791826635
O  O26  1  0.43140000  0.15577000  0.04728000  1.0 -0.6683313979
O  O27  1  0.49307000  0.11789000  0.69416000  1.0 -0.6201982305
O  O28  1  0.39781000  0.06772000  0.67172000  1.0 -0.6383589214
O  O29  1  0.29611000  0.72138000  0.90401000  1.0 -0.6587900081
O  O30  1  0.40528000  0.69605000  0.88244000  1.0 -0.6505644427
O  O31  1  0.65847000  0.12046000  0.02147000  1.0 -0.6587900081
O  O32  1  0.76403000  0.15691000  0.99830000  1.0 -0.6505644427
O  O33  1  0.61315000  0.75071000  0.89031000  1.0 -0.6791826635
O  O34  1  0.57120000  0.74433000  0.81804000  1.0 -0.5914548815
O  O35  1  0.64540000  0.13859000  0.63265000  1.0 -0.6505644427
O  O36  1  0.74690000  0.09786000  0.61265000  1.0 -0.6587900081
O  O37  1  0.93154000  0.15298000  0.04876000  1.0 -0.6318720833
O  O38  1  0.00835000  0.09110000  0.07900000  1.0 -0.6683313979
O  O39  1  0.79978000  0.71877000  0.91138000  1.0 -0.6505644427
O  O40  1  0.90698000  0.69125000  0.88452000  1.0 -0.6791826635
O  O41  1  0.98997000  0.11709000  0.69769000  1.0 -0.6059589789
O  O42  1  0.89991000  0.06255000  0.67270000  1.0 -0.6587900081
O  O43  1  0.84147000  0.10288000  0.52114000  1.0 -0.6383589214
O  O44  1  0.73590000  0.13965000  0.50036000  1.0 -0.6383589214
O  O45  1  0.89502000  0.74762000  0.38584000  1.0 -0.6791826635
O  O46  1  0.93733000  0.74060000  0.31323000  1.0 -0.5914548815
O  O47  1  0.75594000  0.09586000  0.11072000  1.0 -0.6505644427
O  O48  1  0.85473000  0.13958000  0.13253000  1.0 -0.6587900081
O  O49  1  0.51190000  0.59548000  0.42323000  1.0 -0.6791826635
O  O50  1  0.43140000  0.65577000  0.45272000  1.0 -0.6683313979
O  O51  1  0.49307000  0.61789000  0.80584000  1.0 -0.6201982305
O  O52  1  0.39781000  0.56772000  0.82828000  1.0 -0.6383589214
O  O53  1  0.29611000  0.22138000  0.59599000  1.0 -0.6587900081
O  O54  1  0.40528000  0.19605000  0.61756000  1.0 -0.6505644427
O  O55  1  0.65847000  0.62046000  0.47853000  1.0 -0.6587900081
O  O56  1  0.76403000  0.65691000  0.50170000  1.0 -0.6505644427
O  O57  1  0.61315000  0.25071000  0.60969000  1.0 -0.6791826635
O  O58  1  0.57120000  0.24433000  0.68196000  1.0 -0.5914548815
O  O59  1  0.64540000  0.63859000  0.86735000  1.0 -0.6505644427
O  O60  1  0.74690000  0.59786000  0.88735000  1.0 -0.6587900081
O  O61  1  0.93154000  0.65298000  0.45124000  1.0 -0.6318720833
O  O62  1  0.00835000  0.59110000  0.42100000  1.0 -0.6683313979
O  O63  1  0.79978000  0.21877000  0.58862000  1.0 -0.6505644427
O  O64  1  0.90698000  0.19125000  0.61548000  1.0 -0.6791826635
O  O65  1  0.98997000  0.61709000  0.80231000  1.0 -0.6059589789
O  O66  1  0.89991000  0.56255000  0.82730000  1.0 -0.6683313979
O  O67  1  0.84147000  0.60288000  0.97886000  1.0 -0.6383589214
O  O68  1  0.73590000  0.63965000  0.99964000  1.0 -0.6383589214
O  O69  1  0.89502000  0.24762000  0.11416000  1.0 -0.6791826635
O  O70  1  0.93733000  0.24060000  0.18677000  1.0 -0.5914548815
O  O71  1  0.75594000  0.59586000  0.38928000  1.0 -0.6505644427
O  O72  1  0.85473000  0.63958000  0.36747000  1.0 -0.6587900081
O  O73  1  0.48810000  0.09548000  0.57677000  1.0 -0.6791826635
O  O74  1  0.56860000  0.15577000  0.54728000  1.0 -0.6683313979
O  O75  1  0.50693000  0.11789000  0.19416000  1.0 -0.6201982305
O  O76  1  0.60219000  0.06772000  0.17172000  1.0 -0.6383589214
O  O77  1  0.70389000  0.72138000  0.40401000  1.0 -0.6587900081
O  O78  1  0.59472000  0.69605000  0.38244000  1.0 -0.6505644427
O  O79  1  0.34153000  0.12046000  0.52147000  1.0 -0.6587900081
O  O80  1  0.23597000  0.15691000  0.49830000  1.0 -0.6505644427
O  O81  1  0.38685000  0.75071000  0.39031000  1.0 -0.6791826635
O  O82  1  0.42880000  0.74433000  0.31804000  1.0 -0.5914548815
O  O83  1  0.35460000  0.13859000  0.13265000  1.0 -0.6505644427
O  O84  1  0.25310000  0.09786000  0.11265000  1.0 -0.6587900081
O  O85  1  0.06846000  0.15298000  0.54876000  1.0 -0.6318720833
O  O86  1  0.99165000  0.09110000  0.57900000  1.0 -0.6683313979
O  O87  1  0.20022000  0.71877000  0.41138000  1.0 -0.6505644427
O  O88  1  0.09302000  0.69125000  0.38452000  1.0 -0.6851406501
O  O89  1  0.01003000  0.11709000  0.19769000  1.0 -0.6059589789
O  O90  1  0.10009000  0.06255000  0.17270000  1.0 -0.6683313979
O  O91  1  0.15853000  0.10288000  0.02114000  1.0 -0.6383589214
O  O92  1  0.26410000  0.13965000  0.00036000  1.0 -0.6383589214
O  O93  1  0.10498000  0.74762000  0.88584000  1.0 -0.6791826635
O  O94  1  0.06267000  0.74060000  0.81323000  1.0 -0.5914548815
O  O95  1  0.24406000  0.09586000  0.61072000  1.0 -0.6505644427
O  O96  1  0.14527000  0.13958000  0.63253000  1.0 -0.6587900081
