# DDEC6 charges by PACMAN v1.1 (https://github.com/mtap-research/PACMAN-charge/)
data_YITGOA_FSR_pacman
_symmetry_space_group_name_H-M   'P 1'
_cell_length_a   7.09920000
_cell_length_b   26.33800000
_cell_length_c   29.86370000
_cell_angle_alpha   90.00000000
_cell_angle_beta   97.10020000
_cell_angle_gamma   90.00000000
_symmetry_Int_Tables_number   1
_chemical_formula_structural   MnH13C24N2O5
_chemical_formula_sum   'Mn8 H104 C192 N16 O40'
_cell_volume   5541.05676468
_cell_formula_units_Z   8
loop_
 _symmetry_equiv_pos_site_id
 _symmetry_equiv_pos_as_xyz
  1  'x, y, z'
loop_
 _atom_site_type_symbol
 _atom_site_label
 _atom_site_symmetry_multiplicity
 _atom_site_fract_x
 _atom_site_fract_y
 _atom_site_fract_z
 _atom_site_occupancy
 _atom_site_charge
Mn  Mn1  1  0.15256000  0.05247000  0.24300000  1.0 1.1010507855
Mn  Mn2  1  0.29738000  0.91097000  0.74724000  1.0 0.9622749004
Mn  Mn3  1  0.84744000  0.55247000  0.25700000  1.0 1.1010507855
Mn  Mn4  1  0.70262000  0.41097000  0.75276000  1.0 0.9622749004
Mn  Mn5  1  0.84744000  0.94753000  0.75700000  1.0 1.1010507855
Mn  Mn6  1  0.70262000  0.08903000  0.25276000  1.0 0.9622749004
Mn  Mn7  1  0.15256000  0.44753000  0.74300000  1.0 1.1010507855
Mn  Mn8  1  0.29738000  0.58903000  0.24724000  1.0 0.9622749004
H  H1  1  0.24991000  0.34056000  0.70511000  1.0 0.1191650687
H  H2  1  0.77577000  0.29837000  0.62457000  1.0 0.1191650687
H  H3  1  0.72643000  0.26374000  0.46901000  1.0 0.2724677536
H  H4  1  0.63486000  0.22485000  0.53437000  1.0 0.2724677536
H  H5  1  0.57642000  0.18836000  0.37474000  1.0 0.1191650687
H  H6  1  0.39650000  0.22353000  0.42741000  1.0 0.1191650687
H  H7  1  0.91661000  0.17565000  0.35268000  1.0 0.1293939657
H  H8  1  0.09456000  0.13919000  0.30111000  1.0 0.1293939657
H  H9  1  0.26649000  0.14192000  0.46879000  1.0 0.1293939657
H  H10  1  0.19029000  0.10607000  0.54066000  1.0 0.1293939657
H  H11  1  0.20675000  0.13600000  0.62371000  1.0 0.1191650687
H  H12  1  0.31649000  0.06833000  0.66988000  1.0 0.1191650687
H  H13  1  0.80797000  0.99930000  0.64266000  1.0 0.1293939657
H  H14  1  0.70018000  0.06596000  0.59486000  1.0 0.1191650687
H  H15  1  0.67042000  0.14661000  0.65083000  1.0 0.13564598
H  H16  1  0.41133000  0.20838000  0.65050000  1.0 0.13564598
H  H17  1  0.94823000  0.27929000  0.35242000  1.0 0.13564598
H  H18  1  0.68638000  0.34099000  0.35231000  1.0 0.13564598
H  H19  1  0.66585000  0.42306000  0.40878000  1.0 0.1191650687
H  H20  1  0.15346000  0.35562000  0.38175000  1.0 0.1191650687
H  H21  1  0.04699000  0.42292000  0.33538000  1.0 0.1191650687
H  H22  1  0.18506000  0.38702000  0.46580000  1.0 0.1293939657
H  H23  1  0.10763000  0.35045000  0.53756000  1.0 0.1293939657
H  H24  1  0.56219000  0.48866000  0.36045000  1.0 0.13564598
H  H25  1  0.96206000  0.26622000  0.57189000  1.0 0.1191650687
H  H26  1  0.43501000  0.30867000  0.65312000  1.0 0.1293939657
H  H27  1  0.75009000  0.84056000  0.79489000  1.0 0.1191650687
H  H28  1  0.22423000  0.79837000  0.87543000  1.0 0.1191650687
H  H29  1  0.27357000  0.76374000  0.03099000  1.0 0.2724677536
H  H30  1  0.36514000  0.72485000  0.96563000  1.0 0.2724677536
H  H31  1  0.42358000  0.68836000  0.12526000  1.0 0.1191650687
H  H32  1  0.60350000  0.72353000  0.07259000  1.0 0.1191650687
H  H33  1  0.08339000  0.67565000  0.14732000  1.0 0.1293939657
H  H34  1  0.90544000  0.63919000  0.19889000  1.0 0.1293939657
H  H35  1  0.73351000  0.64192000  0.03121000  1.0 0.1293939657
H  H36  1  0.80971000  0.60607000  0.95934000  1.0 0.1293939657
H  H37  1  0.79325000  0.63600000  0.87629000  1.0 0.1191650687
H  H38  1  0.68351000  0.56833000  0.83012000  1.0 0.1191650687
H  H39  1  0.19203000  0.49930000  0.85734000  1.0 0.1293939657
H  H40  1  0.29982000  0.56596000  0.90514000  1.0 0.1191650687
H  H41  1  0.32958000  0.64661000  0.84917000  1.0 0.13564598
H  H42  1  0.58867000  0.70838000  0.84950000  1.0 0.13564598
H  H43  1  0.05177000  0.77929000  0.14758000  1.0 0.13564598
H  H44  1  0.31362000  0.84099000  0.14769000  1.0 0.13564598
H  H45  1  0.33415000  0.92306000  0.09122000  1.0 0.1191650687
H  H46  1  0.84654000  0.85562000  0.11825000  1.0 0.1191650687
H  H47  1  0.95301000  0.92292000  0.16462000  1.0 0.1191650687
H  H48  1  0.81494000  0.88702000  0.03420000  1.0 0.1293939657
H  H49  1  0.89237000  0.85045000  0.96244000  1.0 0.1293939657
H  H50  1  0.43781000  0.98866000  0.13955000  1.0 0.13564598
H  H51  1  0.03794000  0.76622000  0.92811000  1.0 0.1191650687
H  H52  1  0.56499000  0.80867000  0.84688000  1.0 0.1293939657
H  H53  1  0.75009000  0.65944000  0.29489000  1.0 0.1191650687
H  H54  1  0.22423000  0.70163000  0.37543000  1.0 0.1191650687
H  H55  1  0.27357000  0.73626000  0.53099000  1.0 0.2724677536
H  H56  1  0.36514000  0.77515000  0.46563000  1.0 0.2724677536
H  H57  1  0.42358000  0.81164000  0.62526000  1.0 0.1191650687
H  H58  1  0.60350000  0.77647000  0.57259000  1.0 0.1191650687
H  H59  1  0.08339000  0.82435000  0.64732000  1.0 0.1293939657
H  H60  1  0.90544000  0.86081000  0.69889000  1.0 0.1293939657
H  H61  1  0.73351000  0.85808000  0.53121000  1.0 0.1293939657
H  H62  1  0.80971000  0.89393000  0.45934000  1.0 0.1293939657
H  H63  1  0.79325000  0.86400000  0.37629000  1.0 0.1191650687
H  H64  1  0.68351000  0.93167000  0.33012000  1.0 0.1191650687
H  H65  1  0.19203000  0.00070000  0.35734000  1.0 0.1293939657
H  H66  1  0.29982000  0.93404000  0.40514000  1.0 0.1191650687
H  H67  1  0.32958000  0.85339000  0.34917000  1.0 0.13564598
H  H68  1  0.58867000  0.79162000  0.34950000  1.0 0.13564598
H  H69  1  0.05177000  0.72071000  0.64758000  1.0 0.13564598
H  H70  1  0.31362000  0.65901000  0.64769000  1.0 0.13564598
H  H71  1  0.33415000  0.57694000  0.59122000  1.0 0.1191650687
H  H72  1  0.84654000  0.64438000  0.61825000  1.0 0.1191650687
H  H73  1  0.95301000  0.57708000  0.66462000  1.0 0.1191650687
H  H74  1  0.81494000  0.61298000  0.53420000  1.0 0.1293939657
H  H75  1  0.89237000  0.64955000  0.46244000  1.0 0.1293939657
H  H76  1  0.43781000  0.51134000  0.63955000  1.0 0.13564598
H  H77  1  0.03794000  0.73378000  0.42811000  1.0 0.1191650687
H  H78  1  0.56499000  0.69133000  0.34688000  1.0 0.1293939657
H  H79  1  0.24991000  0.15944000  0.20511000  1.0 0.1191650687
H  H80  1  0.77577000  0.20163000  0.12457000  1.0 0.1191650687
H  H81  1  0.72643000  0.23626000  0.96901000  1.0 0.2724677536
H  H82  1  0.63486000  0.27515000  0.03437000  1.0 0.2724677536
H  H83  1  0.57642000  0.31164000  0.87474000  1.0 0.1191650687
H  H84  1  0.39650000  0.27647000  0.92741000  1.0 0.1191650687
H  H85  1  0.91661000  0.32435000  0.85268000  1.0 0.1293939657
H  H86  1  0.09456000  0.36081000  0.80111000  1.0 0.1293939657
H  H87  1  0.26649000  0.35808000  0.96879000  1.0 0.1293939657
H  H88  1  0.19029000  0.39393000  0.04066000  1.0 0.1293939657
H  H89  1  0.20675000  0.36400000  0.12371000  1.0 0.1191650687
H  H90  1  0.31649000  0.43167000  0.16988000  1.0 0.1191650687
H  H91  1  0.80797000  0.50070000  0.14266000  1.0 0.1293939657
H  H92  1  0.70018000  0.43404000  0.09486000  1.0 0.1191650687
H  H93  1  0.67042000  0.35339000  0.15083000  1.0 0.13564598
H  H94  1  0.41133000  0.29162000  0.15050000  1.0 0.13564598
H  H95  1  0.94823000  0.22071000  0.85242000  1.0 0.13564598
H  H96  1  0.68638000  0.15901000  0.85231000  1.0 0.13564598
H  H97  1  0.66585000  0.07694000  0.90878000  1.0 0.1191650687
H  H98  1  0.15346000  0.14438000  0.88175000  1.0 0.1191650687
H  H99  1  0.04699000  0.07708000  0.83538000  1.0 0.1191650687
H  H100  1  0.18506000  0.11298000  0.96580000  1.0 0.1293939657
H  H101  1  0.10763000  0.14955000  0.03756000  1.0 0.1293939657
H  H102  1  0.56219000  0.01134000  0.86045000  1.0 0.13564598
H  H103  1  0.96206000  0.23378000  0.07189000  1.0 0.1191650687
H  H104  1  0.43501000  0.19133000  0.15312000  1.0 0.1293939657
C  C1  1  0.19106000  0.32632000  0.67766000  1.0 -0.0919261542
C  C2  1  0.34408000  0.26971000  0.57268000  1.0 -0.0791084877
C  C3  1  0.91001000  0.30133000  0.62991000  1.0 -0.1012652602
C  C4  1  0.99411000  0.32484000  0.66891000  1.0 -0.029495351
C  C5  1  0.64938000  0.31199000  0.41748000  1.0 0.1796615515
C  C6  1  0.46695000  0.13306000  0.30125000  1.0 0.5692024145
C  C7  1  0.35233000  0.15852000  0.33333333  1.0 -0.029495351
C  C8  1  0.44225000  0.18479000  0.37075000  1.0 -0.1012652602
C  C9  1  0.33516000  0.20566000  0.40206000  1.0 -0.1497386832
C  C10  1  0.13767000  0.20052000  0.39647000  1.0 0.0853086773
C  C11  1  0.05127000  0.17713000  0.35797000  1.0 -0.1335986939
C  C12  1  0.15702000  0.15584000  0.32702000  1.0 -0.0791084877
C  C13  1  0.01544000  0.21834000  0.43074000  1.0 -0.0729328788
C  C14  1  0.03257000  0.19224000  0.47167000  1.0 0.192049979
C  C15  1  0.16636000  0.15257000  0.48496000  1.0 -0.1719455209
C  C16  1  0.12570000  0.13309000  0.52420000  1.0 -0.1789281585
C  C17  1  0.96407000  0.16117000  0.53667000  1.0 0.192049979
C  C18  1  0.87177000  0.15053000  0.57437000  1.0 -0.0791084877
C  C19  1  0.94373000  0.10785000  0.60423000  1.0 0.0795080683
C  C20  1  0.12530000  0.10801000  0.62710000  1.0 -0.1497386832
C  C21  1  0.19035000  0.06794000  0.65495000  1.0 -0.0919261542
C  C22  1  0.07350000  0.02782000  0.66100000  1.0 -0.0221838762
C  C23  1  0.88956000  0.02705000  0.63856000  1.0 -0.0919261542
C  C24  1  0.82547000  0.06673000  0.61027000  1.0 -0.1497386832
C  C25  1  0.14194000  0.98414000  0.69104000  1.0 0.5628724906
C  C26  1  0.87697000  0.35127000  0.70007000  1.0 0.5751385007
C  C27  1  0.22850000  0.50404000  0.30990000  1.0 0.5692024145
C  C28  1  0.71211000  0.17662000  0.58571000  1.0 0.1796615515
C  C29  1  0.63062000  0.17022000  0.62752000  1.0 -0.1719455209
C  C30  1  0.48927000  0.20371000  0.62717000  1.0 -0.1789281585
C  C31  1  0.47515000  0.23149000  0.58545000  1.0 0.1796615515
C  C32  1  0.33197000  0.29733000  0.53227000  1.0 0.1999606329
C  C33  1  0.40230000  0.32950000  0.46800000  1.0 0.1796615515
C  C34  1  0.49195000  0.33896000  0.42985000  1.0 -0.0729328788
C  C35  1  0.88370000  0.25654000  0.41770000  1.0 0.1796615515
C  C36  1  0.87049000  0.28402000  0.37579000  1.0 -0.1789281585
C  C37  1  0.72775000  0.31768000  0.37575000  1.0 -0.1789281585
C  C38  1  0.54050000  0.42241000  0.39340000  1.0 -0.1405256905
C  C39  1  0.23722000  0.38289000  0.37762000  1.0 -0.1497386832
C  C40  1  0.17423000  0.42253000  0.34963000  1.0 -0.0919261542
C  C41  1  0.29745000  0.46223000  0.34215000  1.0 -0.0221838762
C  C42  1  0.24612000  0.35900000  0.48152000  1.0 -0.1719455209
C  C43  1  0.20434000  0.33902000  0.52064000  1.0 -0.1789281585
C  C44  1  0.47813000  0.46151000  0.36473000  1.0 -0.0919261542
C  C45  1  0.42107000  0.38200000  0.39997000  1.0 0.0795080683
C  C46  1  0.02062000  0.28208000  0.59862000  1.0 -0.1497386832
C  C47  1  0.30064000  0.30732000  0.64684000  1.0 -0.1405256905
C  C48  1  0.21770000  0.28607000  0.60650000  1.0 0.0853086773
C  C49  1  0.80894000  0.82632000  0.82234000  1.0 -0.0919261542
C  C50  1  0.65592000  0.76971000  0.92732000  1.0 -0.0791084877
C  C51  1  0.08999000  0.80133000  0.87009000  1.0 -0.1012652602
C  C52  1  0.00589000  0.82484000  0.83109000  1.0 -0.029495351
C  C53  1  0.35062000  0.81199000  0.08252000  1.0 0.1796615515
C  C54  1  0.53305000  0.63306000  0.19875000  1.0 0.5692024145
C  C55  1  0.64767000  0.65852000  0.16667000  1.0 -0.029495351
C  C56  1  0.55775000  0.68479000  0.12925000  1.0 -0.1012652602
C  C57  1  0.66484000  0.70566000  0.09794000  1.0 -0.1497386832
C  C58  1  0.86233000  0.70052000  0.10353000  1.0 0.0853086773
C  C59  1  0.94873000  0.67713000  0.14203000  1.0 -0.1335986939
C  C60  1  0.84298000  0.65584000  0.17298000  1.0 -0.0791084877
C  C61  1  0.98456000  0.71834000  0.06926000  1.0 -0.0729328788
C  C62  1  0.96743000  0.69224000  0.02833000  1.0 0.192049979
C  C63  1  0.83364000  0.65257000  0.01504000  1.0 -0.1719455209
C  C64  1  0.87430000  0.63309000  0.97580000  1.0 -0.1789281585
C  C65  1  0.03593000  0.66117000  0.96333000  1.0 0.192049979
C  C66  1  0.12823000  0.65053000  0.92563000  1.0 -0.0791084877
C  C67  1  0.05627000  0.60785000  0.89577000  1.0 0.0795080683
C  C68  1  0.87470000  0.60801000  0.87290000  1.0 -0.1497386832
C  C69  1  0.80965000  0.56794000  0.84505000  1.0 -0.0919261542
C  C70  1  0.92650000  0.52782000  0.83900000  1.0 -0.0221838762
C  C71  1  0.11044000  0.52705000  0.86144000  1.0 -0.0919261542
C  C72  1  0.17453000  0.56673000  0.88973000  1.0 -0.1497386832
C  C73  1  0.85806000  0.48414000  0.80896000  1.0 0.5628724906
C  C74  1  0.12303000  0.85127000  0.79993000  1.0 0.5751385007
C  C75  1  0.77150000  0.00404000  0.19010000  1.0 0.5692024145
C  C76  1  0.28789000  0.67662000  0.91429000  1.0 0.1796615515
C  C77  1  0.36938000  0.67022000  0.87248000  1.0 -0.1719455209
C  C78  1  0.51073000  0.70371000  0.87283000  1.0 -0.1789281585
C  C79  1  0.52485000  0.73149000  0.91455000  1.0 0.1796615515
C  C80  1  0.66803000  0.79733000  0.96773000  1.0 0.1999606329
C  C81  1  0.59770000  0.82950000  0.03200000  1.0 0.1796615515
C  C82  1  0.50805000  0.83896000  0.07015000  1.0 -0.0729328788
C  C83  1  0.11630000  0.75654000  0.08230000  1.0 0.1796615515
C  C84  1  0.12951000  0.78402000  0.12421000  1.0 -0.1789281585
C  C85  1  0.27225000  0.81768000  0.12425000  1.0 -0.1789281585
C  C86  1  0.45950000  0.92241000  0.10660000  1.0 -0.1405256905
C  C87  1  0.76278000  0.88289000  0.12238000  1.0 -0.1497386832
C  C88  1  0.82577000  0.92253000  0.15037000  1.0 -0.0919261542
C  C89  1  0.70255000  0.96223000  0.15785000  1.0 -0.0221838762
C  C90  1  0.75388000  0.85900000  0.01848000  1.0 -0.1719455209
C  C91  1  0.79566000  0.83902000  0.97936000  1.0 -0.1789281585
C  C92  1  0.52187000  0.96151000  0.13527000  1.0 -0.0919261542
C  C93  1  0.57893000  0.88200000  0.10003000  1.0 0.0795080683
C  C94  1  0.97938000  0.78208000  0.90138000  1.0 -0.1497386832
C  C95  1  0.69936000  0.80732000  0.85316000  1.0 -0.1405256905
C  C96  1  0.78230000  0.78607000  0.89350000  1.0 0.0795080683
C  C97  1  0.80894000  0.67368000  0.32234000  1.0 -0.0919261542
C  C98  1  0.65592000  0.73029000  0.42732000  1.0 -0.0791084877
C  C99  1  0.08999000  0.69867000  0.37009000  1.0 -0.1012652602
C  C100  1  0.00589000  0.67516000  0.33109000  1.0 -0.029495351
C  C101  1  0.35062000  0.68801000  0.58252000  1.0 0.1796615515
C  C102  1  0.53305000  0.86694000  0.69875000  1.0 0.5692024145
C  C103  1  0.64767000  0.84148000  0.66666667  1.0 -0.029495351
C  C104  1  0.55775000  0.81521000  0.62925000  1.0 -0.1012652602
C  C105  1  0.66484000  0.79434000  0.59794000  1.0 -0.1497386832
C  C106  1  0.86233000  0.79948000  0.60353000  1.0 0.0853086773
C  C107  1  0.94873000  0.82287000  0.64203000  1.0 -0.1335986939
C  C108  1  0.84298000  0.84416000  0.67298000  1.0 -0.0791084877
C  C109  1  0.98456000  0.78166000  0.56926000  1.0 -0.0729328788
C  C110  1  0.96743000  0.80776000  0.52833000  1.0 0.192049979
C  C111  1  0.83364000  0.84743000  0.51504000  1.0 -0.1719455209
C  C112  1  0.87430000  0.86691000  0.47580000  1.0 -0.1789281585
C  C113  1  0.03593000  0.83883000  0.46333000  1.0 0.192049979
C  C114  1  0.12823000  0.84947000  0.42563000  1.0 -0.0791084877
C  C115  1  0.05627000  0.89215000  0.39577000  1.0 0.0795080683
C  C116  1  0.87470000  0.89199000  0.37290000  1.0 -0.1497386832
C  C117  1  0.80965000  0.93206000  0.34505000  1.0 -0.0919261542
C  C118  1  0.92650000  0.97218000  0.33900000  1.0 -0.0221838762
C  C119  1  0.11044000  0.97295000  0.36144000  1.0 -0.0919261542
C  C120  1  0.17453000  0.93327000  0.38973000  1.0 -0.1497386832
C  C121  1  0.85806000  0.01586000  0.30896000  1.0 0.5628724906
C  C122  1  0.12303000  0.64873000  0.29993000  1.0 0.5751385007
C  C123  1  0.77150000  0.49596000  0.69010000  1.0 0.5692024145
C  C124  1  0.28789000  0.82338000  0.41429000  1.0 0.1796615515
C  C125  1  0.36938000  0.82978000  0.37248000  1.0 -0.1719455209
C  C126  1  0.51073000  0.79629000  0.37283000  1.0 -0.1789281585
C  C127  1  0.52485000  0.76851000  0.41455000  1.0 0.1796615515
C  C128  1  0.66803000  0.70267000  0.46773000  1.0 0.1999606329
C  C129  1  0.59770000  0.67050000  0.53200000  1.0 0.1796615515
C  C130  1  0.50805000  0.66104000  0.57015000  1.0 -0.0729328788
C  C131  1  0.11630000  0.74346000  0.58230000  1.0 0.1796615515
C  C132  1  0.12951000  0.71598000  0.62421000  1.0 -0.1789281585
C  C133  1  0.27225000  0.68232000  0.62425000  1.0 -0.1789281585
C  C134  1  0.45950000  0.57759000  0.60660000  1.0 -0.1405256905
C  C135  1  0.76278000  0.61711000  0.62238000  1.0 -0.1497386832
C  C136  1  0.82577000  0.57747000  0.65037000  1.0 -0.0919261542
C  C137  1  0.70255000  0.53777000  0.65785000  1.0 -0.0221838762
C  C138  1  0.75388000  0.64100000  0.51848000  1.0 -0.1719455209
C  C139  1  0.79566000  0.66098000  0.47936000  1.0 -0.1789281585
C  C140  1  0.52187000  0.53849000  0.63527000  1.0 -0.0919261542
C  C141  1  0.57893000  0.61800000  0.60003000  1.0 0.0795080683
C  C142  1  0.97938000  0.71792000  0.40138000  1.0 -0.1497386832
C  C143  1  0.69936000  0.69268000  0.35316000  1.0 -0.1405256905
C  C144  1  0.78230000  0.71393000  0.39350000  1.0 0.0853086773
C  C145  1  0.19106000  0.17368000  0.17766000  1.0 -0.0919261542
C  C146  1  0.34408000  0.23029000  0.07268000  1.0 -0.0791084877
C  C147  1  0.91001000  0.19867000  0.12991000  1.0 -0.1012652602
C  C148  1  0.99411000  0.17516000  0.16891000  1.0 -0.029495351
C  C149  1  0.64938000  0.18801000  0.91748000  1.0 0.1796615515
C  C150  1  0.46695000  0.36694000  0.80125000  1.0 0.5692024145
C  C151  1  0.35233000  0.34148000  0.83333000  1.0 -0.029495351
C  C152  1  0.44225000  0.31521000  0.87075000  1.0 -0.1012652602
C  C153  1  0.33516000  0.29434000  0.90206000  1.0 -0.1497386832
C  C154  1  0.13767000  0.29948000  0.89647000  1.0 0.0853086773
C  C155  1  0.05127000  0.32287000  0.85797000  1.0 -0.1335986939
C  C156  1  0.15702000  0.34416000  0.82702000  1.0 -0.0791084877
C  C157  1  0.01544000  0.28166000  0.93074000  1.0 -0.0729328788
C  C158  1  0.03257000  0.30776000  0.97167000  1.0 0.192049979
C  C159  1  0.16636000  0.34743000  0.98496000  1.0 -0.1719455209
C  C160  1  0.12570000  0.36691000  0.02420000  1.0 -0.1789281585
C  C161  1  0.96407000  0.33883000  0.03667000  1.0 0.192049979
C  C162  1  0.87177000  0.34947000  0.07437000  1.0 -0.0791084877
C  C163  1  0.94373000  0.39215000  0.10423000  1.0 0.0795080683
C  C164  1  0.12530000  0.39199000  0.12710000  1.0 -0.1497386832
C  C165  1  0.19035000  0.43206000  0.15495000  1.0 -0.0919261542
C  C166  1  0.07350000  0.47218000  0.16100000  1.0 -0.0221838762
C  C167  1  0.88956000  0.47295000  0.13856000  1.0 -0.0919261542
C  C168  1  0.82547000  0.43327000  0.11027000  1.0 -0.1497386832
C  C169  1  0.14194000  0.51586000  0.19104000  1.0 0.5628724906
C  C170  1  0.87697000  0.14873000  0.20007000  1.0 0.5751385007
C  C171  1  0.22850000  0.99596000  0.80990000  1.0 0.5692024145
C  C172  1  0.71211000  0.32338000  0.08571000  1.0 0.1796615515
C  C173  1  0.63062000  0.32978000  0.12752000  1.0 -0.1719455209
C  C174  1  0.48927000  0.29629000  0.12717000  1.0 -0.1789281585
C  C175  1  0.47515000  0.26851000  0.08545000  1.0 0.1796615515
C  C176  1  0.33197000  0.20267000  0.03227000  1.0 0.1999606329
C  C177  1  0.40230000  0.17050000  0.96800000  1.0 0.1796615515
C  C178  1  0.49195000  0.16104000  0.92985000  1.0 -0.0729328788
C  C179  1  0.88370000  0.24346000  0.91770000  1.0 0.1796615515
C  C180  1  0.87049000  0.21598000  0.87579000  1.0 -0.1789281585
C  C181  1  0.72775000  0.18232000  0.87575000  1.0 -0.1789281585
C  C182  1  0.54050000  0.07759000  0.89340000  1.0 -0.1405256905
C  C183  1  0.23722000  0.11711000  0.87762000  1.0 -0.1497386832
C  C184  1  0.17423000  0.07747000  0.84963000  1.0 -0.0919261542
C  C185  1  0.29745000  0.03777000  0.84215000  1.0 -0.0221838762
C  C186  1  0.24612000  0.14100000  0.98152000  1.0 -0.1719455209
C  C187  1  0.20434000  0.16098000  0.02064000  1.0 -0.1789281585
C  C188  1  0.47813000  0.03849000  0.86473000  1.0 -0.0919261542
C  C189  1  0.42107000  0.11800000  0.89997000  1.0 0.0795080683
C  C190  1  0.02062000  0.21792000  0.09862000  1.0 -0.1497386832
C  C191  1  0.30064000  0.19268000  0.14684000  1.0 -0.1405256905
C  C192  1  0.21770000  0.21393000  0.10650000  1.0 0.0853086773
N  N1  1  0.91247000  0.19711000  0.50457000  1.0 -0.4299757753
N  N2  1  0.44952000  0.29221000  0.49952000  1.0 -0.4299757753
N  N3  1  0.74746000  0.27443000  0.44216000  1.0 -0.2764487911
N  N4  1  0.61343000  0.21396000  0.56113000  1.0 -0.2764487911
N  N5  1  0.08753000  0.69711000  0.99543000  1.0 -0.4299757753
N  N6  1  0.55048000  0.79221000  0.00048000  1.0 -0.4299757753
N  N7  1  0.25254000  0.77443000  0.05784000  1.0 -0.2764487911
N  N8  1  0.38657000  0.71396000  0.93887000  1.0 -0.2764487911
N  N9  1  0.08753000  0.80289000  0.49543000  1.0 -0.4299757753
N  N10  1  0.55048000  0.70779000  0.50048000  1.0 -0.4299757753
N  N11  1  0.25254000  0.72557000  0.55784000  1.0 -0.2764487911
N  N12  1  0.38657000  0.78604000  0.43887000  1.0 -0.2764487911
N  N13  1  0.91247000  0.30289000  0.00457000  1.0 -0.4299757753
N  N14  1  0.44952000  0.20779000  0.99952000  1.0 -0.4299757753
N  N15  1  0.74746000  0.22557000  0.94216000  1.0 -0.2764487911
N  N16  1  0.61343000  0.28604000  0.06113000  1.0 -0.2764487911
O  O1  1  0.32417000  0.98843000  0.26647000  1.0 -0.1789281585
O  O2  1  0.27414000  0.05748000  0.18064000  1.0 -0.1719455209
O  O3  1  0.02351000  0.95156000  0.70131000  1.0 -0.5721150127
O  O4  1  0.70310000  0.34448000  0.69790000  1.0 -0.4999664512
O  O5  1  0.31465000  0.98032000  0.70515000  1.0 -0.4641419288
O  O6  1  0.06098000  0.50240000  0.29158000  1.0 -0.5519979682
O  O7  1  0.39036000  0.10285000  0.27086000  1.0 -0.5519979682
O  O8  1  0.64264000  0.14101000  0.30484000  1.0 -0.5114090529
O  O9  1  0.96162000  0.38245000  0.72862000  1.0 -0.5890955415
O  O10  1  0.34679000  0.53929000  0.30379000  1.0 -0.4924475339
O  O11  1  0.67583000  0.48843000  0.23353000  1.0 -0.1789281585
O  O12  1  0.72586000  0.55748000  0.31936000  1.0 -0.1719455209
O  O13  1  0.97649000  0.45156000  0.79869000  1.0 -0.5721150127
O  O14  1  0.29690000  0.84448000  0.80210000  1.0 -0.4999664512
O  O15  1  0.68535000  0.48032000  0.79485000  1.0 -0.4641419288
O  O16  1  0.93902000  0.00240000  0.20842000  1.0 -0.5519979682
O  O17  1  0.60964000  0.60285000  0.22914000  1.0 -0.5519979682
O  O18  1  0.35736000  0.64101000  0.19516000  1.0 -0.5114090529
O  O19  1  0.03838000  0.88245000  0.77138000  1.0 -0.5890955415
O  O20  1  0.65321000  0.03929000  0.19621000  1.0 -0.4924475339
O  O21  1  0.67583000  0.01157000  0.73353000  1.0 -0.1789281585
O  O22  1  0.72586000  0.94252000  0.81936000  1.0 -0.1719455209
O  O23  1  0.97649000  0.04844000  0.29869000  1.0 -0.5721150127
O  O24  1  0.29690000  0.65552000  0.30210000  1.0 -0.4999664512
O  O25  1  0.68535000  0.01968000  0.29485000  1.0 -0.4641419288
O  O26  1  0.93902000  0.49760000  0.70842000  1.0 -0.5519979682
O  O27  1  0.60964000  0.89715000  0.72914000  1.0 -0.5519979682
O  O28  1  0.35736000  0.85899000  0.69516000  1.0 -0.5114090529
O  O29  1  0.03838000  0.61755000  0.27138000  1.0 -0.5890955415
O  O30  1  0.65321000  0.46071000  0.69621000  1.0 -0.4924475339
O  O31  1  0.32417000  0.51157000  0.76647000  1.0 -0.1789281585
O  O32  1  0.27414000  0.44252000  0.68064000  1.0 -0.1719455209
O  O33  1  0.02351000  0.54844000  0.20131000  1.0 -0.5721150127
O  O34  1  0.70310000  0.15552000  0.19790000  1.0 -0.4999664512
O  O35  1  0.31465000  0.51968000  0.20515000  1.0 -0.4641419288
O  O36  1  0.06098000  0.99760000  0.79158000  1.0 -0.5519979682
O  O37  1  0.39036000  0.39715000  0.77086000  1.0 -0.5519979682
O  O38  1  0.64264000  0.35899000  0.80484000  1.0 -0.5114090529
O  O39  1  0.96162000  0.11755000  0.22862000  1.0 -0.5890955415
O  O40  1  0.34679000  0.96071000  0.80379000  1.0 -0.4924475339
