# DDEC6 charges by PACMAN v1.1 (https://github.com/mtap-research/PACMAN-charge/)
data_YIVNIC_ASR_pacman
_symmetry_space_group_name_H-M   'P 1'
_cell_length_a   16.24340000
_cell_length_b   16.24340000
_cell_length_c   11.57440000
_cell_angle_alpha   74.49510000
_cell_angle_beta   105.50500000
_cell_angle_gamma   139.18700000
_symmetry_Int_Tables_number   1
_chemical_formula_structural   V2CuH12C15N3O4
_chemical_formula_sum   'V8 Cu4 H48 C60 N12 O16'
_cell_volume   1913.08410231
_cell_formula_units_Z   4
loop_
 _symmetry_equiv_pos_site_id
 _symmetry_equiv_pos_as_xyz
  1  'x, y, z'
loop_
 _atom_site_type_symbol
 _atom_site_label
 _atom_site_symmetry_multiplicity
 _atom_site_fract_x
 _atom_site_fract_y
 _atom_site_fract_z
 _atom_site_occupancy
 _atom_site_charge
V  V1  1  0.94617000  0.23579000  0.06031000  1.0 1.7521417148
V  V2  1  0.23579000  0.94617000  0.43969000  1.0 1.7521417148
V  V3  1  0.05383000  0.76421000  0.93969000  1.0 1.7557203266
V  V4  1  0.76421000  0.05383000  0.56031000  1.0 1.7521417148
V  V5  1  0.80301000  0.01819000  0.31828000  1.0 1.7521417148
V  V6  1  0.01819000  0.80301000  0.18172000  1.0 1.7521417148
V  V7  1  0.19699000  0.98181000  0.68172000  1.0 1.7521417148
V  V8  1  0.98181000  0.19699000  0.81828000  1.0 1.7521417148
Cu  Cu1  1  0.00000000  0.50000000  0.00000000  1.0 0.7064882013
Cu  Cu2  1  0.50000000  0.00000000  0.50000000  1.0 0.7064882013
Cu  Cu3  1  0.00000000  0.00000000  0.50000000  1.0 0.6140295956
Cu  Cu4  1  0.00000000  0.00000000  0.00000000  1.0 0.6200711224
H  H1  1  0.13180000  0.68760000  0.19180000  1.0 0.0811513523
H  H2  1  0.68760000  0.13180000  0.30820000  1.0 0.0811513523
H  H3  1  0.86820000  0.31240000  0.80820000  1.0 0.0811513523
H  H4  1  0.31240000  0.86820000  0.69180000  1.0 0.0811513523
H  H5  1  0.92900000  0.32860000  0.25090000  1.0 0.0894583764
H  H6  1  0.32860000  0.92900000  0.24910000  1.0 0.0894583764
H  H7  1  0.07100000  0.67140000  0.74910000  1.0 0.0894583764
H  H8  1  0.67140000  0.07100000  0.75090000  1.0 0.0894583764
H  H9  1  0.12110000  0.69010000  0.38580000  1.0 0.1104109281
H  H10  1  0.69010000  0.12110000  0.11420000  1.0 0.1104109281
H  H11  1  0.87890000  0.30990000  0.61420000  1.0 0.1104109281
H  H12  1  0.30990000  0.87890000  0.88580000  1.0 0.1104109281
H  H13  1  0.90880000  0.31860000  0.44580000  1.0 0.1159515772
H  H14  1  0.31860000  0.90880000  0.05420000  1.0 0.1159515772
H  H15  1  0.09120000  0.68140000  0.55420000  1.0 0.1159515772
H  H16  1  0.68140000  0.09120000  0.94580000  1.0 0.1159515772
H  H17  1  0.10900000  0.23540000  0.31700000  1.0 0.0811513523
H  H18  1  0.23540000  0.10900000  0.18300000  1.0 0.0811513523
H  H19  1  0.89100000  0.76460000  0.68300000  1.0 0.0811513523
H  H20  1  0.76460000  0.89100000  0.81700000  1.0 0.0811513523
H  H21  1  0.13120000  0.19320000  0.66980000  1.0 0.0894583764
H  H22  1  0.19320000  0.13120000  0.83020000  1.0 0.0894583764
H  H23  1  0.86880000  0.80680000  0.33020000  1.0 0.0894583764
H  H24  1  0.80680000  0.86880000  0.16980000  1.0 0.0894583764
H  H25  1  0.21130000  0.43950000  0.30960000  1.0 0.1104109281
H  H26  1  0.43950000  0.21130000  0.19040000  1.0 0.1104109281
H  H27  1  0.78870000  0.56050000  0.69040000  1.0 0.1104109281
H  H28  1  0.56050000  0.78870000  0.80960000  1.0 0.1104109281
H  H29  1  0.23380000  0.39340000  0.67430000  1.0 0.1033952962
H  H30  1  0.39340000  0.23380000  0.82570000  1.0 0.1033952962
H  H31  1  0.76620000  0.60660000  0.32570000  1.0 0.1033952962
H  H32  1  0.60660000  0.76620000  0.17430000  1.0 0.1033952962
H  H33  1  0.40030000  0.65790000  0.35130000  1.0 0.1104109281
H  H34  1  0.65790000  0.40030000  0.14870000  1.0 0.1104109281
H  H35  1  0.59970000  0.34210000  0.64870000  1.0 0.1104109281
H  H36  1  0.34210000  0.59970000  0.85130000  1.0 0.1104109281
H  H37  1  0.21870000  0.53010000  0.63960000  1.0 0.1033952962
H  H38  1  0.53010000  0.21870000  0.86040000  1.0 0.1033952962
H  H39  1  0.78130000  0.46990000  0.36040000  1.0 0.1033952962
H  H40  1  0.46990000  0.78130000  0.13960000  1.0 0.1033952962
H  H41  1  0.49550000  0.85570000  0.36130000  1.0 0.0723011782
H  H42  1  0.85570000  0.49550000  0.13870000  1.0 0.0723011782
H  H43  1  0.50450000  0.14430000  0.63870000  1.0 0.0723011782
H  H44  1  0.14430000  0.50450000  0.86130000  1.0 0.0723011782
H  H45  1  0.31270000  0.72930000  0.63600000  1.0 0.0894583764
H  H46  1  0.72930000  0.31270000  0.86400000  1.0 0.0894583764
H  H47  1  0.68730000  0.27070000  0.36400000  1.0 0.0894583764
H  H48  1  0.27070000  0.68730000  0.13600000  1.0 0.0894583764
C  C1  1  0.08503000  0.61097000  0.24390000  1.0 0.0368394367
C  C2  1  0.61097000  0.08503000  0.25610000  1.0 0.0368394367
C  C3  1  0.91497000  0.38903000  0.75610000  1.0 0.0368394367
C  C4  1  0.38903000  0.91497000  0.74390000  1.0 0.0368394367
C  C5  1  0.96714000  0.40286000  0.27780000  1.0 0.0600987747
C  C6  1  0.40286000  0.96714000  0.22220000  1.0 0.0600987747
C  C7  1  0.03286000  0.59714000  0.72220000  1.0 0.0600987747
C  C8  1  0.59714000  0.03286000  0.77780000  1.0 0.0600987747
C  C9  1  0.07828000  0.61332000  0.36000000  1.0 -0.2220122573
C  C10  1  0.61332000  0.07828000  0.14000000  1.0 -0.2220122573
C  C11  1  0.92172000  0.38668000  0.64000000  1.0 -0.2220122573
C  C12  1  0.38668000  0.92172000  0.86000000  1.0 -0.2220122573
C  C13  1  0.95436000  0.39604000  0.39510000  1.0 -0.2103674561
C  C14  1  0.39604000  0.95436000  0.10490000  1.0 -0.2103674561
C  C15  1  0.04564000  0.60396000  0.60490000  1.0 -0.2103674561
C  C16  1  0.60396000  0.04564000  0.89510000  1.0 -0.2103674561
C  C17  1  0.00787000  0.50173000  0.43850000  1.0 0.0894583764
C  C18  1  0.50173000  0.00787000  0.06150000  1.0 0.0894583764
C  C19  1  0.99213000  0.49827000  0.56150000  1.0 0.0894583764
C  C20  1  0.49827000  0.99213000  0.93850000  1.0 0.0811513523
C  C21  1  0.13421000  0.26819000  0.39060000  1.0 0.0600987747
C  C22  1  0.26819000  0.13421000  0.10940000  1.0 0.0600987747
C  C23  1  0.86579000  0.73181000  0.60940000  1.0 0.0600987747
C  C24  1  0.73181000  0.86579000  0.89060000  1.0 0.0600987747
C  C25  1  0.14734000  0.24386000  0.59540000  1.0 0.0600987747
C  C26  1  0.24386000  0.14734000  0.90460000  1.0 0.0600987747
C  C27  1  0.85266000  0.75614000  0.40460000  1.0 0.0600987747
C  C28  1  0.75614000  0.85266000  0.09540000  1.0 0.0600987747
C  C29  1  0.19577000  0.39063000  0.38520000  1.0 -0.2007612791
C  C30  1  0.39063000  0.19577000  0.11480000  1.0 -0.2007612791
C  C31  1  0.80423000  0.60937000  0.61480000  1.0 -0.2007612791
C  C32  1  0.60937000  0.80423000  0.88520000  1.0 -0.2007612791
C  C33  1  0.20862000  0.36318000  0.59900000  1.0 -0.2103674561
C  C34  1  0.36318000  0.20862000  0.90100000  1.0 -0.2103674561
C  C35  1  0.79138000  0.63682000  0.40100000  1.0 -0.2103674561
C  C36  1  0.63682000  0.79138000  0.09900000  1.0 -0.2103674561
C  C37  1  0.23455000  0.44145000  0.49140000  1.0 0.0894583764
C  C38  1  0.44145000  0.23455000  0.00860000  1.0 0.0894583764
C  C39  1  0.76545000  0.55855000  0.50860000  1.0 0.0894583764
C  C40  1  0.55855000  0.76545000  0.99140000  1.0 0.0894583764
C  C41  1  0.29647000  0.56913000  0.49360000  1.0 0.0894583764
C  C42  1  0.56913000  0.29647000  0.00640000  1.0 0.0894583764
C  C43  1  0.70353000  0.43087000  0.50640000  1.0 0.0894583764
C  C44  1  0.43087000  0.70353000  0.99360000  1.0 0.0894583764
C  C45  1  0.38098000  0.67002000  0.41120000  1.0 -0.2103674561
C  C46  1  0.67002000  0.38098000  0.08880000  1.0 -0.2103674561
C  C47  1  0.61902000  0.32998000  0.58880000  1.0 -0.2103674561
C  C48  1  0.32998000  0.61902000  0.91120000  1.0 -0.2103674561
C  C49  1  0.27359000  0.59501000  0.57990000  1.0 -0.2103674561
C  C50  1  0.59501000  0.27359000  0.92010000  1.0 -0.2103674561
C  C51  1  0.72641000  0.40499000  0.42010000  1.0 -0.2103674561
C  C52  1  0.40499000  0.72641000  0.07990000  1.0 -0.2103674561
C  C53  1  0.43641000  0.78779000  0.41710000  1.0 0.0368394367
C  C54  1  0.78779000  0.43641000  0.08290000  1.0 0.0368394367
C  C55  1  0.56359000  0.21221000  0.58290000  1.0 0.0368394367
C  C56  1  0.21221000  0.56359000  0.91710000  1.0 0.0368394367
C  C57  1  0.33103000  0.71477000  0.57760000  1.0 0.0723011782
C  C58  1  0.71477000  0.33103000  0.92240000  1.0 0.0723011782
C  C59  1  0.66897000  0.28523000  0.42240000  1.0 0.0723011782
C  C60  1  0.28523000  0.66897000  0.07760000  1.0 0.0723011782
N  N1  1  0.02991000  0.50789000  0.20050000  1.0 -0.2785091382
N  N2  1  0.50789000  0.02991000  0.29950000  1.0 -0.2785091382
N  N3  1  0.97009000  0.49211000  0.79950000  1.0 -0.2785091382
N  N4  1  0.49211000  0.97009000  0.70050000  1.0 -0.2785091382
N  N5  1  0.10835000  0.19345000  0.49330000  1.0 -0.2531423551
N  N6  1  0.19345000  0.10835000  0.00670000  1.0 -0.2531423551
N  N7  1  0.89165000  0.80655000  0.50670000  1.0 -0.2531423551
N  N8  1  0.80655000  0.89165000  0.99330000  1.0 -0.2531423551
N  N9  1  0.41152000  0.81228000  0.49780000  1.0 -0.2688501236
N  N10  1  0.81228000  0.41152000  0.00220000  1.0 -0.2688501236
N  N11  1  0.58848000  0.18772000  0.50220000  1.0 -0.2688501236
N  N12  1  0.18772000  0.58848000  0.99780000  1.0 -0.2688501236
O  O1  1  0.92580000  0.32640000  0.02690000  1.0 -0.8901959963
O  O2  1  0.32640000  0.92580000  0.47310000  1.0 -0.8901959963
O  O3  1  0.07420000  0.67360000  0.97310000  1.0 -0.8901959963
O  O4  1  0.67360000  0.07420000  0.52690000  1.0 -0.8901959963
O  O5  1  0.84941000  0.11499000  0.17620000  1.0 -1.0257880595
O  O6  1  0.11499000  0.84941000  0.32380000  1.0 -1.0257880595
O  O7  1  0.15059000  0.88501000  0.82380000  1.0 -1.0257880595
O  O8  1  0.88501000  0.15059000  0.67620000  1.0 -1.0257880595
O  O9  1  0.83520000  0.10220000  0.42790000  1.0 -1.0426271466
O  O10  1  0.10220000  0.83520000  0.07210000  1.0 -1.0426271466
O  O11  1  0.16480000  0.89780000  0.57210000  1.0 -1.0426271466
O  O12  1  0.89780000  0.16480000  0.92790000  1.0 -1.0426271466
O  O13  1  0.87699000  0.97881000  0.36300000  1.0 -0.8901959963
O  O14  1  0.97881000  0.87699000  0.13700000  1.0 -0.896043798
O  O15  1  0.12301000  0.02119000  0.63700000  1.0 -0.8901959963
O  O16  1  0.02119000  0.12301000  0.86300000  1.0 -0.896043798
