# DDEC6 charges by PACMAN v1.1 (https://github.com/mtap-research/PACMAN-charge/)
data_YIWMOG_FSR_pacman
_symmetry_space_group_name_H-M   'P 1'
_cell_length_a   8.94500000
_cell_length_b   13.99800000
_cell_length_c   21.62800000
_cell_angle_alpha   90.00000000
_cell_angle_beta   90.00000000
_cell_angle_gamma   90.00000000
_symmetry_Int_Tables_number   1
_chemical_formula_structural   Cd3(C4N3)2
_chemical_formula_sum   'Cd12 C32 N24'
_cell_volume   2708.08751508
_cell_formula_units_Z   4
loop_
 _symmetry_equiv_pos_site_id
 _symmetry_equiv_pos_as_xyz
  1  'x, y, z'
loop_
 _atom_site_type_symbol
 _atom_site_label
 _atom_site_symmetry_multiplicity
 _atom_site_fract_x
 _atom_site_fract_y
 _atom_site_fract_z
 _atom_site_occupancy
 _atom_site_charge
Cd  Cd1  1  0.25000000  0.18736000  0.63000000  1.0 0.9395821742
Cd  Cd2  1  0.75000000  0.81264000  0.37000000  1.0 0.9395821742
Cd  Cd3  1  0.25000000  0.31264000  0.13000000  1.0 0.9395821742
Cd  Cd4  1  0.75000000  0.68736000  0.87000000  1.0 0.9395821742
Cd  Cd5  1  0.75000000  0.06610000  0.77139000  1.0 0.4366686694
Cd  Cd6  1  0.25000000  0.93390000  0.22861000  1.0 0.4366686694
Cd  Cd7  1  0.75000000  0.43390000  0.27139000  1.0 0.4366686694
Cd  Cd8  1  0.25000000  0.56610000  0.72861000  1.0 0.4366686694
Cd  Cd9  1  0.75000000  0.18011000  0.47510000  1.0 0.4658341459
Cd  Cd10  1  0.25000000  0.81989000  0.52490000  1.0 0.4627881897
Cd  Cd11  1  0.75000000  0.31989000  0.97510000  1.0 0.4627881897
Cd  Cd12  1  0.25000000  0.68011000  0.02490000  1.0 0.4627881897
C  C1  1  0.95260000  0.20540000  0.53260000  1.0 0.1184056546
C  C2  1  0.45260000  0.79460000  0.46740000  1.0 0.1184056546
C  C3  1  0.54740000  0.29460000  0.03260000  1.0 0.1184056546
C  C4  1  0.04740000  0.70540000  0.96740000  1.0 0.1184056546
C  C5  1  0.04740000  0.79460000  0.46740000  1.0 0.1184056546
C  C6  1  0.54740000  0.20540000  0.53260000  1.0 0.1184056546
C  C7  1  0.45260000  0.70540000  0.96740000  1.0 0.1184056546
C  C8  1  0.95260000  0.29460000  0.03260000  1.0 0.1184056546
C  C9  1  0.95680000  0.11290000  0.72520000  1.0 0.0922604222
C  C10  1  0.45680000  0.88710000  0.27480000  1.0 0.0922604222
C  C11  1  0.54320000  0.38710000  0.22520000  1.0 0.0922604222
C  C12  1  0.04320000  0.61290000  0.77480000  1.0 0.0971957994
C  C13  1  0.04320000  0.88710000  0.27480000  1.0 0.0922604222
C  C14  1  0.54320000  0.11290000  0.72520000  1.0 0.0922604222
C  C15  1  0.45680000  0.61290000  0.77480000  1.0 0.0922604222
C  C16  1  0.95680000  0.38710000  0.22520000  1.0 0.0922604222
C  C17  1  0.25000000  0.96150000  0.56950000  1.0 0.0922604222
C  C18  1  0.75000000  0.03850000  0.43050000  1.0 0.0922604222
C  C19  1  0.25000000  0.53850000  0.06950000  1.0 0.0971957994
C  C20  1  0.75000000  0.46150000  0.93050000  1.0 0.0971957994
C  C21  1  0.25000000  0.42150000  0.68770000  1.0 0.1128742709
C  C22  1  0.75000000  0.57850000  0.31230000  1.0 0.1128742709
C  C23  1  0.25000000  0.07850000  0.18770000  1.0 0.1128742709
C  C24  1  0.75000000  0.92150000  0.81230000  1.0 0.1128742709
C  C25  1  0.75000000  0.28090000  0.39430000  1.0 -0.1765517988
C  C26  1  0.25000000  0.71910000  0.60570000  1.0 -0.170078347
C  C27  1  0.75000000  0.21910000  0.89430000  1.0 -0.1765517988
C  C28  1  0.25000000  0.78090000  0.10570000  1.0 -0.170078347
C  C29  1  0.75000000  0.16790000  0.85310000  1.0 -0.1341548858
C  C30  1  0.25000000  0.83210000  0.14690000  1.0 -0.140187832
C  C31  1  0.75000000  0.33210000  0.35310000  1.0 -0.1341548858
C  C32  1  0.25000000  0.66790000  0.64690000  1.0 -0.1341548858
N  N1  1  0.05300000  0.21540000  0.56320000  1.0 -0.371697679
N  N2  1  0.55300000  0.78460000  0.43680000  1.0 -0.371697679
N  N3  1  0.44700000  0.28460000  0.06320000  1.0 -0.371697679
N  N4  1  0.94700000  0.71540000  0.93680000  1.0 -0.371697679
N  N5  1  0.94700000  0.78460000  0.43680000  1.0 -0.371697679
N  N6  1  0.44700000  0.21540000  0.56320000  1.0 -0.371697679
N  N7  1  0.55300000  0.71540000  0.93680000  1.0 -0.371697679
N  N8  1  0.05300000  0.28460000  0.06320000  1.0 -0.371697679
N  N9  1  0.06280000  0.14190000  0.70180000  1.0 -0.3490993708
N  N10  1  0.56280000  0.85810000  0.29820000  1.0 -0.3490993708
N  N11  1  0.43720000  0.35810000  0.20180000  1.0 -0.3490993708
N  N12  1  0.93720000  0.64190000  0.79820000  1.0 -0.3490993708
N  N13  1  0.93720000  0.85810000  0.29820000  1.0 -0.3490993708
N  N14  1  0.43720000  0.14190000  0.70180000  1.0 -0.343497599
N  N15  1  0.56280000  0.64190000  0.79820000  1.0 -0.3490993708
N  N16  1  0.06280000  0.35810000  0.20180000  1.0 -0.3490993708
N  N17  1  0.25000000  0.03090000  0.59490000  1.0 -0.3490993708
N  N18  1  0.75000000  0.96910000  0.40510000  1.0 -0.3490993708
N  N19  1  0.25000000  0.46910000  0.09490000  1.0 -0.3490993708
N  N20  1  0.75000000  0.53090000  0.90510000  1.0 -0.3490993708
N  N21  1  0.25000000  0.34580000  0.66780000  1.0 -0.371697679
N  N22  1  0.75000000  0.65420000  0.33220000  1.0 -0.371697679
N  N23  1  0.25000000  0.15420000  0.16780000  1.0 -0.371697679
N  N24  1  0.75000000  0.84580000  0.83220000  1.0 -0.371697679
