# DDEC6 charges by PACMAN v1.1 (https://github.com/mtap-research/PACMAN-charge/)
data_YIWMEW_ASR_pacman
_symmetry_space_group_name_H-M   'P 1'
_cell_length_a   8.69400000
_cell_length_b   11.21200000
_cell_length_c   13.48300000
_cell_angle_alpha   90.00000000
_cell_angle_beta   90.00000000
_cell_angle_gamma   90.00000000
_symmetry_Int_Tables_number   1
_chemical_formula_structural   Cd3(C4N3)2
_chemical_formula_sum   'Cd6 C16 N12'
_cell_volume   1314.28411682
_cell_formula_units_Z   2
loop_
 _symmetry_equiv_pos_site_id
 _symmetry_equiv_pos_as_xyz
  1  'x, y, z'
loop_
 _atom_site_type_symbol
 _atom_site_label
 _atom_site_symmetry_multiplicity
 _atom_site_fract_x
 _atom_site_fract_y
 _atom_site_fract_z
 _atom_site_occupancy
 _atom_site_charge
Cd  Cd1  1  0.00000000  0.23376000  0.00000000  1.0 0.9479152957
Cd  Cd2  1  0.50000000  0.76624000  0.50000000  1.0 0.9479152957
Cd  Cd3  1  0.50000000  0.93212000  0.89923000  1.0 0.4539606968
Cd  Cd4  1  0.00000000  0.06788000  0.39923000  1.0 0.4556200007
Cd  Cd5  1  0.50000000  0.51428000  0.13246000  1.0 0.4169221023
Cd  Cd6  1  0.00000000  0.48572000  0.63246000  1.0 0.4169221023
C  C1  1  0.29270000  0.03920000  0.93880000  1.0 0.1177691891
C  C2  1  0.70730000  0.03920000  0.93880000  1.0 0.1177691891
C  C3  1  0.79270000  0.96080000  0.43880000  1.0 0.1177691891
C  C4  1  0.20730000  0.96080000  0.43880000  1.0 0.1177691891
C  C5  1  0.29330000  0.42000000  0.08170000  1.0 0.1079686979
C  C6  1  0.70670000  0.42000000  0.08170000  1.0 0.1079686979
C  C7  1  0.79330000  0.58000000  0.58170000  1.0 0.1049009958
C  C8  1  0.20670000  0.58000000  0.58170000  1.0 0.1049009958
C  C9  1  0.00000000  0.12350000  0.24200000  1.0 0.0798065314
C  C10  1  0.50000000  0.87650000  0.74200000  1.0 0.0798065314
C  C11  1  0.00000000  0.37650000  0.76910000  1.0 0.1177691891
C  C12  1  0.50000000  0.62350000  0.26910000  1.0 0.1177691891
C  C13  1  0.50000000  0.76090000  0.98270000  1.0 -0.1926246708
C  C14  1  0.00000000  0.23910000  0.48270000  1.0 -0.1926246708
C  C15  1  0.50000000  0.67280000  0.02430000  1.0 -0.1027380651
C  C16  1  0.00000000  0.32720000  0.52430000  1.0 -0.1068606427
N  N1  1  0.19230000  0.10080000  0.95810000  1.0 -0.3797977766
N  N2  1  0.80770000  0.10080000  0.95810000  1.0 -0.3797977766
N  N3  1  0.69230000  0.89920000  0.45810000  1.0 -0.3797977766
N  N4  1  0.30770000  0.89920000  0.45810000  1.0 -0.3797977766
N  N5  1  0.19250000  0.36790000  0.05070000  1.0 -0.3483840486
N  N6  1  0.80750000  0.36790000  0.05070000  1.0 -0.3483840486
N  N7  1  0.69250000  0.63210000  0.55070000  1.0 -0.3483840486
N  N8  1  0.30750000  0.63210000  0.55070000  1.0 -0.3483840486
N  N9  1  0.00000000  0.15790000  0.16170000  1.0 -0.3483840486
N  N10  1  0.50000000  0.84210000  0.66170000  1.0 -0.3442393741
N  N11  1  0.00000000  0.32250000  0.84170000  1.0 -0.3655121525
N  N12  1  0.50000000  0.67750000  0.34170000  1.0 -0.3655121525
