# DDEC6 charges by PACMAN v1.1 (https://github.com/mtap-research/PACMAN-charge/)
data_YIWNOH_ion_pacman
_symmetry_space_group_name_H-M   'P 1'
_cell_length_a   8.77500000
_cell_length_b   8.77500000
_cell_length_c   20.54600000
_cell_angle_alpha   90.00000000
_cell_angle_beta   90.00000000
_cell_angle_gamma   120.00000000
_symmetry_Int_Tables_number   1
_chemical_formula_structural   Cd3C8(NCl)6
_chemical_formula_sum   'Cd6 C16 N12 Cl12'
_cell_volume   1370.09968270
_cell_formula_units_Z   2
loop_
 _symmetry_equiv_pos_site_id
 _symmetry_equiv_pos_as_xyz
  1  'x, y, z'
loop_
 _atom_site_type_symbol
 _atom_site_label
 _atom_site_symmetry_multiplicity
 _atom_site_fract_x
 _atom_site_fract_y
 _atom_site_fract_z
 _atom_site_occupancy
 _atom_site_charge
Cd  Cd1  1  0.00000000  0.00000000  0.00000000  1.0 1.0308592355
Cd  Cd2  1  0.00000000  0.00000000  0.50000000  1.0 1.0308592355
Cd  Cd3  1  0.33333333  0.66666667  0.11476000  1.0 0.5140580372
Cd  Cd4  1  0.66666667  0.33333333  0.61476000  1.0 0.5140580372
Cd  Cd5  1  0.33333333  0.66666667  0.38524000  1.0 0.5140580372
Cd  Cd6  1  0.66666667  0.33333333  0.88524000  1.0 0.5046567356
C  C1  1  0.33333333  0.66666667  0.22200000  1.0 -0.141221095
C  C2  1  0.66666667  0.33333333  0.72200000  1.0 -0.141221095
C  C3  1  0.33333333  0.66666667  0.27800000  1.0 -0.141221095
C  C4  1  0.66666667  0.33333333  0.77800000  1.0 -0.141221095
C  C5  1  0.19440000  0.38880000  0.08110000  1.0 0.0568040574
C  C6  1  0.80560000  0.19440000  0.58110000  1.0 0.0568040574
C  C7  1  0.61120000  0.80560000  0.41890000  1.0 0.0568040574
C  C8  1  0.61120000  0.80560000  0.08110000  1.0 0.0568040574
C  C9  1  0.80560000  0.61120000  0.91890000  1.0 0.0540481897
C  C10  1  0.80560000  0.61120000  0.58110000  1.0 0.0540481897
C  C11  1  0.19440000  0.80560000  0.41890000  1.0 0.0568040574
C  C12  1  0.19440000  0.80560000  0.08110000  1.0 0.0568040574
C  C13  1  0.38880000  0.19440000  0.91890000  1.0 0.0568040574
C  C14  1  0.38880000  0.19440000  0.58110000  1.0 0.0568040574
C  C15  1  0.19440000  0.38880000  0.41890000  1.0 0.0568040574
C  C16  1  0.80560000  0.19440000  0.91890000  1.0 0.0568040574
N  N1  1  0.12770000  0.25540000  0.06060000  1.0 -0.325708654
N  N2  1  0.87230000  0.12770000  0.56060000  1.0 -0.325708654
N  N3  1  0.74460000  0.87230000  0.43940000  1.0 -0.325708654
N  N4  1  0.74460000  0.87230000  0.06060000  1.0 -0.3249661589
N  N5  1  0.87230000  0.74460000  0.93940000  1.0 -0.325708654
N  N6  1  0.87230000  0.74460000  0.56060000  1.0 -0.325708654
N  N7  1  0.12770000  0.87230000  0.43940000  1.0 -0.325708654
N  N8  1  0.12770000  0.87230000  0.06060000  1.0 -0.325708654
N  N9  1  0.25540000  0.12770000  0.93940000  1.0 -0.325708654
N  N10  1  0.25540000  0.12770000  0.56060000  1.0 -0.325708654
N  N11  1  0.12770000  0.25540000  0.43940000  1.0 -0.325708654
N  N12  1  0.87230000  0.12770000  0.93940000  1.0 -0.325708654
Cl  Cl1  1  0.42894000  0.57106000  0.82910000  1.0 -0.0243865552
Cl  Cl2  1  0.57106000  0.14212000  0.32910000  1.0 -0.0265423192
Cl  Cl3  1  0.14212000  0.57106000  0.67090000  1.0 -0.0265423192
Cl  Cl4  1  0.14212000  0.57106000  0.82910000  1.0 -0.0243865552
Cl  Cl5  1  0.57106000  0.42894000  0.17090000  1.0 -0.0265423192
Cl  Cl6  1  0.57106000  0.42894000  0.32910000  1.0 -0.0265423192
Cl  Cl7  1  0.42894000  0.85788000  0.67090000  1.0 -0.0265423192
Cl  Cl8  1  0.42894000  0.85788000  0.82910000  1.0 -0.0243865552
Cl  Cl9  1  0.85788000  0.42894000  0.17090000  1.0 -0.0265423192
Cl  Cl10  1  0.85788000  0.42894000  0.32910000  1.0 -0.0265423192
Cl  Cl11  1  0.42894000  0.57106000  0.67090000  1.0 -0.0265423192
Cl  Cl12  1  0.57106000  0.14212000  0.17090000  1.0 -0.0265423192
