# DDEC6 charges by PACMAN v1.1 (https://github.com/mtap-research/PACMAN-charge/)
data_YIWPAV_FSR_pacman
_symmetry_space_group_name_H-M   'P 1'
_cell_length_a   8.81400000
_cell_length_b   8.81400000
_cell_length_c   20.56700000
_cell_angle_alpha   90.00000000
_cell_angle_beta   90.00000000
_cell_angle_gamma   120.00000000
_symmetry_Int_Tables_number   1
_chemical_formula_structural   Cd3(C4N3)2
_chemical_formula_sum   'Cd6 C16 N12'
_cell_volume   1383.71826013
_cell_formula_units_Z   2
loop_
 _symmetry_equiv_pos_site_id
 _symmetry_equiv_pos_as_xyz
  1  'x, y, z'
loop_
 _atom_site_type_symbol
 _atom_site_label
 _atom_site_symmetry_multiplicity
 _atom_site_fract_x
 _atom_site_fract_y
 _atom_site_fract_z
 _atom_site_occupancy
 _atom_site_charge
Cd  Cd1  1  0.00000000  0.00000000  0.00000000  1.0 0.9346315442
Cd  Cd2  1  0.00000000  0.00000000  0.50000000  1.0 0.9346315442
Cd  Cd3  1  0.33333333  0.66666667  0.11370000  1.0 0.4699577121
Cd  Cd4  1  0.66666667  0.33333333  0.61370000  1.0 0.4699577121
Cd  Cd5  1  0.33333333  0.66666667  0.38630000  1.0 0.4699577121
Cd  Cd6  1  0.66666667  0.33333333  0.88630000  1.0 0.4699577121
C  C1  1  0.33333333  0.66666667  0.22200000  1.0 -0.1758808763
C  C2  1  0.66666667  0.33333333  0.72200000  1.0 -0.1758808763
C  C3  1  0.33333333  0.66666667  0.27800000  1.0 -0.1758808763
C  C4  1  0.66666667  0.33333333  0.77800000  1.0 -0.1758808763
C  C5  1  0.19400000  0.38800000  0.07980000  1.0 0.0983178427
C  C6  1  0.80600000  0.19400000  0.57980000  1.0 0.0983178427
C  C7  1  0.61200000  0.80600000  0.42020000  1.0 0.0983178427
C  C8  1  0.61200000  0.80600000  0.07980000  1.0 0.0983178427
C  C9  1  0.80600000  0.61200000  0.92020000  1.0 0.0983178427
C  C10  1  0.80600000  0.61200000  0.57980000  1.0 0.0983178427
C  C11  1  0.19400000  0.80600000  0.42020000  1.0 0.0983178427
C  C12  1  0.19400000  0.80600000  0.07980000  1.0 0.0983178427
C  C13  1  0.38800000  0.19400000  0.92020000  1.0 0.0983178427
C  C14  1  0.38800000  0.19400000  0.57980000  1.0 0.0983178427
C  C15  1  0.19400000  0.38800000  0.42020000  1.0 0.0983178427
C  C16  1  0.80600000  0.19400000  0.92020000  1.0 0.0943617477
N  N1  1  0.12600000  0.25200000  0.06150000  1.0 -0.3517857041
N  N2  1  0.87400000  0.12600000  0.56150000  1.0 -0.3517857041
N  N3  1  0.74800000  0.87400000  0.43850000  1.0 -0.3517857041
N  N4  1  0.74800000  0.87400000  0.06150000  1.0 -0.3517857041
N  N5  1  0.87400000  0.74800000  0.93850000  1.0 -0.3517857041
N  N6  1  0.87400000  0.74800000  0.56150000  1.0 -0.3517857041
N  N7  1  0.12600000  0.87400000  0.43850000  1.0 -0.3517857041
N  N8  1  0.12600000  0.87400000  0.06150000  1.0 -0.3517857041
N  N9  1  0.25200000  0.12600000  0.93850000  1.0 -0.3517857041
N  N10  1  0.25200000  0.12600000  0.56150000  1.0 -0.3517857041
N  N11  1  0.12600000  0.25200000  0.43850000  1.0 -0.3517857041
N  N12  1  0.87400000  0.12600000  0.93850000  1.0 -0.3517857041
