# DDEC6 charges by PACMAN v1.1 (https://github.com/mtap-research/PACMAN-charge/)
data_YIWPEZ_FSR_pacman
_symmetry_space_group_name_H-M   'P 1'
_cell_length_a   8.77500000
_cell_length_b   8.77500000
_cell_length_c   20.54600000
_cell_angle_alpha   90.00000000
_cell_angle_beta   90.00000000
_cell_angle_gamma   120.00000000
_symmetry_Int_Tables_number   1
_chemical_formula_structural   Cd3(C4N3)2
_chemical_formula_sum   'Cd6 C16 N12'
_cell_volume   1370.09968270
_cell_formula_units_Z   2
loop_
 _symmetry_equiv_pos_site_id
 _symmetry_equiv_pos_as_xyz
  1  'x, y, z'
loop_
 _atom_site_type_symbol
 _atom_site_label
 _atom_site_symmetry_multiplicity
 _atom_site_fract_x
 _atom_site_fract_y
 _atom_site_fract_z
 _atom_site_occupancy
 _atom_site_charge
Cd  Cd1  1  0.00000000  0.00000000  0.00000000  1.0 0.9443139614
Cd  Cd2  1  0.00000000  0.00000000  0.50000000  1.0 0.9443139614
Cd  Cd3  1  0.33333333  0.66666667  0.11360000  1.0 0.4689956487
Cd  Cd4  1  0.66666667  0.33333333  0.61360000  1.0 0.4622077228
Cd  Cd5  1  0.33333333  0.66666667  0.38640000  1.0 0.4689956487
Cd  Cd6  1  0.66666667  0.33333333  0.88640000  1.0 0.4689956487
C  C1  1  0.33333333  0.66666667  0.22500000  1.0 -0.110510715
C  C2  1  0.66666667  0.33333333  0.72500000  1.0 -0.110510715
C  C3  1  0.33333333  0.66666667  0.27500000  1.0 -0.110510715
C  C4  1  0.66666667  0.33333333  0.77500000  1.0 -0.110510715
C  C5  1  0.19500000  0.39000000  0.08140000  1.0 0.0809746564
C  C6  1  0.80500000  0.19500000  0.58140000  1.0 0.0809746564
C  C7  1  0.61000000  0.80500000  0.41860000  1.0 0.0809746564
C  C8  1  0.61000000  0.80500000  0.08140000  1.0 0.0809746564
C  C9  1  0.80500000  0.61000000  0.91860000  1.0 0.0809746564
C  C10  1  0.80500000  0.61000000  0.58140000  1.0 0.0809746564
C  C11  1  0.19500000  0.80500000  0.41860000  1.0 0.0809746564
C  C12  1  0.19500000  0.80500000  0.08140000  1.0 0.0809746564
C  C13  1  0.39000000  0.19500000  0.91860000  1.0 0.0809746564
C  C14  1  0.39000000  0.19500000  0.58140000  1.0 0.0809746564
C  C15  1  0.19500000  0.39000000  0.41860000  1.0 0.0809746564
C  C16  1  0.80500000  0.19500000  0.91860000  1.0 0.0809746564
N  N1  1  0.12260000  0.24520000  0.06510000  1.0 -0.357289634
N  N2  1  0.87740000  0.12260000  0.56510000  1.0 -0.357289634
N  N3  1  0.75480000  0.87740000  0.43490000  1.0 -0.357289634
N  N4  1  0.75480000  0.87740000  0.06510000  1.0 -0.357289634
N  N5  1  0.87740000  0.75480000  0.93490000  1.0 -0.357289634
N  N6  1  0.87740000  0.75480000  0.56510000  1.0 -0.357289634
N  N7  1  0.12260000  0.87740000  0.43490000  1.0 -0.357289634
N  N8  1  0.12260000  0.87740000  0.06510000  1.0 -0.357289634
N  N9  1  0.24520000  0.12260000  0.93490000  1.0 -0.357289634
N  N10  1  0.24520000  0.12260000  0.56510000  1.0 -0.357289634
N  N11  1  0.12260000  0.24520000  0.43490000  1.0 -0.357289634
N  N12  1  0.87740000  0.12260000  0.93490000  1.0 -0.357289634
