# DDEC6 charges by PACMAN v1.1 (https://github.com/mtap-research/PACMAN-charge/)
data_YIXBIQ_ASR_pacman
_symmetry_space_group_name_H-M   'P 1'
_cell_length_a   18.71220000
_cell_length_b   18.71220000
_cell_length_c   18.71220000
_cell_angle_alpha   109.47100000
_cell_angle_beta   109.47100000
_cell_angle_gamma   109.47100000
_symmetry_Int_Tables_number   1
_chemical_formula_structural   CuC12(BrO)4
_chemical_formula_sum   'Cu6 C72 Br24 O24'
_cell_volume   5043.78085483
_cell_formula_units_Z   6
loop_
 _symmetry_equiv_pos_site_id
 _symmetry_equiv_pos_as_xyz
  1  'x, y, z'
loop_
 _atom_site_type_symbol
 _atom_site_label
 _atom_site_symmetry_multiplicity
 _atom_site_fract_x
 _atom_site_fract_y
 _atom_site_fract_z
 _atom_site_occupancy
 _atom_site_charge
Cu  Cu1  1  0.43841000  0.43841000  0.00000000  1.0 0.8601474655
Cu  Cu2  1  0.00000000  0.43841000  0.43841000  1.0 0.8601474655
Cu  Cu3  1  0.43841000  0.00000000  0.43841000  1.0 0.8601474655
Cu  Cu4  1  0.56159000  0.56159000  0.00000000  1.0 0.8601474655
Cu  Cu5  1  0.56159000  0.00000000  0.56159000  1.0 0.8601474655
Cu  Cu6  1  0.00000000  0.56159000  0.56159000  1.0 0.8601474655
C  C1  1  0.50000000  0.61470000  0.11470000  1.0 0.533894023
C  C2  1  0.11470000  0.50000000  0.61470000  1.0 0.533894023
C  C3  1  0.61470000  0.11470000  0.50000000  1.0 0.5352833323
C  C4  1  0.61470000  0.50000000  0.11470000  1.0 0.533894023
C  C5  1  0.38530000  0.50000000  0.88530000  1.0 0.533894023
C  C6  1  0.50000000  0.11470000  0.61470000  1.0 0.5352833323
C  C7  1  0.50000000  0.88530000  0.38530000  1.0 0.533894023
C  C8  1  0.88530000  0.38530000  0.50000000  1.0 0.5352833323
C  C9  1  0.11470000  0.61470000  0.50000000  1.0 0.533894023
C  C10  1  0.50000000  0.38530000  0.88530000  1.0 0.5352833323
C  C11  1  0.88530000  0.50000000  0.38530000  1.0 0.5352833323
C  C12  1  0.38530000  0.88530000  0.50000000  1.0 0.533894023
C  C13  1  0.50000000  0.68440000  0.18440000  1.0 -0.0093848242
C  C14  1  0.18440000  0.50000000  0.68440000  1.0 -0.0093848242
C  C15  1  0.68440000  0.18440000  0.50000000  1.0 -0.0093848242
C  C16  1  0.68440000  0.50000000  0.18440000  1.0 -0.0093848242
C  C17  1  0.31560000  0.50000000  0.81560000  1.0 -0.0093848242
C  C18  1  0.50000000  0.18440000  0.68440000  1.0 -0.0093848242
C  C19  1  0.50000000  0.81560000  0.31560000  1.0 -0.0093848242
C  C20  1  0.81560000  0.31560000  0.50000000  1.0 -0.0093848242
C  C21  1  0.18440000  0.68440000  0.50000000  1.0 -0.0093848242
C  C22  1  0.50000000  0.31560000  0.81560000  1.0 -0.0093848242
C  C23  1  0.81560000  0.50000000  0.31560000  1.0 -0.0093848242
C  C24  1  0.31560000  0.81560000  0.50000000  1.0 -0.0093848242
C  C25  1  0.44660000  0.66110000  0.21450000  1.0 0.034390039
C  C26  1  0.21450000  0.44660000  0.66110000  1.0 0.0361613199
C  C27  1  0.66110000  0.21450000  0.44660000  1.0 0.0361613199
C  C28  1  0.76790000  0.55340000  0.21450000  1.0 0.0361613199
C  C29  1  0.23210000  0.44660000  0.78550000  1.0 0.0361613199
C  C30  1  0.66110000  0.44660000  0.21450000  1.0 0.0361613199
C  C31  1  0.44660000  0.21450000  0.66110000  1.0 0.0361613199
C  C32  1  0.44660000  0.78550000  0.23210000  1.0 0.034390039
C  C33  1  0.55340000  0.21450000  0.76790000  1.0 0.0361613199
C  C34  1  0.78550000  0.23210000  0.44660000  1.0 0.0361613199
C  C35  1  0.21450000  0.66110000  0.44660000  1.0 0.0361613199
C  C36  1  0.21450000  0.76790000  0.55340000  1.0 0.0361613199
C  C37  1  0.55340000  0.76790000  0.21450000  1.0 0.034390039
C  C38  1  0.44660000  0.23210000  0.78550000  1.0 0.0361613199
C  C39  1  0.21450000  0.55340000  0.76790000  1.0 0.0361613199
C  C40  1  0.78550000  0.44660000  0.23210000  1.0 0.0361613199
C  C41  1  0.76790000  0.21450000  0.55340000  1.0 0.0361613199
C  C42  1  0.23210000  0.78550000  0.44660000  1.0 0.0361613199
C  C43  1  0.55340000  0.33890000  0.78550000  1.0 0.0361613199
C  C44  1  0.78550000  0.55340000  0.33890000  1.0 0.0361613199
C  C45  1  0.33890000  0.78550000  0.55340000  1.0 0.0361613199
C  C46  1  0.33890000  0.55340000  0.78550000  1.0 0.0361613199
C  C47  1  0.55340000  0.78550000  0.33890000  1.0 0.034390039
C  C48  1  0.78550000  0.33890000  0.55340000  1.0 0.0361613199
C  C49  1  0.55110000  0.71620000  0.26730000  1.0 0.0085785762
C  C50  1  0.26730000  0.55110000  0.71620000  1.0 0.0085785762
C  C51  1  0.71620000  0.26730000  0.55110000  1.0 0.0085785762
C  C52  1  0.71620000  0.55110000  0.26730000  1.0 0.0085785762
C  C53  1  0.28380000  0.55110000  0.83490000  1.0 0.0085785762
C  C54  1  0.71620000  0.44890000  0.16510000  1.0 0.0085785762
C  C55  1  0.44890000  0.16510000  0.71620000  1.0 0.0085785762
C  C56  1  0.55110000  0.83490000  0.28380000  1.0 0.0085785762
C  C57  1  0.55110000  0.26730000  0.71620000  1.0 0.0085785762
C  C58  1  0.83490000  0.28380000  0.55110000  1.0 0.0085785762
C  C59  1  0.16510000  0.71620000  0.44890000  1.0 0.0085785762
C  C60  1  0.26730000  0.71620000  0.55110000  1.0 0.0085785762
C  C61  1  0.44890000  0.71620000  0.16510000  1.0 0.0085785762
C  C62  1  0.55110000  0.28380000  0.83490000  1.0 0.0085785762
C  C63  1  0.16510000  0.44890000  0.71620000  1.0 0.0085785762
C  C64  1  0.83490000  0.55110000  0.28380000  1.0 0.0085785762
C  C65  1  0.71620000  0.16510000  0.44890000  1.0 0.0085785762
C  C66  1  0.28380000  0.83490000  0.55110000  1.0 0.0085785762
C  C67  1  0.44890000  0.28380000  0.73270000  1.0 0.0085785762
C  C68  1  0.73270000  0.44890000  0.28380000  1.0 0.0085785762
C  C69  1  0.28380000  0.73270000  0.44890000  1.0 0.0085785762
C  C70  1  0.28380000  0.44890000  0.73270000  1.0 0.0085785762
C  C71  1  0.44890000  0.73270000  0.28380000  1.0 0.0085785762
C  C72  1  0.73270000  0.28380000  0.44890000  1.0 0.0085785762
Br  Br1  1  0.63090000  0.67700000  0.30790000  1.0 -0.061476523
Br  Br2  1  0.30790000  0.63090000  0.67700000  1.0 -0.061476523
Br  Br3  1  0.67700000  0.30790000  0.63090000  1.0 -0.061476523
Br  Br4  1  0.67700000  0.63090000  0.30790000  1.0 -0.061476523
Br  Br5  1  0.32300000  0.63090000  0.95390000  1.0 -0.061476523
Br  Br6  1  0.67700000  0.36910000  0.04610000  1.0 -0.061476523
Br  Br7  1  0.36910000  0.04610000  0.67700000  1.0 -0.061476523
Br  Br8  1  0.63090000  0.95390000  0.32300000  1.0 -0.061476523
Br  Br9  1  0.63090000  0.30790000  0.67700000  1.0 -0.061476523
Br  Br10  1  0.95390000  0.32300000  0.63090000  1.0 -0.061476523
Br  Br11  1  0.04610000  0.67700000  0.36910000  1.0 -0.061476523
Br  Br12  1  0.30790000  0.67700000  0.63090000  1.0 -0.061476523
Br  Br13  1  0.36910000  0.67700000  0.04610000  1.0 -0.061476523
Br  Br14  1  0.63090000  0.32300000  0.95390000  1.0 -0.061476523
Br  Br15  1  0.04610000  0.36910000  0.67700000  1.0 -0.061476523
Br  Br16  1  0.95390000  0.63090000  0.32300000  1.0 -0.061476523
Br  Br17  1  0.67700000  0.04610000  0.36910000  1.0 -0.061476523
Br  Br18  1  0.32300000  0.95390000  0.63090000  1.0 -0.061476523
Br  Br19  1  0.36910000  0.32300000  0.69210000  1.0 -0.061476523
Br  Br20  1  0.69210000  0.36910000  0.32300000  1.0 -0.061476523
Br  Br21  1  0.32300000  0.69210000  0.36910000  1.0 -0.061476523
Br  Br22  1  0.32300000  0.36910000  0.69210000  1.0 -0.061476523
Br  Br23  1  0.36910000  0.69210000  0.32300000  1.0 -0.061476523
Br  Br24  1  0.69210000  0.32300000  0.36910000  1.0 -0.061476523
O  O1  1  0.44800000  0.53790000  0.08990000  1.0 -0.4605490648
O  O2  1  0.08990000  0.44800000  0.53790000  1.0 -0.4605490648
O  O3  1  0.53790000  0.08990000  0.44800000  1.0 -0.4605490648
O  O4  1  0.64190000  0.55200000  0.08990000  1.0 -0.4605490648
O  O5  1  0.35810000  0.44800000  0.91010000  1.0 -0.4605490648
O  O6  1  0.53790000  0.44800000  0.08990000  1.0 -0.4605490648
O  O7  1  0.44800000  0.08990000  0.53790000  1.0 -0.4605490648
O  O8  1  0.44800000  0.91010000  0.35810000  1.0 -0.4605490648
O  O9  1  0.55200000  0.08990000  0.64190000  1.0 -0.4605490648
O  O10  1  0.91010000  0.35810000  0.44800000  1.0 -0.4605490648
O  O11  1  0.08990000  0.53790000  0.44800000  1.0 -0.4605490648
O  O12  1  0.08990000  0.64190000  0.55200000  1.0 -0.4605490648
O  O13  1  0.55200000  0.64190000  0.08990000  1.0 -0.4605490648
O  O14  1  0.44800000  0.35810000  0.91010000  1.0 -0.4605490648
O  O15  1  0.08990000  0.55200000  0.64190000  1.0 -0.4605490648
O  O16  1  0.91010000  0.44800000  0.35810000  1.0 -0.4605490648
O  O17  1  0.64190000  0.08990000  0.55200000  1.0 -0.4605490648
O  O18  1  0.35810000  0.91010000  0.44800000  1.0 -0.4605490648
O  O19  1  0.55200000  0.46210000  0.91010000  1.0 -0.4605490648
O  O20  1  0.91010000  0.55200000  0.46210000  1.0 -0.4605490648
O  O21  1  0.46210000  0.91010000  0.55200000  1.0 -0.4605490648
O  O22  1  0.46210000  0.55200000  0.91010000  1.0 -0.4605490648
O  O23  1  0.55200000  0.91010000  0.46210000  1.0 -0.4605490648
O  O24  1  0.91010000  0.46210000  0.55200000  1.0 -0.4605490648
