# DDEC6 charges by PACMAN v1.1 (https://github.com/mtap-research/PACMAN-charge/)
data_YIXPED_ASR_pacman
_symmetry_space_group_name_H-M   'P 1'
_cell_length_a   39.50500000
_cell_length_b   39.50500000
_cell_length_c   16.33570000
_cell_angle_alpha   90.00000000
_cell_angle_beta   90.00000000
_cell_angle_gamma   120.00000000
_symmetry_Int_Tables_number   1
_chemical_formula_structural   Zr3H38(C40O9)2
_chemical_formula_sum   'Zr18 H228 C480 O108'
_cell_volume   22078.64990751
_cell_formula_units_Z   6
loop_
 _symmetry_equiv_pos_site_id
 _symmetry_equiv_pos_as_xyz
  1  'x, y, z'
loop_
 _atom_site_type_symbol
 _atom_site_label
 _atom_site_symmetry_multiplicity
 _atom_site_fract_x
 _atom_site_fract_y
 _atom_site_fract_z
 _atom_site_occupancy
 _atom_site_charge
Zr  Zr1  1  0.45546000  0.00000000  0.89212000  1.0 2.4133839822
Zr  Zr2  1  0.54454000  0.54454000  0.89212000  1.0 2.4133839822
Zr  Zr3  1  0.00000000  0.45546000  0.89212000  1.0 2.4133839822
Zr  Zr4  1  0.54454000  0.00000000  0.89212000  1.0 2.4133839822
Zr  Zr5  1  0.45546000  0.45546000  0.89212000  1.0 2.4133839822
Zr  Zr6  1  0.00000000  0.54454000  0.89212000  1.0 2.4133839822
Zr  Zr7  1  0.45546000  0.00000000  0.10788000  1.0 2.4164852119
Zr  Zr8  1  0.00000000  0.45546000  0.10788000  1.0 2.4133839822
Zr  Zr9  1  0.54454000  0.54454000  0.10788000  1.0 2.4164852119
Zr  Zr10  1  0.54454000  0.00000000  0.10788000  1.0 2.4164852119
Zr  Zr11  1  0.00000000  0.54454000  0.10788000  1.0 2.4133839822
Zr  Zr12  1  0.45546000  0.45546000  0.10788000  1.0 2.4164852119
Zr  Zr13  1  0.53561000  0.07122000  0.00000000  1.0 2.3654958226
Zr  Zr14  1  0.53561000  0.46439000  0.00000000  1.0 2.3654958226
Zr  Zr15  1  0.92878000  0.46439000  0.00000000  1.0 2.3654958226
Zr  Zr16  1  0.46439000  0.92878000  0.00000000  1.0 2.3654958226
Zr  Zr17  1  0.46439000  0.53561000  0.00000000  1.0 2.3654958226
Zr  Zr18  1  0.07122000  0.53561000  0.00000000  1.0 2.3641776062
H  H1  1  0.36892000  0.83008000  0.86792000  1.0 0.1330976208
H  H2  1  0.31963000  0.78203000  0.78758000  1.0 0.1197256522
H  H3  1  0.30369000  0.86308000  0.67409000  1.0 0.1330976208
H  H4  1  0.35128000  0.91142000  0.75389000  1.0 0.1330976208
H  H5  1  0.33095000  0.83549000  0.56826000  1.0 0.1197256522
H  H6  1  0.41225000  0.00626000  0.67166000  1.0 0.1197256522
H  H7  1  0.36207000  0.99020000  0.57680000  1.0 0.0621999755
H  H8  1  0.37549000  0.90113000  0.49240000  1.0 0.1330976208
H  H9  1  0.42567000  0.91720000  0.58725000  1.0 0.1197256522
H  H10  1  0.46116000  0.63108000  0.86792000  1.0 0.1330976208
H  H11  1  0.46240000  0.68037000  0.78758000  1.0 0.1197256522
H  H12  1  0.55939000  0.69631000  0.67409000  1.0 0.1330976208
H  H13  1  0.56014000  0.64872000  0.75389000  1.0 0.1330976208
H  H14  1  0.50454000  0.66905000  0.56826000  1.0 0.1197256522
H  H15  1  0.59401000  0.58775000  0.67166000  1.0 0.1197256522
H  H16  1  0.62813000  0.63793000  0.57680000  1.0 0.0621999755
H  H17  1  0.52564000  0.62451000  0.49240000  1.0 0.1330976208
H  H18  1  0.49153000  0.57433000  0.58725000  1.0 0.1197256522
H  H19  1  0.16992000  0.53884000  0.86792000  1.0 0.1330976208
H  H20  1  0.21797000  0.53760000  0.78758000  1.0 0.1197256522
H  H21  1  0.13692000  0.44061000  0.67409000  1.0 0.1330976208
H  H22  1  0.08858000  0.43986000  0.75389000  1.0 0.1330976208
H  H23  1  0.16451000  0.49546000  0.56826000  1.0 0.1197256522
H  H24  1  0.99374000  0.40599000  0.67166000  1.0 0.1197256522
H  H25  1  0.00980000  0.37187000  0.57680000  1.0 0.0621999755
H  H26  1  0.09887000  0.47436000  0.49240000  1.0 0.1330976208
H  H27  1  0.08280000  0.50847000  0.58725000  1.0 0.1197256522
H  H28  1  0.63108000  0.16992000  0.86792000  1.0 0.1330976208
H  H29  1  0.68037000  0.21797000  0.78758000  1.0 0.1197256522
H  H30  1  0.69631000  0.13692000  0.67409000  1.0 0.1330976208
H  H31  1  0.64872000  0.08858000  0.75389000  1.0 0.1330976208
H  H32  1  0.66905000  0.16451000  0.56826000  1.0 0.1197256522
H  H33  1  0.58775000  0.99374000  0.67166000  1.0 0.1197256522
H  H34  1  0.63793000  0.00980000  0.57680000  1.0 0.0621999755
H  H35  1  0.62451000  0.09887000  0.49240000  1.0 0.1330976208
H  H36  1  0.57433000  0.08280000  0.58725000  1.0 0.1197256522
H  H37  1  0.53884000  0.36892000  0.86792000  1.0 0.1330976208
H  H38  1  0.53760000  0.31963000  0.78758000  1.0 0.1197256522
H  H39  1  0.44061000  0.30369000  0.67409000  1.0 0.1330976208
H  H40  1  0.43986000  0.35128000  0.75389000  1.0 0.1330976208
H  H41  1  0.49546000  0.33095000  0.56826000  1.0 0.1197256522
H  H42  1  0.40599000  0.41225000  0.67166000  1.0 0.1197256522
H  H43  1  0.37187000  0.36207000  0.57680000  1.0 0.0621999755
H  H44  1  0.47436000  0.37549000  0.49240000  1.0 0.1330976208
H  H45  1  0.50847000  0.42567000  0.58725000  1.0 0.1197256522
H  H46  1  0.83008000  0.46116000  0.86792000  1.0 0.1330976208
H  H47  1  0.78203000  0.46240000  0.78758000  1.0 0.1197256522
H  H48  1  0.86308000  0.55939000  0.67409000  1.0 0.1330976208
H  H49  1  0.91142000  0.56014000  0.75389000  1.0 0.1330976208
H  H50  1  0.83549000  0.50454000  0.56826000  1.0 0.1197256522
H  H51  1  0.00626000  0.59401000  0.67166000  1.0 0.1197256522
H  H52  1  0.99020000  0.62813000  0.57680000  1.0 0.0621999755
H  H53  1  0.90113000  0.52564000  0.49240000  1.0 0.1330976208
H  H54  1  0.91720000  0.49153000  0.58725000  1.0 0.1197256522
H  H55  1  0.53884000  0.16992000  0.13208000  1.0 0.1330976208
H  H56  1  0.53760000  0.21797000  0.21242000  1.0 0.1197256522
H  H57  1  0.44061000  0.13692000  0.32591000  1.0 0.1330976208
H  H58  1  0.43986000  0.08858000  0.24611000  1.0 0.1330976208
H  H59  1  0.49546000  0.16451000  0.43174000  1.0 0.1197256522
H  H60  1  0.40599000  0.99374000  0.32834000  1.0 0.1197256522
H  H61  1  0.37187000  0.00980000  0.42320000  1.0 0.0621999755
H  H62  1  0.47436000  0.09887000  0.50760000  1.0 0.1330976208
H  H63  1  0.50847000  0.08280000  0.41275000  1.0 0.1197256522
H  H64  1  0.83008000  0.36892000  0.13208000  1.0 0.1330976208
H  H65  1  0.78203000  0.31963000  0.21242000  1.0 0.1197256522
H  H66  1  0.86308000  0.30369000  0.32591000  1.0 0.1330976208
H  H67  1  0.91142000  0.35128000  0.24611000  1.0 0.1330976208
H  H68  1  0.83549000  0.33095000  0.43174000  1.0 0.1197256522
H  H69  1  0.00626000  0.41225000  0.32834000  1.0 0.1197256522
H  H70  1  0.99020000  0.36207000  0.42320000  1.0 0.0621999755
H  H71  1  0.90113000  0.37549000  0.50760000  1.0 0.1330976208
H  H72  1  0.91720000  0.42567000  0.41275000  1.0 0.1197256522
H  H73  1  0.63108000  0.46116000  0.13208000  1.0 0.1330976208
H  H74  1  0.68037000  0.46240000  0.21242000  1.0 0.1197256522
H  H75  1  0.69631000  0.55939000  0.32591000  1.0 0.1330976208
H  H76  1  0.64872000  0.56014000  0.24611000  1.0 0.1330976208
H  H77  1  0.66905000  0.50454000  0.43174000  1.0 0.1197256522
H  H78  1  0.58775000  0.59401000  0.32834000  1.0 0.1197256522
H  H79  1  0.63793000  0.62813000  0.42320000  1.0 0.0621999755
H  H80  1  0.62451000  0.52564000  0.50760000  1.0 0.1330976208
H  H81  1  0.57433000  0.49153000  0.41275000  1.0 0.1197256522
H  H82  1  0.46116000  0.83008000  0.13208000  1.0 0.1330976208
H  H83  1  0.46240000  0.78203000  0.21242000  1.0 0.1197256522
H  H84  1  0.55939000  0.86308000  0.32591000  1.0 0.1330976208
H  H85  1  0.56014000  0.91142000  0.24611000  1.0 0.1330976208
H  H86  1  0.50454000  0.83549000  0.43174000  1.0 0.1197256522
H  H87  1  0.59401000  0.00626000  0.32834000  1.0 0.1197256522
H  H88  1  0.62813000  0.99020000  0.42320000  1.0 0.0621999755
H  H89  1  0.52564000  0.90113000  0.50760000  1.0 0.1330976208
H  H90  1  0.49153000  0.91720000  0.41275000  1.0 0.1197256522
H  H91  1  0.16992000  0.63108000  0.13208000  1.0 0.1330976208
H  H92  1  0.21797000  0.68037000  0.21242000  1.0 0.1197256522
H  H93  1  0.13692000  0.69631000  0.32591000  1.0 0.1330976208
H  H94  1  0.08858000  0.64872000  0.24611000  1.0 0.1330976208
H  H95  1  0.16451000  0.66905000  0.43174000  1.0 0.1197256522
H  H96  1  0.99374000  0.58775000  0.32834000  1.0 0.1197256522
H  H97  1  0.00980000  0.63793000  0.42320000  1.0 0.0621999755
H  H98  1  0.09887000  0.62451000  0.50760000  1.0 0.135588444
H  H99  1  0.08280000  0.57433000  0.41275000  1.0 0.1197256522
H  H100  1  0.36892000  0.53884000  0.13208000  1.0 0.1330976208
H  H101  1  0.31963000  0.53760000  0.21242000  1.0 0.1197256522
H  H102  1  0.30369000  0.44061000  0.32591000  1.0 0.1330976208
H  H103  1  0.35128000  0.43986000  0.24611000  1.0 0.1330976208
H  H104  1  0.33095000  0.49546000  0.43174000  1.0 0.1197256522
H  H105  1  0.41225000  0.40599000  0.32834000  1.0 0.1197256522
H  H106  1  0.36207000  0.37187000  0.42320000  1.0 0.0621999755
H  H107  1  0.37549000  0.47436000  0.50760000  1.0 0.1330976208
H  H108  1  0.42567000  0.50847000  0.41275000  1.0 0.1197256522
H  H109  1  0.63108000  0.16992000  0.13208000  1.0 0.1330976208
H  H110  1  0.68037000  0.21797000  0.21242000  1.0 0.1197256522
H  H111  1  0.69631000  0.13692000  0.32591000  1.0 0.1330976208
H  H112  1  0.64872000  0.08858000  0.24611000  1.0 0.1330976208
H  H113  1  0.66905000  0.16451000  0.43174000  1.0 0.1197256522
H  H114  1  0.58775000  0.99374000  0.32834000  1.0 0.1197256522
H  H115  1  0.63793000  0.00980000  0.42320000  1.0 0.0621999755
H  H116  1  0.62451000  0.09887000  0.50760000  1.0 0.1330976208
H  H117  1  0.57433000  0.08280000  0.41275000  1.0 0.1197256522
H  H118  1  0.53884000  0.36892000  0.13208000  1.0 0.1330976208
H  H119  1  0.53760000  0.31963000  0.21242000  1.0 0.1197256522
H  H120  1  0.44061000  0.30369000  0.32591000  1.0 0.1330976208
H  H121  1  0.43986000  0.35128000  0.24611000  1.0 0.1330976208
H  H122  1  0.49546000  0.33095000  0.43174000  1.0 0.1197256522
H  H123  1  0.40599000  0.41225000  0.32834000  1.0 0.1197256522
H  H124  1  0.37187000  0.36207000  0.42320000  1.0 0.0621999755
H  H125  1  0.47436000  0.37549000  0.50760000  1.0 0.1330976208
H  H126  1  0.50847000  0.42567000  0.41275000  1.0 0.1197256522
H  H127  1  0.83008000  0.46116000  0.13208000  1.0 0.1330976208
H  H128  1  0.78203000  0.46240000  0.21242000  1.0 0.1197256522
H  H129  1  0.86308000  0.55939000  0.32591000  1.0 0.1330976208
H  H130  1  0.91142000  0.56014000  0.24611000  1.0 0.1330976208
H  H131  1  0.83549000  0.50454000  0.43174000  1.0 0.1197256522
H  H132  1  0.00626000  0.59401000  0.32834000  1.0 0.1197256522
H  H133  1  0.99020000  0.62813000  0.42320000  1.0 0.0621999755
H  H134  1  0.90113000  0.52564000  0.50760000  1.0 0.1330976208
H  H135  1  0.91720000  0.49153000  0.41275000  1.0 0.1197256522
H  H136  1  0.36892000  0.83008000  0.13208000  1.0 0.1330976208
H  H137  1  0.31963000  0.78203000  0.21242000  1.0 0.1197256522
H  H138  1  0.30369000  0.86308000  0.32591000  1.0 0.1330976208
H  H139  1  0.35128000  0.91142000  0.24611000  1.0 0.1330976208
H  H140  1  0.33095000  0.83549000  0.43174000  1.0 0.1197256522
H  H141  1  0.41225000  0.00626000  0.32834000  1.0 0.1197256522
H  H142  1  0.36207000  0.99020000  0.42320000  1.0 0.0621999755
H  H143  1  0.37549000  0.90113000  0.50760000  1.0 0.1330976208
H  H144  1  0.42567000  0.91720000  0.41275000  1.0 0.1197256522
H  H145  1  0.46116000  0.63108000  0.13208000  1.0 0.1330976208
H  H146  1  0.46240000  0.68037000  0.21242000  1.0 0.1197256522
H  H147  1  0.55939000  0.69631000  0.32591000  1.0 0.1330976208
H  H148  1  0.56014000  0.64872000  0.24611000  1.0 0.1330976208
H  H149  1  0.50454000  0.66905000  0.43174000  1.0 0.1197256522
H  H150  1  0.59401000  0.58775000  0.32834000  1.0 0.1197256522
H  H151  1  0.62813000  0.63793000  0.42320000  1.0 0.0621999755
H  H152  1  0.52564000  0.62451000  0.50760000  1.0 0.1330976208
H  H153  1  0.49153000  0.57433000  0.41275000  1.0 0.1197256522
H  H154  1  0.16992000  0.53884000  0.13208000  1.0 0.1330976208
H  H155  1  0.21797000  0.53760000  0.21242000  1.0 0.1197256522
H  H156  1  0.13692000  0.44061000  0.32591000  1.0 0.1330976208
H  H157  1  0.08858000  0.43986000  0.24611000  1.0 0.1330976208
H  H158  1  0.16451000  0.49546000  0.43174000  1.0 0.1197256522
H  H159  1  0.99374000  0.40599000  0.32834000  1.0 0.1197256522
H  H160  1  0.00980000  0.37187000  0.42320000  1.0 0.0621999755
H  H161  1  0.09887000  0.47436000  0.50760000  1.0 0.135588444
H  H162  1  0.08280000  0.50847000  0.41275000  1.0 0.1197256522
H  H163  1  0.46116000  0.83008000  0.86792000  1.0 0.1330976208
H  H164  1  0.46240000  0.78203000  0.78758000  1.0 0.1197256522
H  H165  1  0.55939000  0.86308000  0.67409000  1.0 0.1330976208
H  H166  1  0.56014000  0.91142000  0.75389000  1.0 0.1330976208
H  H167  1  0.50454000  0.83549000  0.56826000  1.0 0.1197256522
H  H168  1  0.59401000  0.00626000  0.67166000  1.0 0.1197256522
H  H169  1  0.62813000  0.99020000  0.57680000  1.0 0.0621999755
H  H170  1  0.52564000  0.90113000  0.49240000  1.0 0.1330976208
H  H171  1  0.49153000  0.91720000  0.58725000  1.0 0.1197256522
H  H172  1  0.16992000  0.63108000  0.86792000  1.0 0.1330976208
H  H173  1  0.21797000  0.68037000  0.78758000  1.0 0.1197256522
H  H174  1  0.13692000  0.69631000  0.67409000  1.0 0.1330976208
H  H175  1  0.08858000  0.64872000  0.75389000  1.0 0.1330976208
H  H176  1  0.16451000  0.66905000  0.56826000  1.0 0.1197256522
H  H177  1  0.99374000  0.58775000  0.67166000  1.0 0.1197256522
H  H178  1  0.00980000  0.63793000  0.57680000  1.0 0.0621999755
H  H179  1  0.09887000  0.62451000  0.49240000  1.0 0.135588444
H  H180  1  0.08280000  0.57433000  0.58725000  1.0 0.1197256522
H  H181  1  0.36892000  0.53884000  0.86792000  1.0 0.1330976208
H  H182  1  0.31963000  0.53760000  0.78758000  1.0 0.1197256522
H  H183  1  0.30369000  0.44061000  0.67409000  1.0 0.1330976208
H  H184  1  0.35128000  0.43986000  0.75389000  1.0 0.1330976208
H  H185  1  0.33095000  0.49546000  0.56826000  1.0 0.1197256522
H  H186  1  0.41225000  0.40599000  0.67166000  1.0 0.1197256522
H  H187  1  0.36207000  0.37187000  0.57680000  1.0 0.0621999755
H  H188  1  0.37549000  0.47436000  0.49240000  1.0 0.1330976208
H  H189  1  0.42567000  0.50847000  0.58725000  1.0 0.1197256522
H  H190  1  0.53884000  0.16992000  0.86792000  1.0 0.1330976208
H  H191  1  0.53760000  0.21797000  0.78758000  1.0 0.1197256522
H  H192  1  0.44061000  0.13692000  0.67409000  1.0 0.1330976208
H  H193  1  0.43986000  0.08858000  0.75389000  1.0 0.1330976208
H  H194  1  0.49546000  0.16451000  0.56826000  1.0 0.1197256522
H  H195  1  0.40599000  0.99374000  0.67166000  1.0 0.1197256522
H  H196  1  0.37187000  0.00980000  0.57680000  1.0 0.0621999755
H  H197  1  0.47436000  0.09887000  0.49240000  1.0 0.1330976208
H  H198  1  0.50847000  0.08280000  0.58725000  1.0 0.1197256522
H  H199  1  0.83008000  0.36892000  0.86792000  1.0 0.1330976208
H  H200  1  0.78203000  0.31963000  0.78758000  1.0 0.1197256522
H  H201  1  0.86308000  0.30369000  0.67409000  1.0 0.1330976208
H  H202  1  0.91142000  0.35128000  0.75389000  1.0 0.1330976208
H  H203  1  0.83549000  0.33095000  0.56826000  1.0 0.1197256522
H  H204  1  0.00626000  0.41225000  0.67166000  1.0 0.1197256522
H  H205  1  0.99020000  0.36207000  0.57680000  1.0 0.0621999755
H  H206  1  0.90113000  0.37549000  0.49240000  1.0 0.1330976208
H  H207  1  0.91720000  0.42567000  0.58725000  1.0 0.1197256522
H  H208  1  0.63108000  0.46116000  0.86792000  1.0 0.1330976208
H  H209  1  0.68037000  0.46240000  0.78758000  1.0 0.1197256522
H  H210  1  0.69631000  0.55939000  0.67409000  1.0 0.1330976208
H  H211  1  0.64872000  0.56014000  0.75389000  1.0 0.1330976208
H  H212  1  0.66905000  0.50454000  0.56826000  1.0 0.1197256522
H  H213  1  0.58775000  0.59401000  0.67166000  1.0 0.1197256522
H  H214  1  0.63793000  0.62813000  0.57680000  1.0 0.0621999755
H  H215  1  0.62451000  0.52564000  0.49240000  1.0 0.1330976208
H  H216  1  0.57433000  0.49153000  0.58725000  1.0 0.1197256522
H  H217  1  0.24616000  0.75384000  0.77132000  1.0 0.1197256522
H  H218  1  0.50769000  0.75384000  0.77132000  1.0 0.1197256522
H  H219  1  0.24616000  0.49231000  0.77132000  1.0 0.1197256522
H  H220  1  0.75384000  0.24616000  0.77132000  1.0 0.1197256522
H  H221  1  0.49231000  0.24616000  0.77132000  1.0 0.1197256522
H  H222  1  0.75384000  0.50769000  0.77132000  1.0 0.1197256522
H  H223  1  0.49231000  0.24616000  0.22868000  1.0 0.1197256522
H  H224  1  0.75384000  0.24616000  0.22868000  1.0 0.1197256522
H  H225  1  0.75384000  0.50769000  0.22868000  1.0 0.1197256522
H  H226  1  0.50769000  0.75384000  0.22868000  1.0 0.1197256522
H  H227  1  0.24616000  0.75384000  0.22868000  1.0 0.1197256522
H  H228  1  0.24616000  0.49231000  0.22868000  1.0 0.1197256522
C  C1  1  0.39790000  0.90510000  0.86820000  1.0 0.6391540311
C  C2  1  0.36620000  0.87540000  0.81760000  1.0 -0.0343169801
C  C3  1  0.35600000  0.83710000  0.82810000  1.0 -0.0886315838
C  C4  1  0.32650000  0.80850000  0.78000000  1.0 -0.1552259408
C  C5  1  0.30750000  0.81730000  0.72300000  1.0 0.0873297864
C  C6  1  0.31720000  0.85660000  0.71350000  1.0 -0.1454309301
C  C7  1  0.34540000  0.88510000  0.75990000  1.0 -0.0561285139
C  C8  1  0.27540000  0.78370000  0.67090000  1.0 0.0252501534
C  C9  1  0.27620000  0.78670000  0.58810000  1.0 0.0433814867
C  C10  1  0.30880000  0.81570000  0.54030000  1.0 -0.1276928409
C  C11  1  0.45720000  0.97320000  0.69980000  1.0 0.4106027004
C  C12  1  0.42370000  0.96330000  0.63840000  1.0 -0.0362383993
C  C13  1  0.40480000  0.98490000  0.63530000  1.0 -0.1041379424
C  C14  1  0.37500000  0.97540000  0.57900000  1.0 -0.0362383993
C  C15  1  0.36410000  0.94420000  0.52570000  1.0 0.0458675242
C  C16  1  0.38300000  0.92250000  0.52900000  1.0 -0.0886315838
C  C17  1  0.41280000  0.93210000  0.58500000  1.0 -0.1276928409
C  C18  1  0.33170000  0.93410000  0.46500000  1.0 -0.0181003178
C  C19  1  0.30550000  0.92450000  0.42000000  1.0 -0.1356033517
C  C20  1  0.50720000  0.60210000  0.86820000  1.0 0.6391540311
C  C21  1  0.50920000  0.63380000  0.81760000  1.0 -0.0343169801
C  C22  1  0.48110000  0.64400000  0.82810000  1.0 -0.0886315838
C  C23  1  0.48200000  0.67350000  0.78000000  1.0 -0.1552259408
C  C24  1  0.50980000  0.69250000  0.72300000  1.0 0.0873297864
C  C25  1  0.53940000  0.68280000  0.71350000  1.0 -0.1454309301
C  C26  1  0.53970000  0.65460000  0.75990000  1.0 -0.0561285139
C  C27  1  0.50830000  0.72460000  0.67090000  1.0 0.0252501534
C  C28  1  0.51050000  0.72380000  0.58810000  1.0 0.0433814867
C  C29  1  0.50690000  0.69120000  0.54030000  1.0 -0.1276928409
C  C30  1  0.51600000  0.54280000  0.69980000  1.0 0.4106027004
C  C31  1  0.53960000  0.57630000  0.63840000  1.0 -0.0362383993
C  C32  1  0.58010000  0.59520000  0.63530000  1.0 -0.1041379424
C  C33  1  0.60040000  0.62500000  0.57900000  1.0 -0.0362383993
C  C34  1  0.58010000  0.63590000  0.52570000  1.0 0.0458675242
C  C35  1  0.53950000  0.61700000  0.52900000  1.0 -0.0886315838
C  C36  1  0.51930000  0.58720000  0.58500000  1.0 -0.1276928409
C  C37  1  0.60240000  0.66830000  0.46500000  1.0 -0.0181003178
C  C38  1  0.61900000  0.69450000  0.42000000  1.0 -0.1356033517
C  C39  1  0.09490000  0.49280000  0.86820000  1.0 0.6391540311
C  C40  1  0.12460000  0.49080000  0.81760000  1.0 -0.0362383993
C  C41  1  0.16290000  0.51890000  0.82810000  1.0 -0.0886315838
C  C42  1  0.19150000  0.51800000  0.78000000  1.0 -0.1552259408
C  C43  1  0.18270000  0.49020000  0.72300000  1.0 0.0873297864
C  C44  1  0.14340000  0.46060000  0.71350000  1.0 -0.1454309301
C  C45  1  0.11490000  0.46030000  0.75990000  1.0 -0.0561285139
C  C46  1  0.21630000  0.49170000  0.67090000  1.0 0.0252501534
C  C47  1  0.21330000  0.48950000  0.58810000  1.0 0.0433814867
C  C48  1  0.18430000  0.49310000  0.54030000  1.0 -0.1276928409
C  C49  1  0.02680000  0.48400000  0.69980000  1.0 0.4106027004
C  C50  1  0.03670000  0.46040000  0.63840000  1.0 -0.0362383993
C  C51  1  0.01510000  0.41990000  0.63530000  1.0 -0.1041379424
C  C52  1  0.02460000  0.39960000  0.57900000  1.0 -0.0362383993
C  C53  1  0.05580000  0.41990000  0.52570000  1.0 0.0458675242
C  C54  1  0.07750000  0.46050000  0.52900000  1.0 -0.0886315838
C  C55  1  0.06790000  0.48070000  0.58500000  1.0 -0.1276928409
C  C56  1  0.06590000  0.39760000  0.46500000  1.0 -0.0181003178
C  C57  1  0.07550000  0.38100000  0.42000000  1.0 -0.1356033517
C  C58  1  0.60210000  0.09490000  0.86820000  1.0 0.6391540311
C  C59  1  0.63380000  0.12460000  0.81760000  1.0 -0.0362383993
C  C60  1  0.64400000  0.16290000  0.82810000  1.0 -0.0886315838
C  C61  1  0.67350000  0.19150000  0.78000000  1.0 -0.1552259408
C  C62  1  0.69250000  0.18270000  0.72300000  1.0 0.0873297864
C  C63  1  0.68280000  0.14340000  0.71350000  1.0 -0.1454309301
C  C64  1  0.65460000  0.11490000  0.75990000  1.0 -0.0561285139
C  C65  1  0.72460000  0.21630000  0.67090000  1.0 0.0252501534
C  C66  1  0.72380000  0.21330000  0.58810000  1.0 0.0433814867
C  C67  1  0.69120000  0.18430000  0.54030000  1.0 -0.1276928409
C  C68  1  0.54280000  0.02680000  0.69980000  1.0 0.4106027004
C  C69  1  0.57630000  0.03670000  0.63840000  1.0 -0.0362383993
C  C70  1  0.59520000  0.01510000  0.63530000  1.0 -0.1041379424
C  C71  1  0.62500000  0.02460000  0.57900000  1.0 -0.0362383993
C  C72  1  0.63590000  0.05580000  0.52570000  1.0 0.0458675242
C  C73  1  0.61700000  0.07750000  0.52900000  1.0 -0.0886315838
C  C74  1  0.58720000  0.06790000  0.58500000  1.0 -0.1276928409
C  C75  1  0.66830000  0.06590000  0.46500000  1.0 -0.0181003178
C  C76  1  0.69450000  0.07550000  0.42000000  1.0 -0.1356033517
C  C77  1  0.49280000  0.39790000  0.86820000  1.0 0.6391540311
C  C78  1  0.49080000  0.36620000  0.81760000  1.0 -0.0362383993
C  C79  1  0.51890000  0.35600000  0.82810000  1.0 -0.0886315838
C  C80  1  0.51800000  0.32650000  0.78000000  1.0 -0.1552259408
C  C81  1  0.49020000  0.30750000  0.72300000  1.0 0.0873297864
C  C82  1  0.46060000  0.31720000  0.71350000  1.0 -0.1454309301
C  C83  1  0.46030000  0.34540000  0.75990000  1.0 -0.0561285139
C  C84  1  0.49170000  0.27540000  0.67090000  1.0 0.0252501534
C  C85  1  0.48950000  0.27620000  0.58810000  1.0 0.0433814867
C  C86  1  0.49310000  0.30880000  0.54030000  1.0 -0.1276928409
C  C87  1  0.48400000  0.45720000  0.69980000  1.0 0.4106027004
C  C88  1  0.46040000  0.42370000  0.63840000  1.0 -0.0362383993
C  C89  1  0.41990000  0.40480000  0.63530000  1.0 -0.1041379424
C  C90  1  0.39960000  0.37500000  0.57900000  1.0 -0.0362383993
C  C91  1  0.41990000  0.36410000  0.52570000  1.0 0.0458675242
C  C92  1  0.46050000  0.38300000  0.52900000  1.0 -0.0886315838
C  C93  1  0.48070000  0.41280000  0.58500000  1.0 -0.1276928409
C  C94  1  0.39760000  0.33170000  0.46500000  1.0 -0.0181003178
C  C95  1  0.38100000  0.30550000  0.42000000  1.0 -0.1356033517
C  C96  1  0.90510000  0.50720000  0.86820000  1.0 0.6391540311
C  C97  1  0.87540000  0.50920000  0.81760000  1.0 -0.0362383993
C  C98  1  0.83710000  0.48110000  0.82810000  1.0 -0.0886315838
C  C99  1  0.80850000  0.48200000  0.78000000  1.0 -0.1552259408
C  C100  1  0.81730000  0.50980000  0.72300000  1.0 0.0873297864
C  C101  1  0.85660000  0.53940000  0.71350000  1.0 -0.1454309301
C  C102  1  0.88510000  0.53970000  0.75990000  1.0 -0.0561285139
C  C103  1  0.78370000  0.50830000  0.67090000  1.0 0.0252501534
C  C104  1  0.78670000  0.51050000  0.58810000  1.0 0.0433814867
C  C105  1  0.81570000  0.50690000  0.54030000  1.0 -0.1276928409
C  C106  1  0.97320000  0.51600000  0.69980000  1.0 0.4106027004
C  C107  1  0.96330000  0.53960000  0.63840000  1.0 -0.0362383993
C  C108  1  0.98490000  0.58010000  0.63530000  1.0 -0.1041379424
C  C109  1  0.97540000  0.60040000  0.57900000  1.0 -0.0362383993
C  C110  1  0.94420000  0.58010000  0.52570000  1.0 0.0458675242
C  C111  1  0.92250000  0.53950000  0.52900000  1.0 -0.0886315838
C  C112  1  0.93210000  0.51930000  0.58500000  1.0 -0.1276928409
C  C113  1  0.93410000  0.60240000  0.46500000  1.0 -0.0181003178
C  C114  1  0.92450000  0.61900000  0.42000000  1.0 -0.1356033517
C  C115  1  0.49280000  0.09490000  0.13180000  1.0 0.6391540311
C  C116  1  0.49080000  0.12460000  0.18240000  1.0 -0.0343169801
C  C117  1  0.51890000  0.16290000  0.17190000  1.0 -0.0886315838
C  C118  1  0.51800000  0.19150000  0.22000000  1.0 -0.1552259408
C  C119  1  0.49020000  0.18270000  0.27700000  1.0 0.0873297864
C  C120  1  0.46060000  0.14340000  0.28650000  1.0 -0.1454309301
C  C121  1  0.46030000  0.11490000  0.24010000  1.0 -0.0561285139
C  C122  1  0.49170000  0.21630000  0.32910000  1.0 0.0235385756
C  C123  1  0.48950000  0.21330000  0.41190000  1.0 0.0433814867
C  C124  1  0.49310000  0.18430000  0.45970000  1.0 -0.1276928409
C  C125  1  0.48400000  0.02680000  0.30020000  1.0 0.4106027004
C  C126  1  0.46040000  0.03670000  0.36160000  1.0 -0.0362383993
C  C127  1  0.41990000  0.01510000  0.36470000  1.0 -0.1041379424
C  C128  1  0.39960000  0.02460000  0.42100000  1.0 -0.0362383993
C  C129  1  0.41990000  0.05580000  0.47430000  1.0 0.0458675242
C  C130  1  0.46050000  0.07750000  0.47100000  1.0 -0.0886315838
C  C131  1  0.48070000  0.06790000  0.41500000  1.0 -0.1276928409
C  C132  1  0.39760000  0.06590000  0.53500000  1.0 -0.0181003178
C  C133  1  0.38100000  0.07550000  0.58000000  1.0 -0.1356033517
C  C134  1  0.90510000  0.39790000  0.13180000  1.0 0.6391540311
C  C135  1  0.87540000  0.36620000  0.18240000  1.0 -0.0343169801
C  C136  1  0.83710000  0.35600000  0.17190000  1.0 -0.0886315838
C  C137  1  0.80850000  0.32650000  0.22000000  1.0 -0.1552259408
C  C138  1  0.81730000  0.30750000  0.27700000  1.0 0.0873297864
C  C139  1  0.85660000  0.31720000  0.28650000  1.0 -0.1454309301
C  C140  1  0.88510000  0.34540000  0.24010000  1.0 -0.0561285139
C  C141  1  0.78370000  0.27540000  0.32910000  1.0 0.0235385756
C  C142  1  0.78670000  0.27620000  0.41190000  1.0 0.0433814867
C  C143  1  0.81570000  0.30880000  0.45970000  1.0 -0.1276928409
C  C144  1  0.97320000  0.45720000  0.30020000  1.0 0.4106027004
C  C145  1  0.96330000  0.42370000  0.36160000  1.0 -0.0362383993
C  C146  1  0.98490000  0.40480000  0.36470000  1.0 -0.1041379424
C  C147  1  0.97540000  0.37500000  0.42100000  1.0 -0.0362383993
C  C148  1  0.94420000  0.36410000  0.47430000  1.0 0.0458675242
C  C149  1  0.92250000  0.38300000  0.47100000  1.0 -0.0886315838
C  C150  1  0.93210000  0.41280000  0.41500000  1.0 -0.1276928409
C  C151  1  0.93410000  0.33170000  0.53500000  1.0 -0.0181003178
C  C152  1  0.92450000  0.30550000  0.58000000  1.0 -0.1356033517
C  C153  1  0.60210000  0.50720000  0.13180000  1.0 0.6391540311
C  C154  1  0.63380000  0.50920000  0.18240000  1.0 -0.0362383993
C  C155  1  0.64400000  0.48110000  0.17190000  1.0 -0.0886315838
C  C156  1  0.67350000  0.48200000  0.22000000  1.0 -0.1552259408
C  C157  1  0.69250000  0.50980000  0.27700000  1.0 0.0873297864
C  C158  1  0.68280000  0.53940000  0.28650000  1.0 -0.1454309301
C  C159  1  0.65460000  0.53970000  0.24010000  1.0 -0.0561285139
C  C160  1  0.72460000  0.50830000  0.32910000  1.0 0.0252501534
C  C161  1  0.72380000  0.51050000  0.41190000  1.0 0.0433814867
C  C162  1  0.69120000  0.50690000  0.45970000  1.0 -0.1276928409
C  C163  1  0.54280000  0.51600000  0.30020000  1.0 0.4106027004
C  C164  1  0.57630000  0.53960000  0.36160000  1.0 -0.0362383993
C  C165  1  0.59520000  0.58010000  0.36470000  1.0 -0.1041379424
C  C166  1  0.62500000  0.60040000  0.42100000  1.0 -0.0362383993
C  C167  1  0.63590000  0.58010000  0.47430000  1.0 0.0458675242
C  C168  1  0.61700000  0.53950000  0.47100000  1.0 -0.0886315838
C  C169  1  0.58720000  0.51930000  0.41500000  1.0 -0.1276928409
C  C170  1  0.66830000  0.60240000  0.53500000  1.0 -0.0181003178
C  C171  1  0.69450000  0.61900000  0.58000000  1.0 -0.1356033517
C  C172  1  0.50720000  0.90510000  0.13180000  1.0 0.6391540311
C  C173  1  0.50920000  0.87540000  0.18240000  1.0 -0.0343169801
C  C174  1  0.48110000  0.83710000  0.17190000  1.0 -0.0886315838
C  C175  1  0.48200000  0.80850000  0.22000000  1.0 -0.1552259408
C  C176  1  0.50980000  0.81730000  0.27700000  1.0 0.0873297864
C  C177  1  0.53940000  0.85660000  0.28650000  1.0 -0.1454309301
C  C178  1  0.53970000  0.88510000  0.24010000  1.0 -0.0561285139
C  C179  1  0.50830000  0.78370000  0.32910000  1.0 0.0252501534
C  C180  1  0.51050000  0.78670000  0.41190000  1.0 0.0433814867
C  C181  1  0.50690000  0.81570000  0.45970000  1.0 -0.1276928409
C  C182  1  0.51600000  0.97320000  0.30020000  1.0 0.4106027004
C  C183  1  0.53960000  0.96330000  0.36160000  1.0 -0.0362383993
C  C184  1  0.58010000  0.98490000  0.36470000  1.0 -0.1041379424
C  C185  1  0.60040000  0.97540000  0.42100000  1.0 -0.0362383993
C  C186  1  0.58010000  0.94420000  0.47430000  1.0 0.0458675242
C  C187  1  0.53950000  0.92250000  0.47100000  1.0 -0.0886315838
C  C188  1  0.51930000  0.93210000  0.41500000  1.0 -0.1276928409
C  C189  1  0.60240000  0.93410000  0.53500000  1.0 -0.0181003178
C  C190  1  0.61900000  0.92450000  0.58000000  1.0 -0.1356033517
C  C191  1  0.09490000  0.60210000  0.13180000  1.0 0.6391540311
C  C192  1  0.12460000  0.63380000  0.18240000  1.0 -0.0362383993
C  C193  1  0.16290000  0.64400000  0.17190000  1.0 -0.0886315838
C  C194  1  0.19150000  0.67350000  0.22000000  1.0 -0.1552259408
C  C195  1  0.18270000  0.69250000  0.27700000  1.0 0.0873297864
C  C196  1  0.14340000  0.68280000  0.28650000  1.0 -0.1454309301
C  C197  1  0.11490000  0.65460000  0.24010000  1.0 -0.0561285139
C  C198  1  0.21630000  0.72460000  0.32910000  1.0 0.0252501534
C  C199  1  0.21330000  0.72380000  0.41190000  1.0 0.0433814867
C  C200  1  0.18430000  0.69120000  0.45970000  1.0 -0.1276928409
C  C201  1  0.02680000  0.54280000  0.30020000  1.0 0.4106027004
C  C202  1  0.03670000  0.57630000  0.36160000  1.0 -0.0362383993
C  C203  1  0.01510000  0.59520000  0.36470000  1.0 -0.1041379424
C  C204  1  0.02460000  0.62500000  0.42100000  1.0 -0.0362383993
C  C205  1  0.05580000  0.63590000  0.47430000  1.0 0.0458675242
C  C206  1  0.07750000  0.61700000  0.47100000  1.0 -0.0886315838
C  C207  1  0.06790000  0.58720000  0.41500000  1.0 -0.1276928409
C  C208  1  0.06590000  0.66830000  0.53500000  1.0 -0.0181003178
C  C209  1  0.07550000  0.69450000  0.58000000  1.0 -0.1356033517
C  C210  1  0.39790000  0.49280000  0.13180000  1.0 0.6391540311
C  C211  1  0.36620000  0.49080000  0.18240000  1.0 -0.0343169801
C  C212  1  0.35600000  0.51890000  0.17190000  1.0 -0.0886315838
C  C213  1  0.32650000  0.51800000  0.22000000  1.0 -0.1552259408
C  C214  1  0.30750000  0.49020000  0.27700000  1.0 0.0873297864
C  C215  1  0.31720000  0.46060000  0.28650000  1.0 -0.1454309301
C  C216  1  0.34540000  0.46030000  0.24010000  1.0 -0.0561285139
C  C217  1  0.27540000  0.49170000  0.32910000  1.0 0.0252501534
C  C218  1  0.27620000  0.48950000  0.41190000  1.0 0.0433814867
C  C219  1  0.30880000  0.49310000  0.45970000  1.0 -0.1276928409
C  C220  1  0.45720000  0.48400000  0.30020000  1.0 0.4106027004
C  C221  1  0.42370000  0.46040000  0.36160000  1.0 -0.0362383993
C  C222  1  0.40480000  0.41990000  0.36470000  1.0 -0.1041379424
C  C223  1  0.37500000  0.39960000  0.42100000  1.0 -0.0362383993
C  C224  1  0.36410000  0.41990000  0.47430000  1.0 0.0458675242
C  C225  1  0.38300000  0.46050000  0.47100000  1.0 -0.0886315838
C  C226  1  0.41280000  0.48070000  0.41500000  1.0 -0.1276928409
C  C227  1  0.33170000  0.39760000  0.53500000  1.0 -0.0181003178
C  C228  1  0.30550000  0.38100000  0.58000000  1.0 -0.1356033517
C  C229  1  0.60210000  0.09490000  0.13180000  1.0 0.6391540311
C  C230  1  0.63380000  0.12460000  0.18240000  1.0 -0.0343169801
C  C231  1  0.64400000  0.16290000  0.17190000  1.0 -0.0886315838
C  C232  1  0.67350000  0.19150000  0.22000000  1.0 -0.1552259408
C  C233  1  0.69250000  0.18270000  0.27700000  1.0 0.0873297864
C  C234  1  0.68280000  0.14340000  0.28650000  1.0 -0.1454309301
C  C235  1  0.65460000  0.11490000  0.24010000  1.0 -0.0561285139
C  C236  1  0.72460000  0.21630000  0.32910000  1.0 0.0235385756
C  C237  1  0.72380000  0.21330000  0.41190000  1.0 0.0433814867
C  C238  1  0.69120000  0.18430000  0.45970000  1.0 -0.1276928409
C  C239  1  0.54280000  0.02680000  0.30020000  1.0 0.4106027004
C  C240  1  0.57630000  0.03670000  0.36160000  1.0 -0.0362383993
C  C241  1  0.59520000  0.01510000  0.36470000  1.0 -0.1041379424
C  C242  1  0.62500000  0.02460000  0.42100000  1.0 -0.0362383993
C  C243  1  0.63590000  0.05580000  0.47430000  1.0 0.0458675242
C  C244  1  0.61700000  0.07750000  0.47100000  1.0 -0.0886315838
C  C245  1  0.58720000  0.06790000  0.41500000  1.0 -0.1276928409
C  C246  1  0.66830000  0.06590000  0.53500000  1.0 -0.0181003178
C  C247  1  0.69450000  0.07550000  0.58000000  1.0 -0.1356033517
C  C248  1  0.49280000  0.39790000  0.13180000  1.0 0.6391540311
C  C249  1  0.49080000  0.36620000  0.18240000  1.0 -0.0362383993
C  C250  1  0.51890000  0.35600000  0.17190000  1.0 -0.0886315838
C  C251  1  0.51800000  0.32650000  0.22000000  1.0 -0.1552259408
C  C252  1  0.49020000  0.30750000  0.27700000  1.0 0.0873297864
C  C253  1  0.46060000  0.31720000  0.28650000  1.0 -0.1454309301
C  C254  1  0.46030000  0.34540000  0.24010000  1.0 -0.0561285139
C  C255  1  0.49170000  0.27540000  0.32910000  1.0 0.0252501534
C  C256  1  0.48950000  0.27620000  0.41190000  1.0 0.0433814867
C  C257  1  0.49310000  0.30880000  0.45970000  1.0 -0.1276928409
C  C258  1  0.48400000  0.45720000  0.30020000  1.0 0.4106027004
C  C259  1  0.46040000  0.42370000  0.36160000  1.0 -0.0362383993
C  C260  1  0.41990000  0.40480000  0.36470000  1.0 -0.1041379424
C  C261  1  0.39960000  0.37500000  0.42100000  1.0 -0.0362383993
C  C262  1  0.41990000  0.36410000  0.47430000  1.0 0.0458675242
C  C263  1  0.46050000  0.38300000  0.47100000  1.0 -0.0886315838
C  C264  1  0.48070000  0.41280000  0.41500000  1.0 -0.1276928409
C  C265  1  0.39760000  0.33170000  0.53500000  1.0 -0.0181003178
C  C266  1  0.38100000  0.30550000  0.58000000  1.0 -0.1356033517
C  C267  1  0.90510000  0.50720000  0.13180000  1.0 0.6391540311
C  C268  1  0.87540000  0.50920000  0.18240000  1.0 -0.0343169801
C  C269  1  0.83710000  0.48110000  0.17190000  1.0 -0.0886315838
C  C270  1  0.80850000  0.48200000  0.22000000  1.0 -0.1552259408
C  C271  1  0.81730000  0.50980000  0.27700000  1.0 0.0873297864
C  C272  1  0.85660000  0.53940000  0.28650000  1.0 -0.1454309301
C  C273  1  0.88510000  0.53970000  0.24010000  1.0 -0.0561285139
C  C274  1  0.78370000  0.50830000  0.32910000  1.0 0.0252501534
C  C275  1  0.78670000  0.51050000  0.41190000  1.0 0.0433814867
C  C276  1  0.81570000  0.50690000  0.45970000  1.0 -0.1276928409
C  C277  1  0.97320000  0.51600000  0.30020000  1.0 0.4106027004
C  C278  1  0.96330000  0.53960000  0.36160000  1.0 -0.0362383993
C  C279  1  0.98490000  0.58010000  0.36470000  1.0 -0.1041379424
C  C280  1  0.97540000  0.60040000  0.42100000  1.0 -0.0362383993
C  C281  1  0.94420000  0.58010000  0.47430000  1.0 0.0458675242
C  C282  1  0.92250000  0.53950000  0.47100000  1.0 -0.0886315838
C  C283  1  0.93210000  0.51930000  0.41500000  1.0 -0.1276928409
C  C284  1  0.93410000  0.60240000  0.53500000  1.0 -0.0181003178
C  C285  1  0.92450000  0.61900000  0.58000000  1.0 -0.1356033517
C  C286  1  0.39790000  0.90510000  0.13180000  1.0 0.6391540311
C  C287  1  0.36620000  0.87540000  0.18240000  1.0 -0.0343169801
C  C288  1  0.35600000  0.83710000  0.17190000  1.0 -0.0886315838
C  C289  1  0.32650000  0.80850000  0.22000000  1.0 -0.1552259408
C  C290  1  0.30750000  0.81730000  0.27700000  1.0 0.0873297864
C  C291  1  0.31720000  0.85660000  0.28650000  1.0 -0.1454309301
C  C292  1  0.34540000  0.88510000  0.24010000  1.0 -0.0561285139
C  C293  1  0.27540000  0.78370000  0.32910000  1.0 0.0252501534
C  C294  1  0.27620000  0.78670000  0.41190000  1.0 0.0433814867
C  C295  1  0.30880000  0.81570000  0.45970000  1.0 -0.1276928409
C  C296  1  0.45720000  0.97320000  0.30020000  1.0 0.4106027004
C  C297  1  0.42370000  0.96330000  0.36160000  1.0 -0.0362383993
C  C298  1  0.40480000  0.98490000  0.36470000  1.0 -0.1041379424
C  C299  1  0.37500000  0.97540000  0.42100000  1.0 -0.0362383993
C  C300  1  0.36410000  0.94420000  0.47430000  1.0 0.0458675242
C  C301  1  0.38300000  0.92250000  0.47100000  1.0 -0.0886315838
C  C302  1  0.41280000  0.93210000  0.41500000  1.0 -0.1276928409
C  C303  1  0.33170000  0.93410000  0.53500000  1.0 -0.0181003178
C  C304  1  0.30550000  0.92450000  0.58000000  1.0 -0.1356033517
C  C305  1  0.50720000  0.60210000  0.13180000  1.0 0.6391540311
C  C306  1  0.50920000  0.63380000  0.18240000  1.0 -0.0343169801
C  C307  1  0.48110000  0.64400000  0.17190000  1.0 -0.0886315838
C  C308  1  0.48200000  0.67350000  0.22000000  1.0 -0.1552259408
C  C309  1  0.50980000  0.69250000  0.27700000  1.0 0.0873297864
C  C310  1  0.53940000  0.68280000  0.28650000  1.0 -0.1454309301
C  C311  1  0.53970000  0.65460000  0.24010000  1.0 -0.0561285139
C  C312  1  0.50830000  0.72460000  0.32910000  1.0 0.0252501534
C  C313  1  0.51050000  0.72380000  0.41190000  1.0 0.0433814867
C  C314  1  0.50690000  0.69120000  0.45970000  1.0 -0.1276928409
C  C315  1  0.51600000  0.54280000  0.30020000  1.0 0.4106027004
C  C316  1  0.53960000  0.57630000  0.36160000  1.0 -0.0362383993
C  C317  1  0.58010000  0.59520000  0.36470000  1.0 -0.1041379424
C  C318  1  0.60040000  0.62500000  0.42100000  1.0 -0.0362383993
C  C319  1  0.58010000  0.63590000  0.47430000  1.0 0.0458675242
C  C320  1  0.53950000  0.61700000  0.47100000  1.0 -0.0886315838
C  C321  1  0.51930000  0.58720000  0.41500000  1.0 -0.1276928409
C  C322  1  0.60240000  0.66830000  0.53500000  1.0 -0.0181003178
C  C323  1  0.61900000  0.69450000  0.58000000  1.0 -0.1356033517
C  C324  1  0.09490000  0.49280000  0.13180000  1.0 0.6391540311
C  C325  1  0.12460000  0.49080000  0.18240000  1.0 -0.0343169801
C  C326  1  0.16290000  0.51890000  0.17190000  1.0 -0.0886315838
C  C327  1  0.19150000  0.51800000  0.22000000  1.0 -0.1552259408
C  C328  1  0.18270000  0.49020000  0.27700000  1.0 0.0873297864
C  C329  1  0.14340000  0.46060000  0.28650000  1.0 -0.1454309301
C  C330  1  0.11490000  0.46030000  0.24010000  1.0 -0.0561285139
C  C331  1  0.21630000  0.49170000  0.32910000  1.0 0.0252501534
C  C332  1  0.21330000  0.48950000  0.41190000  1.0 0.0433814867
C  C333  1  0.18430000  0.49310000  0.45970000  1.0 -0.1276928409
C  C334  1  0.02680000  0.48400000  0.30020000  1.0 0.4106027004
C  C335  1  0.03670000  0.46040000  0.36160000  1.0 -0.0362383993
C  C336  1  0.01510000  0.41990000  0.36470000  1.0 -0.1041379424
C  C337  1  0.02460000  0.39960000  0.42100000  1.0 -0.0362383993
C  C338  1  0.05580000  0.41990000  0.47430000  1.0 0.0458675242
C  C339  1  0.07750000  0.46050000  0.47100000  1.0 -0.0886315838
C  C340  1  0.06790000  0.48070000  0.41500000  1.0 -0.1276928409
C  C341  1  0.06590000  0.39760000  0.53500000  1.0 -0.0181003178
C  C342  1  0.07550000  0.38100000  0.58000000  1.0 -0.1356033517
C  C343  1  0.50720000  0.90510000  0.86820000  1.0 0.6391540311
C  C344  1  0.50920000  0.87540000  0.81760000  1.0 -0.0343169801
C  C345  1  0.48110000  0.83710000  0.82810000  1.0 -0.0886315838
C  C346  1  0.48200000  0.80850000  0.78000000  1.0 -0.1552259408
C  C347  1  0.50980000  0.81730000  0.72300000  1.0 0.0873297864
C  C348  1  0.53940000  0.85660000  0.71350000  1.0 -0.1454309301
C  C349  1  0.53970000  0.88510000  0.75990000  1.0 -0.0561285139
C  C350  1  0.50830000  0.78370000  0.67090000  1.0 0.0252501534
C  C351  1  0.51050000  0.78670000  0.58810000  1.0 0.0433814867
C  C352  1  0.50690000  0.81570000  0.54030000  1.0 -0.1276928409
C  C353  1  0.51600000  0.97320000  0.69980000  1.0 0.4106027004
C  C354  1  0.53960000  0.96330000  0.63840000  1.0 -0.0362383993
C  C355  1  0.58010000  0.98490000  0.63530000  1.0 -0.1041379424
C  C356  1  0.60040000  0.97540000  0.57900000  1.0 -0.0362383993
C  C357  1  0.58010000  0.94420000  0.52570000  1.0 0.0458675242
C  C358  1  0.53950000  0.92250000  0.52900000  1.0 -0.0886315838
C  C359  1  0.51930000  0.93210000  0.58500000  1.0 -0.1276928409
C  C360  1  0.60240000  0.93410000  0.46500000  1.0 -0.0181003178
C  C361  1  0.61900000  0.92450000  0.42000000  1.0 -0.1356033517
C  C362  1  0.09490000  0.60210000  0.86820000  1.0 0.6391540311
C  C363  1  0.12460000  0.63380000  0.81760000  1.0 -0.0362383993
C  C364  1  0.16290000  0.64400000  0.82810000  1.0 -0.0886315838
C  C365  1  0.19150000  0.67350000  0.78000000  1.0 -0.1552259408
C  C366  1  0.18270000  0.69250000  0.72300000  1.0 0.0873297864
C  C367  1  0.14340000  0.68280000  0.71350000  1.0 -0.1454309301
C  C368  1  0.11490000  0.65460000  0.75990000  1.0 -0.0561285139
C  C369  1  0.21630000  0.72460000  0.67090000  1.0 0.0252501534
C  C370  1  0.21330000  0.72380000  0.58810000  1.0 0.0433814867
C  C371  1  0.18430000  0.69120000  0.54030000  1.0 -0.1276928409
C  C372  1  0.02680000  0.54280000  0.69980000  1.0 0.4106027004
C  C373  1  0.03670000  0.57630000  0.63840000  1.0 -0.0362383993
C  C374  1  0.01510000  0.59520000  0.63530000  1.0 -0.1041379424
C  C375  1  0.02460000  0.62500000  0.57900000  1.0 -0.0362383993
C  C376  1  0.05580000  0.63590000  0.52570000  1.0 0.0458675242
C  C377  1  0.07750000  0.61700000  0.52900000  1.0 -0.0886315838
C  C378  1  0.06790000  0.58720000  0.58500000  1.0 -0.1276928409
C  C379  1  0.06590000  0.66830000  0.46500000  1.0 -0.0181003178
C  C380  1  0.07550000  0.69450000  0.42000000  1.0 -0.1356033517
C  C381  1  0.39790000  0.49280000  0.86820000  1.0 0.6391540311
C  C382  1  0.36620000  0.49080000  0.81760000  1.0 -0.0362383993
C  C383  1  0.35600000  0.51890000  0.82810000  1.0 -0.0886315838
C  C384  1  0.32650000  0.51800000  0.78000000  1.0 -0.1552259408
C  C385  1  0.30750000  0.49020000  0.72300000  1.0 0.0873297864
C  C386  1  0.31720000  0.46060000  0.71350000  1.0 -0.1454309301
C  C387  1  0.34540000  0.46030000  0.75990000  1.0 -0.0561285139
C  C388  1  0.27540000  0.49170000  0.67090000  1.0 0.0252501534
C  C389  1  0.27620000  0.48950000  0.58810000  1.0 0.0433814867
C  C390  1  0.30880000  0.49310000  0.54030000  1.0 -0.1276928409
C  C391  1  0.45720000  0.48400000  0.69980000  1.0 0.4106027004
C  C392  1  0.42370000  0.46040000  0.63840000  1.0 -0.0362383993
C  C393  1  0.40480000  0.41990000  0.63530000  1.0 -0.1041379424
C  C394  1  0.37500000  0.39960000  0.57900000  1.0 -0.0362383993
C  C395  1  0.36410000  0.41990000  0.52570000  1.0 0.0458675242
C  C396  1  0.38300000  0.46050000  0.52900000  1.0 -0.0886315838
C  C397  1  0.41280000  0.48070000  0.58500000  1.0 -0.1276928409
C  C398  1  0.33170000  0.39760000  0.46500000  1.0 -0.0181003178
C  C399  1  0.30550000  0.38100000  0.42000000  1.0 -0.1356033517
C  C400  1  0.49280000  0.09490000  0.86820000  1.0 0.6391540311
C  C401  1  0.49080000  0.12460000  0.81760000  1.0 -0.0362383993
C  C402  1  0.51890000  0.16290000  0.82810000  1.0 -0.0886315838
C  C403  1  0.51800000  0.19150000  0.78000000  1.0 -0.1552259408
C  C404  1  0.49020000  0.18270000  0.72300000  1.0 0.0873297864
C  C405  1  0.46060000  0.14340000  0.71350000  1.0 -0.1454309301
C  C406  1  0.46030000  0.11490000  0.75990000  1.0 -0.0561285139
C  C407  1  0.49170000  0.21630000  0.67090000  1.0 0.0252501534
C  C408  1  0.48950000  0.21330000  0.58810000  1.0 0.0433814867
C  C409  1  0.49310000  0.18430000  0.54030000  1.0 -0.1276928409
C  C410  1  0.48400000  0.02680000  0.69980000  1.0 0.4106027004
C  C411  1  0.46040000  0.03670000  0.63840000  1.0 -0.0362383993
C  C412  1  0.41990000  0.01510000  0.63530000  1.0 -0.1041379424
C  C413  1  0.39960000  0.02460000  0.57900000  1.0 -0.0362383993
C  C414  1  0.41990000  0.05580000  0.52570000  1.0 0.0458675242
C  C415  1  0.46050000  0.07750000  0.52900000  1.0 -0.0886315838
C  C416  1  0.48070000  0.06790000  0.58500000  1.0 -0.1276928409
C  C417  1  0.39760000  0.06590000  0.46500000  1.0 -0.0181003178
C  C418  1  0.38100000  0.07550000  0.42000000  1.0 -0.1356033517
C  C419  1  0.90510000  0.39790000  0.86820000  1.0 0.6391540311
C  C420  1  0.87540000  0.36620000  0.81760000  1.0 -0.0362383993
C  C421  1  0.83710000  0.35600000  0.82810000  1.0 -0.0886315838
C  C422  1  0.80850000  0.32650000  0.78000000  1.0 -0.1552259408
C  C423  1  0.81730000  0.30750000  0.72300000  1.0 0.0873297864
C  C424  1  0.85660000  0.31720000  0.71350000  1.0 -0.1454309301
C  C425  1  0.88510000  0.34540000  0.75990000  1.0 -0.0561285139
C  C426  1  0.78370000  0.27540000  0.67090000  1.0 0.0252501534
C  C427  1  0.78670000  0.27620000  0.58810000  1.0 0.0433814867
C  C428  1  0.81570000  0.30880000  0.54030000  1.0 -0.1276928409
C  C429  1  0.97320000  0.45720000  0.69980000  1.0 0.4106027004
C  C430  1  0.96330000  0.42370000  0.63840000  1.0 -0.0362383993
C  C431  1  0.98490000  0.40480000  0.63530000  1.0 -0.1041379424
C  C432  1  0.97540000  0.37500000  0.57900000  1.0 -0.0362383993
C  C433  1  0.94420000  0.36410000  0.52570000  1.0 0.0458675242
C  C434  1  0.92250000  0.38300000  0.52900000  1.0 -0.0886315838
C  C435  1  0.93210000  0.41280000  0.58500000  1.0 -0.1276928409
C  C436  1  0.93410000  0.33170000  0.46500000  1.0 -0.0181003178
C  C437  1  0.92450000  0.30550000  0.42000000  1.0 -0.1356033517
C  C438  1  0.60210000  0.50720000  0.86820000  1.0 0.6391540311
C  C439  1  0.63380000  0.50920000  0.81760000  1.0 -0.0362383993
C  C440  1  0.64400000  0.48110000  0.82810000  1.0 -0.0886315838
C  C441  1  0.67350000  0.48200000  0.78000000  1.0 -0.1552259408
C  C442  1  0.69250000  0.50980000  0.72300000  1.0 0.0873297864
C  C443  1  0.68280000  0.53940000  0.71350000  1.0 -0.1454309301
C  C444  1  0.65460000  0.53970000  0.75990000  1.0 -0.0561285139
C  C445  1  0.72460000  0.50830000  0.67090000  1.0 0.0252501534
C  C446  1  0.72380000  0.51050000  0.58810000  1.0 0.0433814867
C  C447  1  0.69120000  0.50690000  0.54030000  1.0 -0.1276928409
C  C448  1  0.54280000  0.51600000  0.69980000  1.0 0.4106027004
C  C449  1  0.57630000  0.53960000  0.63840000  1.0 -0.0362383993
C  C450  1  0.59520000  0.58010000  0.63530000  1.0 -0.1041379424
C  C451  1  0.62500000  0.60040000  0.57900000  1.0 -0.0362383993
C  C452  1  0.63590000  0.58010000  0.52570000  1.0 0.0458675242
C  C453  1  0.61700000  0.53950000  0.52900000  1.0 -0.0886315838
C  C454  1  0.58720000  0.51930000  0.58500000  1.0 -0.1276928409
C  C455  1  0.66830000  0.60240000  0.46500000  1.0 -0.0181003178
C  C456  1  0.69450000  0.61900000  0.42000000  1.0 -0.1356033517
C  C457  1  0.24600000  0.75400000  0.71320000  1.0 -0.1833478692
C  C458  1  0.24575000  0.75425000  0.54370000  1.0 0.0096427098
C  C459  1  0.50800000  0.75400000  0.71320000  1.0 -0.1833478692
C  C460  1  0.50850000  0.75425000  0.54370000  1.0 0.0096427098
C  C461  1  0.24600000  0.49200000  0.71320000  1.0 -0.1833478692
C  C462  1  0.24575000  0.49150000  0.54370000  1.0 0.0096427098
C  C463  1  0.75400000  0.24600000  0.71320000  1.0 -0.1833478692
C  C464  1  0.75425000  0.24575000  0.54370000  1.0 0.0096427098
C  C465  1  0.49200000  0.24600000  0.71320000  1.0 -0.1833478692
C  C466  1  0.49150000  0.24575000  0.54370000  1.0 0.0096427098
C  C467  1  0.75400000  0.50800000  0.71320000  1.0 -0.1833478692
C  C468  1  0.75425000  0.50850000  0.54370000  1.0 0.0096427098
C  C469  1  0.49200000  0.24600000  0.28680000  1.0 -0.1833478692
C  C470  1  0.49150000  0.24575000  0.45630000  1.0 0.0096427098
C  C471  1  0.75400000  0.24600000  0.28680000  1.0 -0.1833478692
C  C472  1  0.75425000  0.24575000  0.45630000  1.0 0.0096427098
C  C473  1  0.75400000  0.50800000  0.28680000  1.0 -0.1833478692
C  C474  1  0.75425000  0.50850000  0.45630000  1.0 0.0096427098
C  C475  1  0.50800000  0.75400000  0.28680000  1.0 -0.1833478692
C  C476  1  0.50850000  0.75425000  0.45630000  1.0 0.0096427098
C  C477  1  0.24600000  0.75400000  0.28680000  1.0 -0.1833478692
C  C478  1  0.24575000  0.75425000  0.45630000  1.0 0.0096427098
C  C479  1  0.24600000  0.49200000  0.28680000  1.0 -0.1833478692
C  C480  1  0.24575000  0.49150000  0.45630000  1.0 0.0096427098
O  O1  1  0.41380000  0.89540000  0.91710000  1.0 -0.535810767
O  O2  1  0.40740000  0.94050000  0.85000000  1.0 -0.6185398681
O  O3  1  0.47200000  0.94800000  0.70600000  1.0 -0.4206134729
O  O4  1  0.48160000  0.58620000  0.91710000  1.0 -0.535810767
O  O5  1  0.53310000  0.59260000  0.85000000  1.0 -0.6185398681
O  O6  1  0.47600000  0.52800000  0.70600000  1.0 -0.4206134729
O  O7  1  0.10460000  0.51840000  0.91710000  1.0 -0.535810767
O  O8  1  0.05950000  0.46690000  0.85000000  1.0 -0.6185398681
O  O9  1  0.05200000  0.52400000  0.70600000  1.0 -0.4206134729
O  O10  1  0.58620000  0.10460000  0.91710000  1.0 -0.535810767
O  O11  1  0.59260000  0.05950000  0.85000000  1.0 -0.6185398681
O  O12  1  0.52800000  0.05200000  0.70600000  1.0 -0.4206134729
O  O13  1  0.51840000  0.41380000  0.91710000  1.0 -0.535810767
O  O14  1  0.46690000  0.40740000  0.85000000  1.0 -0.6185398681
O  O15  1  0.52400000  0.47200000  0.70600000  1.0 -0.4206134729
O  O16  1  0.89540000  0.48160000  0.91710000  1.0 -0.535810767
O  O17  1  0.94050000  0.53310000  0.85000000  1.0 -0.6185398681
O  O18  1  0.94800000  0.47600000  0.70600000  1.0 -0.4206134729
O  O19  1  0.51840000  0.10460000  0.08290000  1.0 -0.535810767
O  O20  1  0.46690000  0.05950000  0.15000000  1.0 -0.6185398681
O  O21  1  0.52400000  0.05200000  0.29400000  1.0 -0.4140277587
O  O22  1  0.89540000  0.41380000  0.08290000  1.0 -0.535810767
O  O23  1  0.94050000  0.40740000  0.15000000  1.0 -0.6185398681
O  O24  1  0.94800000  0.47200000  0.29400000  1.0 -0.4206134729
O  O25  1  0.58620000  0.48160000  0.08290000  1.0 -0.535810767
O  O26  1  0.59260000  0.53310000  0.15000000  1.0 -0.6185398681
O  O27  1  0.52800000  0.47600000  0.29400000  1.0 -0.4140277587
O  O28  1  0.48160000  0.89540000  0.08290000  1.0 -0.535810767
O  O29  1  0.53310000  0.94050000  0.15000000  1.0 -0.6185398681
O  O30  1  0.47600000  0.94800000  0.29400000  1.0 -0.4206134729
O  O31  1  0.10460000  0.58620000  0.08290000  1.0 -0.535810767
O  O32  1  0.05950000  0.59260000  0.15000000  1.0 -0.6185398681
O  O33  1  0.05200000  0.52800000  0.29400000  1.0 -0.4206134729
O  O34  1  0.41380000  0.51840000  0.08290000  1.0 -0.535810767
O  O35  1  0.40740000  0.46690000  0.15000000  1.0 -0.6185398681
O  O36  1  0.47200000  0.52400000  0.29400000  1.0 -0.4206134729
O  O37  1  0.58620000  0.10460000  0.08290000  1.0 -0.535810767
O  O38  1  0.59260000  0.05950000  0.15000000  1.0 -0.6185398681
O  O39  1  0.52800000  0.05200000  0.29400000  1.0 -0.4140277587
O  O40  1  0.51840000  0.41380000  0.08290000  1.0 -0.535810767
O  O41  1  0.46690000  0.40740000  0.15000000  1.0 -0.6185398681
O  O42  1  0.52400000  0.47200000  0.29400000  1.0 -0.4140277587
O  O43  1  0.89540000  0.48160000  0.08290000  1.0 -0.535810767
O  O44  1  0.94050000  0.53310000  0.15000000  1.0 -0.6185398681
O  O45  1  0.94800000  0.47600000  0.29400000  1.0 -0.4206134729
O  O46  1  0.41380000  0.89540000  0.08290000  1.0 -0.535810767
O  O47  1  0.40740000  0.94050000  0.15000000  1.0 -0.6185398681
O  O48  1  0.47200000  0.94800000  0.29400000  1.0 -0.4206134729
O  O49  1  0.48160000  0.58620000  0.08290000  1.0 -0.535810767
O  O50  1  0.53310000  0.59260000  0.15000000  1.0 -0.6185398681
O  O51  1  0.47600000  0.52800000  0.29400000  1.0 -0.4206134729
O  O52  1  0.10460000  0.51840000  0.08290000  1.0 -0.535810767
O  O53  1  0.05950000  0.46690000  0.15000000  1.0 -0.6185398681
O  O54  1  0.05200000  0.52400000  0.29400000  1.0 -0.4206134729
O  O55  1  0.48160000  0.89540000  0.91710000  1.0 -0.535810767
O  O56  1  0.53310000  0.94050000  0.85000000  1.0 -0.6185398681
O  O57  1  0.47600000  0.94800000  0.70600000  1.0 -0.4206134729
O  O58  1  0.10460000  0.58620000  0.91710000  1.0 -0.535810767
O  O59  1  0.05950000  0.59260000  0.85000000  1.0 -0.6185398681
O  O60  1  0.05200000  0.52800000  0.70600000  1.0 -0.4206134729
O  O61  1  0.41380000  0.51840000  0.91710000  1.0 -0.535810767
O  O62  1  0.40740000  0.46690000  0.85000000  1.0 -0.6185398681
O  O63  1  0.47200000  0.52400000  0.70600000  1.0 -0.4206134729
O  O64  1  0.51840000  0.10460000  0.91710000  1.0 -0.535810767
O  O65  1  0.46690000  0.05950000  0.85000000  1.0 -0.6185398681
O  O66  1  0.52400000  0.05200000  0.70600000  1.0 -0.4206134729
O  O67  1  0.89540000  0.41380000  0.91710000  1.0 -0.535810767
O  O68  1  0.94050000  0.40740000  0.85000000  1.0 -0.6185398681
O  O69  1  0.94800000  0.47200000  0.70600000  1.0 -0.4206134729
O  O70  1  0.58620000  0.48160000  0.91710000  1.0 -0.535810767
O  O71  1  0.59260000  0.53310000  0.85000000  1.0 -0.6185398681
O  O72  1  0.52800000  0.47600000  0.70600000  1.0 -0.4206134729
O  O73  1  0.47000000  0.03520000  0.00000000  1.0 -1.1371209605
O  O74  1  0.56520000  0.53000000  0.00000000  1.0 -1.1371209605
O  O75  1  0.96480000  0.43480000  0.00000000  1.0 -1.1371209605
O  O76  1  0.53000000  0.96480000  0.00000000  1.0 -1.1371209605
O  O77  1  0.43480000  0.47000000  0.00000000  1.0 -1.1371209605
O  O78  1  0.03520000  0.56520000  0.00000000  1.0 -1.1371209605
O  O79  1  0.43480000  0.96480000  0.00000000  1.0 -1.1371209605
O  O80  1  0.03520000  0.47000000  0.00000000  1.0 -1.1371209605
O  O81  1  0.53000000  0.56520000  0.00000000  1.0 -1.1371209605
O  O82  1  0.56520000  0.03520000  0.00000000  1.0 -1.1371209605
O  O83  1  0.96480000  0.53000000  0.00000000  1.0 -1.1371209605
O  O84  1  0.47000000  0.43480000  0.00000000  1.0 -1.1371209605
O  O85  1  0.51780000  0.03560000  0.89240000  1.0 -1.1256830278
O  O86  1  0.51780000  0.48220000  0.89240000  1.0 -1.1239971303
O  O87  1  0.96440000  0.48220000  0.89240000  1.0 -1.1256830278
O  O88  1  0.48220000  0.96440000  0.89240000  1.0 -1.1256830278
O  O89  1  0.48220000  0.51780000  0.89240000  1.0 -1.1239971303
O  O90  1  0.03560000  0.51780000  0.89240000  1.0 -1.1256830278
O  O91  1  0.48220000  0.96440000  0.10760000  1.0 -1.1256830278
O  O92  1  0.03560000  0.51780000  0.10760000  1.0 -1.1256830278
O  O93  1  0.48220000  0.51780000  0.10760000  1.0 -1.1239971303
O  O94  1  0.51780000  0.03560000  0.10760000  1.0 -1.1239971303
O  O95  1  0.96440000  0.48220000  0.10760000  1.0 -1.1239971303
O  O96  1  0.51780000  0.48220000  0.10760000  1.0 -1.1239971303
O  O97  1  0.45990000  0.00000000  0.75660000  1.0 -0.4736739033
O  O98  1  0.54010000  0.54010000  0.75660000  1.0 -0.4736739033
O  O99  1  0.00000000  0.45990000  0.75660000  1.0 -0.4736739033
O  O100  1  0.54010000  0.00000000  0.75660000  1.0 -0.4736739033
O  O101  1  0.45990000  0.45990000  0.75660000  1.0 -0.4736739033
O  O102  1  0.00000000  0.54010000  0.75660000  1.0 -0.4736739033
O  O103  1  0.45990000  0.00000000  0.24340000  1.0 -0.4736739033
O  O104  1  0.00000000  0.45990000  0.24340000  1.0 -0.4736739033
O  O105  1  0.54010000  0.54010000  0.24340000  1.0 -0.4736739033
O  O106  1  0.54010000  0.00000000  0.24340000  1.0 -0.4736739033
O  O107  1  0.00000000  0.54010000  0.24340000  1.0 -0.4736739033
O  O108  1  0.45990000  0.45990000  0.24340000  1.0 -0.4736739033
