# DDEC6 charges by PACMAN v1.1 (https://github.com/mtap-research/PACMAN-charge/)
data_YIXZEM_ASR_pacman
_symmetry_space_group_name_H-M   'P 1'
_cell_length_a   21.23000000
_cell_length_b   21.23000000
_cell_length_c   6.02900000
_cell_angle_alpha   90.00000000
_cell_angle_beta   90.00000000
_cell_angle_gamma   90.00000000
_symmetry_Int_Tables_number   1
_chemical_formula_structural   CdH7C9(NO)3
_chemical_formula_sum   'Cd8 H56 C72 N24 O24'
_cell_volume   2717.34807410
_cell_formula_units_Z   8
loop_
 _symmetry_equiv_pos_site_id
 _symmetry_equiv_pos_as_xyz
  1  'x, y, z'
loop_
 _atom_site_type_symbol
 _atom_site_label
 _atom_site_symmetry_multiplicity
 _atom_site_fract_x
 _atom_site_fract_y
 _atom_site_fract_z
 _atom_site_occupancy
 _atom_site_charge
Cd  Cd1  1  0.51936000  0.07981000  0.71341000  1.0 0.9818780385
Cd  Cd2  1  0.57981000  0.98064000  0.21341000  1.0 0.9818780385
Cd  Cd3  1  0.42019000  0.01936000  0.21341000  1.0 0.9818780385
Cd  Cd4  1  0.48064000  0.92019000  0.71341000  1.0 0.9818780385
Cd  Cd5  1  0.98064000  0.42019000  0.78659000  1.0 0.9818780385
Cd  Cd6  1  0.92019000  0.51936000  0.28659000  1.0 0.9818780385
Cd  Cd7  1  0.07981000  0.48064000  0.28659000  1.0 0.9818780385
Cd  Cd8  1  0.01936000  0.57981000  0.78659000  1.0 0.9818780385
H  H1  1  0.54700000  0.09700000  0.09000000  1.0 0.358020287
H  H2  1  0.59700000  0.95300000  0.59000000  1.0 0.358020287
H  H3  1  0.40300000  0.04700000  0.59000000  1.0 0.358020287
H  H4  1  0.45300000  0.90300000  0.09000000  1.0 0.358020287
H  H5  1  0.95300000  0.40300000  0.41000000  1.0 0.358020287
H  H6  1  0.90300000  0.54700000  0.91000000  1.0 0.358020287
H  H7  1  0.09700000  0.45300000  0.91000000  1.0 0.358020287
H  H8  1  0.04700000  0.59700000  0.41000000  1.0 0.358020287
H  H9  1  0.67370000  0.24660000  0.74290000  1.0 0.1130690537
H  H10  1  0.74660000  0.82630000  0.24290000  1.0 0.1130690537
H  H11  1  0.25340000  0.17370000  0.24290000  1.0 0.1130690537
H  H12  1  0.32630000  0.75340000  0.74290000  1.0 0.1130690537
H  H13  1  0.82630000  0.25340000  0.75710000  1.0 0.1130690537
H  H14  1  0.75340000  0.67370000  0.25710000  1.0 0.1130690537
H  H15  1  0.24660000  0.32630000  0.25710000  1.0 0.1130690537
H  H16  1  0.17370000  0.74660000  0.75710000  1.0 0.1130690537
H  H17  1  0.74380000  0.32760000  0.62980000  1.0 0.1279521907
H  H18  1  0.82760000  0.75620000  0.12980000  1.0 0.1279521907
H  H19  1  0.17240000  0.24380000  0.12980000  1.0 0.1279521907
H  H20  1  0.25620000  0.67240000  0.62980000  1.0 0.1279521907
H  H21  1  0.75620000  0.17240000  0.87020000  1.0 0.1279521907
H  H22  1  0.67240000  0.74380000  0.37020000  1.0 0.1279521907
H  H23  1  0.32760000  0.25620000  0.37020000  1.0 0.1279521907
H  H24  1  0.24380000  0.82760000  0.87020000  1.0 0.1279521907
H  H25  1  0.66720000  0.31540000  0.02870000  1.0 0.1279521907
H  H26  1  0.81540000  0.83280000  0.52870000  1.0 0.1279521907
H  H27  1  0.18460000  0.16720000  0.52870000  1.0 0.1279521907
H  H28  1  0.33280000  0.68460000  0.02870000  1.0 0.1279521907
H  H29  1  0.83280000  0.18460000  0.47130000  1.0 0.1279521907
H  H30  1  0.68460000  0.66720000  0.97130000  1.0 0.1279521907
H  H31  1  0.31540000  0.33280000  0.97130000  1.0 0.1279521907
H  H32  1  0.16720000  0.81540000  0.47130000  1.0 0.1279521907
H  H33  1  0.60170000  0.23810000  0.14920000  1.0 0.1279521907
H  H34  1  0.73810000  0.89830000  0.64920000  1.0 0.1279521907
H  H35  1  0.26190000  0.10170000  0.64920000  1.0 0.1279521907
H  H36  1  0.39830000  0.76190000  0.14920000  1.0 0.1279521907
H  H37  1  0.89830000  0.26190000  0.35080000  1.0 0.1279521907
H  H38  1  0.76190000  0.60170000  0.85080000  1.0 0.1279521907
H  H39  1  0.23810000  0.39830000  0.85080000  1.0 0.1279521907
H  H40  1  0.10170000  0.73810000  0.35080000  1.0 0.1279521907
H  H41  1  0.81400000  0.39720000  0.48580000  1.0 0.1279521907
H  H42  1  0.89720000  0.68600000  0.98580000  1.0 0.1279521907
H  H43  1  0.10280000  0.31400000  0.98580000  1.0 0.1279521907
H  H44  1  0.18600000  0.60280000  0.48580000  1.0 0.1279521907
H  H45  1  0.68600000  0.10280000  0.01420000  1.0 0.1279521907
H  H46  1  0.60280000  0.81400000  0.51420000  1.0 0.1279521907
H  H47  1  0.39720000  0.18600000  0.51420000  1.0 0.1279521907
H  H48  1  0.31400000  0.89720000  0.01420000  1.0 0.1279521907
H  H49  1  0.79830000  0.47850000  0.90100000  1.0 0.1279521907
H  H50  1  0.97850000  0.70170000  0.40100000  1.0 0.1279521907
H  H51  1  0.02150000  0.29830000  0.40100000  1.0 0.1279521907
H  H52  1  0.20170000  0.52150000  0.90100000  1.0 0.1279521907
H  H53  1  0.70170000  0.02150000  0.59900000  1.0 0.1279521907
H  H54  1  0.52150000  0.79830000  0.09900000  1.0 0.1279521907
H  H55  1  0.47850000  0.20170000  0.09900000  1.0 0.1279521907
H  H56  1  0.29830000  0.97850000  0.59900000  1.0 0.1279521907
C  C1  1  0.59480000  0.17490000  0.53300000  1.0 0.5706376694
C  C2  1  0.67490000  0.90520000  0.03300000  1.0 0.5706376694
C  C3  1  0.32510000  0.09480000  0.03300000  1.0 0.5706376694
C  C4  1  0.40520000  0.82510000  0.53300000  1.0 0.5706376694
C  C5  1  0.90520000  0.32510000  0.96700000  1.0 0.5706376694
C  C6  1  0.82510000  0.59480000  0.46700000  1.0 0.5706376694
C  C7  1  0.17490000  0.40520000  0.46700000  1.0 0.5706376694
C  C8  1  0.09480000  0.67490000  0.96700000  1.0 0.5706376694
C  C9  1  0.63210000  0.23210000  0.45700000  1.0 -0.0224879012
C  C10  1  0.73210000  0.86790000  0.95700000  1.0 -0.0224879012
C  C11  1  0.26790000  0.13210000  0.95700000  1.0 -0.0224879012
C  C12  1  0.36790000  0.76790000  0.45700000  1.0 -0.0224879012
C  C13  1  0.86790000  0.26790000  0.04300000  1.0 -0.0224879012
C  C14  1  0.76790000  0.63210000  0.54300000  1.0 -0.0224879012
C  C15  1  0.23210000  0.36790000  0.54300000  1.0 -0.0224879012
C  C16  1  0.13210000  0.73210000  0.04300000  1.0 -0.0224879012
C  C17  1  0.67240000  0.26040000  0.59700000  1.0 -0.0964242365
C  C18  1  0.76040000  0.82760000  0.09700000  1.0 -0.0964242365
C  C19  1  0.23960000  0.17240000  0.09700000  1.0 -0.0964242365
C  C20  1  0.32760000  0.73960000  0.59700000  1.0 -0.0964242365
C  C21  1  0.82760000  0.23960000  0.90300000  1.0 -0.0964242365
C  C22  1  0.73960000  0.67240000  0.40300000  1.0 -0.0964242365
C  C23  1  0.26040000  0.32760000  0.40300000  1.0 -0.0964242365
C  C24  1  0.17240000  0.76040000  0.90300000  1.0 -0.0964242365
C  C25  1  0.71410000  0.31150000  0.53100000  1.0 -0.1972818058
C  C26  1  0.81150000  0.78590000  0.03100000  1.0 -0.1972818058
C  C27  1  0.18850000  0.21410000  0.03100000  1.0 -0.1972818058
C  C28  1  0.28590000  0.68850000  0.53100000  1.0 -0.1972818058
C  C29  1  0.78590000  0.18850000  0.96900000  1.0 -0.1972818058
C  C30  1  0.68850000  0.71410000  0.46900000  1.0 -0.1972818058
C  C31  1  0.31150000  0.28590000  0.46900000  1.0 -0.1972818058
C  C32  1  0.21410000  0.81150000  0.96900000  1.0 -0.1972818058
C  C33  1  0.70840000  0.33560000  0.31700000  1.0 0.1541350809
C  C34  1  0.83560000  0.79160000  0.81700000  1.0 0.1541350809
C  C35  1  0.16440000  0.20840000  0.81700000  1.0 0.1541350809
C  C36  1  0.29160000  0.66440000  0.31700000  1.0 0.1541350809
C  C37  1  0.79160000  0.16440000  0.18300000  1.0 0.1541350809
C  C38  1  0.66440000  0.70840000  0.68300000  1.0 0.1541350809
C  C39  1  0.33560000  0.29160000  0.68300000  1.0 0.1541350809
C  C40  1  0.20840000  0.83560000  0.18300000  1.0 0.1541350809
C  C41  1  0.66850000  0.30390000  0.17700000  1.0 -0.1722858958
C  C42  1  0.80390000  0.83150000  0.67700000  1.0 -0.1722858958
C  C43  1  0.19610000  0.16850000  0.67700000  1.0 -0.1722858958
C  C44  1  0.33150000  0.69610000  0.17700000  1.0 -0.1722858958
C  C45  1  0.83150000  0.19610000  0.32300000  1.0 -0.1722858958
C  C46  1  0.69610000  0.66850000  0.82300000  1.0 -0.1722858958
C  C47  1  0.30390000  0.33150000  0.82300000  1.0 -0.1722858958
C  C48  1  0.16850000  0.80390000  0.32300000  1.0 -0.1722858958
C  C49  1  0.63020000  0.25550000  0.24900000  1.0 -0.0949877091
C  C50  1  0.75550000  0.86980000  0.74900000  1.0 -0.0964242365
C  C51  1  0.24450000  0.13020000  0.74900000  1.0 -0.0949877091
C  C52  1  0.36980000  0.74450000  0.24900000  1.0 -0.0949877091
C  C53  1  0.86980000  0.24450000  0.25100000  1.0 -0.0949877091
C  C54  1  0.74450000  0.63020000  0.75100000  1.0 -0.0949877091
C  C55  1  0.25550000  0.36980000  0.75100000  1.0 -0.0949877091
C  C56  1  0.13020000  0.75550000  0.25100000  1.0 -0.0949877091
C  C57  1  0.80050000  0.40860000  0.34500000  1.0 0.0971187464
C  C58  1  0.90860000  0.69950000  0.84500000  1.0 0.0971187464
C  C59  1  0.09140000  0.30050000  0.84500000  1.0 0.0971187464
C  C60  1  0.19950000  0.59140000  0.34500000  1.0 0.0971187464
C  C61  1  0.69950000  0.09140000  0.15500000  1.0 0.0971187464
C  C62  1  0.59140000  0.80050000  0.65500000  1.0 0.0971187464
C  C63  1  0.40860000  0.19950000  0.65500000  1.0 0.0971187464
C  C64  1  0.30050000  0.90860000  0.15500000  1.0 0.0971187464
C  C65  1  0.79100000  0.45290000  0.02400000  1.0 0.1541350809
C  C66  1  0.95290000  0.70900000  0.52400000  1.0 0.1541350809
C  C67  1  0.04710000  0.29100000  0.52400000  1.0 0.1541350809
C  C68  1  0.20900000  0.54710000  0.02400000  1.0 0.1541350809
C  C69  1  0.70900000  0.04710000  0.47600000  1.0 0.1541350809
C  C70  1  0.54710000  0.79100000  0.97600000  1.0 0.1541350809
C  C71  1  0.45290000  0.20900000  0.97600000  1.0 0.1541350809
C  C72  1  0.29100000  0.95290000  0.47600000  1.0 0.1541350809
N  N1  1  0.75090000  0.38540000  0.24550000  1.0 0.1279521907
N  N2  1  0.88540000  0.74910000  0.74550000  1.0 0.1279521907
N  N3  1  0.11460000  0.25090000  0.74550000  1.0 0.1279521907
N  N4  1  0.24910000  0.61460000  0.24550000  1.0 0.1279521907
N  N5  1  0.74910000  0.11460000  0.25450000  1.0 0.1279521907
N  N6  1  0.61460000  0.75090000  0.75450000  1.0 0.1279521907
N  N7  1  0.38540000  0.24910000  0.75450000  1.0 0.1279521907
N  N8  1  0.25090000  0.88540000  0.25450000  1.0 0.1279521907
N  N9  1  0.74220000  0.41320000  0.03650000  1.0 -0.2698135265
N  N10  1  0.91320000  0.75780000  0.53650000  1.0 -0.2698135265
N  N11  1  0.08680000  0.24220000  0.53650000  1.0 -0.2698135265
N  N12  1  0.25780000  0.58680000  0.03650000  1.0 -0.2698135265
N  N13  1  0.75780000  0.08680000  0.46350000  1.0 -0.2698135265
N  N14  1  0.58680000  0.74220000  0.96350000  1.0 -0.2698135265
N  N15  1  0.41320000  0.25780000  0.96350000  1.0 -0.2698135265
N  N16  1  0.24220000  0.91320000  0.46350000  1.0 -0.2698135265
N  N17  1  0.82990000  0.45260000  0.21030000  1.0 -0.3549646624
N  N18  1  0.95260000  0.67010000  0.71030000  1.0 -0.3549646624
N  N19  1  0.04740000  0.32990000  0.71030000  1.0 -0.3549646624
N  N20  1  0.17010000  0.54740000  0.21030000  1.0 -0.3549646624
N  N21  1  0.67010000  0.04740000  0.28970000  1.0 -0.3549646624
N  N22  1  0.54740000  0.82990000  0.78970000  1.0 -0.3549646624
N  N23  1  0.45260000  0.17010000  0.78970000  1.0 -0.3549646624
N  N24  1  0.32990000  0.95260000  0.28970000  1.0 -0.3549646624
O  O1  1  0.60670000  0.15020000  0.72490000  1.0 -0.591899205
O  O2  1  0.65020000  0.89330000  0.22490000  1.0 -0.591899205
O  O3  1  0.34980000  0.10670000  0.22490000  1.0 -0.591899205
O  O4  1  0.39330000  0.84980000  0.72490000  1.0 -0.591899205
O  O5  1  0.89330000  0.34980000  0.77510000  1.0 -0.591899205
O  O6  1  0.84980000  0.60670000  0.27510000  1.0 -0.591899205
O  O7  1  0.15020000  0.39330000  0.27510000  1.0 -0.591899205
O  O8  1  0.10670000  0.65020000  0.77510000  1.0 -0.591899205
O  O9  1  0.55090000  0.15400000  0.40890000  1.0 -0.5681902804
O  O10  1  0.65400000  0.94910000  0.90890000  1.0 -0.5681902804
O  O11  1  0.34600000  0.05090000  0.90890000  1.0 -0.5681902804
O  O12  1  0.44910000  0.84600000  0.40890000  1.0 -0.5681902804
O  O13  1  0.94910000  0.34600000  0.09110000  1.0 -0.5681902804
O  O14  1  0.84600000  0.55090000  0.59110000  1.0 -0.5681902804
O  O15  1  0.15400000  0.44910000  0.59110000  1.0 -0.5681902804
O  O16  1  0.05090000  0.65400000  0.09110000  1.0 -0.5681902804
O  O17  1  0.51740000  0.06280000  0.09220000  1.0 -0.8281923123
O  O18  1  0.56280000  0.98260000  0.59220000  1.0 -0.8281923123
O  O19  1  0.43720000  0.01740000  0.59220000  1.0 -0.8281923123
O  O20  1  0.48260000  0.93720000  0.09220000  1.0 -0.8281923123
O  O21  1  0.98260000  0.43720000  0.40780000  1.0 -0.8281923123
O  O22  1  0.93720000  0.51740000  0.90780000  1.0 -0.8281923123
O  O23  1  0.06280000  0.48260000  0.90780000  1.0 -0.8281923123
O  O24  1  0.01740000  0.56280000  0.40780000  1.0 -0.8281923123
