# DDEC6 charges by PACMAN v1.1 (https://github.com/mtap-research/PACMAN-charge/)
data_YIXZEL_FSR_pacman
_symmetry_space_group_name_H-M   'P 1'
_cell_length_a   14.51200000
_cell_length_b   14.51200000
_cell_length_c   8.91400000
_cell_angle_alpha   90.00000000
_cell_angle_beta   90.00000000
_cell_angle_gamma   90.00000000
_symmetry_Int_Tables_number   1
_chemical_formula_structural   Zn9(PO4)8
_chemical_formula_sum   'Zn18 P16 O64'
_cell_volume   1877.27185562
_cell_formula_units_Z   2
loop_
 _symmetry_equiv_pos_site_id
 _symmetry_equiv_pos_as_xyz
  1  'x, y, z'
loop_
 _atom_site_type_symbol
 _atom_site_label
 _atom_site_symmetry_multiplicity
 _atom_site_fract_x
 _atom_site_fract_y
 _atom_site_fract_z
 _atom_site_occupancy
 _atom_site_charge
Zn  Zn1  1  0.63629000  0.50381000  0.38993000  1.0 1.1014165451
Zn  Zn2  1  0.49619000  0.63629000  0.61007000  1.0 1.1014165451
Zn  Zn3  1  0.36371000  0.49619000  0.38993000  1.0 1.1014165451
Zn  Zn4  1  0.50381000  0.36371000  0.61007000  1.0 1.1014165451
Zn  Zn5  1  0.00000000  0.00000000  0.50000000  1.0 1.1302335828
Zn  Zn6  1  0.50000000  0.50000000  0.00000000  1.0 1.1611870497
Zn  Zn7  1  0.87246000  0.50293000  0.70778000  1.0 1.2002149194
Zn  Zn8  1  0.49707000  0.87246000  0.29222000  1.0 1.2002149194
Zn  Zn9  1  0.12754000  0.49707000  0.70778000  1.0 1.2002149194
Zn  Zn10  1  0.50293000  0.12754000  0.29222000  1.0 1.2002149194
Zn  Zn11  1  0.01407000  0.36657000  0.20939000  1.0 1.1697662442
Zn  Zn12  1  0.63343000  0.01407000  0.79061000  1.0 1.1697662442
Zn  Zn13  1  0.98593000  0.63343000  0.20939000  1.0 1.1611870497
Zn  Zn14  1  0.36657000  0.98593000  0.79061000  1.0 1.1697662442
Zn  Zn15  1  0.02126000  0.13088000  0.88721000  1.0 1.1014165451
Zn  Zn16  1  0.86912000  0.02126000  0.11279000  1.0 1.1014165451
Zn  Zn17  1  0.97874000  0.86912000  0.88721000  1.0 1.094859895
Zn  Zn18  1  0.13088000  0.97874000  0.11279000  1.0 1.094859895
P  P1  1  0.49653000  0.63883000  0.25792000  1.0 1.5378053754
P  P2  1  0.36117000  0.49653000  0.74208000  1.0 1.5378053754
P  P3  1  0.50347000  0.36117000  0.25792000  1.0 1.5378053754
P  P4  1  0.63883000  0.50347000  0.74208000  1.0 1.5378053754
P  P5  1  0.99071000  0.34801000  0.85690000  1.0 1.4812199841
P  P6  1  0.65199000  0.99071000  0.14310000  1.0 1.4812199841
P  P7  1  0.00929000  0.65199000  0.85690000  1.0 1.489218077
P  P8  1  0.34801000  0.00929000  0.14310000  1.0 1.4812199841
P  P9  1  0.85666000  0.48947000  0.35490000  1.0 1.489218077
P  P10  1  0.51053000  0.85666000  0.64510000  1.0 1.489218077
P  P11  1  0.14334000  0.51053000  0.35490000  1.0 1.489218077
P  P12  1  0.48947000  0.14334000  0.64510000  1.0 1.489218077
P  P13  1  0.02683000  0.14069000  0.24212000  1.0 1.5378053754
P  P14  1  0.85931000  0.02683000  0.75788000  1.0 1.5336934297
P  P15  1  0.97317000  0.85931000  0.24212000  1.0 1.5336934297
P  P16  1  0.14069000  0.97317000  0.75788000  1.0 1.5378053754
O  O1  1  0.91260000  0.38010000  0.75390000  1.0 -0.7009245443
O  O2  1  0.61990000  0.91260000  0.24610000  1.0 -0.7009245443
O  O3  1  0.08740000  0.61990000  0.75390000  1.0 -0.7009245443
O  O4  1  0.38010000  0.08740000  0.24610000  1.0 -0.7009245443
O  O5  1  0.87400000  0.53650000  0.50350000  1.0 -0.7382314335
O  O6  1  0.46350000  0.87400000  0.49650000  1.0 -0.7382314335
O  O7  1  0.12600000  0.46350000  0.50350000  1.0 -0.7382314335
O  O8  1  0.53650000  0.12600000  0.49650000  1.0 -0.7382314335
O  O9  1  0.07600000  0.40690000  0.83850000  1.0 -0.7253191502
O  O10  1  0.59310000  0.07600000  0.16150000  1.0 -0.7253191502
O  O11  1  0.92400000  0.59310000  0.83850000  1.0 -0.7253191502
O  O12  1  0.40690000  0.92400000  0.16150000  1.0 -0.7253191502
O  O13  1  0.95690000  0.34930000  0.01740000  1.0 -0.7224406332
O  O14  1  0.65070000  0.95690000  0.98260000  1.0 -0.7224406332
O  O15  1  0.04310000  0.65070000  0.01740000  1.0 -0.7224406332
O  O16  1  0.34930000  0.04310000  0.98260000  1.0 -0.7224406332
O  O17  1  0.91090000  0.39930000  0.34210000  1.0 -0.6894543287
O  O18  1  0.60070000  0.91090000  0.65790000  1.0 -0.6894543287
O  O19  1  0.08910000  0.60070000  0.34210000  1.0 -0.6894543287
O  O20  1  0.39930000  0.08910000  0.65790000  1.0 -0.6894543287
O  O21  1  0.01300000  0.25010000  0.80900000  1.0 -0.6709231467
O  O22  1  0.74990000  0.01300000  0.19100000  1.0 -0.6709231467
O  O23  1  0.98700000  0.74990000  0.80900000  1.0 -0.6709231467
O  O24  1  0.25010000  0.98700000  0.19100000  1.0 -0.6709231467
O  O25  1  0.59650000  0.60740000  0.26780000  1.0 -0.7094646127
O  O26  1  0.39260000  0.59650000  0.73220000  1.0 -0.7094646127
O  O27  1  0.40350000  0.39260000  0.26780000  1.0 -0.7094646127
O  O28  1  0.60740000  0.40350000  0.73220000  1.0 -0.7094646127
O  O29  1  0.49020000  0.74040000  0.23480000  1.0 -0.6402971105
O  O30  1  0.25960000  0.49020000  0.76520000  1.0 -0.6402971105
O  O31  1  0.50980000  0.25960000  0.23480000  1.0 -0.6402971105
O  O32  1  0.74040000  0.50980000  0.76520000  1.0 -0.6402971105
O  O33  1  0.44590000  0.60910000  0.40540000  1.0 -0.7382314335
O  O34  1  0.39090000  0.44590000  0.59460000  1.0 -0.7382314335
O  O35  1  0.55410000  0.39090000  0.40540000  1.0 -0.7382314335
O  O36  1  0.60910000  0.55410000  0.59460000  1.0 -0.7382314335
O  O37  1  0.44500000  0.59050000  0.13060000  1.0 -0.7009245443
O  O38  1  0.40950000  0.44500000  0.86940000  1.0 -0.7009245443
O  O39  1  0.55500000  0.40950000  0.13060000  1.0 -0.7009245443
O  O40  1  0.59050000  0.55500000  0.86940000  1.0 -0.7009245443
O  O41  1  0.88140000  0.55420000  0.22560000  1.0 -0.7009245443
O  O42  1  0.44580000  0.88140000  0.77440000  1.0 -0.7009245443
O  O43  1  0.11860000  0.44580000  0.22560000  1.0 -0.7009245443
O  O44  1  0.55420000  0.11860000  0.77440000  1.0 -0.7009245443
O  O45  1  0.75540000  0.46050000  0.33840000  1.0 -0.6709231467
O  O46  1  0.53950000  0.75540000  0.66160000  1.0 -0.6709231467
O  O47  1  0.24460000  0.53950000  0.33840000  1.0 -0.6709231467
O  O48  1  0.46050000  0.24460000  0.66160000  1.0 -0.6709231467
O  O49  1  0.04910000  0.24120000  0.26660000  1.0 -0.6402971105
O  O50  1  0.75880000  0.04910000  0.73340000  1.0 -0.6402971105
O  O51  1  0.95090000  0.75880000  0.26660000  1.0 -0.6402971105
O  O52  1  0.24120000  0.95090000  0.73340000  1.0 -0.6402971105
O  O53  1  0.06830000  0.08240000  0.36990000  1.0 -0.6894543287
O  O54  1  0.91760000  0.06830000  0.63010000  1.0 -0.6894543287
O  O55  1  0.93170000  0.91760000  0.36990000  1.0 -0.7009245443
O  O56  1  0.08240000  0.93170000  0.63010000  1.0 -0.6894543287
O  O57  1  0.07100000  0.10330000  0.09340000  1.0 -0.7382314335
O  O58  1  0.89670000  0.07100000  0.90660000  1.0 -0.7382314335
O  O59  1  0.92900000  0.89670000  0.09340000  1.0 -0.7382314335
O  O60  1  0.10330000  0.92900000  0.90660000  1.0 -0.7382314335
O  O61  1  0.92310000  0.12300000  0.22870000  1.0 -0.7009245443
O  O62  1  0.87700000  0.92310000  0.77130000  1.0 -0.7094646127
O  O63  1  0.07690000  0.87700000  0.22870000  1.0 -0.7094646127
O  O64  1  0.12300000  0.07690000  0.77130000  1.0 -0.7094646127
