# DDEC6 charges by PACMAN v1.1 (https://github.com/mtap-research/PACMAN-charge/)
data_YIYBIU_ASR_pacman
_symmetry_space_group_name_H-M   'P 1'
_cell_length_a   33.21780000
_cell_length_b   33.21780000
_cell_length_c   25.39050000
_cell_angle_alpha   90.00000000
_cell_angle_beta   90.00000000
_cell_angle_gamma   125.36600000
_symmetry_Int_Tables_number   1
_chemical_formula_structural   Cu5H37C74(NO5)4
_chemical_formula_sum   'Cu20 H148 C296 N16 O80'
_cell_volume   22846.60755674
_cell_formula_units_Z   4
loop_
 _symmetry_equiv_pos_site_id
 _symmetry_equiv_pos_as_xyz
  1  'x, y, z'
loop_
 _atom_site_type_symbol
 _atom_site_label
 _atom_site_symmetry_multiplicity
 _atom_site_fract_x
 _atom_site_fract_y
 _atom_site_fract_z
 _atom_site_occupancy
 _atom_site_charge
Cu  Cu1  1  0.88411000  0.13923000  0.05003000  1.0 0.859855981
Cu  Cu2  1  0.11589000  0.86077000  0.55003000  1.0 0.859855981
Cu  Cu3  1  0.13923000  0.88411000  0.44997000  1.0 0.859855981
Cu  Cu4  1  0.86077000  0.11589000  0.94997000  1.0 0.859855981
Cu  Cu5  1  0.11589000  0.86077000  0.94997000  1.0 0.859855981
Cu  Cu6  1  0.88411000  0.13923000  0.44997000  1.0 0.859855981
Cu  Cu7  1  0.86077000  0.11589000  0.55003000  1.0 0.859855981
Cu  Cu8  1  0.13923000  0.88411000  0.05003000  1.0 0.859855981
Cu  Cu9  1  0.42680000  0.76642000  0.25000000  1.0 0.8736772365
Cu  Cu10  1  0.48100000  0.86502000  0.25000000  1.0 0.859855981
Cu  Cu11  1  0.57320000  0.23358000  0.75000000  1.0 0.8736772365
Cu  Cu12  1  0.51900000  0.13498000  0.75000000  1.0 0.859855981
Cu  Cu13  1  0.76642000  0.42680000  0.25000000  1.0 0.8736772365
Cu  Cu14  1  0.86502000  0.48100000  0.25000000  1.0 0.859855981
Cu  Cu15  1  0.23358000  0.57320000  0.75000000  1.0 0.8736772365
Cu  Cu16  1  0.13498000  0.51900000  0.75000000  1.0 0.859855981
Cu  Cu17  1  0.51738000  0.51738000  0.95236000  1.0 0.859855981
Cu  Cu18  1  0.48262000  0.48262000  0.45236000  1.0 0.859855981
Cu  Cu19  1  0.51738000  0.51738000  0.54764000  1.0 0.859855981
Cu  Cu20  1  0.48262000  0.48262000  0.04764000  1.0 0.859855981
H  H1  1  0.50480000  0.74200000  0.13770000  1.0 0.1310958675
H  H2  1  0.62910000  0.81670000  0.04900000  1.0 0.1111903103
H  H3  1  0.58980000  0.89160000  0.13490000  1.0 0.1310958675
H  H4  1  0.67920000  0.94340000  0.14540000  1.0 0.1196951898
H  H5  1  0.74850000  0.01790000  0.11560000  1.0 0.1310958675
H  H6  1  0.73100000  0.96640000  0.96910000  1.0 0.1310958675
H  H7  1  0.66090000  0.89050000  0.99810000  1.0 0.1111903103
H  H8  1  0.52640000  0.68840000  0.14430000  1.0 0.1196951898
H  H9  1  0.50980000  0.61260000  0.11840000  1.0 0.1310958675
H  H10  1  0.56450000  0.66830000  0.97320000  1.0 0.1310958675
H  H11  1  0.58110000  0.74410000  0.99910000  1.0 0.1196951898
H  H12  1  0.39020000  0.88360000  0.14050000  1.0 0.1310958675
H  H13  1  0.33070000  0.87450000  0.08250000  1.0 0.1196951898
H  H14  1  0.25780000  0.72580000  0.08800000  1.0 0.1196951898
H  H15  1  0.31740000  0.73500000  0.14610000  1.0 0.1310958675
H  H16  1  0.23490000  0.83650000  0.06910000  1.0 0.1310958675
H  H17  1  0.94830000  0.06090000  0.08070000  1.0 0.1111903103
H  H18  1  0.99360000  0.10800000  0.05540000  1.0 0.1196951898
H  H19  1  0.49520000  0.25800000  0.63770000  1.0 0.1310958675
H  H20  1  0.37090000  0.18330000  0.54900000  1.0 0.1111903103
H  H21  1  0.41020000  0.10840000  0.63490000  1.0 0.1310958675
H  H22  1  0.32080000  0.05660000  0.64540000  1.0 0.1196951898
H  H23  1  0.25150000  0.98210000  0.61560000  1.0 0.1310958675
H  H24  1  0.26900000  0.03360000  0.46910000  1.0 0.1310958675
H  H25  1  0.33910000  0.10950000  0.49810000  1.0 0.1111903103
H  H26  1  0.47360000  0.31160000  0.64430000  1.0 0.1196951898
H  H27  1  0.49020000  0.38740000  0.61840000  1.0 0.1310958675
H  H28  1  0.43550000  0.33170000  0.47320000  1.0 0.1310958675
H  H29  1  0.41890000  0.25590000  0.49910000  1.0 0.1196951898
H  H30  1  0.60980000  0.11640000  0.64050000  1.0 0.1352234012
H  H31  1  0.66930000  0.12550000  0.58250000  1.0 0.1196951898
H  H32  1  0.74220000  0.27420000  0.58800000  1.0 0.1196951898
H  H33  1  0.68260000  0.26500000  0.64610000  1.0 0.1310958675
H  H34  1  0.76510000  0.16350000  0.56910000  1.0 0.1310958675
H  H35  1  0.05170000  0.93910000  0.58070000  1.0 0.1111903103
H  H36  1  0.00640000  0.89200000  0.55540000  1.0 0.1196951898
H  H37  1  0.74200000  0.50480000  0.36230000  1.0 0.1310958675
H  H38  1  0.81670000  0.62910000  0.45100000  1.0 0.1111903103
H  H39  1  0.89160000  0.58980000  0.36510000  1.0 0.1310958675
H  H40  1  0.94340000  0.67920000  0.35460000  1.0 0.1196951898
H  H41  1  0.01790000  0.74850000  0.38440000  1.0 0.1310958675
H  H42  1  0.96640000  0.73100000  0.53090000  1.0 0.1310958675
H  H43  1  0.89050000  0.66090000  0.50190000  1.0 0.1111903103
H  H44  1  0.68840000  0.52640000  0.35570000  1.0 0.1196951898
H  H45  1  0.61260000  0.50980000  0.38160000  1.0 0.1310958675
H  H46  1  0.66830000  0.56450000  0.52680000  1.0 0.1310958675
H  H47  1  0.74410000  0.58110000  0.50090000  1.0 0.1196951898
H  H48  1  0.88360000  0.39020000  0.35950000  1.0 0.1310958675
H  H49  1  0.87450000  0.33070000  0.41750000  1.0 0.1196951898
H  H50  1  0.72580000  0.25780000  0.41200000  1.0 0.1196951898
H  H51  1  0.73500000  0.31740000  0.35390000  1.0 0.1310958675
H  H52  1  0.83650000  0.23490000  0.43090000  1.0 0.1310958675
H  H53  1  0.06090000  0.94830000  0.41930000  1.0 0.1111903103
H  H54  1  0.10800000  0.99360000  0.44460000  1.0 0.1196951898
H  H55  1  0.25800000  0.49520000  0.86230000  1.0 0.1310958675
H  H56  1  0.18330000  0.37090000  0.95100000  1.0 0.1111903103
H  H57  1  0.10840000  0.41020000  0.86510000  1.0 0.1310958675
H  H58  1  0.05660000  0.32080000  0.85460000  1.0 0.1196951898
H  H59  1  0.98210000  0.25150000  0.88440000  1.0 0.1310958675
H  H60  1  0.03360000  0.26900000  0.03090000  1.0 0.1310958675
H  H61  1  0.10950000  0.33910000  0.00190000  1.0 0.1111903103
H  H62  1  0.31160000  0.47360000  0.85570000  1.0 0.1196951898
H  H63  1  0.38740000  0.49020000  0.88160000  1.0 0.1310958675
H  H64  1  0.33170000  0.43550000  0.02680000  1.0 0.1310958675
H  H65  1  0.25590000  0.41890000  0.00090000  1.0 0.1196951898
H  H66  1  0.11640000  0.60980000  0.85950000  1.0 0.1310958675
H  H67  1  0.12550000  0.66930000  0.91750000  1.0 0.1196951898
H  H68  1  0.27420000  0.74220000  0.91200000  1.0 0.1196951898
H  H69  1  0.26500000  0.68260000  0.85390000  1.0 0.1310958675
H  H70  1  0.16350000  0.76510000  0.93090000  1.0 0.1310958675
H  H71  1  0.93910000  0.05170000  0.91930000  1.0 0.1111903103
H  H72  1  0.89200000  0.00640000  0.94460000  1.0 0.1196951898
H  H73  1  0.49520000  0.25800000  0.86230000  1.0 0.1310958675
H  H74  1  0.37090000  0.18330000  0.95100000  1.0 0.1111903103
H  H75  1  0.41020000  0.10840000  0.86510000  1.0 0.1310958675
H  H76  1  0.32080000  0.05660000  0.85460000  1.0 0.1196951898
H  H77  1  0.25150000  0.98210000  0.88440000  1.0 0.1310958675
H  H78  1  0.26900000  0.03360000  0.03090000  1.0 0.1310958675
H  H79  1  0.33910000  0.10950000  0.00190000  1.0 0.1111903103
H  H80  1  0.47360000  0.31160000  0.85570000  1.0 0.1196951898
H  H81  1  0.49020000  0.38740000  0.88160000  1.0 0.1310958675
H  H82  1  0.43550000  0.33170000  0.02680000  1.0 0.1310958675
H  H83  1  0.41890000  0.25590000  0.00090000  1.0 0.1196951898
H  H84  1  0.60980000  0.11640000  0.85950000  1.0 0.1352234012
H  H85  1  0.66930000  0.12550000  0.91750000  1.0 0.1196951898
H  H86  1  0.74220000  0.27420000  0.91200000  1.0 0.1196951898
H  H87  1  0.68260000  0.26500000  0.85390000  1.0 0.1310958675
H  H88  1  0.76510000  0.16350000  0.93090000  1.0 0.1310958675
H  H89  1  0.05170000  0.93910000  0.91930000  1.0 0.1111903103
H  H90  1  0.00640000  0.89200000  0.94460000  1.0 0.1196951898
H  H91  1  0.50480000  0.74200000  0.36230000  1.0 0.1310958675
H  H92  1  0.62910000  0.81670000  0.45100000  1.0 0.1111903103
H  H93  1  0.58980000  0.89160000  0.36510000  1.0 0.1310958675
H  H94  1  0.67920000  0.94340000  0.35460000  1.0 0.1196951898
H  H95  1  0.74850000  0.01790000  0.38440000  1.0 0.1310958675
H  H96  1  0.73100000  0.96640000  0.53090000  1.0 0.1310958675
H  H97  1  0.66090000  0.89050000  0.50190000  1.0 0.1111903103
H  H98  1  0.52640000  0.68840000  0.35570000  1.0 0.1196951898
H  H99  1  0.50980000  0.61260000  0.38160000  1.0 0.1310958675
H  H100  1  0.56450000  0.66830000  0.52680000  1.0 0.1310958675
H  H101  1  0.58110000  0.74410000  0.50090000  1.0 0.1196951898
H  H102  1  0.39020000  0.88360000  0.35950000  1.0 0.1310958675
H  H103  1  0.33070000  0.87450000  0.41750000  1.0 0.1196951898
H  H104  1  0.25780000  0.72580000  0.41200000  1.0 0.1196951898
H  H105  1  0.31740000  0.73500000  0.35390000  1.0 0.1310958675
H  H106  1  0.23490000  0.83650000  0.43090000  1.0 0.1310958675
H  H107  1  0.94830000  0.06090000  0.41930000  1.0 0.1111903103
H  H108  1  0.99360000  0.10800000  0.44460000  1.0 0.1196951898
H  H109  1  0.25800000  0.49520000  0.63770000  1.0 0.1310958675
H  H110  1  0.18330000  0.37090000  0.54900000  1.0 0.1111903103
H  H111  1  0.10840000  0.41020000  0.63490000  1.0 0.1310958675
H  H112  1  0.05660000  0.32080000  0.64540000  1.0 0.1196951898
H  H113  1  0.98210000  0.25150000  0.61560000  1.0 0.1310958675
H  H114  1  0.03360000  0.26900000  0.46910000  1.0 0.1310958675
H  H115  1  0.10950000  0.33910000  0.49810000  1.0 0.1111903103
H  H116  1  0.31160000  0.47360000  0.64430000  1.0 0.1196951898
H  H117  1  0.38740000  0.49020000  0.61840000  1.0 0.1310958675
H  H118  1  0.33170000  0.43550000  0.47320000  1.0 0.1310958675
H  H119  1  0.25590000  0.41890000  0.49910000  1.0 0.1196951898
H  H120  1  0.11640000  0.60980000  0.64050000  1.0 0.1310958675
H  H121  1  0.12550000  0.66930000  0.58250000  1.0 0.1196951898
H  H122  1  0.27420000  0.74220000  0.58800000  1.0 0.1196951898
H  H123  1  0.26500000  0.68260000  0.64610000  1.0 0.1310958675
H  H124  1  0.16350000  0.76510000  0.56910000  1.0 0.1310958675
H  H125  1  0.93910000  0.05170000  0.58070000  1.0 0.1111903103
H  H126  1  0.89200000  0.00640000  0.55540000  1.0 0.1196951898
H  H127  1  0.74200000  0.50480000  0.13770000  1.0 0.1310958675
H  H128  1  0.81670000  0.62910000  0.04900000  1.0 0.1111903103
H  H129  1  0.89160000  0.58980000  0.13490000  1.0 0.1310958675
H  H130  1  0.94340000  0.67920000  0.14540000  1.0 0.1196951898
H  H131  1  0.01790000  0.74850000  0.11560000  1.0 0.1310958675
H  H132  1  0.96640000  0.73100000  0.96910000  1.0 0.1310958675
H  H133  1  0.89050000  0.66090000  0.99810000  1.0 0.1111903103
H  H134  1  0.68840000  0.52640000  0.14430000  1.0 0.1196951898
H  H135  1  0.61260000  0.50980000  0.11840000  1.0 0.1310958675
H  H136  1  0.66830000  0.56450000  0.97320000  1.0 0.1310958675
H  H137  1  0.74410000  0.58110000  0.99910000  1.0 0.1196951898
H  H138  1  0.88360000  0.39020000  0.14050000  1.0 0.1310958675
H  H139  1  0.87450000  0.33070000  0.08250000  1.0 0.1196951898
H  H140  1  0.72580000  0.25780000  0.08800000  1.0 0.1196951898
H  H141  1  0.73500000  0.31740000  0.14610000  1.0 0.1310958675
H  H142  1  0.83650000  0.23490000  0.06910000  1.0 0.1310958675
H  H143  1  0.06090000  0.94830000  0.08070000  1.0 0.1111903103
H  H144  1  0.10800000  0.99360000  0.05540000  1.0 0.1196951898
H  H145  1  0.25770000  0.74230000  0.00000000  1.0 0.1111903103
H  H146  1  0.74230000  0.25770000  0.50000000  1.0 0.1111903103
H  H147  1  0.74230000  0.25770000  0.00000000  1.0 0.1111903103
H  H148  1  0.25770000  0.74230000  0.50000000  1.0 0.1111903103
C  C1  1  0.50871000  0.81685000  0.18130000  1.0 0.5784164242
C  C2  1  0.54210000  0.81680000  0.14179000  1.0 -0.0071435069
C  C3  1  0.53308000  0.77236000  0.12534000  1.0 -0.1698337908
C  C4  1  0.56550000  0.77230000  0.09078000  1.0 0.0822629691
C  C5  1  0.60695000  0.81671000  0.07265000  1.0 -0.1925026091
C  C6  1  0.61597000  0.86117000  0.08909000  1.0 0.0822629691
C  C7  1  0.58355000  0.86121000  0.12366000  1.0 -0.1698337908
C  C8  1  0.66189000  0.90929000  0.07170000  1.0 0.0822629691
C  C9  1  0.68907000  0.94761000  0.10960000  1.0 -0.1588170316
C  C10  1  0.73071000  0.99143000  0.09130000  1.0 -0.0811447612
C  C11  1  0.74804000  0.99950000  0.04130000  1.0 -0.0313482359
C  C12  1  0.72113000  0.96195000  0.00500000  1.0 -0.0879631032
C  C13  1  0.67854000  0.91686000  0.02260000  1.0 -0.1420430884
C  C14  1  0.79377000  0.04803000  0.02820000  1.0 0.5620605176
C  C15  1  0.55531000  0.72341000  0.07413000  1.0 0.0822629691
C  C16  1  0.53416000  0.68434000  0.10956000  1.0 -0.1588170316
C  C17  1  0.52431000  0.63929000  0.09417000  1.0 -0.0811447612
C  C18  1  0.53562000  0.63332000  0.04334000  1.0 -0.0313482359
C  C19  1  0.55677000  0.67239000  0.00791000  1.0 -0.0811447612
C  C20  1  0.56662000  0.71744000  0.02330000  1.0 -0.1588170316
C  C21  1  0.52322000  0.58414000  0.02690000  1.0 0.5784164242
C  C22  1  0.39835000  0.81463000  0.18260000  1.0 0.5784164242
C  C23  1  0.35937000  0.81015000  0.14876000  1.0 -0.0352625014
C  C24  1  0.36332000  0.85158000  0.12987000  1.0 -0.0811447612
C  C25  1  0.32797000  0.84615000  0.09540000  1.0 -0.1588170316
C  C26  1  0.28866000  0.79928000  0.07982000  1.0 0.0965000772
C  C27  1  0.28471000  0.75785000  0.09870000  1.0 -0.1588170316
C  C28  1  0.32007000  0.76329000  0.13317000  1.0 -0.0879631032
C  C29  1  0.25272000  0.79120000  0.03680000  1.0 0.0637903134
C  C30  1  0.22900000  0.81488000  0.04080000  1.0 -0.1754368244
C  C31  1  0.95439000  0.05079000  0.04860000  1.0 -0.0879631032
C  C32  1  0.97814000  0.02626000  0.04890000  1.0 0.0870338711
C  C33  1  0.98200000  0.08000000  0.03380000  1.0 -0.0879631032
C  C34  1  0.00570000  0.05450000  0.03290000  1.0 0.0965000772
C  C35  1  0.49129000  0.18315000  0.68130000  1.0 0.5784164242
C  C36  1  0.45790000  0.18320000  0.64179000  1.0 -0.0071435069
C  C37  1  0.46692000  0.22764000  0.62534000  1.0 -0.1698337908
C  C38  1  0.43450000  0.22770000  0.59078000  1.0 0.0822629691
C  C39  1  0.39305000  0.18329000  0.57265000  1.0 -0.1925026091
C  C40  1  0.38403000  0.13883000  0.58909000  1.0 0.0822629691
C  C41  1  0.41645000  0.13879000  0.62366000  1.0 -0.1698337908
C  C42  1  0.33811000  0.09071000  0.57170000  1.0 0.0822629691
C  C43  1  0.31093000  0.05239000  0.60960000  1.0 -0.1588170316
C  C44  1  0.26929000  0.00857000  0.59130000  1.0 -0.0811447612
C  C45  1  0.25196000  0.00050000  0.54130000  1.0 -0.0313482359
C  C46  1  0.27887000  0.03805000  0.50500000  1.0 -0.0879631032
C  C47  1  0.32146000  0.08314000  0.52260000  1.0 -0.1420430884
C  C48  1  0.20623000  0.95197000  0.52820000  1.0 0.5620605176
C  C49  1  0.44469000  0.27659000  0.57413000  1.0 0.0822629691
C  C50  1  0.46584000  0.31566000  0.60956000  1.0 -0.1588170316
C  C51  1  0.47569000  0.36071000  0.59417000  1.0 -0.0811447612
C  C52  1  0.46438000  0.36668000  0.54334000  1.0 -0.0313482359
C  C53  1  0.44323000  0.32761000  0.50791000  1.0 -0.0811447612
C  C54  1  0.43338000  0.28256000  0.52330000  1.0 -0.1546315724
C  C55  1  0.47678000  0.41586000  0.52690000  1.0 0.5784164242
C  C56  1  0.60165000  0.18537000  0.68260000  1.0 0.5784164242
C  C57  1  0.64063000  0.18985000  0.64876000  1.0 -0.0313482359
C  C58  1  0.63668000  0.14842000  0.62987000  1.0 -0.0811447612
C  C59  1  0.67203000  0.15385000  0.59540000  1.0 -0.1546315724
C  C60  1  0.71134000  0.20072000  0.57982000  1.0 0.0965000772
C  C61  1  0.71529000  0.24215000  0.59870000  1.0 -0.1588170316
C  C62  1  0.67993000  0.23671000  0.63317000  1.0 -0.0879631032
C  C63  1  0.74728000  0.20880000  0.53680000  1.0 0.0637903134
C  C64  1  0.77100000  0.18512000  0.54080000  1.0 -0.1754368244
C  C65  1  0.04561000  0.94921000  0.54860000  1.0 -0.0879631032
C  C66  1  0.02186000  0.97374000  0.54890000  1.0 0.0870338711
C  C67  1  0.01800000  0.92000000  0.53380000  1.0 -0.095521892
C  C68  1  0.99430000  0.94550000  0.53290000  1.0 0.0965000772
C  C69  1  0.81685000  0.50871000  0.31870000  1.0 0.5784164242
C  C70  1  0.81680000  0.54210000  0.35821000  1.0 -0.0071435069
C  C71  1  0.77236000  0.53308000  0.37466000  1.0 -0.1698337908
C  C72  1  0.77230000  0.56550000  0.40922000  1.0 0.0822629691
C  C73  1  0.81671000  0.60695000  0.42735000  1.0 -0.1925026091
C  C74  1  0.86117000  0.61597000  0.41091000  1.0 0.0822629691
C  C75  1  0.86121000  0.58355000  0.37634000  1.0 -0.1698337908
C  C76  1  0.90929000  0.66189000  0.42830000  1.0 0.0822629691
C  C77  1  0.94761000  0.68907000  0.39040000  1.0 -0.1588170316
C  C78  1  0.99143000  0.73071000  0.40870000  1.0 -0.0811447612
C  C79  1  0.99950000  0.74804000  0.45870000  1.0 -0.0313482359
C  C80  1  0.96195000  0.72113000  0.49500000  1.0 -0.0879631032
C  C81  1  0.91686000  0.67854000  0.47740000  1.0 -0.1420430884
C  C82  1  0.04803000  0.79377000  0.47180000  1.0 0.5620605176
C  C83  1  0.72341000  0.55531000  0.42587000  1.0 0.0822629691
C  C84  1  0.68434000  0.53416000  0.39044000  1.0 -0.1588170316
C  C85  1  0.63929000  0.52431000  0.40583000  1.0 -0.0811447612
C  C86  1  0.63332000  0.53562000  0.45666000  1.0 -0.0313482359
C  C87  1  0.67239000  0.55677000  0.49209000  1.0 -0.0811447612
C  C88  1  0.71744000  0.56662000  0.47670000  1.0 -0.1546315724
C  C89  1  0.58414000  0.52322000  0.47310000  1.0 0.5784164242
C  C90  1  0.81463000  0.39835000  0.31740000  1.0 0.5742109245
C  C91  1  0.81015000  0.35937000  0.35124000  1.0 -0.0352625014
C  C92  1  0.85158000  0.36332000  0.37013000  1.0 -0.0811447612
C  C93  1  0.84615000  0.32797000  0.40460000  1.0 -0.1588170316
C  C94  1  0.79928000  0.28866000  0.42018000  1.0 0.0965000772
C  C95  1  0.75785000  0.28471000  0.40130000  1.0 -0.1588170316
C  C96  1  0.76329000  0.32007000  0.36683000  1.0 -0.0811447612
C  C97  1  0.79120000  0.25272000  0.46320000  1.0 0.0637903134
C  C98  1  0.81488000  0.22900000  0.45920000  1.0 -0.1698337908
C  C99  1  0.05079000  0.95439000  0.45140000  1.0 -0.0879631032
C  C100  1  0.02626000  0.97814000  0.45110000  1.0 0.0870338711
C  C101  1  0.08000000  0.98200000  0.46620000  1.0 -0.095521892
C  C102  1  0.05450000  0.00570000  0.46710000  1.0 0.0965000772
C  C103  1  0.18315000  0.49129000  0.81870000  1.0 0.5784164242
C  C104  1  0.18320000  0.45790000  0.85821000  1.0 -0.0071435069
C  C105  1  0.22764000  0.46692000  0.87466000  1.0 -0.1698337908
C  C106  1  0.22770000  0.43450000  0.90922000  1.0 0.0822629691
C  C107  1  0.18329000  0.39305000  0.92735000  1.0 -0.1925026091
C  C108  1  0.13883000  0.38403000  0.91091000  1.0 0.0822629691
C  C109  1  0.13879000  0.41645000  0.87634000  1.0 -0.1698337908
C  C110  1  0.09071000  0.33811000  0.92830000  1.0 0.0822629691
C  C111  1  0.05239000  0.31093000  0.89040000  1.0 -0.1588170316
C  C112  1  0.00857000  0.26929000  0.90870000  1.0 -0.0811447612
C  C113  1  0.00050000  0.25196000  0.95870000  1.0 -0.0313482359
C  C114  1  0.03805000  0.27887000  0.99500000  1.0 -0.0879631032
C  C115  1  0.08314000  0.32146000  0.97740000  1.0 -0.1420430884
C  C116  1  0.95197000  0.20623000  0.97180000  1.0 0.5620605176
C  C117  1  0.27659000  0.44469000  0.92587000  1.0 0.0822629691
C  C118  1  0.31566000  0.46584000  0.89044000  1.0 -0.1588170316
C  C119  1  0.36071000  0.47569000  0.90583000  1.0 -0.0811447612
C  C120  1  0.36668000  0.46438000  0.95666000  1.0 -0.0313482359
C  C121  1  0.32761000  0.44323000  0.99209000  1.0 -0.0811447612
C  C122  1  0.28256000  0.43338000  0.97670000  1.0 -0.1546315724
C  C123  1  0.41586000  0.47678000  0.97310000  1.0 0.5784164242
C  C124  1  0.18537000  0.60165000  0.81740000  1.0 0.5784164242
C  C125  1  0.18985000  0.64063000  0.85124000  1.0 -0.0352625014
C  C126  1  0.14842000  0.63668000  0.87013000  1.0 -0.0811447612
C  C127  1  0.15385000  0.67203000  0.90460000  1.0 -0.1588170316
C  C128  1  0.20072000  0.71134000  0.92018000  1.0 0.0965000772
C  C129  1  0.24215000  0.71529000  0.90130000  1.0 -0.1588170316
C  C130  1  0.23671000  0.67993000  0.86683000  1.0 -0.0811447612
C  C131  1  0.20880000  0.74728000  0.96320000  1.0 0.0637903134
C  C132  1  0.18512000  0.77100000  0.95920000  1.0 -0.1754368244
C  C133  1  0.94921000  0.04561000  0.95140000  1.0 -0.0879631032
C  C134  1  0.97374000  0.02186000  0.95110000  1.0 0.0870338711
C  C135  1  0.92000000  0.01800000  0.96620000  1.0 -0.0879631032
C  C136  1  0.94550000  0.99430000  0.96710000  1.0 0.0965000772
C  C137  1  0.49129000  0.18315000  0.81870000  1.0 0.5784164242
C  C138  1  0.45790000  0.18320000  0.85821000  1.0 -0.0071435069
C  C139  1  0.46692000  0.22764000  0.87466000  1.0 -0.1698337908
C  C140  1  0.43450000  0.22770000  0.90922000  1.0 0.0822629691
C  C141  1  0.39305000  0.18329000  0.92735000  1.0 -0.1925026091
C  C142  1  0.38403000  0.13883000  0.91091000  1.0 0.0822629691
C  C143  1  0.41645000  0.13879000  0.87634000  1.0 -0.1698337908
C  C144  1  0.33811000  0.09071000  0.92830000  1.0 0.0822629691
C  C145  1  0.31093000  0.05239000  0.89040000  1.0 -0.1588170316
C  C146  1  0.26929000  0.00857000  0.90870000  1.0 -0.0811447612
C  C147  1  0.25196000  0.00050000  0.95870000  1.0 -0.0313482359
C  C148  1  0.27887000  0.03805000  0.99500000  1.0 -0.0879631032
C  C149  1  0.32146000  0.08314000  0.97740000  1.0 -0.1420430884
C  C150  1  0.20623000  0.95197000  0.97180000  1.0 0.5620605176
C  C151  1  0.44469000  0.27659000  0.92587000  1.0 0.0822629691
C  C152  1  0.46584000  0.31566000  0.89044000  1.0 -0.1588170316
C  C153  1  0.47569000  0.36071000  0.90583000  1.0 -0.0811447612
C  C154  1  0.46438000  0.36668000  0.95666000  1.0 -0.0313482359
C  C155  1  0.44323000  0.32761000  0.99209000  1.0 -0.0811447612
C  C156  1  0.43338000  0.28256000  0.97670000  1.0 -0.1546315724
C  C157  1  0.47678000  0.41586000  0.97310000  1.0 0.5784164242
C  C158  1  0.60165000  0.18537000  0.81740000  1.0 0.5784164242
C  C159  1  0.64063000  0.18985000  0.85124000  1.0 -0.0313482359
C  C160  1  0.63668000  0.14842000  0.87013000  1.0 -0.0811447612
C  C161  1  0.67203000  0.15385000  0.90460000  1.0 -0.1546315724
C  C162  1  0.71134000  0.20072000  0.92018000  1.0 0.0965000772
C  C163  1  0.71529000  0.24215000  0.90130000  1.0 -0.1588170316
C  C164  1  0.67993000  0.23671000  0.86683000  1.0 -0.0879631032
C  C165  1  0.74728000  0.20880000  0.96320000  1.0 0.0637903134
C  C166  1  0.77100000  0.18512000  0.95920000  1.0 -0.1754368244
C  C167  1  0.04561000  0.94921000  0.95140000  1.0 -0.0879631032
C  C168  1  0.02186000  0.97374000  0.95110000  1.0 0.0870338711
C  C169  1  0.01800000  0.92000000  0.96620000  1.0 -0.095521892
C  C170  1  0.99430000  0.94550000  0.96710000  1.0 0.0965000772
C  C171  1  0.50871000  0.81685000  0.31870000  1.0 0.5784164242
C  C172  1  0.54210000  0.81680000  0.35821000  1.0 -0.0071435069
C  C173  1  0.53308000  0.77236000  0.37466000  1.0 -0.1698337908
C  C174  1  0.56550000  0.77230000  0.40922000  1.0 0.0822629691
C  C175  1  0.60695000  0.81671000  0.42735000  1.0 -0.1925026091
C  C176  1  0.61597000  0.86117000  0.41091000  1.0 0.0822629691
C  C177  1  0.58355000  0.86121000  0.37634000  1.0 -0.1698337908
C  C178  1  0.66189000  0.90929000  0.42830000  1.0 0.0822629691
C  C179  1  0.68907000  0.94761000  0.39040000  1.0 -0.1588170316
C  C180  1  0.73071000  0.99143000  0.40870000  1.0 -0.0811447612
C  C181  1  0.74804000  0.99950000  0.45870000  1.0 -0.0313482359
C  C182  1  0.72113000  0.96195000  0.49500000  1.0 -0.0879631032
C  C183  1  0.67854000  0.91686000  0.47740000  1.0 -0.1420430884
C  C184  1  0.79377000  0.04803000  0.47180000  1.0 0.5620605176
C  C185  1  0.55531000  0.72341000  0.42587000  1.0 0.0822629691
C  C186  1  0.53416000  0.68434000  0.39044000  1.0 -0.1588170316
C  C187  1  0.52431000  0.63929000  0.40583000  1.0 -0.0811447612
C  C188  1  0.53562000  0.63332000  0.45666000  1.0 -0.0313482359
C  C189  1  0.55677000  0.67239000  0.49209000  1.0 -0.0811447612
C  C190  1  0.56662000  0.71744000  0.47670000  1.0 -0.1588170316
C  C191  1  0.52322000  0.58414000  0.47310000  1.0 0.5784164242
C  C192  1  0.39835000  0.81463000  0.31740000  1.0 0.5784164242
C  C193  1  0.35937000  0.81015000  0.35124000  1.0 -0.0352625014
C  C194  1  0.36332000  0.85158000  0.37013000  1.0 -0.0811447612
C  C195  1  0.32797000  0.84615000  0.40460000  1.0 -0.1588170316
C  C196  1  0.28866000  0.79928000  0.42018000  1.0 0.0965000772
C  C197  1  0.28471000  0.75785000  0.40130000  1.0 -0.1588170316
C  C198  1  0.32007000  0.76329000  0.36683000  1.0 -0.0879631032
C  C199  1  0.25272000  0.79120000  0.46320000  1.0 0.0637903134
C  C200  1  0.22900000  0.81488000  0.45920000  1.0 -0.1754368244
C  C201  1  0.95439000  0.05079000  0.45140000  1.0 -0.0879631032
C  C202  1  0.97814000  0.02626000  0.45110000  1.0 0.0870338711
C  C203  1  0.98200000  0.08000000  0.46620000  1.0 -0.0879631032
C  C204  1  0.00570000  0.05450000  0.46710000  1.0 0.0965000772
C  C205  1  0.18315000  0.49129000  0.68130000  1.0 0.5784164242
C  C206  1  0.18320000  0.45790000  0.64179000  1.0 -0.0071435069
C  C207  1  0.22764000  0.46692000  0.62534000  1.0 -0.1698337908
C  C208  1  0.22770000  0.43450000  0.59078000  1.0 0.0822629691
C  C209  1  0.18329000  0.39305000  0.57265000  1.0 -0.1925026091
C  C210  1  0.13883000  0.38403000  0.58909000  1.0 0.0822629691
C  C211  1  0.13879000  0.41645000  0.62366000  1.0 -0.1698337908
C  C212  1  0.09071000  0.33811000  0.57170000  1.0 0.0822629691
C  C213  1  0.05239000  0.31093000  0.60960000  1.0 -0.1588170316
C  C214  1  0.00857000  0.26929000  0.59130000  1.0 -0.0811447612
C  C215  1  0.00050000  0.25196000  0.54130000  1.0 -0.0313482359
C  C216  1  0.03805000  0.27887000  0.50500000  1.0 -0.0879631032
C  C217  1  0.08314000  0.32146000  0.52260000  1.0 -0.1420430884
C  C218  1  0.95197000  0.20623000  0.52820000  1.0 0.5620605176
C  C219  1  0.27659000  0.44469000  0.57413000  1.0 0.0822629691
C  C220  1  0.31566000  0.46584000  0.60956000  1.0 -0.1588170316
C  C221  1  0.36071000  0.47569000  0.59417000  1.0 -0.0811447612
C  C222  1  0.36668000  0.46438000  0.54334000  1.0 -0.0313482359
C  C223  1  0.32761000  0.44323000  0.50791000  1.0 -0.0811447612
C  C224  1  0.28256000  0.43338000  0.52330000  1.0 -0.1588170316
C  C225  1  0.41586000  0.47678000  0.52690000  1.0 0.5784164242
C  C226  1  0.18537000  0.60165000  0.68260000  1.0 0.5784164242
C  C227  1  0.18985000  0.64063000  0.64876000  1.0 -0.0352625014
C  C228  1  0.14842000  0.63668000  0.62987000  1.0 -0.0811447612
C  C229  1  0.15385000  0.67203000  0.59540000  1.0 -0.1588170316
C  C230  1  0.20072000  0.71134000  0.57982000  1.0 0.0965000772
C  C231  1  0.24215000  0.71529000  0.59870000  1.0 -0.1588170316
C  C232  1  0.23671000  0.67993000  0.63317000  1.0 -0.0811447612
C  C233  1  0.20880000  0.74728000  0.53680000  1.0 0.0637903134
C  C234  1  0.18512000  0.77100000  0.54080000  1.0 -0.1754368244
C  C235  1  0.94921000  0.04561000  0.54860000  1.0 -0.0879631032
C  C236  1  0.97374000  0.02186000  0.54890000  1.0 0.0870338711
C  C237  1  0.92000000  0.01800000  0.53380000  1.0 -0.0879631032
C  C238  1  0.94550000  0.99430000  0.53290000  1.0 0.0965000772
C  C239  1  0.81685000  0.50871000  0.18130000  1.0 0.5784164242
C  C240  1  0.81680000  0.54210000  0.14179000  1.0 -0.0071435069
C  C241  1  0.77236000  0.53308000  0.12534000  1.0 -0.1698337908
C  C242  1  0.77230000  0.56550000  0.09078000  1.0 0.0822629691
C  C243  1  0.81671000  0.60695000  0.07265000  1.0 -0.1925026091
C  C244  1  0.86117000  0.61597000  0.08909000  1.0 0.0822629691
C  C245  1  0.86121000  0.58355000  0.12366000  1.0 -0.1698337908
C  C246  1  0.90929000  0.66189000  0.07170000  1.0 0.0822629691
C  C247  1  0.94761000  0.68907000  0.10960000  1.0 -0.1588170316
C  C248  1  0.99143000  0.73071000  0.09130000  1.0 -0.0811447612
C  C249  1  0.99950000  0.74804000  0.04130000  1.0 -0.0313482359
C  C250  1  0.96195000  0.72113000  0.00500000  1.0 -0.0879631032
C  C251  1  0.91686000  0.67854000  0.02260000  1.0 -0.1420430884
C  C252  1  0.04803000  0.79377000  0.02820000  1.0 0.5620605176
C  C253  1  0.72341000  0.55531000  0.07413000  1.0 0.0822629691
C  C254  1  0.68434000  0.53416000  0.10956000  1.0 -0.1588170316
C  C255  1  0.63929000  0.52431000  0.09417000  1.0 -0.0811447612
C  C256  1  0.63332000  0.53562000  0.04334000  1.0 -0.0313482359
C  C257  1  0.67239000  0.55677000  0.00791000  1.0 -0.0811447612
C  C258  1  0.71744000  0.56662000  0.02330000  1.0 -0.1588170316
C  C259  1  0.58414000  0.52322000  0.02690000  1.0 0.5784164242
C  C260  1  0.81463000  0.39835000  0.18260000  1.0 0.5742109245
C  C261  1  0.81015000  0.35937000  0.14876000  1.0 -0.0352625014
C  C262  1  0.85158000  0.36332000  0.12987000  1.0 -0.0811447612
C  C263  1  0.84615000  0.32797000  0.09540000  1.0 -0.1588170316
C  C264  1  0.79928000  0.28866000  0.07982000  1.0 0.0965000772
C  C265  1  0.75785000  0.28471000  0.09870000  1.0 -0.1588170316
C  C266  1  0.76329000  0.32007000  0.13317000  1.0 -0.0811447612
C  C267  1  0.79120000  0.25272000  0.03680000  1.0 0.0637903134
C  C268  1  0.81488000  0.22900000  0.04080000  1.0 -0.1698337908
C  C269  1  0.05079000  0.95439000  0.04860000  1.0 -0.0879631032
C  C270  1  0.02626000  0.97814000  0.04890000  1.0 0.0870338711
C  C271  1  0.08000000  0.98200000  0.03380000  1.0 -0.095521892
C  C272  1  0.05450000  0.00570000  0.03290000  1.0 0.0965000772
C  C273  1  0.19581000  0.80419000  0.00000000  1.0 0.009588295
C  C274  1  0.24165000  0.75835000  0.00000000  1.0 -0.1588170316
C  C275  1  0.16972000  0.83028000  0.00000000  1.0 0.5784164242
C  C276  1  0.80419000  0.19581000  0.50000000  1.0 0.009588295
C  C277  1  0.75835000  0.24165000  0.50000000  1.0 -0.1588170316
C  C278  1  0.83028000  0.16972000  0.50000000  1.0 0.5784164242
C  C279  1  0.80419000  0.19581000  0.00000000  1.0 0.009588295
C  C280  1  0.75835000  0.24165000  0.00000000  1.0 -0.1588170316
C  C281  1  0.83028000  0.16972000  0.00000000  1.0 0.5784164242
C  C282  1  0.19581000  0.80419000  0.50000000  1.0 0.009588295
C  C283  1  0.24165000  0.75835000  0.50000000  1.0 -0.1588170316
C  C284  1  0.16972000  0.83028000  0.50000000  1.0 0.5784164242
C  C285  1  0.91463000  0.08537000  0.00000000  1.0 0.4887264198
C  C286  1  0.93993000  0.06007000  0.00000000  1.0 -0.020809474
C  C287  1  0.98806000  0.01194000  0.00000000  1.0 -0.0488132597
C  C288  1  0.08537000  0.91463000  0.50000000  1.0 0.4887264198
C  C289  1  0.06007000  0.93993000  0.50000000  1.0 -0.020809474
C  C290  1  0.01194000  0.98806000  0.50000000  1.0 -0.0488132597
C  C291  1  0.08537000  0.91463000  0.00000000  1.0 0.4887264198
C  C292  1  0.06007000  0.93993000  0.00000000  1.0 -0.020809474
C  C293  1  0.01194000  0.98806000  0.00000000  1.0 -0.0488132597
C  C294  1  0.91463000  0.08537000  0.50000000  1.0 0.4887264198
C  C295  1  0.93993000  0.06007000  0.50000000  1.0 -0.020809474
C  C296  1  0.98806000  0.01194000  0.50000000  1.0 -0.0488132597
N  N1  1  0.99090000  0.01970000  0.10100000  1.0 -0.1327705184
N  N2  1  0.04640000  0.07720000  0.06740000  1.0 -0.1588170316
N  N3  1  0.00910000  0.98030000  0.60100000  1.0 -0.1420430884
N  N4  1  0.95360000  0.92280000  0.56740000  1.0 -0.1588170316
N  N5  1  0.01970000  0.99090000  0.39900000  1.0 -0.1420430884
N  N6  1  0.07720000  0.04640000  0.43260000  1.0 -0.1588170316
N  N7  1  0.98030000  0.00910000  0.89900000  1.0 -0.1420430884
N  N8  1  0.92280000  0.95360000  0.93260000  1.0 -0.1588170316
N  N9  1  0.00910000  0.98030000  0.89900000  1.0 -0.1420430884
N  N10  1  0.95360000  0.92280000  0.93260000  1.0 -0.1588170316
N  N11  1  0.99090000  0.01970000  0.39900000  1.0 -0.1327705184
N  N12  1  0.04640000  0.07720000  0.43260000  1.0 -0.1588170316
N  N13  1  0.98030000  0.00910000  0.60100000  1.0 -0.1420430884
N  N14  1  0.92280000  0.95360000  0.56740000  1.0 -0.1588170316
N  N15  1  0.01970000  0.99090000  0.10100000  1.0 -0.1420430884
N  N16  1  0.07720000  0.04640000  0.06740000  1.0 -0.1588170316
O  O1  1  0.47274000  0.77476000  0.19745000  1.0 -0.5217991868
O  O2  1  0.51822000  0.85732000  0.19608000  1.0 -0.5062753453
O  O3  1  0.80502000  0.05284000  0.97691000  1.0 -0.5562603348
O  O4  1  0.81823000  0.08007000  0.06108000  1.0 -0.4637793029
O  O5  1  0.50341000  0.55031000  0.06131000  1.0 -0.5217991868
O  O6  1  0.53347000  0.58031000  0.98069000  1.0 -0.5062753453
O  O7  1  0.43380000  0.85658000  0.19574000  1.0 -0.4937618548
O  O8  1  0.39016000  0.77406000  0.19735000  1.0 -0.5217991868
O  O9  1  0.17734000  0.85696000  0.04057000  1.0 -0.5271249288
O  O10  1  0.90847000  0.09851000  0.04495000  1.0 -0.500179924
O  O11  1  0.52726000  0.22524000  0.69745000  1.0 -0.5217991868
O  O12  1  0.48178000  0.14268000  0.69608000  1.0 -0.5062753453
O  O13  1  0.19498000  0.94716000  0.47691000  1.0 -0.5562603348
O  O14  1  0.18177000  0.91993000  0.56108000  1.0 -0.4659936303
O  O15  1  0.49659000  0.44969000  0.56131000  1.0 -0.5217991868
O  O16  1  0.46653000  0.41969000  0.48069000  1.0 -0.5062753453
O  O17  1  0.56620000  0.14342000  0.69574000  1.0 -0.4937618548
O  O18  1  0.60984000  0.22594000  0.69735000  1.0 -0.5217991868
O  O19  1  0.82266000  0.14304000  0.54057000  1.0 -0.5271249288
O  O20  1  0.09153000  0.90149000  0.54495000  1.0 -0.500179924
O  O21  1  0.77476000  0.47274000  0.30255000  1.0 -0.5217991868
O  O22  1  0.85732000  0.51822000  0.30392000  1.0 -0.5062753453
O  O23  1  0.05284000  0.80502000  0.52309000  1.0 -0.5562603348
O  O24  1  0.08007000  0.81823000  0.43892000  1.0 -0.4659936303
O  O25  1  0.55031000  0.50341000  0.43869000  1.0 -0.5217991868
O  O26  1  0.58031000  0.53347000  0.51931000  1.0 -0.5062753453
O  O27  1  0.85658000  0.43380000  0.30426000  1.0 -0.4937618548
O  O28  1  0.77406000  0.39016000  0.30265000  1.0 -0.5217991868
O  O29  1  0.85696000  0.17734000  0.45943000  1.0 -0.5271249288
O  O30  1  0.09851000  0.90847000  0.45505000  1.0 -0.500179924
O  O31  1  0.22524000  0.52726000  0.80255000  1.0 -0.5217991868
O  O32  1  0.14268000  0.48178000  0.80392000  1.0 -0.5062753453
O  O33  1  0.94716000  0.19498000  0.02309000  1.0 -0.5562603348
O  O34  1  0.91993000  0.18177000  0.93892000  1.0 -0.4637793029
O  O35  1  0.44969000  0.49659000  0.93869000  1.0 -0.5217991868
O  O36  1  0.41969000  0.46653000  0.01931000  1.0 -0.5062753453
O  O37  1  0.14342000  0.56620000  0.80426000  1.0 -0.4937618548
O  O38  1  0.22594000  0.60984000  0.80265000  1.0 -0.5217991868
O  O39  1  0.14304000  0.82266000  0.95943000  1.0 -0.5271249288
O  O40  1  0.90149000  0.09153000  0.95505000  1.0 -0.500179924
O  O41  1  0.52726000  0.22524000  0.80255000  1.0 -0.5217991868
O  O42  1  0.48178000  0.14268000  0.80392000  1.0 -0.5062753453
O  O43  1  0.19498000  0.94716000  0.02309000  1.0 -0.5562603348
O  O44  1  0.18177000  0.91993000  0.93892000  1.0 -0.4659936303
O  O45  1  0.49659000  0.44969000  0.93869000  1.0 -0.5217991868
O  O46  1  0.46653000  0.41969000  0.01931000  1.0 -0.5062753453
O  O47  1  0.56620000  0.14342000  0.80426000  1.0 -0.4937618548
O  O48  1  0.60984000  0.22594000  0.80265000  1.0 -0.5217991868
O  O49  1  0.82266000  0.14304000  0.95943000  1.0 -0.5271249288
O  O50  1  0.09153000  0.90149000  0.95505000  1.0 -0.500179924
O  O51  1  0.47274000  0.77476000  0.30255000  1.0 -0.5217991868
O  O52  1  0.51822000  0.85732000  0.30392000  1.0 -0.5062753453
O  O53  1  0.80502000  0.05284000  0.52309000  1.0 -0.5562603348
O  O54  1  0.81823000  0.08007000  0.43892000  1.0 -0.4637793029
O  O55  1  0.50341000  0.55031000  0.43869000  1.0 -0.5217991868
O  O56  1  0.53347000  0.58031000  0.51931000  1.0 -0.5062753453
O  O57  1  0.43380000  0.85658000  0.30426000  1.0 -0.4937618548
O  O58  1  0.39016000  0.77406000  0.30265000  1.0 -0.5217991868
O  O59  1  0.17734000  0.85696000  0.45943000  1.0 -0.5271249288
O  O60  1  0.90847000  0.09851000  0.45505000  1.0 -0.500179924
O  O61  1  0.22524000  0.52726000  0.69745000  1.0 -0.5217991868
O  O62  1  0.14268000  0.48178000  0.69608000  1.0 -0.5062753453
O  O63  1  0.94716000  0.19498000  0.47691000  1.0 -0.5562603348
O  O64  1  0.91993000  0.18177000  0.56108000  1.0 -0.4637793029
O  O65  1  0.44969000  0.49659000  0.56131000  1.0 -0.5217991868
O  O66  1  0.41969000  0.46653000  0.48069000  1.0 -0.5062753453
O  O67  1  0.14342000  0.56620000  0.69574000  1.0 -0.4937618548
O  O68  1  0.22594000  0.60984000  0.69735000  1.0 -0.5217991868
O  O69  1  0.14304000  0.82266000  0.54057000  1.0 -0.5271249288
O  O70  1  0.90149000  0.09153000  0.54495000  1.0 -0.500179924
O  O71  1  0.77476000  0.47274000  0.19745000  1.0 -0.5217991868
O  O72  1  0.85732000  0.51822000  0.19608000  1.0 -0.5062753453
O  O73  1  0.05284000  0.80502000  0.97691000  1.0 -0.5562603348
O  O74  1  0.08007000  0.81823000  0.06108000  1.0 -0.4659936303
O  O75  1  0.55031000  0.50341000  0.06131000  1.0 -0.5217991868
O  O76  1  0.58031000  0.53347000  0.98069000  1.0 -0.500179924
O  O77  1  0.85658000  0.43380000  0.19574000  1.0 -0.4937618548
O  O78  1  0.77406000  0.39016000  0.19735000  1.0 -0.5217991868
O  O79  1  0.85696000  0.17734000  0.04057000  1.0 -0.5271249288
O  O80  1  0.09851000  0.90847000  0.04495000  1.0 -0.500179924
