# DDEC6 charges by PACMAN v1.1 (https://github.com/mtap-research/PACMAN-charge/)
data_YIYBEQ_ASR_pacman
_symmetry_space_group_name_H-M   'P 1'
_cell_length_a   32.28930000
_cell_length_b   32.28930000
_cell_length_c   28.54030000
_cell_angle_alpha   90.00000000
_cell_angle_beta   90.00000000
_cell_angle_gamma   124.85900000
_symmetry_Int_Tables_number   1
_chemical_formula_structural   Cu5H38C70(NO10)2
_chemical_formula_sum   'Cu20 H152 C280 N8 O80'
_cell_volume   24416.68557608
_cell_formula_units_Z   4
loop_
 _symmetry_equiv_pos_site_id
 _symmetry_equiv_pos_as_xyz
  1  'x, y, z'
loop_
 _atom_site_type_symbol
 _atom_site_label
 _atom_site_symmetry_multiplicity
 _atom_site_fract_x
 _atom_site_fract_y
 _atom_site_fract_z
 _atom_site_occupancy
 _atom_site_charge
Cu  Cu1  1  0.38278000  0.64730000  0.54367000  1.0 0.8837278871
Cu  Cu2  1  0.61722000  0.35270000  0.04367000  1.0 0.8837278871
Cu  Cu3  1  0.64730000  0.38278000  0.95633000  1.0 0.8837278871
Cu  Cu4  1  0.35270000  0.61722000  0.45633000  1.0 0.8837278871
Cu  Cu5  1  0.61722000  0.35270000  0.45633000  1.0 0.8837278871
Cu  Cu6  1  0.38278000  0.64730000  0.95633000  1.0 0.8837278871
Cu  Cu7  1  0.35270000  0.61722000  0.04367000  1.0 0.8837278871
Cu  Cu8  1  0.64730000  0.38278000  0.54367000  1.0 0.8837278871
Cu  Cu9  1  0.97850000  0.97850000  0.54070000  1.0 0.8688413068
Cu  Cu10  1  0.02150000  0.02150000  0.04070000  1.0 0.8688413068
Cu  Cu11  1  0.97850000  0.97850000  0.95930000  1.0 0.8688413068
Cu  Cu12  1  0.02150000  0.02150000  0.45930000  1.0 0.8688413068
Cu  Cu13  1  0.25851000  0.92395000  0.75000000  1.0 0.8688413068
Cu  Cu14  1  0.35838000  0.97318000  0.75000000  1.0 0.8592830388
Cu  Cu15  1  0.74149000  0.07605000  0.25000000  1.0 0.8688413068
Cu  Cu16  1  0.64162000  0.02682000  0.25000000  1.0 0.8592830388
Cu  Cu17  1  0.92395000  0.25851000  0.75000000  1.0 0.8688413068
Cu  Cu18  1  0.97318000  0.35838000  0.75000000  1.0 0.8592830388
Cu  Cu19  1  0.07605000  0.74149000  0.25000000  1.0 0.8688413068
Cu  Cu20  1  0.02682000  0.64162000  0.25000000  1.0 0.8592830388
H  H1  1  0.39320000  0.08780000  0.64490000  1.0 0.1297015087
H  H2  1  0.32050000  0.12470000  0.55870000  1.0 0.1116272916
H  H3  1  0.24170000  0.00630000  0.64590000  1.0 0.1297015087
H  H4  1  0.24820000  0.07880000  0.51540000  1.0 0.1116272916
H  H5  1  0.17120000  0.06080000  0.48690000  1.0 0.1193261333
H  H6  1  0.10830000  0.00730000  0.61110000  1.0 0.1297015087
H  H7  1  0.18570000  0.02690000  0.64250000  1.0 0.1193261333
H  H8  1  0.44930000  0.18030000  0.64330000  1.0 0.1193261333
H  H9  1  0.52440000  0.25060000  0.61510000  1.0 0.1297015087
H  H10  1  0.46710000  0.21890000  0.48480000  1.0 0.1297015087
H  H11  1  0.39200000  0.14860000  0.51290000  1.0 0.1116272916
H  H12  1  0.37040000  0.88120000  0.64560000  1.0 0.1297015087
H  H13  1  0.36060000  0.82460000  0.59000000  1.0 0.1193261333
H  H14  1  0.21290000  0.76690000  0.57980000  1.0 0.1116272916
H  H15  1  0.22190000  0.82070000  0.64070000  1.0 0.1297015087
H  H16  1  0.32530000  0.73810000  0.56130000  1.0 0.1297015087
H  H17  1  0.42470000  0.54070000  0.43270000  1.0 0.145868232
H  H18  1  0.44850000  0.49710000  0.39060000  1.0 0.2968722559
H  H19  1  0.60680000  0.91220000  0.14490000  1.0 0.1297015087
H  H20  1  0.67950000  0.87530000  0.05870000  1.0 0.1116272916
H  H21  1  0.75830000  0.99370000  0.14590000  1.0 0.1297015087
H  H22  1  0.75180000  0.92120000  0.01540000  1.0 0.1116272916
H  H23  1  0.82880000  0.93920000  0.98690000  1.0 0.1193261333
H  H24  1  0.89170000  0.99270000  0.11110000  1.0 0.1297015087
H  H25  1  0.81430000  0.97310000  0.14250000  1.0 0.1193261333
H  H26  1  0.55070000  0.81970000  0.14330000  1.0 0.1193261333
H  H27  1  0.47560000  0.74940000  0.11510000  1.0 0.1297015087
H  H28  1  0.53290000  0.78110000  0.98480000  1.0 0.1297015087
H  H29  1  0.60800000  0.85140000  0.01290000  1.0 0.1116272916
H  H30  1  0.62960000  0.11880000  0.14560000  1.0 0.1297015087
H  H31  1  0.63940000  0.17540000  0.09000000  1.0 0.1193261333
H  H32  1  0.78710000  0.23310000  0.07980000  1.0 0.1116272916
H  H33  1  0.77810000  0.17930000  0.14070000  1.0 0.1297015087
H  H34  1  0.67470000  0.26190000  0.06130000  1.0 0.1297015087
H  H35  1  0.57530000  0.45930000  0.93270000  1.0 0.145868232
H  H36  1  0.55150000  0.50290000  0.89060000  1.0 0.2968722559
H  H37  1  0.08780000  0.39320000  0.85510000  1.0 0.1297015087
H  H38  1  0.12470000  0.32050000  0.94130000  1.0 0.1116272916
H  H39  1  0.00630000  0.24170000  0.85410000  1.0 0.1297015087
H  H40  1  0.07880000  0.24820000  0.98460000  1.0 0.1116272916
H  H41  1  0.06080000  0.17120000  0.01310000  1.0 0.1193261333
H  H42  1  0.00730000  0.10830000  0.88890000  1.0 0.1297015087
H  H43  1  0.02690000  0.18570000  0.85750000  1.0 0.1193261333
H  H44  1  0.18030000  0.44930000  0.85670000  1.0 0.1193261333
H  H45  1  0.25060000  0.52440000  0.88490000  1.0 0.1297015087
H  H46  1  0.21890000  0.46710000  0.01520000  1.0 0.1297015087
H  H47  1  0.14860000  0.39200000  0.98710000  1.0 0.1116272916
H  H48  1  0.88120000  0.37040000  0.85440000  1.0 0.1297015087
H  H49  1  0.82460000  0.36060000  0.91000000  1.0 0.1193261333
H  H50  1  0.76690000  0.21290000  0.92020000  1.0 0.1116272916
H  H51  1  0.82070000  0.22190000  0.85930000  1.0 0.1297015087
H  H52  1  0.73810000  0.32530000  0.93870000  1.0 0.1297015087
H  H53  1  0.54070000  0.42470000  0.06730000  1.0 0.145868232
H  H54  1  0.49710000  0.44850000  0.10940000  1.0 0.2968722559
H  H55  1  0.91220000  0.60680000  0.35510000  1.0 0.1297015087
H  H56  1  0.87530000  0.67950000  0.44130000  1.0 0.1116272916
H  H57  1  0.99370000  0.75830000  0.35410000  1.0 0.1297015087
H  H58  1  0.92120000  0.75180000  0.48460000  1.0 0.1116272916
H  H59  1  0.93920000  0.82880000  0.51310000  1.0 0.1193261333
H  H60  1  0.99270000  0.89170000  0.38890000  1.0 0.1297015087
H  H61  1  0.97310000  0.81430000  0.35750000  1.0 0.1193261333
H  H62  1  0.81970000  0.55070000  0.35670000  1.0 0.1193261333
H  H63  1  0.74940000  0.47560000  0.38490000  1.0 0.1297015087
H  H64  1  0.78110000  0.53290000  0.51520000  1.0 0.1297015087
H  H65  1  0.85140000  0.60800000  0.48710000  1.0 0.1116272916
H  H66  1  0.11880000  0.62960000  0.35440000  1.0 0.1297015087
H  H67  1  0.17540000  0.63940000  0.41000000  1.0 0.1193261333
H  H68  1  0.23310000  0.78710000  0.42020000  1.0 0.1116272916
H  H69  1  0.17930000  0.77810000  0.35930000  1.0 0.1297015087
H  H70  1  0.26190000  0.67470000  0.43870000  1.0 0.1297015087
H  H71  1  0.45930000  0.57530000  0.56730000  1.0 0.145868232
H  H72  1  0.50290000  0.55150000  0.60940000  1.0 0.2968722559
H  H73  1  0.60680000  0.91220000  0.35510000  1.0 0.1297015087
H  H74  1  0.67950000  0.87530000  0.44130000  1.0 0.1116272916
H  H75  1  0.75830000  0.99370000  0.35410000  1.0 0.1297015087
H  H76  1  0.75180000  0.92120000  0.48460000  1.0 0.1116272916
H  H77  1  0.82880000  0.93920000  0.51310000  1.0 0.1193261333
H  H78  1  0.89170000  0.99270000  0.38890000  1.0 0.1297015087
H  H79  1  0.81430000  0.97310000  0.35750000  1.0 0.1193261333
H  H80  1  0.55070000  0.81970000  0.35670000  1.0 0.1193261333
H  H81  1  0.47560000  0.74940000  0.38490000  1.0 0.1297015087
H  H82  1  0.53290000  0.78110000  0.51520000  1.0 0.1297015087
H  H83  1  0.60800000  0.85140000  0.48710000  1.0 0.1116272916
H  H84  1  0.62960000  0.11880000  0.35440000  1.0 0.1297015087
H  H85  1  0.63940000  0.17540000  0.41000000  1.0 0.1193261333
H  H86  1  0.78710000  0.23310000  0.42020000  1.0 0.1116272916
H  H87  1  0.77810000  0.17930000  0.35930000  1.0 0.1297015087
H  H88  1  0.67470000  0.26190000  0.43870000  1.0 0.1297015087
H  H89  1  0.57530000  0.45930000  0.56730000  1.0 0.145868232
H  H90  1  0.55150000  0.50290000  0.60940000  1.0 0.2968722559
H  H91  1  0.39320000  0.08780000  0.85510000  1.0 0.1297015087
H  H92  1  0.32050000  0.12470000  0.94130000  1.0 0.1116272916
H  H93  1  0.24170000  0.00630000  0.85410000  1.0 0.1297015087
H  H94  1  0.24820000  0.07880000  0.98460000  1.0 0.1116272916
H  H95  1  0.17120000  0.06080000  0.01310000  1.0 0.1193261333
H  H96  1  0.10830000  0.00730000  0.88890000  1.0 0.1297015087
H  H97  1  0.18570000  0.02690000  0.85750000  1.0 0.1193261333
H  H98  1  0.44930000  0.18030000  0.85670000  1.0 0.1193261333
H  H99  1  0.52440000  0.25060000  0.88490000  1.0 0.1297015087
H  H100  1  0.46710000  0.21890000  0.01520000  1.0 0.1297015087
H  H101  1  0.39200000  0.14860000  0.98710000  1.0 0.1116272916
H  H102  1  0.37040000  0.88120000  0.85440000  1.0 0.1297015087
H  H103  1  0.36060000  0.82460000  0.91000000  1.0 0.1193261333
H  H104  1  0.21290000  0.76690000  0.92020000  1.0 0.1116272916
H  H105  1  0.22190000  0.82070000  0.85930000  1.0 0.1297015087
H  H106  1  0.32530000  0.73810000  0.93870000  1.0 0.1297015087
H  H107  1  0.42470000  0.54070000  0.06730000  1.0 0.145868232
H  H108  1  0.44850000  0.49710000  0.10940000  1.0 0.2968722559
H  H109  1  0.91220000  0.60680000  0.14490000  1.0 0.1297015087
H  H110  1  0.87530000  0.67950000  0.05870000  1.0 0.1116272916
H  H111  1  0.99370000  0.75830000  0.14590000  1.0 0.1297015087
H  H112  1  0.92120000  0.75180000  0.01540000  1.0 0.1116272916
H  H113  1  0.93920000  0.82880000  0.98690000  1.0 0.1193261333
H  H114  1  0.99270000  0.89170000  0.11110000  1.0 0.1297015087
H  H115  1  0.97310000  0.81430000  0.14250000  1.0 0.1193261333
H  H116  1  0.81970000  0.55070000  0.14330000  1.0 0.1193261333
H  H117  1  0.74940000  0.47560000  0.11510000  1.0 0.1297015087
H  H118  1  0.78110000  0.53290000  0.98480000  1.0 0.1297015087
H  H119  1  0.85140000  0.60800000  0.01290000  1.0 0.1116272916
H  H120  1  0.11880000  0.62960000  0.14560000  1.0 0.1297015087
H  H121  1  0.17540000  0.63940000  0.09000000  1.0 0.1193261333
H  H122  1  0.23310000  0.78710000  0.07980000  1.0 0.1116272916
H  H123  1  0.17930000  0.77810000  0.14070000  1.0 0.1297015087
H  H124  1  0.26190000  0.67470000  0.06130000  1.0 0.1297015087
H  H125  1  0.45930000  0.57530000  0.93270000  1.0 0.145868232
H  H126  1  0.50290000  0.55150000  0.89060000  1.0 0.2968722559
H  H127  1  0.08780000  0.39320000  0.64490000  1.0 0.1297015087
H  H128  1  0.12470000  0.32050000  0.55870000  1.0 0.1116272916
H  H129  1  0.00630000  0.24170000  0.64590000  1.0 0.1297015087
H  H130  1  0.07880000  0.24820000  0.51540000  1.0 0.1116272916
H  H131  1  0.06080000  0.17120000  0.48690000  1.0 0.1193261333
H  H132  1  0.00730000  0.10830000  0.61110000  1.0 0.1297015087
H  H133  1  0.02690000  0.18570000  0.64250000  1.0 0.1193261333
H  H134  1  0.18030000  0.44930000  0.64330000  1.0 0.1193261333
H  H135  1  0.25060000  0.52440000  0.61510000  1.0 0.1297015087
H  H136  1  0.21890000  0.46710000  0.48480000  1.0 0.1297015087
H  H137  1  0.14860000  0.39200000  0.51290000  1.0 0.1116272916
H  H138  1  0.88120000  0.37040000  0.64560000  1.0 0.1297015087
H  H139  1  0.82460000  0.36060000  0.59000000  1.0 0.1193261333
H  H140  1  0.76690000  0.21290000  0.57980000  1.0 0.1116272916
H  H141  1  0.82070000  0.22190000  0.64070000  1.0 0.1297015087
H  H142  1  0.73810000  0.32530000  0.56130000  1.0 0.1297015087
H  H143  1  0.54070000  0.42470000  0.43270000  1.0 0.145868232
H  H144  1  0.49710000  0.44850000  0.39060000  1.0 0.2968722559
H  H145  1  0.23320000  0.76680000  0.50000000  1.0 0.1116272916
H  H146  1  0.76680000  0.23320000  0.00000000  1.0 0.1116272916
H  H147  1  0.76680000  0.23320000  0.50000000  1.0 0.1116272916
H  H148  1  0.23320000  0.76680000  0.00000000  1.0 0.1116272916
H  H149  1  0.47820000  0.47820000  0.41430000  1.0 0.2893652855
H  H150  1  0.52180000  0.52180000  0.91430000  1.0 0.2893652855
H  H151  1  0.47820000  0.47820000  0.08570000  1.0 0.2893652855
H  H152  1  0.52180000  0.52180000  0.58570000  1.0 0.2893652855
C  C1  1  0.55267000  0.28893000  0.53230000  1.0 0.5794046844
C  C2  1  0.31501000  0.00699000  0.68733000  1.0 0.5794046844
C  C3  1  0.31720000  0.04192000  0.65109000  1.0 -0.0098662498
C  C4  1  0.36322000  0.08184000  0.63349000  1.0 -0.1700399774
C  C5  1  0.36447000  0.11283000  0.59889000  1.0 0.0705119838
C  C6  1  0.31969000  0.10391000  0.58189000  1.0 -0.1919475358
C  C7  1  0.27368000  0.06400000  0.59949000  1.0 0.0776802427
C  C8  1  0.27243000  0.03299000  0.63409000  1.0 -0.1700399774
C  C9  1  0.22400000  0.05298000  0.58030000  1.0 0.0776802427
C  C10  1  0.22030000  0.06422000  0.53500000  1.0 -0.1617045761
C  C11  1  0.17372000  0.05368000  0.51790000  1.0 -0.0786479382
C  C12  1  0.13213000  0.03283000  0.54740000  1.0 -0.0468123256
C  C13  1  0.13649000  0.02225000  0.59190000  1.0 -0.0786479382
C  C14  1  0.18300000  0.03300000  0.61117000  1.0 -0.1700399774
C  C15  1  0.08278000  0.02082000  0.53090000  1.0 0.5743566691
C  C16  1  0.41325000  0.15753000  0.58090000  1.0 0.0705119838
C  C17  1  0.45289000  0.18809000  0.61152000  1.0 -0.1492665664
C  C18  1  0.49786000  0.23020000  0.59465000  1.0 -0.0902683329
C  C19  1  0.50320000  0.24174000  0.54717000  1.0 -0.027602538
C  C20  1  0.46355000  0.21119000  0.51654000  1.0 -0.0902683329
C  C21  1  0.41858000  0.16908000  0.53341000  1.0 -0.1492665664
C  C22  1  0.30174000  0.89046000  0.68754000  1.0 0.5794046844
C  C23  1  0.29718000  0.85578000  0.64972000  1.0 -0.0385193167
C  C24  1  0.33857000  0.85761000  0.63335000  1.0 -0.0786479382
C  C25  1  0.33285000  0.82455000  0.59886000  1.0 -0.1492665664
C  C26  1  0.28633000  0.79127000  0.57718000  1.0 0.0705119838
C  C27  1  0.24440000  0.78942000  0.59322000  1.0 -0.1617045761
C  C28  1  0.24979000  0.82201000  0.62995000  1.0 -0.0902683329
C  C29  1  0.27916000  0.75710000  0.53914000  1.0 0.0705119838
C  C30  1  0.30373000  0.73333000  0.53702000  1.0 -0.1700399774
C  C31  1  0.43968000  0.53982000  0.46010000  1.0 -0.2233396121
C  C32  1  0.46503000  0.51527000  0.46160000  1.0 0.0909580267
C  C33  1  0.44733000  0.71107000  0.03230000  1.0 0.5794046844
C  C34  1  0.68499000  0.99301000  0.18733000  1.0 0.5794046844
C  C35  1  0.68280000  0.95808000  0.15109000  1.0 -0.0098662498
C  C36  1  0.63678000  0.91816000  0.13349000  1.0 -0.1700399774
C  C37  1  0.63553000  0.88717000  0.09889000  1.0 0.0705119838
C  C38  1  0.68031000  0.89609000  0.08189000  1.0 -0.1919475358
C  C39  1  0.72632000  0.93600000  0.09949000  1.0 0.0776802427
C  C40  1  0.72757000  0.96701000  0.13409000  1.0 -0.1700399774
C  C41  1  0.77600000  0.94702000  0.08030000  1.0 0.0776802427
C  C42  1  0.77970000  0.93578000  0.03500000  1.0 -0.1700399774
C  C43  1  0.82628000  0.94632000  0.01790000  1.0 -0.0786479382
C  C44  1  0.86787000  0.96717000  0.04740000  1.0 -0.0385193167
C  C45  1  0.86351000  0.97775000  0.09190000  1.0 -0.0786479382
C  C46  1  0.81700000  0.96700000  0.11117000  1.0 -0.1700399774
C  C47  1  0.91722000  0.97918000  0.03090000  1.0 0.5743566691
C  C48  1  0.58675000  0.84247000  0.08090000  1.0 0.0776802427
C  C49  1  0.54711000  0.81191000  0.11152000  1.0 -0.1492665664
C  C50  1  0.50214000  0.76980000  0.09465000  1.0 -0.0902683329
C  C51  1  0.49680000  0.75826000  0.04717000  1.0 -0.027602538
C  C52  1  0.53645000  0.78881000  0.01654000  1.0 -0.0902683329
C  C53  1  0.58142000  0.83092000  0.03341000  1.0 -0.1617045761
C  C54  1  0.69826000  0.10954000  0.18754000  1.0 0.5794046844
C  C55  1  0.70282000  0.14422000  0.14972000  1.0 -0.0385193167
C  C56  1  0.66143000  0.14239000  0.13335000  1.0 -0.0902683329
C  C57  1  0.66715000  0.17545000  0.09886000  1.0 -0.1492665664
C  C58  1  0.71367000  0.20873000  0.07718000  1.0 0.0705119838
C  C59  1  0.75560000  0.21058000  0.09322000  1.0 -0.1617045761
C  C60  1  0.75021000  0.17799000  0.12995000  1.0 -0.0902683329
C  C61  1  0.72084000  0.24290000  0.03914000  1.0 0.0705119838
C  C62  1  0.69627000  0.26667000  0.03702000  1.0 -0.1700399774
C  C63  1  0.56032000  0.46018000  0.96010000  1.0 -0.2233396121
C  C64  1  0.53497000  0.48473000  0.96160000  1.0 0.0909580267
C  C65  1  0.28893000  0.55267000  0.96770000  1.0 0.5794046844
C  C66  1  0.00699000  0.31501000  0.81267000  1.0 0.5794046844
C  C67  1  0.04192000  0.31720000  0.84891000  1.0 -0.0098662498
C  C68  1  0.08184000  0.36322000  0.86651000  1.0 -0.1700399774
C  C69  1  0.11283000  0.36447000  0.90111000  1.0 0.0705119838
C  C70  1  0.10391000  0.31969000  0.91811000  1.0 -0.1919475358
C  C71  1  0.06400000  0.27368000  0.90051000  1.0 0.0776802427
C  C72  1  0.03299000  0.27243000  0.86591000  1.0 -0.1700399774
C  C73  1  0.05298000  0.22400000  0.91970000  1.0 0.0776802427
C  C74  1  0.06422000  0.22030000  0.96500000  1.0 -0.1700399774
C  C75  1  0.05368000  0.17372000  0.98210000  1.0 -0.0786479382
C  C76  1  0.03283000  0.13213000  0.95260000  1.0 -0.0468123256
C  C77  1  0.02225000  0.13649000  0.90810000  1.0 -0.0786479382
C  C78  1  0.03300000  0.18300000  0.88883000  1.0 -0.1617045761
C  C79  1  0.02082000  0.08278000  0.96910000  1.0 0.5743566691
C  C80  1  0.15753000  0.41325000  0.91910000  1.0 0.0776802427
C  C81  1  0.18809000  0.45289000  0.88848000  1.0 -0.1492665664
C  C82  1  0.23020000  0.49786000  0.90535000  1.0 -0.0902683329
C  C83  1  0.24174000  0.50320000  0.95283000  1.0 -0.027602538
C  C84  1  0.21119000  0.46355000  0.98346000  1.0 -0.0902683329
C  C85  1  0.16908000  0.41858000  0.96659000  1.0 -0.1617045761
C  C86  1  0.89046000  0.30174000  0.81246000  1.0 0.5794046844
C  C87  1  0.85578000  0.29718000  0.85028000  1.0 -0.0385193167
C  C88  1  0.85761000  0.33857000  0.86665000  1.0 -0.0786479382
C  C89  1  0.82455000  0.33285000  0.90114000  1.0 -0.1492665664
C  C90  1  0.79127000  0.28633000  0.92282000  1.0 0.0705119838
C  C91  1  0.78942000  0.24440000  0.90678000  1.0 -0.1617045761
C  C92  1  0.82201000  0.24979000  0.87005000  1.0 -0.0902683329
C  C93  1  0.75710000  0.27916000  0.96086000  1.0 0.0705119838
C  C94  1  0.73333000  0.30373000  0.96298000  1.0 -0.1700399774
C  C95  1  0.53982000  0.43968000  0.03990000  1.0 -0.2233396121
C  C96  1  0.51527000  0.46503000  0.03840000  1.0 0.0909580267
C  C97  1  0.71107000  0.44733000  0.46770000  1.0 0.5794046844
C  C98  1  0.99301000  0.68499000  0.31267000  1.0 0.5794046844
C  C99  1  0.95808000  0.68280000  0.34891000  1.0 -0.0098662498
C  C100  1  0.91816000  0.63678000  0.36651000  1.0 -0.1700399774
C  C101  1  0.88717000  0.63553000  0.40111000  1.0 0.0705119838
C  C102  1  0.89609000  0.68031000  0.41811000  1.0 -0.1919475358
C  C103  1  0.93600000  0.72632000  0.40051000  1.0 0.0776802427
C  C104  1  0.96701000  0.72757000  0.36591000  1.0 -0.1700399774
C  C105  1  0.94702000  0.77600000  0.41970000  1.0 0.0776802427
C  C106  1  0.93578000  0.77970000  0.46500000  1.0 -0.1617045761
C  C107  1  0.94632000  0.82628000  0.48210000  1.0 -0.0786479382
C  C108  1  0.96717000  0.86787000  0.45260000  1.0 -0.0468123256
C  C109  1  0.97775000  0.86351000  0.40810000  1.0 -0.0786479382
C  C110  1  0.96700000  0.81700000  0.38883000  1.0 -0.1700399774
C  C111  1  0.97918000  0.91722000  0.46910000  1.0 0.5743566691
C  C112  1  0.84247000  0.58675000  0.41910000  1.0 0.0776802427
C  C113  1  0.81191000  0.54711000  0.38848000  1.0 -0.1492665664
C  C114  1  0.76980000  0.50214000  0.40535000  1.0 -0.0902683329
C  C115  1  0.75826000  0.49680000  0.45283000  1.0 -0.027602538
C  C116  1  0.78881000  0.53645000  0.48346000  1.0 -0.0902683329
C  C117  1  0.83092000  0.58142000  0.46659000  1.0 -0.1492665664
C  C118  1  0.10954000  0.69826000  0.31246000  1.0 0.5794046844
C  C119  1  0.14422000  0.70282000  0.35028000  1.0 -0.0385193167
C  C120  1  0.14239000  0.66143000  0.36665000  1.0 -0.0902683329
C  C121  1  0.17545000  0.66715000  0.40114000  1.0 -0.1492665664
C  C122  1  0.20873000  0.71367000  0.42282000  1.0 0.0705119838
C  C123  1  0.21058000  0.75560000  0.40678000  1.0 -0.1700399774
C  C124  1  0.17799000  0.75021000  0.37005000  1.0 -0.0902683329
C  C125  1  0.24290000  0.72084000  0.46086000  1.0 0.0705119838
C  C126  1  0.26667000  0.69627000  0.46298000  1.0 -0.1700399774
C  C127  1  0.46018000  0.56032000  0.53990000  1.0 -0.2233396121
C  C128  1  0.48473000  0.53497000  0.53840000  1.0 0.0909580267
C  C129  1  0.44733000  0.71107000  0.46770000  1.0 0.5794046844
C  C130  1  0.68499000  0.99301000  0.31267000  1.0 0.5794046844
C  C131  1  0.68280000  0.95808000  0.34891000  1.0 -0.0098662498
C  C132  1  0.63678000  0.91816000  0.36651000  1.0 -0.1700399774
C  C133  1  0.63553000  0.88717000  0.40111000  1.0 0.0705119838
C  C134  1  0.68031000  0.89609000  0.41811000  1.0 -0.1919475358
C  C135  1  0.72632000  0.93600000  0.40051000  1.0 0.0776802427
C  C136  1  0.72757000  0.96701000  0.36591000  1.0 -0.1700399774
C  C137  1  0.77600000  0.94702000  0.41970000  1.0 0.0776802427
C  C138  1  0.77970000  0.93578000  0.46500000  1.0 -0.1617045761
C  C139  1  0.82628000  0.94632000  0.48210000  1.0 -0.0786479382
C  C140  1  0.86787000  0.96717000  0.45260000  1.0 -0.0385193167
C  C141  1  0.86351000  0.97775000  0.40810000  1.0 -0.0786479382
C  C142  1  0.81700000  0.96700000  0.38883000  1.0 -0.1700399774
C  C143  1  0.91722000  0.97918000  0.46910000  1.0 0.5743566691
C  C144  1  0.58675000  0.84247000  0.41910000  1.0 0.0776802427
C  C145  1  0.54711000  0.81191000  0.38848000  1.0 -0.1492665664
C  C146  1  0.50214000  0.76980000  0.40535000  1.0 -0.0902683329
C  C147  1  0.49680000  0.75826000  0.45283000  1.0 -0.027602538
C  C148  1  0.53645000  0.78881000  0.48346000  1.0 -0.0902683329
C  C149  1  0.58142000  0.83092000  0.46659000  1.0 -0.1617045761
C  C150  1  0.69826000  0.10954000  0.31246000  1.0 0.5794046844
C  C151  1  0.70282000  0.14422000  0.35028000  1.0 -0.0385193167
C  C152  1  0.66143000  0.14239000  0.36665000  1.0 -0.0902683329
C  C153  1  0.66715000  0.17545000  0.40114000  1.0 -0.1492665664
C  C154  1  0.71367000  0.20873000  0.42282000  1.0 0.0705119838
C  C155  1  0.75560000  0.21058000  0.40678000  1.0 -0.1617045761
C  C156  1  0.75021000  0.17799000  0.37005000  1.0 -0.0902683329
C  C157  1  0.72084000  0.24290000  0.46086000  1.0 0.0705119838
C  C158  1  0.69627000  0.26667000  0.46298000  1.0 -0.1700399774
C  C159  1  0.56032000  0.46018000  0.53990000  1.0 -0.2233396121
C  C160  1  0.53497000  0.48473000  0.53840000  1.0 0.0909580267
C  C161  1  0.55267000  0.28893000  0.96770000  1.0 0.5794046844
C  C162  1  0.31501000  0.00699000  0.81267000  1.0 0.5794046844
C  C163  1  0.31720000  0.04192000  0.84891000  1.0 -0.0098662498
C  C164  1  0.36322000  0.08184000  0.86651000  1.0 -0.1700399774
C  C165  1  0.36447000  0.11283000  0.90111000  1.0 0.0705119838
C  C166  1  0.31969000  0.10391000  0.91811000  1.0 -0.1919475358
C  C167  1  0.27368000  0.06400000  0.90051000  1.0 0.0776802427
C  C168  1  0.27243000  0.03299000  0.86591000  1.0 -0.1700399774
C  C169  1  0.22400000  0.05298000  0.91970000  1.0 0.0776802427
C  C170  1  0.22030000  0.06422000  0.96500000  1.0 -0.1617045761
C  C171  1  0.17372000  0.05368000  0.98210000  1.0 -0.0786479382
C  C172  1  0.13213000  0.03283000  0.95260000  1.0 -0.0468123256
C  C173  1  0.13649000  0.02225000  0.90810000  1.0 -0.0786479382
C  C174  1  0.18300000  0.03300000  0.88883000  1.0 -0.1700399774
C  C175  1  0.08278000  0.02082000  0.96910000  1.0 0.5743566691
C  C176  1  0.41325000  0.15753000  0.91910000  1.0 0.0705119838
C  C177  1  0.45289000  0.18809000  0.88848000  1.0 -0.1492665664
C  C178  1  0.49786000  0.23020000  0.90535000  1.0 -0.0902683329
C  C179  1  0.50320000  0.24174000  0.95283000  1.0 -0.027602538
C  C180  1  0.46355000  0.21119000  0.98346000  1.0 -0.0902683329
C  C181  1  0.41858000  0.16908000  0.96659000  1.0 -0.1492665664
C  C182  1  0.30174000  0.89046000  0.81246000  1.0 0.5794046844
C  C183  1  0.29718000  0.85578000  0.85028000  1.0 -0.0385193167
C  C184  1  0.33857000  0.85761000  0.86665000  1.0 -0.0786479382
C  C185  1  0.33285000  0.82455000  0.90114000  1.0 -0.1492665664
C  C186  1  0.28633000  0.79127000  0.92282000  1.0 0.0705119838
C  C187  1  0.24440000  0.78942000  0.90678000  1.0 -0.1617045761
C  C188  1  0.24979000  0.82201000  0.87005000  1.0 -0.0786479382
C  C189  1  0.27916000  0.75710000  0.96086000  1.0 0.0705119838
C  C190  1  0.30373000  0.73333000  0.96298000  1.0 -0.1700399774
C  C191  1  0.43968000  0.53982000  0.03990000  1.0 -0.2233396121
C  C192  1  0.46503000  0.51527000  0.03840000  1.0 0.0909580267
C  C193  1  0.71107000  0.44733000  0.03230000  1.0 0.5794046844
C  C194  1  0.99301000  0.68499000  0.18733000  1.0 0.5794046844
C  C195  1  0.95808000  0.68280000  0.15109000  1.0 -0.0098662498
C  C196  1  0.91816000  0.63678000  0.13349000  1.0 -0.1700399774
C  C197  1  0.88717000  0.63553000  0.09889000  1.0 0.0705119838
C  C198  1  0.89609000  0.68031000  0.08189000  1.0 -0.1919475358
C  C199  1  0.93600000  0.72632000  0.09949000  1.0 0.0776802427
C  C200  1  0.96701000  0.72757000  0.13409000  1.0 -0.1700399774
C  C201  1  0.94702000  0.77600000  0.08030000  1.0 0.0776802427
C  C202  1  0.93578000  0.77970000  0.03500000  1.0 -0.1617045761
C  C203  1  0.94632000  0.82628000  0.01790000  1.0 -0.0786479382
C  C204  1  0.96717000  0.86787000  0.04740000  1.0 -0.0468123256
C  C205  1  0.97775000  0.86351000  0.09190000  1.0 -0.0786479382
C  C206  1  0.96700000  0.81700000  0.11117000  1.0 -0.1700399774
C  C207  1  0.97918000  0.91722000  0.03090000  1.0 0.5743566691
C  C208  1  0.84247000  0.58675000  0.08090000  1.0 0.0776802427
C  C209  1  0.81191000  0.54711000  0.11152000  1.0 -0.1492665664
C  C210  1  0.76980000  0.50214000  0.09465000  1.0 -0.0902683329
C  C211  1  0.75826000  0.49680000  0.04717000  1.0 -0.027602538
C  C212  1  0.78881000  0.53645000  0.01654000  1.0 -0.0902683329
C  C213  1  0.83092000  0.58142000  0.03341000  1.0 -0.1492665664
C  C214  1  0.10954000  0.69826000  0.18754000  1.0 0.5794046844
C  C215  1  0.14422000  0.70282000  0.14972000  1.0 -0.0385193167
C  C216  1  0.14239000  0.66143000  0.13335000  1.0 -0.0902683329
C  C217  1  0.17545000  0.66715000  0.09886000  1.0 -0.1492665664
C  C218  1  0.20873000  0.71367000  0.07718000  1.0 0.0705119838
C  C219  1  0.21058000  0.75560000  0.09322000  1.0 -0.1700399774
C  C220  1  0.17799000  0.75021000  0.12995000  1.0 -0.0902683329
C  C221  1  0.24290000  0.72084000  0.03914000  1.0 0.0705119838
C  C222  1  0.26667000  0.69627000  0.03702000  1.0 -0.1700399774
C  C223  1  0.46018000  0.56032000  0.96010000  1.0 -0.2233396121
C  C224  1  0.48473000  0.53497000  0.96160000  1.0 0.0909580267
C  C225  1  0.28893000  0.55267000  0.53230000  1.0 0.5794046844
C  C226  1  0.00699000  0.31501000  0.68733000  1.0 0.5794046844
C  C227  1  0.04192000  0.31720000  0.65109000  1.0 -0.0098662498
C  C228  1  0.08184000  0.36322000  0.63349000  1.0 -0.1700399774
C  C229  1  0.11283000  0.36447000  0.59889000  1.0 0.0705119838
C  C230  1  0.10391000  0.31969000  0.58189000  1.0 -0.1919475358
C  C231  1  0.06400000  0.27368000  0.59949000  1.0 0.0776802427
C  C232  1  0.03299000  0.27243000  0.63409000  1.0 -0.1700399774
C  C233  1  0.05298000  0.22400000  0.58030000  1.0 0.0776802427
C  C234  1  0.06422000  0.22030000  0.53500000  1.0 -0.1700399774
C  C235  1  0.05368000  0.17372000  0.51790000  1.0 -0.0786479382
C  C236  1  0.03283000  0.13213000  0.54740000  1.0 -0.0468123256
C  C237  1  0.02225000  0.13649000  0.59190000  1.0 -0.0786479382
C  C238  1  0.03300000  0.18300000  0.61117000  1.0 -0.1617045761
C  C239  1  0.02082000  0.08278000  0.53090000  1.0 0.5743566691
C  C240  1  0.15753000  0.41325000  0.58090000  1.0 0.0776802427
C  C241  1  0.18809000  0.45289000  0.61152000  1.0 -0.1492665664
C  C242  1  0.23020000  0.49786000  0.59465000  1.0 -0.0902683329
C  C243  1  0.24174000  0.50320000  0.54717000  1.0 -0.027602538
C  C244  1  0.21119000  0.46355000  0.51654000  1.0 -0.0902683329
C  C245  1  0.16908000  0.41858000  0.53341000  1.0 -0.1617045761
C  C246  1  0.89046000  0.30174000  0.68754000  1.0 0.5794046844
C  C247  1  0.85578000  0.29718000  0.64972000  1.0 -0.0385193167
C  C248  1  0.85761000  0.33857000  0.63335000  1.0 -0.0786479382
C  C249  1  0.82455000  0.33285000  0.59886000  1.0 -0.1492665664
C  C250  1  0.79127000  0.28633000  0.57718000  1.0 0.0705119838
C  C251  1  0.78942000  0.24440000  0.59322000  1.0 -0.1617045761
C  C252  1  0.82201000  0.24979000  0.62995000  1.0 -0.0902683329
C  C253  1  0.75710000  0.27916000  0.53914000  1.0 0.0705119838
C  C254  1  0.73333000  0.30373000  0.53702000  1.0 -0.1700399774
C  C255  1  0.53982000  0.43968000  0.46010000  1.0 -0.2233396121
C  C256  1  0.51527000  0.46503000  0.46160000  1.0 0.0909580267
C  C257  1  0.24943000  0.75057000  0.50000000  1.0 -0.1919475358
C  C258  1  0.29715000  0.70285000  0.50000000  1.0 -0.0022780575
C  C259  1  0.32412000  0.67588000  0.50000000  1.0 0.5794046844
C  C260  1  0.41179000  0.58821000  0.50000000  1.0 0.5989610194
C  C261  1  0.43828000  0.56172000  0.50000000  1.0 0.0209576632
C  C262  1  0.48696000  0.51304000  0.50000000  1.0 -0.1042879955
C  C263  1  0.75057000  0.24943000  0.00000000  1.0 -0.1919475358
C  C264  1  0.70285000  0.29715000  0.00000000  1.0 -0.0022780575
C  C265  1  0.67588000  0.32412000  0.00000000  1.0 0.5794046844
C  C266  1  0.58821000  0.41179000  0.00000000  1.0 0.5989610194
C  C267  1  0.56172000  0.43828000  0.00000000  1.0 0.0209576632
C  C268  1  0.51304000  0.48696000  0.00000000  1.0 -0.1042879955
C  C269  1  0.75057000  0.24943000  0.50000000  1.0 -0.1919475358
C  C270  1  0.70285000  0.29715000  0.50000000  1.0 -0.0022780575
C  C271  1  0.67588000  0.32412000  0.50000000  1.0 0.5794046844
C  C272  1  0.58821000  0.41179000  0.50000000  1.0 0.5989610194
C  C273  1  0.56172000  0.43828000  0.50000000  1.0 0.0209576632
C  C274  1  0.51304000  0.48696000  0.50000000  1.0 -0.1042879955
C  C275  1  0.24943000  0.75057000  0.00000000  1.0 -0.1919475358
C  C276  1  0.29715000  0.70285000  0.00000000  1.0 -0.0022780575
C  C277  1  0.32412000  0.67588000  0.00000000  1.0 0.5794046844
C  C278  1  0.41179000  0.58821000  0.00000000  1.0 0.5989610194
C  C279  1  0.43828000  0.56172000  0.00000000  1.0 0.0209576632
C  C280  1  0.48696000  0.51304000  0.00000000  1.0 -0.1042879955
N  N1  1  0.46300000  0.49440000  0.41630000  1.0 -0.340408669
N  N2  1  0.53700000  0.50560000  0.91630000  1.0 -0.340408669
N  N3  1  0.49440000  0.46300000  0.08370000  1.0 -0.340408669
N  N4  1  0.50560000  0.53700000  0.58370000  1.0 -0.3469471992
N  N5  1  0.53700000  0.50560000  0.58370000  1.0 -0.340408669
N  N6  1  0.46300000  0.49440000  0.08370000  1.0 -0.340408669
N  N7  1  0.50560000  0.53700000  0.91630000  1.0 -0.3469471992
N  N8  1  0.49440000  0.46300000  0.41630000  1.0 -0.340408669
O  O1  1  0.35587000  0.01483000  0.70155000  1.0 -0.5194232723
O  O2  1  0.27089000  0.97215000  0.70214000  1.0 -0.5304003293
O  O3  1  0.04555000  0.99809000  0.55697000  1.0 -0.4961516173
O  O4  1  0.08264000  0.03460000  0.48833000  1.0 -0.5365132512
O  O5  1  0.55758000  0.29642000  0.48603000  1.0 -0.5705846907
O  O6  1  0.58765000  0.31975000  0.56013000  1.0 -0.5194232723
O  O7  1  0.26065000  0.88267000  0.70207000  1.0 -0.5304003293
O  O8  1  0.34548000  0.92372000  0.70195000  1.0 -0.5194232723
O  O9  1  0.34973000  0.68201000  0.53567000  1.0 -0.5073990361
O  O10  1  0.41140000  0.60788000  0.53811000  1.0 -0.5073990361
O  O11  1  0.64413000  0.98517000  0.20155000  1.0 -0.5194232723
O  O12  1  0.72911000  0.02785000  0.20214000  1.0 -0.5304003293
O  O13  1  0.95445000  0.00191000  0.05697000  1.0 -0.4939278574
O  O14  1  0.91736000  0.96540000  0.98833000  1.0 -0.5304003293
O  O15  1  0.44242000  0.70358000  0.98603000  1.0 -0.5705846907
O  O16  1  0.41235000  0.68025000  0.06013000  1.0 -0.5194232723
O  O17  1  0.73935000  0.11733000  0.20207000  1.0 -0.5304003293
O  O18  1  0.65452000  0.07628000  0.20195000  1.0 -0.5194232723
O  O19  1  0.65027000  0.31799000  0.03567000  1.0 -0.5073990361
O  O20  1  0.58860000  0.39212000  0.03811000  1.0 -0.5073990361
O  O21  1  0.01483000  0.35587000  0.79845000  1.0 -0.5194232723
O  O22  1  0.97215000  0.27089000  0.79786000  1.0 -0.5304003293
O  O23  1  0.99809000  0.04555000  0.94303000  1.0 -0.4939278574
O  O24  1  0.03460000  0.08264000  0.01167000  1.0 -0.5365132512
O  O25  1  0.29642000  0.55758000  0.01397000  1.0 -0.5705846907
O  O26  1  0.31975000  0.58765000  0.93987000  1.0 -0.5194232723
O  O27  1  0.88267000  0.26065000  0.79793000  1.0 -0.5304003293
O  O28  1  0.92372000  0.34548000  0.79805000  1.0 -0.5194232723
O  O29  1  0.68201000  0.34973000  0.96433000  1.0 -0.5073990361
O  O30  1  0.60788000  0.41140000  0.96189000  1.0 -0.5073990361
O  O31  1  0.98517000  0.64413000  0.29845000  1.0 -0.5194232723
O  O32  1  0.02785000  0.72911000  0.29786000  1.0 -0.5304003293
O  O33  1  0.00191000  0.95445000  0.44303000  1.0 -0.4961516173
O  O34  1  0.96540000  0.91736000  0.51167000  1.0 -0.5365132512
O  O35  1  0.70358000  0.44242000  0.51397000  1.0 -0.5705846907
O  O36  1  0.68025000  0.41235000  0.43987000  1.0 -0.5194232723
O  O37  1  0.11733000  0.73935000  0.29793000  1.0 -0.5304003293
O  O38  1  0.07628000  0.65452000  0.29805000  1.0 -0.5194232723
O  O39  1  0.31799000  0.65027000  0.46433000  1.0 -0.5073990361
O  O40  1  0.39212000  0.58860000  0.46189000  1.0 -0.5073990361
O  O41  1  0.64413000  0.98517000  0.29845000  1.0 -0.5194232723
O  O42  1  0.72911000  0.02785000  0.29786000  1.0 -0.5304003293
O  O43  1  0.95445000  0.00191000  0.44303000  1.0 -0.4939278574
O  O44  1  0.91736000  0.96540000  0.51167000  1.0 -0.5304003293
O  O45  1  0.44242000  0.70358000  0.51397000  1.0 -0.5705846907
O  O46  1  0.41235000  0.68025000  0.43987000  1.0 -0.5194232723
O  O47  1  0.73935000  0.11733000  0.29793000  1.0 -0.5304003293
O  O48  1  0.65452000  0.07628000  0.29805000  1.0 -0.5194232723
O  O49  1  0.65027000  0.31799000  0.46433000  1.0 -0.5073990361
O  O50  1  0.58860000  0.39212000  0.46189000  1.0 -0.5073990361
O  O51  1  0.35587000  0.01483000  0.79845000  1.0 -0.5194232723
O  O52  1  0.27089000  0.97215000  0.79786000  1.0 -0.5304003293
O  O53  1  0.04555000  0.99809000  0.94303000  1.0 -0.4961516173
O  O54  1  0.08264000  0.03460000  0.01167000  1.0 -0.5365132512
O  O55  1  0.55758000  0.29642000  0.01397000  1.0 -0.5705846907
O  O56  1  0.58765000  0.31975000  0.93987000  1.0 -0.5194232723
O  O57  1  0.26065000  0.88267000  0.79793000  1.0 -0.5304003293
O  O58  1  0.34548000  0.92372000  0.79805000  1.0 -0.5194232723
O  O59  1  0.34973000  0.68201000  0.96433000  1.0 -0.5073990361
O  O60  1  0.41140000  0.60788000  0.96189000  1.0 -0.5073990361
O  O61  1  0.98517000  0.64413000  0.20155000  1.0 -0.5194232723
O  O62  1  0.02785000  0.72911000  0.20214000  1.0 -0.5304003293
O  O63  1  0.00191000  0.95445000  0.05697000  1.0 -0.4961516173
O  O64  1  0.96540000  0.91736000  0.98833000  1.0 -0.5304003293
O  O65  1  0.70358000  0.44242000  0.98603000  1.0 -0.5705846907
O  O66  1  0.68025000  0.41235000  0.06013000  1.0 -0.5194232723
O  O67  1  0.11733000  0.73935000  0.20207000  1.0 -0.5304003293
O  O68  1  0.07628000  0.65452000  0.20195000  1.0 -0.5194232723
O  O69  1  0.31799000  0.65027000  0.03567000  1.0 -0.5073990361
O  O70  1  0.39212000  0.58860000  0.03811000  1.0 -0.5073990361
O  O71  1  0.01483000  0.35587000  0.70155000  1.0 -0.5194232723
O  O72  1  0.97215000  0.27089000  0.70214000  1.0 -0.5304003293
O  O73  1  0.99809000  0.04555000  0.55697000  1.0 -0.4939278574
O  O74  1  0.03460000  0.08264000  0.48833000  1.0 -0.5365132512
O  O75  1  0.29642000  0.55758000  0.48603000  1.0 -0.5705846907
O  O76  1  0.31975000  0.58765000  0.56013000  1.0 -0.5194232723
O  O77  1  0.88267000  0.26065000  0.70207000  1.0 -0.5304003293
O  O78  1  0.92372000  0.34548000  0.70195000  1.0 -0.5194232723
O  O79  1  0.68201000  0.34973000  0.53567000  1.0 -0.5073990361
O  O80  1  0.60788000  0.41140000  0.53811000  1.0 -0.5073990361
