# DDEC6 charges by PACMAN v1.1 (https://github.com/mtap-research/PACMAN-charge/)
data_YIYJIC_ASR_pacman
_symmetry_space_group_name_H-M   'P 1'
_cell_length_a   20.61280000
_cell_length_b   20.61280000
_cell_length_c   20.61280000
_cell_angle_alpha   148.63100000
_cell_angle_beta   143.67700000
_cell_angle_gamma   48.73620000
_symmetry_Int_Tables_number   1
_chemical_formula_structural   TbZn2H4C17N6(O4F3)3
_chemical_formula_sum   'Tb4 Zn8 H16 C68 N24 O48 F36'
_cell_volume   2688.99729240
_cell_formula_units_Z   4
loop_
 _symmetry_equiv_pos_site_id
 _symmetry_equiv_pos_as_xyz
  1  'x, y, z'
loop_
 _atom_site_type_symbol
 _atom_site_label
 _atom_site_symmetry_multiplicity
 _atom_site_fract_x
 _atom_site_fract_y
 _atom_site_fract_z
 _atom_site_occupancy
 _atom_site_charge
Tb  Tb1  1  0.49483000  0.74483000  0.75000000  1.0 2.0595016101
Tb  Tb2  1  0.75102000  0.00102000  0.75000000  1.0 1.9600998381
Tb  Tb3  1  0.50517000  0.25517000  0.25000000  1.0 2.0595016101
Tb  Tb4  1  0.24898000  0.99898000  0.25000000  1.0 1.9600998381
Zn  Zn1  1  0.63409000  0.34026000  0.71389000  1.0 0.7501245582
Zn  Zn2  1  0.12637000  0.92020000  0.78611000  1.0 0.7501245582
Zn  Zn3  1  0.12637000  0.34026000  0.20617000  1.0 0.7501245582
Zn  Zn4  1  0.63409000  0.92020000  0.29383000  1.0 0.7501245582
Zn  Zn5  1  0.87363000  0.65974000  0.79383000  1.0 0.7501245582
Zn  Zn6  1  0.36591000  0.07980000  0.70617000  1.0 0.7501245582
Zn  Zn7  1  0.36591000  0.65974000  0.28611000  1.0 0.7501245582
Zn  Zn8  1  0.87363000  0.07980000  0.21389000  1.0 0.7501245582
H  H1  1  0.67600000  0.20120000  0.96240000  1.0 0.1590583319
H  H2  1  0.76130000  0.12800000  0.97710000  1.0 0.1345361987
H  H3  1  0.73880000  0.71360000  0.53760000  1.0 0.1590583319
H  H4  1  0.65090000  0.78420000  0.52290000  1.0 0.1345361987
H  H5  1  0.73880000  0.20120000  0.02520000  1.0 0.1590583319
H  H6  1  0.65090000  0.12800000  0.86670000  1.0 0.1345361987
H  H7  1  0.67600000  0.71360000  0.47480000  1.0 0.1590583319
H  H8  1  0.76130000  0.78420000  0.63330000  1.0 0.1345361987
H  H9  1  0.26120000  0.79880000  0.97480000  1.0 0.1590583319
H  H10  1  0.34910000  0.87200000  0.13330000  1.0 0.1345361987
H  H11  1  0.32400000  0.28640000  0.52520000  1.0 0.1590583319
H  H12  1  0.23870000  0.21580000  0.36670000  1.0 0.1345361987
H  H13  1  0.32400000  0.79880000  0.03760000  1.0 0.1590583319
H  H14  1  0.23870000  0.87200000  0.02290000  1.0 0.1352340052
H  H15  1  0.26120000  0.28640000  0.46240000  1.0 0.1590583319
H  H16  1  0.34910000  0.21580000  0.47710000  1.0 0.1345361987
C  C1  1  0.61260000  0.53460000  0.76740000  1.0 0.6120549658
C  C2  1  0.62160000  0.60190000  0.89410000  1.0 -0.0274959436
C  C3  1  0.68080000  0.21630000  0.76590000  1.0 0.6046176174
C  C4  1  0.79130000  0.25270000  0.85740000  1.0 -0.006299537
C  C5  1  0.42470000  0.19370000  0.37500000  1.0 0.0448716202
C  C6  1  0.26720000  0.84520000  0.73260000  1.0 0.6120549658
C  C7  1  0.20780000  0.72750000  0.60590000  1.0 -0.0274959436
C  C8  1  0.95040000  0.91490000  0.73410000  1.0 0.6046176174
C  C9  1  0.89530000  0.93390000  0.64260000  1.0 -0.006299537
C  C10  1  0.31870000  0.04970000  0.12500000  1.0 0.0454954983
C  C11  1  0.26720000  0.53460000  0.42200000  1.0 0.6120549658
C  C12  1  0.20780000  0.60190000  0.48030000  1.0 -0.0274959436
C  C13  1  0.95040000  0.21630000  0.03550000  1.0 0.6046176174
C  C14  1  0.89530000  0.25270000  0.96140000  1.0 -0.006299537
C  C15  1  0.31870000  0.19370000  0.26900000  1.0 0.0454954983
C  C16  1  0.61260000  0.84520000  0.07800000  1.0 0.6120549658
C  C17  1  0.62160000  0.72750000  0.01970000  1.0 -0.0274959436
C  C18  1  0.68080000  0.91490000  0.46450000  1.0 0.6046176174
C  C19  1  0.79130000  0.93390000  0.53860000  1.0 -0.0047838801
C  C20  1  0.42470000  0.04970000  0.23100000  1.0 0.0448716202
C  C21  1  0.64500000  0.61540000  0.02960000  1.0 0.0256090084
C  C22  1  0.66570000  0.58280000  0.08290000  1.0 0.5481156925
C  C23  1  0.08580000  0.61540000  0.47040000  1.0 0.0249294856
C  C24  1  0.99990000  0.58280000  0.41710000  1.0 0.5481156925
C  C25  1  0.89570000  0.33230000  0.93660000  1.0 0.1590583319
C  C26  1  0.93640000  0.39440000  0.95800000  1.0 0.4769788379
C  C27  1  0.89570000  0.95910000  0.56340000  1.0 0.1590583319
C  C28  1  0.93640000  0.97840000  0.54200000  1.0 0.4769788379
C  C29  1  0.36130000  0.37130000  0.51000000  1.0 -0.2089490747
C  C30  1  0.34890000  0.45990000  0.61100000  1.0 0.3221408421
C  C31  1  0.36130000  0.85130000  0.99000000  1.0 -0.2089490747
C  C32  1  0.34890000  0.73790000  0.88900000  1.0 0.3221408421
C  C33  1  0.50980000  0.12710000  0.38270000  1.0 0.2636606911
C  C34  1  0.24440000  0.12710000  0.11730000  1.0 0.2636606911
C  C35  1  0.73280000  0.46540000  0.57800000  1.0 0.6120549658
C  C36  1  0.79220000  0.39810000  0.51970000  1.0 -0.0274959436
C  C37  1  0.04960000  0.78370000  0.96450000  1.0 0.6046176174
C  C38  1  0.10470000  0.74730000  0.03860000  1.0 -0.0047838801
C  C39  1  0.68130000  0.80630000  0.73100000  1.0 0.0454954983
C  C40  1  0.38740000  0.15480000  0.92200000  1.0 0.6120549658
C  C41  1  0.37840000  0.27250000  0.98030000  1.0 -0.0274959436
C  C42  1  0.31920000  0.08510000  0.53550000  1.0 0.6046176174
C  C43  1  0.20870000  0.06610000  0.46140000  1.0 -0.006299537
C  C44  1  0.57530000  0.95030000  0.76900000  1.0 0.0454954983
C  C45  1  0.38740000  0.46540000  0.23260000  1.0 0.6120549658
C  C46  1  0.37840000  0.39810000  0.10590000  1.0 -0.0274959436
C  C47  1  0.31920000  0.78370000  0.23410000  1.0 0.6046176174
C  C48  1  0.20870000  0.74730000  0.14260000  1.0 -0.006299537
C  C49  1  0.57530000  0.80630000  0.62500000  1.0 0.0454954983
C  C50  1  0.73280000  0.15480000  0.26740000  1.0 0.6120549658
C  C51  1  0.79220000  0.27250000  0.39410000  1.0 -0.0274959436
C  C52  1  0.04960000  0.08510000  0.26590000  1.0 0.6046176174
C  C53  1  0.10470000  0.06610000  0.35740000  1.0 -0.006299537
C  C54  1  0.68130000  0.95030000  0.87500000  1.0 0.0448716202
C  C55  1  0.91420000  0.38460000  0.52960000  1.0 0.0249294856
C  C56  1  0.00010000  0.41720000  0.58290000  1.0 0.5481156925
C  C57  1  0.35500000  0.38460000  0.97040000  1.0 0.0249294856
C  C58  1  0.33430000  0.41720000  0.91710000  1.0 0.5481156925
C  C59  1  0.10430000  0.66770000  0.06340000  1.0 0.1590583319
C  C60  1  0.06360000  0.60560000  0.04200000  1.0 0.4769788379
C  C61  1  0.10430000  0.04090000  0.43660000  1.0 0.1590583319
C  C62  1  0.06360000  0.02160000  0.45800000  1.0 0.4769788379
C  C63  1  0.63870000  0.62870000  0.49000000  1.0 -0.2089490747
C  C64  1  0.65110000  0.54010000  0.38900000  1.0 0.3221408421
C  C65  1  0.63870000  0.14870000  0.01000000  1.0 -0.2089490747
C  C66  1  0.65110000  0.26210000  0.11100000  1.0 0.3221408421
C  C67  1  0.75560000  0.87290000  0.88270000  1.0 0.2636606911
C  C68  1  0.49020000  0.87290000  0.61730000  1.0 0.2636606911
N  N1  1  0.63570000  0.52930000  0.89940000  1.0 -0.4251625618
N  N2  1  0.79130000  0.30450000  0.84040000  1.0 -0.3218259556
N  N3  1  0.45140000  0.30670000  0.52670000  1.0 -0.0628185582
N  N4  1  0.12990000  0.73630000  0.60060000  1.0 -0.4251625618
N  N5  1  0.96410000  0.95090000  0.65960000  1.0 -0.3218259556
N  N6  1  0.28000000  0.92470000  0.97330000  1.0 -0.0628185582
N  N7  1  0.12990000  0.52930000  0.39360000  1.0 -0.4237911782
N  N8  1  0.96410000  0.30450000  0.01320000  1.0 -0.3218259556
N  N9  1  0.28000000  0.30670000  0.35530000  1.0 -0.0628185582
N  N10  1  0.63570000  0.73630000  0.10640000  1.0 -0.4237911782
N  N11  1  0.79130000  0.95090000  0.48680000  1.0 -0.3218259556
N  N12  1  0.45140000  0.92470000  0.14470000  1.0 -0.0628185582
N  N13  1  0.87010000  0.47070000  0.60640000  1.0 -0.4237911782
N  N14  1  0.03590000  0.69550000  0.98680000  1.0 -0.3218259556
N  N15  1  0.72000000  0.69330000  0.64470000  1.0 -0.0628185582
N  N16  1  0.36430000  0.26370000  0.89360000  1.0 -0.4251625618
N  N17  1  0.20870000  0.04910000  0.51320000  1.0 -0.3218259556
N  N18  1  0.54860000  0.07530000  0.85530000  1.0 -0.0628185582
N  N19  1  0.36430000  0.47070000  0.10060000  1.0 -0.4237911782
N  N20  1  0.20870000  0.69550000  0.15960000  1.0 -0.3218259556
N  N21  1  0.54860000  0.69330000  0.47330000  1.0 -0.0628185582
N  N22  1  0.87010000  0.26370000  0.39940000  1.0 -0.4237911782
N  N23  1  0.03590000  0.04910000  0.34040000  1.0 -0.3218259556
N  N24  1  0.72000000  0.07530000  0.02670000  1.0 -0.0628185582
O  O1  1  0.63620000  0.42290000  0.69210000  1.0 -0.5203979916
O  O2  1  0.57810000  0.58740000  0.73570000  1.0 -0.6739482066
O  O3  1  0.59970000  0.24890000  0.70020000  1.0 -0.5084318078
O  O4  1  0.67620000  0.15600000  0.76340000  1.0 -0.659964197
O  O5  1  0.48640000  0.99660000  0.23400000  1.0 -0.006299537
O  O6  1  0.23080000  0.94410000  0.80790000  1.0 -0.5203979916
O  O7  1  0.35170000  0.84240000  0.76430000  1.0 -0.6739482066
O  O8  1  0.04870000  0.89950000  0.79980000  1.0 -0.5084318078
O  O9  1  0.89260000  0.91280000  0.73660000  1.0 -0.659964197
O  O10  1  0.26260000  0.25240000  0.26600000  1.0 -0.006299537
O  O11  1  0.23080000  0.42290000  0.28670000  1.0 -0.5203979916
O  O12  1  0.35170000  0.58740000  0.50930000  1.0 -0.6739482066
O  O13  1  0.04870000  0.24890000  0.14920000  1.0 -0.5084318078
O  O14  1  0.89260000  0.15600000  0.97980000  1.0 -0.659964197
O  O15  1  0.26260000  0.99660000  0.01020000  1.0 -0.006299537
O  O16  1  0.63620000  0.94410000  0.21330000  1.0 -0.5203979916
O  O17  1  0.57810000  0.84240000  0.99070000  1.0 -0.6739482066
O  O18  1  0.59970000  0.89950000  0.35080000  1.0 -0.5084318078
O  O19  1  0.67620000  0.91280000  0.52020000  1.0 -0.659964197
O  O20  1  0.48640000  0.25240000  0.48980000  1.0 -0.006299537
O  O21  1  0.71780000  0.15420000  0.93640000  1.0 -0.5559658488
O  O22  1  0.71780000  0.78140000  0.56360000  1.0 -0.5559658488
O  O23  1  0.61000000  0.13540000  0.47460000  1.0 -0.4022970578
O  O24  1  0.16080000  0.13540000  0.02540000  1.0 -0.4022970578
O  O25  1  0.76920000  0.57710000  0.71330000  1.0 -0.5203979916
O  O26  1  0.64830000  0.41260000  0.49070000  1.0 -0.6739482066
O  O27  1  0.95130000  0.75110000  0.85080000  1.0 -0.5084318078
O  O28  1  0.10740000  0.84400000  0.02020000  1.0 -0.659964197
O  O29  1  0.73740000  0.00340000  0.98980000  1.0 -0.006299537
O  O30  1  0.36380000  0.05590000  0.78670000  1.0 -0.5203979916
O  O31  1  0.42190000  0.15760000  0.00930000  1.0 -0.6739482066
O  O32  1  0.40030000  0.10050000  0.64920000  1.0 -0.5084318078
O  O33  1  0.32380000  0.08720000  0.47980000  1.0 -0.659964197
O  O34  1  0.51360000  0.74760000  0.51020000  1.0 -0.006299537
O  O35  1  0.36380000  0.57710000  0.30790000  1.0 -0.5203979916
O  O36  1  0.42190000  0.41260000  0.26430000  1.0 -0.6739482066
O  O37  1  0.40030000  0.75110000  0.29980000  1.0 -0.5084318078
O  O38  1  0.32380000  0.84400000  0.23660000  1.0 -0.659964197
O  O39  1  0.51360000  0.00340000  0.76600000  1.0 -0.006299537
O  O40  1  0.76920000  0.05590000  0.19210000  1.0 -0.5203979916
O  O41  1  0.64830000  0.15760000  0.23570000  1.0 -0.6739482066
O  O42  1  0.95130000  0.10050000  0.20020000  1.0 -0.5084318078
O  O43  1  0.10740000  0.08720000  0.26340000  1.0 -0.659964197
O  O44  1  0.73740000  0.74760000  0.73400000  1.0 -0.006299537
O  O45  1  0.28220000  0.84580000  0.06360000  1.0 -0.5559658488
O  O46  1  0.28220000  0.21860000  0.43640000  1.0 -0.5559658488
O  O47  1  0.83920000  0.86460000  0.97460000  1.0 -0.4022970578
O  O48  1  0.39000000  0.86460000  0.52540000  1.0 -0.4022970578
F  F1  1  0.70490000  0.48130000  0.03820000  1.0 -0.1375444552
F  F2  1  0.87410000  0.38190000  0.85220000  1.0 -0.1067625281
F  F3  1  0.24910000  0.48530000  0.56980000  1.0 -0.1526765457
F  F4  1  0.94310000  0.66666667  0.46180000  1.0 -0.1348819813
F  F5  1  0.02970000  0.02190000  0.64780000  1.0 -0.1067625281
F  F6  1  0.41550000  0.67930000  0.93020000  1.0 -0.1526765457
F  F7  1  0.94310000  0.48130000  0.27640000  1.0 -0.1348819813
F  F8  1  0.02970000  0.38190000  0.00780000  1.0 -0.1067625281
F  F9  1  0.41550000  0.48530000  0.73620000  1.0 -0.1526765457
F  F10  1  0.70490000  0.66666667  0.22360000  1.0 -0.1375444552
F  F11  1  0.87410000  0.02190000  0.49220000  1.0 -0.1067625281
F  F12  1  0.24910000  0.67930000  0.76380000  1.0 -0.1526765457
F  F13  1  0.56740000  0.55840000  0.00900000  1.0 -0.1375444552
F  F14  1  0.04940000  0.55840000  0.49100000  1.0 -0.1375444552
F  F15  1  0.94330000  0.50730000  0.06400000  1.0 -0.0628185582
F  F16  1  0.94330000  0.87930000  0.43600000  1.0 -0.0628185582
F  F17  1  0.37300000  0.57000000  0.69700000  1.0 0.1666919807
F  F18  1  0.37300000  0.67600000  0.80300000  1.0 0.1666919807
F  F19  1  0.05690000  0.51870000  0.72360000  1.0 -0.1375444552
F  F20  1  0.97030000  0.61810000  0.99220000  1.0 -0.1067625281
F  F21  1  0.58450000  0.51470000  0.26380000  1.0 -0.1526765457
F  F22  1  0.29510000  0.33333333  0.77640000  1.0 -0.1375444552
F  F23  1  0.12590000  0.97810000  0.50780000  1.0 -0.1067625281
F  F24  1  0.75090000  0.32070000  0.23620000  1.0 -0.1526765457
F  F25  1  0.29510000  0.51870000  0.96180000  1.0 -0.1375444552
F  F26  1  0.12590000  0.61810000  0.14780000  1.0 -0.1067625281
F  F27  1  0.75090000  0.51470000  0.43020000  1.0 -0.1526765457
F  F28  1  0.05690000  0.33333333  0.53820000  1.0 -0.1375444552
F  F29  1  0.97030000  0.97810000  0.35220000  1.0 -0.1067625281
F  F30  1  0.58450000  0.32070000  0.06980000  1.0 -0.1526765457
F  F31  1  0.95060000  0.44160000  0.50900000  1.0 -0.1375444552
F  F32  1  0.43260000  0.44160000  0.99100000  1.0 -0.1375444552
F  F33  1  0.05670000  0.49270000  0.93600000  1.0 -0.0628185582
F  F34  1  0.05670000  0.12070000  0.56400000  1.0 -0.0628185582
F  F35  1  0.62700000  0.43000000  0.30300000  1.0 0.1666919807
F  F36  1  0.62700000  0.32400000  0.19700000  1.0 0.1666919807
