# DDEC6 charges by PACMAN v1.1 (https://github.com/mtap-research/PACMAN-charge/)
data_YIYRAB_FSR_pacman
_symmetry_space_group_name_H-M   'P 1'
_cell_length_a   22.32060000
_cell_length_b   22.32060000
_cell_length_c   21.71200000
_cell_angle_alpha   66.45790000
_cell_angle_beta   113.54200000
_cell_angle_gamma   90.32670000
_symmetry_Int_Tables_number   1
_chemical_formula_structural   Zn5B4H232C156(N15O16)2
_chemical_formula_sum   'Zn10 B8 H464 C312 N60 O64'
_cell_volume   8937.78702220
_cell_formula_units_Z   2
loop_
 _symmetry_equiv_pos_site_id
 _symmetry_equiv_pos_as_xyz
  1  'x, y, z'
loop_
 _atom_site_type_symbol
 _atom_site_label
 _atom_site_symmetry_multiplicity
 _atom_site_fract_x
 _atom_site_fract_y
 _atom_site_fract_z
 _atom_site_occupancy
 _atom_site_charge
Zn  Zn1  1  0.15361000  0.72559000  0.73805000  1.0 0.748592132
Zn  Zn2  1  0.72559000  0.15361000  0.76195000  1.0 0.748592132
Zn  Zn3  1  0.84639000  0.27441000  0.26195000  1.0 0.748592132
Zn  Zn4  1  0.27441000  0.84639000  0.23805000  1.0 0.748592132
Zn  Zn5  1  0.28548000  0.72196000  0.73802000  1.0 0.7216806349
Zn  Zn6  1  0.72196000  0.28548000  0.76198000  1.0 0.7216806349
Zn  Zn7  1  0.71452000  0.27804000  0.26198000  1.0 0.7216806349
Zn  Zn8  1  0.27804000  0.71452000  0.23802000  1.0 0.7216806349
Zn  Zn9  1  0.72429000  0.72429000  0.75000000  1.0 0.6700745262
Zn  Zn10  1  0.27571000  0.27571000  0.25000000  1.0 0.6700745262
B  B1  1  0.01546000  0.72766000  0.73940000  1.0 0.6700745262
B  B2  1  0.72766000  0.01546000  0.76060000  1.0 0.6700745262
B  B3  1  0.98454000  0.27234000  0.26060000  1.0 0.6700745262
B  B4  1  0.27234000  0.98454000  0.23940000  1.0 0.6700745262
B  B5  1  0.42370000  0.71970000  0.73720000  1.0 0.6632562217
B  B6  1  0.71970000  0.42370000  0.76280000  1.0 0.6632562217
B  B7  1  0.57630000  0.28030000  0.26280000  1.0 0.6632562217
B  B8  1  0.28030000  0.57630000  0.23720000  1.0 0.6632562217
H  H1  1  0.89730000  0.69550000  0.66050000  1.0 0.1289979539
H  H2  1  0.69550000  0.89730000  0.83950000  1.0 0.1289979539
H  H3  1  0.10270000  0.30450000  0.33950000  1.0 0.1289979539
H  H4  1  0.30450000  0.10270000  0.16050000  1.0 0.1289979539
H  H5  1  0.79540000  0.69520000  0.66560000  1.0 0.0806103183
H  H6  1  0.69520000  0.79540000  0.83440000  1.0 0.0806103183
H  H7  1  0.20460000  0.30480000  0.33440000  1.0 0.0806103183
H  H8  1  0.30480000  0.20460000  0.16560000  1.0 0.0806103183
H  H9  1  0.86080000  0.75540000  0.82430000  1.0 0.1195332848
H  H10  1  0.75540000  0.86080000  0.67570000  1.0 0.1195332848
H  H11  1  0.13920000  0.24460000  0.17570000  1.0 0.1195332848
H  H12  1  0.24460000  0.13920000  0.32430000  1.0 0.1195332848
H  H13  1  0.96380000  0.75840000  0.82320000  1.0 0.1289979539
H  H14  1  0.75840000  0.96380000  0.67680000  1.0 0.1289979539
H  H15  1  0.03620000  0.24160000  0.17680000  1.0 0.1289979539
H  H16  1  0.24160000  0.03620000  0.32320000  1.0 0.1289979539
H  H17  1  0.08360000  0.55880000  0.77390000  1.0 0.1091953745
H  H18  1  0.55880000  0.08360000  0.72610000  1.0 0.1091953745
H  H19  1  0.91640000  0.44120000  0.22610000  1.0 0.1091953745
H  H20  1  0.44120000  0.91640000  0.27390000  1.0 0.1091953745
H  H21  1  0.30910000  0.47270000  0.75470000  1.0 0.1195332848
H  H22  1  0.47270000  0.30910000  0.74530000  1.0 0.1195332848
H  H23  1  0.69090000  0.52730000  0.24530000  1.0 0.1195332848
H  H24  1  0.52730000  0.69090000  0.25470000  1.0 0.1195332848
H  H25  1  0.13320000  0.47580000  0.76230000  1.0 0.1195332848
H  H26  1  0.47580000  0.13320000  0.73770000  1.0 0.1091953745
H  H27  1  0.86680000  0.52420000  0.23770000  1.0 0.1091953745
H  H28  1  0.52420000  0.86680000  0.26230000  1.0 0.1195332848
H  H29  1  0.36910000  0.55810000  0.75260000  1.0 0.1195332848
H  H30  1  0.55810000  0.36910000  0.74740000  1.0 0.1195332848
H  H31  1  0.63090000  0.44190000  0.24740000  1.0 0.1195332848
H  H32  1  0.44190000  0.63090000  0.25260000  1.0 0.1195332848
H  H33  1  0.12570000  0.79470000  0.86870000  1.0 0.1195332848
H  H34  1  0.79470000  0.12570000  0.63130000  1.0 0.1195332848
H  H35  1  0.87430000  0.20530000  0.13130000  1.0 0.1195332848
H  H36  1  0.20530000  0.87430000  0.36870000  1.0 0.1195332848
H  H37  1  0.39510000  0.81570000  0.94730000  1.0 0.1195332848
H  H38  1  0.81570000  0.39510000  0.55270000  1.0 0.1195332848
H  H39  1  0.60490000  0.18430000  0.05270000  1.0 0.1195332848
H  H40  1  0.18430000  0.60490000  0.44730000  1.0 0.1195332848
H  H41  1  0.21240000  0.83060000  0.93840000  1.0 0.1289979539
H  H42  1  0.83060000  0.21240000  0.56160000  1.0 0.1289979539
H  H43  1  0.78760000  0.16940000  0.06160000  1.0 0.1289979539
H  H44  1  0.16940000  0.78760000  0.43840000  1.0 0.1289979539
H  H45  1  0.42530000  0.76990000  0.88340000  1.0 0.1195332848
H  H46  1  0.76990000  0.42530000  0.61660000  1.0 0.1195332848
H  H47  1  0.57470000  0.23010000  0.11660000  1.0 0.1195332848
H  H48  1  0.23010000  0.57470000  0.38340000  1.0 0.1195332848
H  H49  1  0.00240000  0.85540000  0.55800000  1.0 0.1195332848
H  H50  1  0.85540000  0.00240000  0.94200000  1.0 0.1195332848
H  H51  1  0.99760000  0.14460000  0.44200000  1.0 0.1195332848
H  H52  1  0.14460000  0.99760000  0.05800000  1.0 0.1195332848
H  H53  1  0.19750000  0.92830000  0.45980000  1.0 0.069697003
H  H54  1  0.92830000  0.19750000  0.04020000  1.0 0.069697003
H  H55  1  0.80250000  0.07170000  0.54020000  1.0 0.069697003
H  H56  1  0.07170000  0.80250000  0.95980000  1.0 0.069697003
H  H57  1  0.15310000  0.03790000  0.38130000  1.0 0.043931308
H  H58  1  0.03790000  0.15310000  0.11870000  1.0 0.043931308
H  H59  1  0.84690000  0.96210000  0.61870000  1.0 0.043931308
H  H60  1  0.96210000  0.84690000  0.88130000  1.0 0.043931308
H  H61  1  0.14380000  0.99620000  0.33400000  1.0 0.0898554589
H  H62  1  0.99620000  0.14380000  0.16600000  1.0 0.0898554589
H  H63  1  0.85620000  0.00380000  0.66600000  1.0 0.0898554589
H  H64  1  0.00380000  0.85620000  0.83400000  1.0 0.0898554589
H  H65  1  0.09880000  0.06800000  0.29620000  1.0 0.069697003
H  H66  1  0.06800000  0.09880000  0.20380000  1.0 0.069697003
H  H67  1  0.90120000  0.93200000  0.70380000  1.0 0.069697003
H  H68  1  0.93200000  0.90120000  0.79620000  1.0 0.069697003
H  H69  1  0.99720000  0.02620000  0.39250000  1.0 0.1091953745
H  H70  1  0.02620000  0.99720000  0.10750000  1.0 0.1091953745
H  H71  1  0.00280000  0.97380000  0.60750000  1.0 0.1091953745
H  H72  1  0.97380000  0.00280000  0.89250000  1.0 0.1091953745
H  H73  1  0.05590000  0.06830000  0.39910000  1.0 0.0487458044
H  H74  1  0.06830000  0.05590000  0.10090000  1.0 0.0487458044
H  H75  1  0.94410000  0.93170000  0.60090000  1.0 0.0487458044
H  H76  1  0.93170000  0.94410000  0.89910000  1.0 0.0487458044
H  H77  1  0.99950000  0.08090000  0.31870000  1.0 0.0898554589
H  H78  1  0.08090000  0.99950000  0.18130000  1.0 0.0898554589
H  H79  1  0.00050000  0.91910000  0.68130000  1.0 0.0898554589
H  H80  1  0.91910000  0.00050000  0.81870000  1.0 0.0898554589
H  H81  1  0.04680000  0.94000000  0.30600000  1.0 0.1003209128
H  H82  1  0.94000000  0.04680000  0.19400000  1.0 0.1003209128
H  H83  1  0.95320000  0.06000000  0.69400000  1.0 0.1003209128
H  H84  1  0.06000000  0.95320000  0.80600000  1.0 0.1003209128
H  H85  1  0.99010000  0.94770000  0.33110000  1.0 0.1195332848
H  H86  1  0.94770000  0.99010000  0.16890000  1.0 0.1195332848
H  H87  1  0.00990000  0.05230000  0.66890000  1.0 0.1195332848
H  H88  1  0.05230000  0.00990000  0.83110000  1.0 0.1195332848
H  H89  1  0.99580000  0.00880000  0.26410000  1.0 0.0806103183
H  H90  1  0.00880000  0.99580000  0.23590000  1.0 0.0806103183
H  H91  1  0.00420000  0.99120000  0.73590000  1.0 0.0806103183
H  H92  1  0.99120000  0.00420000  0.76410000  1.0 0.0806103183
H  H93  1  0.01830000  0.91750000  0.45860000  1.0 0.0898554589
H  H94  1  0.91750000  0.01830000  0.04140000  1.0 0.0806103183
H  H95  1  0.98170000  0.08250000  0.54140000  1.0 0.0806103183
H  H96  1  0.08250000  0.98170000  0.95860000  1.0 0.0898554589
H  H97  1  0.29970000  0.86190000  0.56560000  1.0 0.1091953745
H  H98  1  0.86190000  0.29970000  0.93440000  1.0 0.1091953745
H  H99  1  0.70030000  0.13810000  0.43440000  1.0 0.1091953745
H  H100  1  0.13810000  0.70030000  0.06560000  1.0 0.1091953745
H  H101  1  0.47880000  0.81260000  0.65420000  1.0 0.1289979539
H  H102  1  0.81260000  0.47880000  0.84580000  1.0 0.1289979539
H  H103  1  0.52120000  0.18740000  0.34580000  1.0 0.1289979539
H  H104  1  0.18740000  0.52120000  0.15420000  1.0 0.1289979539
H  H105  1  0.58620000  0.81300000  0.66560000  1.0 0.0898554589
H  H106  1  0.81300000  0.58620000  0.83440000  1.0 0.0898554589
H  H107  1  0.41380000  0.18700000  0.33440000  1.0 0.0898554589
H  H108  1  0.18700000  0.41380000  0.16560000  1.0 0.0898554589
H  H109  1  0.64750000  0.63330000  0.82970000  1.0 0.069697003
H  H110  1  0.63330000  0.64750000  0.67030000  1.0 0.069697003
H  H111  1  0.35250000  0.36670000  0.17030000  1.0 0.069697003
H  H112  1  0.36670000  0.35250000  0.32970000  1.0 0.069697003
H  H113  1  0.54220000  0.62900000  0.82520000  1.0 0.1289979539
H  H114  1  0.62900000  0.54220000  0.67480000  1.0 0.1289979539
H  H115  1  0.45780000  0.37100000  0.17480000  1.0 0.1289979539
H  H116  1  0.37100000  0.45780000  0.32520000  1.0 0.1289979539
H  H117  1  0.15740000  0.32580000  0.75550000  1.0 0.1383254959
H  H118  1  0.32580000  0.15740000  0.74450000  1.0 0.1383254959
H  H119  1  0.84260000  0.67420000  0.24450000  1.0 0.1383254959
H  H120  1  0.67420000  0.84260000  0.25550000  1.0 0.1383254959
H  H121  1  0.15620000  0.36420000  0.80370000  1.0 0.1091953745
H  H122  1  0.36420000  0.15620000  0.69630000  1.0 0.1091953745
H  H123  1  0.84380000  0.63580000  0.19630000  1.0 0.1091953745
H  H124  1  0.63580000  0.84380000  0.30370000  1.0 0.1091953745
H  H125  1  0.11680000  0.40020000  0.71470000  1.0 0.1383254959
H  H126  1  0.40020000  0.11680000  0.78530000  1.0 0.1383254959
H  H127  1  0.88320000  0.59980000  0.28530000  1.0 0.1383254959
H  H128  1  0.59980000  0.88320000  0.21470000  1.0 0.1383254959
H  H129  1  0.26730000  0.31630000  0.85620000  1.0 0.1195332848
H  H130  1  0.31630000  0.26730000  0.64380000  1.0 0.1195332848
H  H131  1  0.73270000  0.68370000  0.14380000  1.0 0.1195332848
H  H132  1  0.68370000  0.73270000  0.35620000  1.0 0.1195332848
H  H133  1  0.29610000  0.31810000  0.79890000  1.0 0.1289979539
H  H134  1  0.31810000  0.29610000  0.70110000  1.0 0.1289979539
H  H135  1  0.70390000  0.68190000  0.20110000  1.0 0.1289979539
H  H136  1  0.68190000  0.70390000  0.29890000  1.0 0.1289979539
H  H137  1  0.31370000  0.36850000  0.83660000  1.0 0.1195332848
H  H138  1  0.36850000  0.31370000  0.66340000  1.0 0.1195332848
H  H139  1  0.68630000  0.63150000  0.16340000  1.0 0.1195332848
H  H140  1  0.63150000  0.68630000  0.33660000  1.0 0.1195332848
H  H141  1  0.26510000  0.41130000  0.68440000  1.0 0.1195332848
H  H142  1  0.41130000  0.26510000  0.81560000  1.0 0.1195332848
H  H143  1  0.73490000  0.58870000  0.31560000  1.0 0.1195332848
H  H144  1  0.58870000  0.73490000  0.18440000  1.0 0.1195332848
H  H145  1  0.21140000  0.36420000  0.67320000  1.0 0.1383254959
H  H146  1  0.36420000  0.21140000  0.82680000  1.0 0.1383254959
H  H147  1  0.78860000  0.63580000  0.32680000  1.0 0.1383254959
H  H148  1  0.63580000  0.78860000  0.17320000  1.0 0.1383254959
H  H149  1  0.18750000  0.44270000  0.63880000  1.0 0.1383254959
H  H150  1  0.44270000  0.18750000  0.86120000  1.0 0.1383254959
H  H151  1  0.81250000  0.55730000  0.36120000  1.0 0.1383254959
H  H152  1  0.55730000  0.81250000  0.13880000  1.0 0.1383254959
H  H153  1  0.29230000  0.81970000  0.06550000  1.0 0.043931308
H  H154  1  0.81970000  0.29230000  0.43450000  1.0 0.043931308
H  H155  1  0.70770000  0.18030000  0.93450000  1.0 0.043931308
H  H156  1  0.18030000  0.70770000  0.56550000  1.0 0.043931308
H  H157  1  0.31930000  0.88170000  0.08000000  1.0 0.0898554589
H  H158  1  0.88170000  0.31930000  0.42000000  1.0 0.0898554589
H  H159  1  0.68070000  0.11830000  0.92000000  1.0 0.0898554589
H  H160  1  0.11830000  0.68070000  0.58000000  1.0 0.0898554589
H  H161  1  0.24990000  0.89330000  0.01060000  1.0 0.0603690897
H  H162  1  0.89330000  0.24990000  0.48940000  1.0 0.0603690897
H  H163  1  0.75010000  0.10670000  0.98940000  1.0 0.0603690897
H  H164  1  0.10670000  0.75010000  0.51060000  1.0 0.0603690897
H  H165  1  0.35500000  0.96840000  0.98490000  1.0 0.069697003
H  H166  1  0.96840000  0.35500000  0.51510000  1.0 0.069697003
H  H167  1  0.64500000  0.03160000  0.01510000  1.0 0.069697003
H  H168  1  0.03160000  0.64500000  0.48490000  1.0 0.069697003
H  H169  1  0.37540000  0.94320000  0.93540000  1.0 0.069697003
H  H170  1  0.94320000  0.37540000  0.56460000  1.0 0.069697003
H  H171  1  0.62460000  0.05680000  0.06460000  1.0 0.069697003
H  H172  1  0.05680000  0.62460000  0.43540000  1.0 0.069697003
H  H173  1  0.29940000  0.97240000  0.90810000  1.0 0.0806103183
H  H174  1  0.97240000  0.29940000  0.59190000  1.0 0.0806103183
H  H175  1  0.70060000  0.02760000  0.09190000  1.0 0.0806103183
H  H176  1  0.02760000  0.70060000  0.40810000  1.0 0.0806103183
H  H177  1  0.42560000  0.85840000  0.09560000  1.0 0.1003209128
H  H178  1  0.85840000  0.42560000  0.40440000  1.0 0.1003209128
H  H179  1  0.57440000  0.14160000  0.90440000  1.0 0.1003209128
H  H180  1  0.14160000  0.57440000  0.59560000  1.0 0.1003209128
H  H181  1  0.40650000  0.78890000  0.09650000  1.0 0.0806103183
H  H182  1  0.78890000  0.40650000  0.40350000  1.0 0.0806103183
H  H183  1  0.59350000  0.21110000  0.90350000  1.0 0.0806103183
H  H184  1  0.21110000  0.59350000  0.59650000  1.0 0.0806103183
H  H185  1  0.43920000  0.83160000  0.04330000  1.0 0.0898554589
H  H186  1  0.83160000  0.43920000  0.45670000  1.0 0.0898554589
H  H187  1  0.56080000  0.16840000  0.95670000  1.0 0.0898554589
H  H188  1  0.16840000  0.56080000  0.54330000  1.0 0.0898554589
H  H189  1  0.62710000  0.74530000  0.46220000  1.0 0.069697003
H  H190  1  0.74530000  0.62710000  0.03780000  1.0 0.069697003
H  H191  1  0.37290000  0.25470000  0.53780000  1.0 0.069697003
H  H192  1  0.25470000  0.37290000  0.96220000  1.0 0.069697003
H  H193  1  0.55280000  0.78680000  0.41770000  1.0 0.0603690897
H  H194  1  0.78680000  0.55280000  0.08230000  1.0 0.0603690897
H  H195  1  0.44720000  0.21320000  0.58230000  1.0 0.0603690897
H  H196  1  0.21320000  0.44720000  0.91770000  1.0 0.0603690897
H  H197  1  0.61260000  0.82280000  0.40760000  1.0 0.1195332848
H  H198  1  0.82280000  0.61260000  0.09240000  1.0 0.1195332848
H  H199  1  0.38740000  0.17720000  0.59240000  1.0 0.1195332848
H  H200  1  0.17720000  0.38740000  0.90760000  1.0 0.1195332848
H  H201  1  0.54860000  0.85920000  0.51850000  1.0 0.0285782199
H  H202  1  0.85920000  0.54860000  0.98150000  1.0 0.0285782199
H  H203  1  0.45140000  0.14080000  0.48150000  1.0 0.0285782199
H  H204  1  0.14080000  0.45140000  0.01850000  1.0 0.0285782199
H  H205  1  0.56700000  0.90180000  0.45140000  1.0 0.069697003
H  H206  1  0.90180000  0.56700000  0.04860000  1.0 0.069697003
H  H207  1  0.43300000  0.09820000  0.54860000  1.0 0.069697003
H  H208  1  0.09820000  0.43300000  0.95140000  1.0 0.069697003
H  H209  1  0.51470000  0.85310000  0.44140000  1.0 0.0603690897
H  H210  1  0.85310000  0.51470000  0.05860000  1.0 0.0603690897
H  H211  1  0.48530000  0.14690000  0.55860000  1.0 0.0603690897
H  H212  1  0.14690000  0.48530000  0.94140000  1.0 0.0603690897
H  H213  1  0.66940000  0.72860000  0.58510000  1.0 0.1195332848
H  H214  1  0.72860000  0.66940000  0.91490000  1.0 0.1195332848
H  H215  1  0.33060000  0.27140000  0.41490000  1.0 0.1195332848
H  H216  1  0.27140000  0.33060000  0.08510000  1.0 0.1195332848
H  H217  1  0.14040000  0.13840000  0.46700000  1.0 0.069697003
H  H218  1  0.13840000  0.14040000  0.03300000  1.0 0.069697003
H  H219  1  0.85960000  0.86160000  0.53300000  1.0 0.069697003
H  H220  1  0.86160000  0.85960000  0.96700000  1.0 0.069697003
H  H221  1  0.17930000  0.19190000  0.43140000  1.0 0.1003209128
H  H222  1  0.19190000  0.17930000  0.06860000  1.0 0.1003209128
H  H223  1  0.82070000  0.80810000  0.56860000  1.0 0.1003209128
H  H224  1  0.80810000  0.82070000  0.93140000  1.0 0.1003209128
H  H225  1  0.17600000  0.12420000  0.42190000  1.0 0.1003209128
H  H226  1  0.12420000  0.17600000  0.07810000  1.0 0.1003209128
H  H227  1  0.82400000  0.87580000  0.57810000  1.0 0.1003209128
H  H228  1  0.87580000  0.82400000  0.92190000  1.0 0.1003209128
H  H229  1  0.27740000  0.08080000  0.63490000  1.0 0.0487458044
H  H230  1  0.08080000  0.27740000  0.86510000  1.0 0.0487458044
H  H231  1  0.72260000  0.91920000  0.36510000  1.0 0.0487458044
H  H232  1  0.91920000  0.72260000  0.13490000  1.0 0.0487458044
H  H233  1  0.28310000  0.15610000  0.59140000  1.0 0.0806103183
H  H234  1  0.15610000  0.28310000  0.90860000  1.0 0.0806103183
H  H235  1  0.71690000  0.84390000  0.40860000  1.0 0.0806103183
H  H236  1  0.84390000  0.71690000  0.09140000  1.0 0.0806103183
H  H237  1  0.21300000  0.13820000  0.58950000  1.0 0.1195332848
H  H238  1  0.13820000  0.21300000  0.91050000  1.0 0.1195332848
H  H239  1  0.78700000  0.86180000  0.41050000  1.0 0.1195332848
H  H240  1  0.86180000  0.78700000  0.08950000  1.0 0.1195332848
H  H241  1  0.32640000  0.04740000  0.57310000  1.0 0.0898554589
H  H242  1  0.04740000  0.32640000  0.92690000  1.0 0.0898554589
H  H243  1  0.67360000  0.95260000  0.42690000  1.0 0.0898554589
H  H244  1  0.95260000  0.67360000  0.07310000  1.0 0.0898554589
H  H245  1  0.21080000  0.92760000  0.77370000  1.0 0.1003209128
H  H246  1  0.92760000  0.21080000  0.72630000  1.0 0.1003209128
H  H247  1  0.78920000  0.07240000  0.22630000  1.0 0.1003209128
H  H248  1  0.07240000  0.78920000  0.27370000  1.0 0.1003209128
H  H249  1  0.16460000  0.99980000  0.72460000  1.0 0.1003209128
H  H250  1  0.99980000  0.16460000  0.77540000  1.0 0.1003209128
H  H251  1  0.83540000  0.00020000  0.27540000  1.0 0.1003209128
H  H252  1  0.00020000  0.83540000  0.22460000  1.0 0.1003209128
H  H253  1  0.13310000  0.93530000  0.72400000  1.0 0.0898554589
H  H254  1  0.93530000  0.13310000  0.77600000  1.0 0.0898554589
H  H255  1  0.86690000  0.06470000  0.27600000  1.0 0.0898554589
H  H256  1  0.06470000  0.86690000  0.22400000  1.0 0.0898554589
H  H257  1  0.28240000  0.92620000  0.73230000  1.0 0.0806103183
H  H258  1  0.92620000  0.28240000  0.76770000  1.0 0.0806103183
H  H259  1  0.71760000  0.07380000  0.26770000  1.0 0.0806103183
H  H260  1  0.07380000  0.71760000  0.23230000  1.0 0.0806103183
H  H261  1  0.24690000  0.88210000  0.69030000  1.0 0.1003209128
H  H262  1  0.88210000  0.24690000  0.80970000  1.0 0.1003209128
H  H263  1  0.75310000  0.11790000  0.30970000  1.0 0.1003209128
H  H264  1  0.11790000  0.75310000  0.19030000  1.0 0.1003209128
H  H265  1  0.26460000  0.95100000  0.64590000  1.0 0.0898554589
H  H266  1  0.95100000  0.26460000  0.85410000  1.0 0.0898554589
H  H267  1  0.73540000  0.04900000  0.35410000  1.0 0.0898554589
H  H268  1  0.04900000  0.73540000  0.14590000  1.0 0.0898554589
H  H269  1  0.15800000  0.00060000  0.55450000  1.0 0.0603690897
H  H270  1  0.00060000  0.15800000  0.94550000  1.0 0.0603690897
H  H271  1  0.84200000  0.99940000  0.44550000  1.0 0.0603690897
H  H272  1  0.99940000  0.84200000  0.05450000  1.0 0.0603690897
H  H273  1  0.34850000  0.74970000  0.09730000  1.0 0.0898554589
H  H274  1  0.74970000  0.34850000  0.40270000  1.0 0.0898554589
H  H275  1  0.65150000  0.25030000  0.90270000  1.0 0.0898554589
H  H276  1  0.25030000  0.65150000  0.59730000  1.0 0.0898554589
H  H277  1  0.34040000  0.80260000  0.12730000  1.0 0.069697003
H  H278  1  0.80260000  0.34040000  0.37270000  1.0 0.069697003
H  H279  1  0.65960000  0.19740000  0.87270000  1.0 0.069697003
H  H280  1  0.19740000  0.65960000  0.62730000  1.0 0.069697003
H  H281  1  0.27620000  0.78840000  0.07080000  1.0 0.1003209128
H  H282  1  0.78840000  0.27620000  0.42920000  1.0 0.0898554589
H  H283  1  0.72380000  0.21160000  0.92920000  1.0 0.0898554589
H  H284  1  0.21160000  0.72380000  0.57080000  1.0 0.1003209128
H  H285  1  0.28390000  0.91810000  0.03310000  1.0 0.0487458044
H  H286  1  0.91810000  0.28390000  0.46690000  1.0 0.0603690897
H  H287  1  0.71610000  0.08190000  0.96690000  1.0 0.0603690897
H  H288  1  0.08190000  0.71610000  0.53310000  1.0 0.0603690897
H  H289  1  0.30260000  0.95140000  0.96440000  1.0 0.0129743538
H  H290  1  0.95140000  0.30260000  0.53560000  1.0 0.0129743538
H  H291  1  0.69740000  0.04860000  0.03560000  1.0 0.0129743538
H  H292  1  0.04860000  0.69740000  0.46440000  1.0 0.0129743538
H  H293  1  0.23980000  0.91500000  0.95590000  1.0 0.0806103183
H  H294  1  0.91500000  0.23980000  0.54410000  1.0 0.0806103183
H  H295  1  0.76020000  0.08500000  0.04410000  1.0 0.0806103183
H  H296  1  0.08500000  0.76020000  0.45590000  1.0 0.0806103183
H  H297  1  0.41310000  0.87310000  0.08180000  1.0 0.1091953745
H  H298  1  0.87310000  0.41310000  0.41820000  1.0 0.1091953745
H  H299  1  0.58690000  0.12690000  0.91820000  1.0 0.1091953745
H  H300  1  0.12690000  0.58690000  0.58180000  1.0 0.1091953745
H  H301  1  0.43070000  0.82070000  0.05560000  1.0 0.069697003
H  H302  1  0.82070000  0.43070000  0.44440000  1.0 0.069697003
H  H303  1  0.56930000  0.17930000  0.94440000  1.0 0.069697003
H  H304  1  0.17930000  0.56930000  0.55560000  1.0 0.069697003
H  H305  1  0.40360000  0.89740000  0.99790000  1.0 0.0487458044
H  H306  1  0.89740000  0.40360000  0.50210000  1.0 0.0487458044
H  H307  1  0.59640000  0.10260000  0.00210000  1.0 0.0487458044
H  H308  1  0.10260000  0.59640000  0.49790000  1.0 0.0487458044
H  H309  1  0.22240000  0.95360000  0.50260000  1.0 0.0898554589
H  H310  1  0.95360000  0.22240000  0.99740000  1.0 0.0898554589
H  H311  1  0.77760000  0.04640000  0.49740000  1.0 0.0898554589
H  H312  1  0.04640000  0.77760000  0.00260000  1.0 0.0898554589
H  H313  1  0.18550000  0.05710000  0.39710000  1.0 0.0898554589
H  H314  1  0.05710000  0.18550000  0.10290000  1.0 0.0898554589
H  H315  1  0.81450000  0.94290000  0.60290000  1.0 0.0898554589
H  H316  1  0.94290000  0.81450000  0.89710000  1.0 0.0898554589
H  H317  1  0.13850000  0.01690000  0.35650000  1.0 0.0487458044
H  H318  1  0.01690000  0.13850000  0.14350000  1.0 0.0487458044
H  H319  1  0.86150000  0.98310000  0.64350000  1.0 0.0487458044
H  H320  1  0.98310000  0.86150000  0.85650000  1.0 0.0487458044
H  H321  1  0.11590000  0.09510000  0.32620000  1.0 0.0806103183
H  H322  1  0.09510000  0.11590000  0.17380000  1.0 0.0806103183
H  H323  1  0.88410000  0.90490000  0.67380000  1.0 0.0806103183
H  H324  1  0.90490000  0.88410000  0.82620000  1.0 0.0806103183
H  H325  1  0.01900000  0.05080000  0.33110000  1.0 0.069697003
H  H326  1  0.05080000  0.01900000  0.16890000  1.0 0.069697003
H  H327  1  0.98100000  0.94920000  0.66890000  1.0 0.069697003
H  H328  1  0.94920000  0.98100000  0.83110000  1.0 0.069697003
H  H329  1  0.00770000  0.03530000  0.40390000  1.0 0.1091953745
H  H330  1  0.03530000  0.00770000  0.09610000  1.0 0.1091953745
H  H331  1  0.99230000  0.96470000  0.59610000  1.0 0.1091953745
H  H332  1  0.96470000  0.99230000  0.90390000  1.0 0.1091953745
H  H333  1  0.01780000  0.10800000  0.35760000  1.0 0.0898554589
H  H334  1  0.10800000  0.01780000  0.14240000  1.0 0.0898554589
H  H335  1  0.98220000  0.89200000  0.64240000  1.0 0.0898554589
H  H336  1  0.89200000  0.98220000  0.85760000  1.0 0.0898554589
H  H337  1  0.09020000  0.09940000  0.46780000  1.0 0.1091953745
H  H338  1  0.09940000  0.09020000  0.03220000  1.0 0.1091953745
H  H339  1  0.90980000  0.90060000  0.53220000  1.0 0.1091953745
H  H340  1  0.90060000  0.90980000  0.96780000  1.0 0.1091953745
H  H341  1  0.16440000  0.05820000  0.51060000  1.0 0.069697003
H  H342  1  0.05820000  0.16440000  0.98940000  1.0 0.069697003
H  H343  1  0.83560000  0.94180000  0.48940000  1.0 0.069697003
H  H344  1  0.94180000  0.83560000  0.01060000  1.0 0.069697003
H  H345  1  0.14150000  0.12150000  0.43190000  1.0 0.0806103183
H  H346  1  0.12150000  0.14150000  0.06810000  1.0 0.0806103183
H  H347  1  0.85850000  0.87850000  0.56810000  1.0 0.0806103183
H  H348  1  0.87850000  0.85850000  0.93190000  1.0 0.0806103183
H  H349  1  0.03820000  0.95440000  0.48960000  1.0 0.0603690897
H  H350  1  0.95440000  0.03820000  0.01040000  1.0 0.0603690897
H  H351  1  0.96180000  0.04560000  0.51040000  1.0 0.0603690897
H  H352  1  0.04560000  0.96180000  0.98960000  1.0 0.0603690897
H  H353  1  0.55130000  0.80630000  0.44680000  1.0 0.069697003
H  H354  1  0.80630000  0.55130000  0.05320000  1.0 0.069697003
H  H355  1  0.44870000  0.19370000  0.55320000  1.0 0.069697003
H  H356  1  0.19370000  0.44870000  0.94680000  1.0 0.069697003
H  H357  1  0.56680000  0.87860000  0.40910000  1.0 0.069697003
H  H358  1  0.87860000  0.56680000  0.09090000  1.0 0.069697003
H  H359  1  0.43320000  0.12140000  0.59090000  1.0 0.069697003
H  H360  1  0.12140000  0.43320000  0.90910000  1.0 0.069697003
H  H361  1  0.59830000  0.81670000  0.40520000  1.0 0.1003209128
H  H362  1  0.81670000  0.59830000  0.09480000  1.0 0.1003209128
H  H363  1  0.40170000  0.18330000  0.59480000  1.0 0.1003209128
H  H364  1  0.18330000  0.40170000  0.90520000  1.0 0.1003209128
H  H365  1  0.72900000  0.84940000  0.54250000  1.0 0.1091953745
H  H366  1  0.84940000  0.72900000  0.95750000  1.0 0.1091953745
H  H367  1  0.27100000  0.15060000  0.45750000  1.0 0.1091953745
H  H368  1  0.15060000  0.27100000  0.04250000  1.0 0.1091953745
H  H369  1  0.72570000  0.81410000  0.49030000  1.0 0.0898554589
H  H370  1  0.81410000  0.72570000  0.00970000  1.0 0.0898554589
H  H371  1  0.27430000  0.18590000  0.50970000  1.0 0.0898554589
H  H372  1  0.18590000  0.27430000  0.99030000  1.0 0.0898554589
H  H373  1  0.68530000  0.88790000  0.45430000  1.0 0.0487458044
H  H374  1  0.88790000  0.68530000  0.04570000  1.0 0.0487458044
H  H375  1  0.31470000  0.11210000  0.54570000  1.0 0.0487458044
H  H376  1  0.11210000  0.31470000  0.95430000  1.0 0.0487458044
H  H377  1  0.59490000  0.79730000  0.56840000  1.0 0.0898554589
H  H378  1  0.79730000  0.59490000  0.93160000  1.0 0.0898554589
H  H379  1  0.40510000  0.20270000  0.43160000  1.0 0.0898554589
H  H380  1  0.20270000  0.40510000  0.06840000  1.0 0.0898554589
H  H381  1  0.47890000  0.94990000  0.40520000  1.0 0.069697003
H  H382  1  0.94990000  0.47890000  0.09480000  1.0 0.069697003
H  H383  1  0.52110000  0.05010000  0.59480000  1.0 0.069697003
H  H384  1  0.05010000  0.52110000  0.90520000  1.0 0.069697003
H  H385  1  0.51200000  0.90760000  0.49380000  1.0 0.0603690897
H  H386  1  0.90760000  0.51200000  0.00620000  1.0 0.0603690897
H  H387  1  0.48800000  0.09240000  0.50620000  1.0 0.0603690897
H  H388  1  0.09240000  0.48800000  0.99380000  1.0 0.0603690897
H  H389  1  0.45360000  0.88340000  0.44210000  1.0 0.0603690897
H  H390  1  0.88340000  0.45360000  0.05790000  1.0 0.0603690897
H  H391  1  0.54640000  0.11660000  0.55790000  1.0 0.0603690897
H  H392  1  0.11660000  0.54640000  0.94210000  1.0 0.0603690897
H  H393  1  0.36000000  0.93900000  0.50200000  1.0 0.1091953745
H  H394  1  0.93900000  0.36000000  0.99800000  1.0 0.1091953745
H  H395  1  0.64000000  0.06100000  0.49800000  1.0 0.1091953745
H  H396  1  0.06100000  0.64000000  0.00200000  1.0 0.1091953745
H  H397  1  0.33080000  0.93720000  0.42260000  1.0 0.0806103183
H  H398  1  0.93720000  0.33080000  0.07740000  1.0 0.0806103183
H  H399  1  0.66920000  0.06280000  0.57740000  1.0 0.0806103183
H  H400  1  0.06280000  0.66920000  0.92260000  1.0 0.0806103183
H  H401  1  0.38710000  0.87770000  0.49380000  1.0 0.0806103183
H  H402  1  0.87770000  0.38710000  0.00620000  1.0 0.0806103183
H  H403  1  0.61290000  0.12230000  0.50620000  1.0 0.0806103183
H  H404  1  0.12230000  0.61290000  0.99380000  1.0 0.0806103183
H  H405  1  0.38210000  0.04190000  0.44860000  1.0 0.0898554589
H  H406  1  0.04190000  0.38210000  0.05140000  1.0 0.0898554589
H  H407  1  0.61790000  0.95810000  0.55140000  1.0 0.0898554589
H  H408  1  0.95810000  0.61790000  0.94860000  1.0 0.0898554589
H  H409  1  0.30050000  0.02250000  0.67700000  1.0 0.0806103183
H  H410  1  0.02250000  0.30050000  0.82300000  1.0 0.0806103183
H  H411  1  0.69950000  0.97750000  0.32300000  1.0 0.0806103183
H  H412  1  0.97750000  0.69950000  0.17700000  1.0 0.0806103183
H  H413  1  0.23060000  0.06880000  0.61370000  1.0 0.0898554589
H  H414  1  0.06880000  0.23060000  0.88630000  1.0 0.0898554589
H  H415  1  0.76940000  0.93120000  0.38630000  1.0 0.0898554589
H  H416  1  0.93120000  0.76940000  0.11370000  1.0 0.0898554589
H  H417  1  0.25950000  0.06630000  0.69520000  1.0 0.1091953745
H  H418  1  0.06630000  0.25950000  0.80480000  1.0 0.1091953745
H  H419  1  0.74050000  0.93370000  0.30480000  1.0 0.1091953745
H  H420  1  0.93370000  0.74050000  0.19520000  1.0 0.1091953745
H  H421  1  0.30720000  0.92020000  0.74830000  1.0 0.1003209128
H  H422  1  0.92020000  0.30720000  0.75170000  1.0 0.1003209128
H  H423  1  0.69280000  0.07980000  0.25170000  1.0 0.1003209128
H  H424  1  0.07980000  0.69280000  0.24830000  1.0 0.1003209128
H  H425  1  0.26210000  0.91010000  0.79210000  1.0 0.0603690897
H  H426  1  0.91010000  0.26210000  0.70790000  1.0 0.0603690897
H  H427  1  0.73790000  0.08990000  0.20790000  1.0 0.0603690897
H  H428  1  0.08990000  0.73790000  0.29210000  1.0 0.0603690897
H  H429  1  0.24280000  0.88700000  0.72670000  1.0 0.0806103183
H  H430  1  0.88700000  0.24280000  0.77330000  1.0 0.0806103183
H  H431  1  0.75720000  0.11300000  0.27330000  1.0 0.0806103183
H  H432  1  0.11300000  0.75720000  0.22670000  1.0 0.0806103183
H  H433  1  0.13360000  0.95300000  0.67840000  1.0 0.1003209128
H  H434  1  0.95300000  0.13360000  0.82160000  1.0 0.1003209128
H  H435  1  0.86640000  0.04700000  0.32160000  1.0 0.1003209128
H  H436  1  0.04700000  0.86640000  0.17840000  1.0 0.1003209128
H  H437  1  0.34600000  0.90300000  0.45800000  1.0 0.0806103183
H  H438  1  0.90300000  0.34600000  0.04200000  1.0 0.0806103183
H  H439  1  0.65400000  0.09700000  0.54200000  1.0 0.0806103183
H  H440  1  0.09700000  0.65400000  0.95800000  1.0 0.0806103183
H  H441  1  0.42370000  0.88630000  0.51240000  1.0 0.069697003
H  H442  1  0.88630000  0.42370000  0.98760000  1.0 0.069697003
H  H443  1  0.57630000  0.11370000  0.48760000  1.0 0.069697003
H  H444  1  0.11370000  0.57630000  0.01240000  1.0 0.069697003
H  H445  1  0.39970000  0.90510000  0.42590000  1.0 0.069697003
H  H446  1  0.90510000  0.39970000  0.07410000  1.0 0.069697003
H  H447  1  0.60030000  0.09490000  0.57410000  1.0 0.069697003
H  H448  1  0.09490000  0.60030000  0.92590000  1.0 0.069697003
H  H449  1  0.46920000  0.00880000  0.42740000  1.0 0.1003209128
H  H450  1  0.00880000  0.46920000  0.07260000  1.0 0.1003209128
H  H451  1  0.53080000  0.99120000  0.57260000  1.0 0.1003209128
H  H452  1  0.99120000  0.53080000  0.92740000  1.0 0.1003209128
H  H453  1  0.40350000  0.06430000  0.37080000  1.0 0.1091953745
H  H454  1  0.06430000  0.40350000  0.12920000  1.0 0.1091953745
H  H455  1  0.59650000  0.93570000  0.62920000  1.0 0.1091953745
H  H456  1  0.93570000  0.59650000  0.87080000  1.0 0.1091953745
H  H457  1  0.41230000  0.99790000  0.36110000  1.0 0.0806103183
H  H458  1  0.99790000  0.41230000  0.13890000  1.0 0.0806103183
H  H459  1  0.58770000  0.00210000  0.63890000  1.0 0.0806103183
H  H460  1  0.00210000  0.58770000  0.86110000  1.0 0.0806103183
H  H461  1  0.36330000  0.06130000  0.46090000  1.0 0.0806103183
H  H462  1  0.06130000  0.36330000  0.03910000  1.0 0.0806103183
H  H463  1  0.63670000  0.93870000  0.53910000  1.0 0.0806103183
H  H464  1  0.93870000  0.63670000  0.96090000  1.0 0.0806103183
C  C1  1  0.94424000  0.72670000  0.74180000  1.0 -0.0901752301
C  C2  1  0.72670000  0.94424000  0.75820000  1.0 -0.0901752301
C  C3  1  0.05576000  0.27330000  0.25820000  1.0 -0.0790470964
C  C4  1  0.27330000  0.05576000  0.24180000  1.0 -0.0901752301
C  C5  1  0.89142000  0.70802000  0.69500000  1.0 -0.0790470964
C  C6  1  0.70802000  0.89142000  0.80500000  1.0 -0.0790470964
C  C7  1  0.10858000  0.29198000  0.30500000  1.0 -0.0790470964
C  C8  1  0.29198000  0.10858000  0.19500000  1.0 -0.0790470964
C  C9  1  0.83020000  0.70760000  0.69840000  1.0 0.043931308
C  C10  1  0.70760000  0.83020000  0.80160000  1.0 0.043931308
C  C11  1  0.16980000  0.29240000  0.30160000  1.0 0.043931308
C  C12  1  0.29240000  0.16980000  0.19840000  1.0 0.043931308
C  C13  1  0.86838000  0.74278000  0.79070000  1.0 -0.0710410018
C  C14  1  0.74278000  0.86838000  0.70930000  1.0 -0.0710410018
C  C15  1  0.13162000  0.25722000  0.20930000  1.0 -0.0710410018
C  C16  1  0.25722000  0.13162000  0.29070000  1.0 -0.0710410018
C  C17  1  0.93052000  0.74472000  0.79040000  1.0 -0.2625029533
C  C18  1  0.74472000  0.93052000  0.70960000  1.0 -0.2625029533
C  C19  1  0.06948000  0.25528000  0.20960000  1.0 -0.2625029533
C  C20  1  0.25528000  0.06948000  0.29040000  1.0 -0.2625029533
C  C21  1  0.11462000  0.58682000  0.76610000  1.0 -0.0595695794
C  C22  1  0.58682000  0.11462000  0.73390000  1.0 -0.0595695794
C  C23  1  0.88538000  0.41318000  0.23390000  1.0 -0.0595695794
C  C24  1  0.41318000  0.88538000  0.26610000  1.0 -0.0595695794
C  C25  1  0.17157000  0.55837000  0.76260000  1.0 -0.1005869015
C  C26  1  0.55837000  0.17157000  0.73740000  1.0 -0.1005869015
C  C27  1  0.82843000  0.44163000  0.23740000  1.0 -0.1005869015
C  C28  1  0.44163000  0.82843000  0.26260000  1.0 -0.1005869015
C  C29  1  0.22629000  0.59109000  0.76020000  1.0 0.2524885174
C  C30  1  0.59109000  0.22629000  0.73980000  1.0 0.2524885174
C  C31  1  0.77371000  0.40891000  0.23980000  1.0 0.2524885174
C  C32  1  0.40891000  0.77371000  0.26020000  1.0 0.2524885174
C  C33  1  0.27860000  0.55640000  0.75770000  1.0 -0.0302449037
C  C34  1  0.55640000  0.27860000  0.74230000  1.0 -0.0302449037
C  C35  1  0.72140000  0.44360000  0.24230000  1.0 -0.0302449037
C  C36  1  0.44360000  0.72140000  0.25770000  1.0 -0.0302449037
C  C37  1  0.27366000  0.49446000  0.75640000  1.0 -0.2207304972
C  C38  1  0.49446000  0.27366000  0.74360000  1.0 -0.2207304972
C  C39  1  0.72634000  0.50554000  0.24360000  1.0 -0.2207304972
C  C40  1  0.50554000  0.72634000  0.25640000  1.0 -0.2207304972
C  C41  1  0.22021000  0.46281000  0.75730000  1.0 0.043931308
C  C42  1  0.46281000  0.22021000  0.74270000  1.0 0.043931308
C  C43  1  0.77979000  0.53719000  0.24270000  1.0 0.0487458044
C  C44  1  0.53719000  0.77979000  0.25730000  1.0 0.043931308
C  C45  1  0.17044000  0.49624000  0.76090000  1.0 -0.2671779358
C  C46  1  0.49624000  0.17044000  0.73910000  1.0 -0.2671779358
C  C47  1  0.82956000  0.50376000  0.23910000  1.0 -0.2671779358
C  C48  1  0.50376000  0.82956000  0.26090000  1.0 -0.2671779358
C  C49  1  0.33624000  0.58504000  0.75240000  1.0 4.9875e-06
C  C50  1  0.58504000  0.33624000  0.74760000  1.0 -0.0013075791
C  C51  1  0.66376000  0.41496000  0.24760000  1.0 -0.0013075791
C  C52  1  0.41496000  0.66376000  0.25240000  1.0 -0.0013075791
C  C53  1  0.15094000  0.78114000  0.84860000  1.0 -0.0710410018
C  C54  1  0.78114000  0.15094000  0.65140000  1.0 -0.0710410018
C  C55  1  0.84906000  0.21886000  0.15140000  1.0 -0.0595695794
C  C56  1  0.21886000  0.84906000  0.34860000  1.0 -0.0710410018
C  C57  1  0.21976000  0.78996000  0.87260000  1.0 -0.1329244826
C  C58  1  0.78996000  0.21976000  0.62740000  1.0 -0.1329244826
C  C59  1  0.78024000  0.21004000  0.12740000  1.0 -0.1329244826
C  C60  1  0.21004000  0.78024000  0.37260000  1.0 -0.1329244826
C  C61  1  0.26393000  0.77133000  0.84770000  1.0 0.2574549106
C  C62  1  0.77133000  0.26393000  0.65230000  1.0 0.2574549106
C  C63  1  0.73607000  0.22867000  0.15230000  1.0 0.2574549106
C  C64  1  0.22867000  0.73607000  0.34770000  1.0 0.2574549106
C  C65  1  0.33017000  0.78157000  0.87730000  1.0 -0.0595695794
C  C66  1  0.78157000  0.33017000  0.62270000  1.0 -0.0595695794
C  C67  1  0.66983000  0.21843000  0.12270000  1.0 -0.0595695794
C  C68  1  0.21843000  0.66983000  0.37730000  1.0 -0.0595695794
C  C69  1  0.35040000  0.80960000  0.92820000  1.0 -0.249158749
C  C70  1  0.80960000  0.35040000  0.57180000  1.0 -0.249158749
C  C71  1  0.64960000  0.19040000  0.07180000  1.0 -0.2421028313
C  C72  1  0.19040000  0.64960000  0.42820000  1.0 -0.2421028313
C  C73  1  0.30760000  0.82900000  0.95200000  1.0 0.0806103183
C  C74  1  0.82900000  0.30760000  0.54800000  1.0 0.0806103183
C  C75  1  0.69240000  0.17100000  0.04800000  1.0 0.0806103183
C  C76  1  0.17100000  0.69240000  0.45200000  1.0 0.0806103183
C  C77  1  0.24270000  0.81810000  0.92300000  1.0 -0.249158749
C  C78  1  0.81810000  0.24270000  0.57700000  1.0 -0.249158749
C  C79  1  0.75730000  0.18190000  0.07700000  1.0 -0.249158749
C  C80  1  0.18190000  0.75730000  0.42300000  1.0 -0.249158749
C  C81  1  0.38170000  0.76370000  0.85810000  1.0 0.0129743538
C  C82  1  0.76370000  0.38170000  0.64190000  1.0 0.0129743538
C  C83  1  0.61830000  0.23630000  0.14190000  1.0 0.0129743538
C  C84  1  0.23630000  0.61830000  0.35810000  1.0 0.0129743538
C  C85  1  0.04750000  0.83330000  0.58790000  1.0 -0.0710410018
C  C86  1  0.83330000  0.04750000  0.91210000  1.0 -0.0710410018
C  C87  1  0.95250000  0.16670000  0.41210000  1.0 -0.0710410018
C  C88  1  0.16670000  0.95250000  0.08790000  1.0 -0.0710410018
C  C89  1  0.09550000  0.85910000  0.55890000  1.0 -0.0403826505
C  C90  1  0.85910000  0.09550000  0.94110000  1.0 -0.0302449037
C  C91  1  0.90450000  0.14090000  0.44110000  1.0 -0.0302449037
C  C92  1  0.14090000  0.90450000  0.05890000  1.0 -0.0302449037
C  C93  1  0.16460000  0.83040000  0.59680000  1.0 0.0806103183
C  C94  1  0.83040000  0.16460000  0.90320000  1.0 0.0806103183
C  C95  1  0.83540000  0.16960000  0.40320000  1.0 0.0806103183
C  C96  1  0.16960000  0.83540000  0.09680000  1.0 0.0806103183
C  C97  1  0.20500000  0.86120000  0.56060000  1.0 -0.0302449037
C  C98  1  0.86120000  0.20500000  0.93940000  1.0 -0.0302449037
C  C99  1  0.79500000  0.13880000  0.43940000  1.0 -0.0302449037
C  C100  1  0.13880000  0.79500000  0.06060000  1.0 -0.0302449037
C  C101  1  0.17100000  0.91100000  0.48560000  1.0 -0.0790470964
C  C102  1  0.91100000  0.17100000  0.01440000  1.0 -0.0790470964
C  C103  1  0.82900000  0.08900000  0.51440000  1.0 -0.0790470964
C  C104  1  0.08900000  0.82900000  0.98560000  1.0 -0.0790470964
C  C105  1  0.10300000  0.93700000  0.44630000  1.0 0.0285782199
C  C106  1  0.93700000  0.10300000  0.05370000  1.0 0.0285782199
C  C107  1  0.89700000  0.06300000  0.55370000  1.0 0.0285782199
C  C108  1  0.06300000  0.89700000  0.94630000  1.0 0.0285782199
C  C109  1  0.06810000  0.99470000  0.36780000  1.0 0.1091953745
C  C110  1  0.99470000  0.06810000  0.13220000  1.0 0.1091953745
C  C111  1  0.93190000  0.00530000  0.63220000  1.0 0.1091953745
C  C112  1  0.00530000  0.93190000  0.86780000  1.0 0.1091953745
C  C113  1  0.12080000  0.02720000  0.34250000  1.0 -0.1901459173
C  C114  1  0.02720000  0.12080000  0.15750000  1.0 -0.1901459173
C  C115  1  0.87920000  0.97280000  0.65750000  1.0 -0.1901459173
C  C116  1  0.97280000  0.87920000  0.84250000  1.0 -0.1901459173
C  C117  1  0.02640000  0.04720000  0.36970000  1.0 -0.3531497928
C  C118  1  0.04720000  0.02640000  0.13030000  1.0 -0.3531497928
C  C119  1  0.97360000  0.95280000  0.63030000  1.0 -0.3531497928
C  C120  1  0.95280000  0.97360000  0.86970000  1.0 -0.3531497928
C  C121  1  0.02090000  0.97070000  0.31220000  1.0 -0.4190261129
C  C122  1  0.97070000  0.02090000  0.18780000  1.0 -0.4190261129
C  C123  1  0.97910000  0.02930000  0.68780000  1.0 -0.4190261129
C  C124  1  0.02930000  0.97910000  0.81220000  1.0 -0.4190261129
C  C125  1  0.06540000  0.90620000  0.48410000  1.0 -0.1005869015
C  C126  1  0.90620000  0.06540000  0.01590000  1.0 -0.1005869015
C  C127  1  0.93460000  0.09380000  0.51590000  1.0 -0.1087083283
C  C128  1  0.09380000  0.93460000  0.98410000  1.0 -0.1087083283
C  C129  1  0.27650000  0.83670000  0.59260000  1.0 -0.1005869015
C  C130  1  0.83670000  0.27650000  0.90740000  1.0 -0.1005869015
C  C131  1  0.72350000  0.16330000  0.40740000  1.0 -0.1005869015
C  C132  1  0.16330000  0.72350000  0.09260000  1.0 -0.1005869015
C  C133  1  0.49673000  0.72093000  0.73920000  1.0 -0.1087083283
C  C134  1  0.72093000  0.49673000  0.76080000  1.0 -0.1087083283
C  C135  1  0.50327000  0.27907000  0.26080000  1.0 -0.1087083283
C  C136  1  0.27907000  0.50327000  0.23920000  1.0 -0.1087083283
C  C137  1  0.51246000  0.77506000  0.69160000  1.0 -0.1363457628
C  C138  1  0.77506000  0.51246000  0.80840000  1.0 -0.1363457628
C  C139  1  0.48754000  0.22494000  0.30840000  1.0 -0.1363457628
C  C140  1  0.22494000  0.48754000  0.19160000  1.0 -0.1363457628
C  C141  1  0.57708000  0.77468000  0.69820000  1.0 -0.0207057367
C  C142  1  0.77468000  0.57708000  0.80180000  1.0 -0.0207057367
C  C143  1  0.42292000  0.22532000  0.30180000  1.0 -0.0207057367
C  C144  1  0.22532000  0.42292000  0.19820000  1.0 -0.0207057367
C  C145  1  0.61297000  0.67057000  0.79380000  1.0 0.0603690897
C  C146  1  0.67057000  0.61297000  0.70620000  1.0 0.0603690897
C  C147  1  0.38703000  0.32943000  0.20620000  1.0 0.0603690897
C  C148  1  0.32943000  0.38703000  0.29380000  1.0 0.0603690897
C  C149  1  0.54959000  0.66759000  0.79130000  1.0 -0.1167894953
C  C150  1  0.66759000  0.54959000  0.70870000  1.0 -0.1167894953
C  C151  1  0.45041000  0.33241000  0.20870000  1.0 -0.1167894953
C  C152  1  0.33241000  0.45041000  0.29130000  1.0 -0.1167894953
C  C153  1  0.21780000  0.39580000  0.75210000  1.0 0.2687465784
C  C154  1  0.39580000  0.21780000  0.74790000  1.0 0.2687465784
C  C155  1  0.78220000  0.60420000  0.24790000  1.0 0.2687465784
C  C156  1  0.60420000  0.78220000  0.25210000  1.0 0.2687465784
C  C157  1  0.15670000  0.36910000  0.75690000  1.0 -0.5206590358
C  C158  1  0.36910000  0.15670000  0.74310000  1.0 -0.5206590358
C  C159  1  0.84330000  0.63090000  0.24310000  1.0 -0.5206590358
C  C160  1  0.63090000  0.84330000  0.25690000  1.0 -0.5206590358
C  C161  1  0.27930000  0.34510000  0.81680000  1.0 -0.4765009794
C  C162  1  0.34510000  0.27930000  0.68320000  1.0 -0.4765009794
C  C163  1  0.72070000  0.65490000  0.18320000  1.0 -0.4765009794
C  C164  1  0.65490000  0.72070000  0.31680000  1.0 -0.4765009794
C  C165  1  0.22070000  0.40430000  0.68090000  1.0 -0.4884734887
C  C166  1  0.40430000  0.22070000  0.81910000  1.0 -0.4884734887
C  C167  1  0.77930000  0.59570000  0.31910000  1.0 -0.4884734887
C  C168  1  0.59570000  0.77930000  0.18090000  1.0 -0.4884734887
C  C169  1  0.33010000  0.87490000  0.99430000  1.0 0.0898554589
C  C170  1  0.87490000  0.33010000  0.50570000  1.0 0.0898554589
C  C171  1  0.66990000  0.12510000  0.00570000  1.0 0.0898554589
C  C172  1  0.12510000  0.66990000  0.49430000  1.0 0.0898554589
C  C173  1  0.29490000  0.86670000  0.04160000  1.0 -0.1329244826
C  C174  1  0.86670000  0.29490000  0.45840000  1.0 -0.1329244826
C  C175  1  0.70510000  0.13330000  0.95840000  1.0 -0.1329244826
C  C176  1  0.13330000  0.70510000  0.54160000  1.0 -0.1329244826
C  C177  1  0.34100000  0.94640000  0.95170000  1.0 -0.2625029533
C  C178  1  0.94640000  0.34100000  0.54830000  1.0 -0.2671779358
C  C179  1  0.65900000  0.05360000  0.04830000  1.0 -0.2671779358
C  C180  1  0.05360000  0.65900000  0.45170000  1.0 -0.2671779358
C  C181  1  0.40890000  0.83390000  0.06520000  1.0 -0.2207304972
C  C182  1  0.83390000  0.40890000  0.43480000  1.0 -0.2207304972
C  C183  1  0.59110000  0.16610000  0.93480000  1.0 -0.2207304972
C  C184  1  0.16610000  0.59110000  0.56520000  1.0 -0.2207304972
C  C185  1  0.59980000  0.78860000  0.44300000  1.0 -0.1901459173
C  C186  1  0.78860000  0.59980000  0.05700000  1.0 -0.1901459173
C  C187  1  0.40020000  0.21140000  0.55700000  1.0 -0.1901459173
C  C188  1  0.21140000  0.40020000  0.94300000  1.0 -0.1901459173
C  C189  1  0.55550000  0.85930000  0.47660000  1.0 -0.2671779358
C  C190  1  0.85930000  0.55550000  0.02340000  1.0 -0.2625029533
C  C191  1  0.44450000  0.14070000  0.52340000  1.0 -0.2625029533
C  C192  1  0.14070000  0.44450000  0.97660000  1.0 -0.2671779358
C  C193  1  0.65550000  0.77330000  0.57400000  1.0 0.2107819554
C  C194  1  0.77330000  0.65550000  0.92600000  1.0 0.2107819554
C  C195  1  0.34450000  0.22670000  0.42600000  1.0 0.2107819554
C  C196  1  0.22670000  0.34450000  0.07400000  1.0 0.2107819554
C  C197  1  0.17890000  0.14430000  0.45550000  1.0 -0.2207304972
C  C198  1  0.14430000  0.17890000  0.04450000  1.0 -0.2207304972
C  C199  1  0.82110000  0.85570000  0.54450000  1.0 -0.2207304972
C  C200  1  0.85570000  0.82110000  0.95550000  1.0 -0.2207304972
C  C201  1  0.25450000  0.12270000  0.59040000  1.0 -0.2207304972
C  C202  1  0.12270000  0.25450000  0.90960000  1.0 -0.2207304972
C  C203  1  0.74550000  0.87730000  0.40960000  1.0 -0.2207304972
C  C204  1  0.87730000  0.74550000  0.09040000  1.0 -0.2207304972
C  C205  1  0.28610000  0.06630000  0.52880000  1.0 0.0285782199
C  C206  1  0.06630000  0.28610000  0.97120000  1.0 0.0285782199
C  C207  1  0.71390000  0.93370000  0.47120000  1.0 0.0285782199
C  C208  1  0.93370000  0.71390000  0.02880000  1.0 0.0285782199
C  C209  1  0.17250000  0.95570000  0.72670000  1.0 -0.1998224768
C  C210  1  0.95570000  0.17250000  0.77330000  1.0 -0.1998224768
C  C211  1  0.82750000  0.04430000  0.27330000  1.0 -0.1998224768
C  C212  1  0.04430000  0.82750000  0.22670000  1.0 -0.1998224768
C  C213  1  0.25010000  0.92750000  0.68500000  1.0 -0.1591923121
C  C214  1  0.92750000  0.25010000  0.81500000  1.0 -0.1591923121
C  C215  1  0.74990000  0.07250000  0.31500000  1.0 -0.1591923121
C  C216  1  0.07250000  0.74990000  0.18500000  1.0 -0.1591923121
C  C217  1  0.14380000  0.00260000  0.58950000  1.0 -0.0207057367
C  C218  1  0.00260000  0.14380000  0.91050000  1.0 -0.0207057367
C  C219  1  0.85620000  0.99740000  0.41050000  1.0 -0.0207057367
C  C220  1  0.99740000  0.85620000  0.08950000  1.0 -0.0207057367
C  C221  1  0.32970000  0.84830000  0.01720000  1.0 0.1003209128
C  C222  1  0.84830000  0.32970000  0.48280000  1.0 0.1003209128
C  C223  1  0.67030000  0.15170000  0.98280000  1.0 0.1003209128
C  C224  1  0.15170000  0.67030000  0.51720000  1.0 0.1003209128
C  C225  1  0.32310000  0.79210000  0.08440000  1.0 -0.2824101809
C  C226  1  0.79210000  0.32310000  0.41560000  1.0 -0.2824101809
C  C227  1  0.67690000  0.20790000  0.91560000  1.0 -0.2824101809
C  C228  1  0.20790000  0.67690000  0.58440000  1.0 -0.2824101809
C  C229  1  0.28500000  0.91420000  0.99020000  1.0 -0.1591923121
C  C230  1  0.91420000  0.28500000  0.50980000  1.0 -0.1591923121
C  C231  1  0.71500000  0.08580000  0.00980000  1.0 -0.1591923121
C  C232  1  0.08580000  0.71500000  0.49020000  1.0 -0.1591923121
C  C233  1  0.40060000  0.86100000  0.04010000  1.0 -0.1998224768
C  C234  1  0.86100000  0.40060000  0.45990000  1.0 -0.1998224768
C  C235  1  0.59940000  0.13900000  0.95990000  1.0 -0.1998224768
C  C236  1  0.13900000  0.59940000  0.54010000  1.0 -0.1998224768
C  C237  1  0.18910000  0.93070000  0.51290000  1.0 -0.1167894953
C  C238  1  0.93070000  0.18910000  0.98710000  1.0 -0.1167894953
C  C239  1  0.81090000  0.06930000  0.48710000  1.0 -0.1167894953
C  C240  1  0.06930000  0.81090000  0.01290000  1.0 -0.1167894953
C  C241  1  0.13930000  0.05350000  0.37090000  1.0 -0.1901459173
C  C242  1  0.05350000  0.13930000  0.12910000  1.0 -0.1901459173
C  C243  1  0.86070000  0.94650000  0.62910000  1.0 -0.1901459173
C  C244  1  0.94650000  0.86070000  0.87090000  1.0 -0.1901459173
C  C245  1  0.03080000  0.06020000  0.37450000  1.0 -0.3600559297
C  C246  1  0.06020000  0.03080000  0.12550000  1.0 -0.3600559297
C  C247  1  0.96920000  0.93980000  0.62550000  1.0 -0.3600559297
C  C248  1  0.93980000  0.96920000  0.87450000  1.0 -0.3600559297
C  C249  1  0.12730000  0.08350000  0.46150000  1.0 -0.3111049268
C  C250  1  0.08350000  0.12730000  0.03850000  1.0 -0.3111049268
C  C251  1  0.87270000  0.91650000  0.53850000  1.0 -0.3214040312
C  C252  1  0.91650000  0.87270000  0.96150000  1.0 -0.3214040312
C  C253  1  0.12550000  0.96450000  0.48200000  1.0 0.0217548676
C  C254  1  0.96450000  0.12550000  0.01800000  1.0 0.0217548676
C  C255  1  0.87450000  0.03550000  0.51800000  1.0 0.0217548676
C  C256  1  0.03550000  0.87450000  0.98200000  1.0 0.0217548676
C  C257  1  0.10510000  0.03950000  0.42210000  1.0 0.0898554589
C  C258  1  0.03950000  0.10510000  0.07790000  1.0 0.1003209128
C  C259  1  0.89490000  0.96050000  0.57790000  1.0 0.0898554589
C  C260  1  0.96050000  0.89490000  0.92210000  1.0 0.0898554589
C  C261  1  0.08110000  0.93010000  0.50720000  1.0 -0.0595695794
C  C262  1  0.93010000  0.08110000  0.99280000  1.0 -0.0595695794
C  C263  1  0.91890000  0.06990000  0.49280000  1.0 -0.0595695794
C  C264  1  0.06990000  0.91890000  0.00720000  1.0 -0.0595695794
C  C265  1  0.58510000  0.83090000  0.43600000  1.0 -0.0403826505
C  C266  1  0.83090000  0.58510000  0.06400000  1.0 -0.0403826505
C  C267  1  0.41490000  0.16910000  0.56400000  1.0 -0.0403826505
C  C268  1  0.16910000  0.41490000  0.93600000  1.0 -0.0403826505
C  C269  1  0.70040000  0.84440000  0.49760000  1.0 -0.2910210638
C  C270  1  0.84440000  0.70040000  0.00240000  1.0 -0.2910210638
C  C271  1  0.29960000  0.15560000  0.50240000  1.0 -0.2910210638
C  C272  1  0.15560000  0.29960000  0.99760000  1.0 -0.2910210638
C  C273  1  0.63870000  0.79190000  0.57260000  1.0 0.2107819554
C  C274  1  0.79190000  0.63870000  0.92740000  1.0 0.2107819554
C  C275  1  0.36130000  0.20810000  0.42740000  1.0 0.2155395832
C  C276  1  0.20810000  0.36130000  0.07260000  1.0 0.2155395832
C  C277  1  0.47050000  0.92230000  0.44810000  1.0 -0.4140358779
C  C278  1  0.92230000  0.47050000  0.05190000  1.0 -0.4140358779
C  C279  1  0.52950000  0.07770000  0.55190000  1.0 -0.4140358779
C  C280  1  0.07770000  0.52950000  0.94810000  1.0 -0.4140358779
C  C281  1  0.37080000  0.92580000  0.46910000  1.0 -0.1363457628
C  C282  1  0.92580000  0.37080000  0.03090000  1.0 -0.1329244826
C  C283  1  0.62920000  0.07420000  0.53090000  1.0 -0.1329244826
C  C284  1  0.07420000  0.62920000  0.96910000  1.0 -0.1363457628
C  C285  1  0.41700000  0.02640000  0.44110000  1.0 0.1289979539
C  C286  1  0.02640000  0.41700000  0.05890000  1.0 0.1289979539
C  C287  1  0.58300000  0.97360000  0.55890000  1.0 0.1289979539
C  C288  1  0.97360000  0.58300000  0.94110000  1.0 0.1289979539
C  C289  1  0.25590000  0.04030000  0.66700000  1.0 -0.3111049268
C  C290  1  0.04030000  0.25590000  0.83300000  1.0 -0.3111049268
C  C291  1  0.74410000  0.95970000  0.33300000  1.0 -0.3111049268
C  C292  1  0.95970000  0.74410000  0.16700000  1.0 -0.3111049268
C  C293  1  0.26170000  0.92050000  0.74400000  1.0 -0.1662633631
C  C294  1  0.92050000  0.26170000  0.75600000  1.0 -0.1662633631
C  C295  1  0.73830000  0.07950000  0.25600000  1.0 -0.1662633631
C  C296  1  0.07950000  0.73830000  0.24400000  1.0 -0.1662633631
C  C297  1  0.15170000  0.99190000  0.66300000  1.0 0.1504730569
C  C298  1  0.99190000  0.15170000  0.83700000  1.0 0.1504730569
C  C299  1  0.84830000  0.00810000  0.33700000  1.0 0.1504730569
C  C300  1  0.00810000  0.84830000  0.16300000  1.0 0.1504730569
C  C301  1  0.38960000  0.91380000  0.46190000  1.0 -0.1005869015
C  C302  1  0.91380000  0.38960000  0.03810000  1.0 -0.1005869015
C  C303  1  0.61040000  0.08620000  0.53810000  1.0 -0.1005869015
C  C304  1  0.08620000  0.61040000  0.96190000  1.0 -0.1005869015
C  C305  1  0.42120000  0.01640000  0.39720000  1.0 -0.0302449037
C  C306  1  0.01640000  0.42120000  0.10280000  1.0 -0.0302449037
C  C307  1  0.57880000  0.98360000  0.60280000  1.0 -0.0302449037
C  C308  1  0.98360000  0.57880000  0.89720000  1.0 -0.0302449037
C  C309  1  0.36060000  0.01600000  0.47190000  1.0 -0.0710410018
C  C310  1  0.01600000  0.36060000  0.02810000  1.0 -0.0710410018
C  C311  1  0.63940000  0.98400000  0.52810000  1.0 -0.0710410018
C  C312  1  0.98400000  0.63940000  0.97190000  1.0 -0.0710410018
N  N1  1  0.81866000  0.72422000  0.74660000  1.0 -0.3111049268
N  N2  1  0.72422000  0.81866000  0.75340000  1.0 -0.3111049268
N  N3  1  0.18134000  0.27578000  0.25340000  1.0 -0.3111049268
N  N4  1  0.27578000  0.18134000  0.24660000  1.0 -0.3111049268
N  N5  1  0.10270000  0.64534000  0.75990000  1.0 -0.0595695794
N  N6  1  0.64534000  0.10270000  0.74010000  1.0 -0.0595695794
N  N7  1  0.89730000  0.35466000  0.24010000  1.0 -0.0595695794
N  N8  1  0.35466000  0.89730000  0.25990000  1.0 -0.0595695794
N  N9  1  0.34710000  0.64290000  0.74750000  1.0 -0.0710410018
N  N10  1  0.64290000  0.34710000  0.75250000  1.0 -0.0710410018
N  N11  1  0.65290000  0.35710000  0.25250000  1.0 -0.0710410018
N  N12  1  0.35710000  0.65290000  0.24750000  1.0 -0.0710410018
N  N13  1  0.12116000  0.75676000  0.80250000  1.0 -0.0710410018
N  N14  1  0.75676000  0.12116000  0.69750000  1.0 -0.0710410018
N  N15  1  0.87884000  0.24324000  0.19750000  1.0 -0.0710410018
N  N16  1  0.24324000  0.87884000  0.30250000  1.0 -0.0710410018
N  N17  1  0.37267000  0.74067000  0.81040000  1.0 -0.0790470964
N  N18  1  0.74067000  0.37267000  0.68960000  1.0 -0.0790470964
N  N19  1  0.62733000  0.25933000  0.18960000  1.0 -0.0790470964
N  N20  1  0.25933000  0.62733000  0.31040000  1.0 -0.0790470964
N  N21  1  0.06052000  0.78384000  0.64990000  1.0 -0.0595695794
N  N22  1  0.78384000  0.06052000  0.85010000  1.0 -0.0595695794
N  N23  1  0.93948000  0.21616000  0.35010000  1.0 -0.0595695794
N  N24  1  0.21616000  0.93948000  0.14990000  1.0 -0.0595695794
N  N25  1  0.31092000  0.78544000  0.65280000  1.0 -0.1005869015
N  N26  1  0.78544000  0.31092000  0.84720000  1.0 -0.0901752301
N  N27  1  0.68908000  0.21456000  0.34720000  1.0 -0.0901752301
N  N28  1  0.21456000  0.68908000  0.15280000  1.0 -0.0901752301
N  N29  1  0.62741000  0.72307000  0.74840000  1.0 -0.3214040312
N  N30  1  0.72307000  0.62741000  0.75160000  1.0 -0.3214040312
N  N31  1  0.37259000  0.27693000  0.25160000  1.0 -0.3214040312
N  N32  1  0.27693000  0.37259000  0.24840000  1.0 -0.3214040312
N  N33  1  0.60980000  0.80500000  0.50450000  1.0 0.0487458044
N  N34  1  0.80500000  0.60980000  0.99550000  1.0 0.0487458044
N  N35  1  0.39020000  0.19500000  0.49550000  1.0 0.0487458044
N  N36  1  0.19500000  0.39020000  0.00450000  1.0 0.0487458044
N  N37  1  0.23940000  0.11240000  0.52390000  1.0 -0.0207057367
N  N38  1  0.11240000  0.23940000  0.97610000  1.0 -0.0207057367
N  N39  1  0.76060000  0.88760000  0.47610000  1.0 -0.0207057367
N  N40  1  0.88760000  0.76060000  0.02390000  1.0 -0.0207057367
N  N41  1  0.18590000  0.96190000  0.66500000  1.0 0.1504730569
N  N42  1  0.96190000  0.18590000  0.83500000  1.0 0.1504730569
N  N43  1  0.81410000  0.03810000  0.33500000  1.0 0.1504730569
N  N44  1  0.03810000  0.81410000  0.16500000  1.0 0.1504730569
N  N45  1  0.64320000  0.81740000  0.50600000  1.0 0.069697003
N  N46  1  0.81740000  0.64320000  0.99400000  1.0 0.069697003
N  N47  1  0.35680000  0.18260000  0.49400000  1.0 0.069697003
N  N48  1  0.18260000  0.35680000  0.00600000  1.0 0.069697003
N  N49  1  0.42200000  0.96060000  0.45290000  1.0 0.1504730569
N  N50  1  0.96060000  0.42200000  0.04710000  1.0 0.1504730569
N  N51  1  0.57800000  0.03940000  0.54710000  1.0 0.1504730569
N  N52  1  0.03940000  0.57800000  0.95290000  1.0 0.1504730569
N  N53  1  0.22170000  0.98550000  0.69000000  1.0 0.1970902097
N  N54  1  0.98550000  0.22170000  0.81000000  1.0 0.1970902097
N  N55  1  0.77830000  0.01450000  0.31000000  1.0 0.1970902097
N  N56  1  0.01450000  0.77830000  0.19000000  1.0 0.1970902097
N  N57  1  0.38880000  0.98380000  0.44590000  1.0 0.1289979539
N  N58  1  0.98380000  0.38880000  0.05410000  1.0 0.1289979539
N  N59  1  0.61120000  0.01620000  0.55410000  1.0 0.1289979539
N  N60  1  0.01620000  0.61120000  0.94590000  1.0 0.1289979539
O  O1  1  0.04369000  0.65709000  0.76590000  1.0 -0.4009844649
O  O2  1  0.65709000  0.04369000  0.73410000  1.0 -0.4009844649
O  O3  1  0.95631000  0.34291000  0.23410000  1.0 -0.4009844649
O  O4  1  0.34291000  0.95631000  0.26590000  1.0 -0.4009844649
O  O5  1  0.40753000  0.65453000  0.74290000  1.0 -0.249158749
O  O6  1  0.65453000  0.40753000  0.75710000  1.0 -0.249158749
O  O7  1  0.59247000  0.34547000  0.25710000  1.0 -0.249158749
O  O8  1  0.34547000  0.59247000  0.24290000  1.0 -0.249158749
O  O9  1  0.05441000  0.75681000  0.78900000  1.0 -0.4359222266
O  O10  1  0.75681000  0.05441000  0.71100000  1.0 -0.4359222266
O  O11  1  0.94559000  0.24319000  0.21100000  1.0 -0.4359222266
O  O12  1  0.24319000  0.94559000  0.28900000  1.0 -0.4359222266
O  O13  1  0.43194000  0.72974000  0.80450000  1.0 -0.249158749
O  O14  1  0.72974000  0.43194000  0.69550000  1.0 -0.2421028313
O  O15  1  0.56806000  0.27026000  0.19550000  1.0 -0.2421028313
O  O16  1  0.27026000  0.56806000  0.30450000  1.0 -0.2421028313
O  O17  1  0.00330000  0.76980000  0.66120000  1.0 -0.3772202892
O  O18  1  0.76980000  0.00330000  0.83880000  1.0 -0.3772202892
O  O19  1  0.99670000  0.23020000  0.33880000  1.0 -0.3772202892
O  O20  1  0.23020000  0.99670000  0.16120000  1.0 -0.3772202892
O  O21  1  0.37826000  0.77566000  0.66690000  1.0 -0.3739157233
O  O22  1  0.77566000  0.37826000  0.83310000  1.0 -0.3772202892
O  O23  1  0.62174000  0.22434000  0.33310000  1.0 -0.3739157233
O  O24  1  0.22434000  0.62174000  0.16690000  1.0 -0.3772202892
O  O25  1  0.22798000  0.64988000  0.76080000  1.0 -0.4884734887
O  O26  1  0.64988000  0.22798000  0.73920000  1.0 -0.4884734887
O  O27  1  0.77202000  0.35012000  0.23920000  1.0 -0.4884734887
O  O28  1  0.35012000  0.77202000  0.26080000  1.0 -0.4884734887
O  O29  1  0.24417000  0.74605000  0.80010000  1.0 -0.4884734887
O  O30  1  0.74605000  0.24417000  0.69990000  1.0 -0.4884734887
O  O31  1  0.75583000  0.25395000  0.19990000  1.0 -0.4884734887
O  O32  1  0.25395000  0.75583000  0.30010000  1.0 -0.4884734887
O  O33  1  0.18857000  0.77563000  0.65830000  1.0 -0.5006532508
O  O34  1  0.77563000  0.18857000  0.84170000  1.0 -0.5006532508
O  O35  1  0.81143000  0.22437000  0.34170000  1.0 -0.5006532508
O  O36  1  0.22437000  0.81143000  0.15830000  1.0 -0.5006532508
O  O37  1  0.68550000  0.78410000  0.62870000  1.0 -0.2421028313
O  O38  1  0.78410000  0.68550000  0.87130000  1.0 -0.2421028313
O  O39  1  0.31450000  0.21590000  0.37130000  1.0 -0.2421028313
O  O40  1  0.21590000  0.31450000  0.12870000  1.0 -0.2421028313
O  O41  1  0.27790000  0.04970000  0.48060000  1.0 -0.3022097174
O  O42  1  0.04970000  0.27790000  0.01940000  1.0 -0.3022097174
O  O43  1  0.72210000  0.95030000  0.51940000  1.0 -0.3022097174
O  O44  1  0.95030000  0.72210000  0.98060000  1.0 -0.3022097174
O  O45  1  0.09280000  0.03900000  0.56410000  1.0 -0.1474140014
O  O46  1  0.03900000  0.09280000  0.93590000  1.0 -0.1474140014
O  O47  1  0.90720000  0.96100000  0.43590000  1.0 -0.1474140014
O  O48  1  0.96100000  0.90720000  0.06410000  1.0 -0.1474140014
O  O49  1  0.67820000  0.76600000  0.63070000  1.0 -0.1087083283
O  O50  1  0.76600000  0.67820000  0.86930000  1.0 -0.1087083283
O  O51  1  0.32180000  0.23400000  0.36930000  1.0 -0.1087083283
O  O52  1  0.23400000  0.32180000  0.13070000  1.0 -0.1087083283
O  O53  1  0.44910000  0.06690000  0.42310000  1.0 -0.3600559297
O  O54  1  0.06690000  0.44910000  0.07690000  1.0 -0.3600559297
O  O55  1  0.55090000  0.93310000  0.57690000  1.0 -0.3600559297
O  O56  1  0.93310000  0.55090000  0.92310000  1.0 -0.3600559297
O  O57  1  0.11260000  0.04660000  0.61900000  1.0 -0.1591923121
O  O58  1  0.04660000  0.11260000  0.88100000  1.0 -0.1591923121
O  O59  1  0.88740000  0.95340000  0.38100000  1.0 -0.1662633631
O  O60  1  0.95340000  0.88740000  0.11900000  1.0 -0.1662633631
O  O61  1  0.33180000  0.98740000  0.50900000  1.0 -0.3022097174
O  O62  1  0.98740000  0.33180000  0.99100000  1.0 -0.2910210638
O  O63  1  0.66820000  0.01260000  0.49100000  1.0 -0.2910210638
O  O64  1  0.01260000  0.66820000  0.00900000  1.0 -0.2910210638
