# DDEC6 charges by PACMAN v1.1 (https://github.com/mtap-research/PACMAN-charge/)
data_YODWUL_ASR_pacman
_symmetry_space_group_name_H-M   'P 1'
_cell_length_a   31.10200000
_cell_length_b   31.10200000
_cell_length_c   31.10200000
_cell_angle_alpha   90.00000000
_cell_angle_beta   90.00000000
_cell_angle_gamma   90.00000000
_symmetry_Int_Tables_number   1
_chemical_formula_structural   Zn7H36C72(NO5)6
_chemical_formula_sum   'Zn28 H144 C288 N24 O120'
_cell_volume   30086.03463321
_cell_formula_units_Z   4
loop_
 _symmetry_equiv_pos_site_id
 _symmetry_equiv_pos_as_xyz
  1  'x, y, z'
loop_
 _atom_site_type_symbol
 _atom_site_label
 _atom_site_symmetry_multiplicity
 _atom_site_fract_x
 _atom_site_fract_y
 _atom_site_fract_z
 _atom_site_occupancy
 _atom_site_charge
Zn  Zn1  1  0.50000000  0.50000000  0.12743000  1.0 0.9598926151
Zn  Zn2  1  0.50000000  0.50000000  0.87257000  1.0 0.9598926151
Zn  Zn3  1  0.12743000  0.50000000  0.50000000  1.0 0.9598926151
Zn  Zn4  1  0.87257000  0.50000000  0.50000000  1.0 0.9598926151
Zn  Zn5  1  0.50000000  0.12743000  0.50000000  1.0 0.9598926151
Zn  Zn6  1  0.50000000  0.87257000  0.50000000  1.0 0.9598926151
Zn  Zn7  1  0.50000000  0.50000000  0.22334000  1.0 0.9598926151
Zn  Zn8  1  0.50000000  0.50000000  0.77666000  1.0 0.9598926151
Zn  Zn9  1  0.22334000  0.50000000  0.50000000  1.0 0.9598926151
Zn  Zn10  1  0.77666000  0.50000000  0.50000000  1.0 0.9598926151
Zn  Zn11  1  0.50000000  0.22334000  0.50000000  1.0 0.9598926151
Zn  Zn12  1  0.50000000  0.77666000  0.50000000  1.0 0.9598926151
Zn  Zn13  1  0.34329000  0.34329000  0.34329000  1.0 0.9436817412
Zn  Zn14  1  0.65671000  0.65671000  0.34329000  1.0 0.9436817412
Zn  Zn15  1  0.65671000  0.34329000  0.65671000  1.0 0.9436817412
Zn  Zn16  1  0.34329000  0.65671000  0.65671000  1.0 0.9436817412
Zn  Zn17  1  0.65671000  0.65671000  0.65671000  1.0 0.9436817412
Zn  Zn18  1  0.34329000  0.34329000  0.65671000  1.0 0.9436817412
Zn  Zn19  1  0.34329000  0.65671000  0.34329000  1.0 0.9436817412
Zn  Zn20  1  0.65671000  0.34329000  0.34329000  1.0 0.9436817412
Zn  Zn21  1  0.27804000  0.27804000  0.27804000  1.0 1.0279655103
Zn  Zn22  1  0.72196000  0.72196000  0.27804000  1.0 1.0279655103
Zn  Zn23  1  0.72196000  0.27804000  0.72196000  1.0 1.0279655103
Zn  Zn24  1  0.27804000  0.72196000  0.72196000  1.0 1.0279655103
Zn  Zn25  1  0.72196000  0.72196000  0.72196000  1.0 1.0279655103
Zn  Zn26  1  0.27804000  0.27804000  0.72196000  1.0 1.0279655103
Zn  Zn27  1  0.27804000  0.72196000  0.27804000  1.0 1.0279655103
Zn  Zn28  1  0.72196000  0.27804000  0.27804000  1.0 1.0279655103
H  H1  1  0.41010000  0.30610000  0.09010000  1.0 0.279880004
H  H2  1  0.58990000  0.69390000  0.09010000  1.0 0.279880004
H  H3  1  0.58990000  0.30610000  0.90990000  1.0 0.279880004
H  H4  1  0.41010000  0.69390000  0.90990000  1.0 0.279880004
H  H5  1  0.09010000  0.41010000  0.30610000  1.0 0.279880004
H  H6  1  0.09010000  0.58990000  0.69390000  1.0 0.279880004
H  H7  1  0.90990000  0.58990000  0.30610000  1.0 0.279880004
H  H8  1  0.90990000  0.41010000  0.69390000  1.0 0.279880004
H  H9  1  0.30610000  0.09010000  0.41010000  1.0 0.279880004
H  H10  1  0.69390000  0.09010000  0.58990000  1.0 0.279880004
H  H11  1  0.30610000  0.90990000  0.58990000  1.0 0.279880004
H  H12  1  0.69390000  0.90990000  0.41010000  1.0 0.279880004
H  H13  1  0.58990000  0.69390000  0.90990000  1.0 0.279880004
H  H14  1  0.41010000  0.30610000  0.90990000  1.0 0.279880004
H  H15  1  0.41010000  0.69390000  0.09010000  1.0 0.279880004
H  H16  1  0.58990000  0.30610000  0.09010000  1.0 0.279880004
H  H17  1  0.90990000  0.58990000  0.69390000  1.0 0.279880004
H  H18  1  0.90990000  0.41010000  0.30610000  1.0 0.279880004
H  H19  1  0.09010000  0.41010000  0.69390000  1.0 0.279880004
H  H20  1  0.09010000  0.58990000  0.30610000  1.0 0.279880004
H  H21  1  0.69390000  0.90990000  0.58990000  1.0 0.279880004
H  H22  1  0.30610000  0.90990000  0.41010000  1.0 0.279880004
H  H23  1  0.69390000  0.09010000  0.41010000  1.0 0.279880004
H  H24  1  0.30610000  0.09010000  0.58990000  1.0 0.279880004
H  H25  1  0.39690000  0.41750000  0.23190000  1.0 0.1200480912
H  H26  1  0.60310000  0.58250000  0.23190000  1.0 0.1200480912
H  H27  1  0.60310000  0.41750000  0.76810000  1.0 0.1200480912
H  H28  1  0.39690000  0.58250000  0.76810000  1.0 0.1200480912
H  H29  1  0.23190000  0.39690000  0.41750000  1.0 0.1200480912
H  H30  1  0.23190000  0.60310000  0.58250000  1.0 0.1200480912
H  H31  1  0.76810000  0.60310000  0.41750000  1.0 0.1200480912
H  H32  1  0.76810000  0.39690000  0.58250000  1.0 0.1200480912
H  H33  1  0.41750000  0.23190000  0.39690000  1.0 0.1200480912
H  H34  1  0.58250000  0.23190000  0.60310000  1.0 0.1200480912
H  H35  1  0.41750000  0.76810000  0.60310000  1.0 0.1200480912
H  H36  1  0.58250000  0.76810000  0.39690000  1.0 0.1200480912
H  H37  1  0.60310000  0.58250000  0.76810000  1.0 0.1200480912
H  H38  1  0.39690000  0.41750000  0.76810000  1.0 0.1200480912
H  H39  1  0.39690000  0.58250000  0.23190000  1.0 0.1200480912
H  H40  1  0.60310000  0.41750000  0.23190000  1.0 0.1200480912
H  H41  1  0.76810000  0.60310000  0.58250000  1.0 0.1200480912
H  H42  1  0.76810000  0.39690000  0.41750000  1.0 0.1200480912
H  H43  1  0.23190000  0.39690000  0.58250000  1.0 0.1200480912
H  H44  1  0.23190000  0.60310000  0.41750000  1.0 0.1200480912
H  H45  1  0.58250000  0.76810000  0.60310000  1.0 0.1200480912
H  H46  1  0.41750000  0.76810000  0.39690000  1.0 0.1200480912
H  H47  1  0.58250000  0.23190000  0.39690000  1.0 0.1200480912
H  H48  1  0.41750000  0.23190000  0.60310000  1.0 0.1200480912
H  H49  1  0.35140000  0.30520000  0.18400000  1.0 0.1299385224
H  H50  1  0.64860000  0.69480000  0.18400000  1.0 0.1299385224
H  H51  1  0.64860000  0.30520000  0.81600000  1.0 0.1299385224
H  H52  1  0.35140000  0.69480000  0.81600000  1.0 0.1299385224
H  H53  1  0.18400000  0.35140000  0.30520000  1.0 0.1299385224
H  H54  1  0.18400000  0.64860000  0.69480000  1.0 0.1299385224
H  H55  1  0.81600000  0.64860000  0.30520000  1.0 0.1299385224
H  H56  1  0.81600000  0.35140000  0.69480000  1.0 0.1299385224
H  H57  1  0.30520000  0.18400000  0.35140000  1.0 0.1299385224
H  H58  1  0.69480000  0.18400000  0.64860000  1.0 0.1299385224
H  H59  1  0.30520000  0.81600000  0.64860000  1.0 0.1299385224
H  H60  1  0.69480000  0.81600000  0.35140000  1.0 0.1299385224
H  H61  1  0.64860000  0.69480000  0.81600000  1.0 0.1299385224
H  H62  1  0.35140000  0.30520000  0.81600000  1.0 0.1299385224
H  H63  1  0.35140000  0.69480000  0.18400000  1.0 0.1299385224
H  H64  1  0.64860000  0.30520000  0.18400000  1.0 0.1299385224
H  H65  1  0.81600000  0.64860000  0.69480000  1.0 0.1299385224
H  H66  1  0.81600000  0.35140000  0.30520000  1.0 0.1299385224
H  H67  1  0.18400000  0.35140000  0.69480000  1.0 0.1299385224
H  H68  1  0.18400000  0.64860000  0.30520000  1.0 0.1299385224
H  H69  1  0.69480000  0.81600000  0.64860000  1.0 0.1299385224
H  H70  1  0.30520000  0.81600000  0.35140000  1.0 0.1299385224
H  H71  1  0.69480000  0.18400000  0.35140000  1.0 0.1299385224
H  H72  1  0.30520000  0.18400000  0.64860000  1.0 0.1299385224
H  H73  1  0.43340000  0.37770000  0.11330000  1.0 0.1299385224
H  H74  1  0.56660000  0.62230000  0.11330000  1.0 0.1299385224
H  H75  1  0.56660000  0.37770000  0.88670000  1.0 0.1299385224
H  H76  1  0.43340000  0.62230000  0.88670000  1.0 0.1299385224
H  H77  1  0.11330000  0.43340000  0.37770000  1.0 0.1299385224
H  H78  1  0.11330000  0.56660000  0.62230000  1.0 0.1299385224
H  H79  1  0.88670000  0.56660000  0.37770000  1.0 0.1299385224
H  H80  1  0.88670000  0.43340000  0.62230000  1.0 0.1299385224
H  H81  1  0.37770000  0.11330000  0.43340000  1.0 0.1299385224
H  H82  1  0.62230000  0.11330000  0.56660000  1.0 0.1299385224
H  H83  1  0.37770000  0.88670000  0.56660000  1.0 0.1299385224
H  H84  1  0.62230000  0.88670000  0.43340000  1.0 0.1299385224
H  H85  1  0.56660000  0.62230000  0.88670000  1.0 0.1299385224
H  H86  1  0.43340000  0.37770000  0.88670000  1.0 0.1299385224
H  H87  1  0.43340000  0.62230000  0.11330000  1.0 0.1299385224
H  H88  1  0.56660000  0.37770000  0.11330000  1.0 0.1299385224
H  H89  1  0.88670000  0.56660000  0.62230000  1.0 0.1299385224
H  H90  1  0.88670000  0.43340000  0.37770000  1.0 0.1299385224
H  H91  1  0.11330000  0.43340000  0.62230000  1.0 0.1299385224
H  H92  1  0.11330000  0.56660000  0.37770000  1.0 0.1299385224
H  H93  1  0.62230000  0.88670000  0.56660000  1.0 0.1299385224
H  H94  1  0.37770000  0.88670000  0.43340000  1.0 0.1299385224
H  H95  1  0.62230000  0.11330000  0.43340000  1.0 0.1299385224
H  H96  1  0.37770000  0.11330000  0.56660000  1.0 0.1299385224
H  H97  1  0.34990000  0.32530000  0.00000000  1.0 0.1299385224
H  H98  1  0.65010000  0.67470000  0.00000000  1.0 0.1299385224
H  H99  1  0.65010000  0.32530000  0.00000000  1.0 0.1299385224
H  H100  1  0.34990000  0.67470000  0.00000000  1.0 0.1299385224
H  H101  1  0.00000000  0.34990000  0.32530000  1.0 0.1299385224
H  H102  1  0.00000000  0.65010000  0.67470000  1.0 0.1299385224
H  H103  1  0.00000000  0.65010000  0.32530000  1.0 0.1299385224
H  H104  1  0.00000000  0.34990000  0.67470000  1.0 0.1299385224
H  H105  1  0.32530000  0.00000000  0.34990000  1.0 0.1299385224
H  H106  1  0.67470000  0.00000000  0.65010000  1.0 0.1299385224
H  H107  1  0.32530000  0.00000000  0.65010000  1.0 0.1299385224
H  H108  1  0.67470000  0.00000000  0.34990000  1.0 0.1299385224
H  H109  1  0.37670000  0.21560000  0.06510000  1.0 0.1200480912
H  H110  1  0.62330000  0.78440000  0.06510000  1.0 0.1200480912
H  H111  1  0.62330000  0.21560000  0.93490000  1.0 0.1200480912
H  H112  1  0.37670000  0.78440000  0.93490000  1.0 0.1200480912
H  H113  1  0.06510000  0.37670000  0.21560000  1.0 0.1200480912
H  H114  1  0.06510000  0.62330000  0.78440000  1.0 0.1200480912
H  H115  1  0.93490000  0.62330000  0.21560000  1.0 0.1200480912
H  H116  1  0.93490000  0.37670000  0.78440000  1.0 0.1200480912
H  H117  1  0.21560000  0.06510000  0.37670000  1.0 0.1200480912
H  H118  1  0.78440000  0.06510000  0.62330000  1.0 0.1200480912
H  H119  1  0.21560000  0.93490000  0.62330000  1.0 0.1200480912
H  H120  1  0.78440000  0.93490000  0.37670000  1.0 0.1200480912
H  H121  1  0.62330000  0.78440000  0.93490000  1.0 0.1200480912
H  H122  1  0.37670000  0.21560000  0.93490000  1.0 0.1200480912
H  H123  1  0.37670000  0.78440000  0.06510000  1.0 0.1200480912
H  H124  1  0.62330000  0.21560000  0.06510000  1.0 0.1200480912
H  H125  1  0.93490000  0.62330000  0.78440000  1.0 0.1200480912
H  H126  1  0.93490000  0.37670000  0.21560000  1.0 0.1200480912
H  H127  1  0.06510000  0.37670000  0.78440000  1.0 0.1200480912
H  H128  1  0.06510000  0.62330000  0.21560000  1.0 0.1200480912
H  H129  1  0.78440000  0.93490000  0.62330000  1.0 0.1200480912
H  H130  1  0.21560000  0.93490000  0.37670000  1.0 0.1200480912
H  H131  1  0.78440000  0.06510000  0.37670000  1.0 0.1200480912
H  H132  1  0.21560000  0.06510000  0.62330000  1.0 0.1200480912
H  H133  1  0.38670000  0.17910000  0.00000000  1.0 0.1200480912
H  H134  1  0.61330000  0.82090000  0.00000000  1.0 0.1200480912
H  H135  1  0.61330000  0.17910000  0.00000000  1.0 0.1200480912
H  H136  1  0.38670000  0.82090000  0.00000000  1.0 0.1200480912
H  H137  1  0.00000000  0.38670000  0.17910000  1.0 0.1200480912
H  H138  1  0.00000000  0.61330000  0.82090000  1.0 0.1200480912
H  H139  1  0.00000000  0.61330000  0.17910000  1.0 0.1200480912
H  H140  1  0.00000000  0.38670000  0.82090000  1.0 0.1200480912
H  H141  1  0.17910000  0.00000000  0.38670000  1.0 0.1200480912
H  H142  1  0.82090000  0.00000000  0.61330000  1.0 0.1200480912
H  H143  1  0.17910000  0.00000000  0.61330000  1.0 0.1200480912
H  H144  1  0.82090000  0.00000000  0.38670000  1.0 0.1200480912
C  C1  1  0.41910000  0.40340000  0.17180000  1.0 -0.0680020961
C  C2  1  0.58090000  0.59660000  0.17180000  1.0 -0.0680020961
C  C3  1  0.58090000  0.40340000  0.82820000  1.0 -0.0680020961
C  C4  1  0.41910000  0.59660000  0.82820000  1.0 -0.0680020961
C  C5  1  0.17180000  0.41910000  0.40340000  1.0 -0.0680020961
C  C6  1  0.17180000  0.58090000  0.59660000  1.0 -0.0680020961
C  C7  1  0.82820000  0.58090000  0.40340000  1.0 -0.0680020961
C  C8  1  0.82820000  0.41910000  0.59660000  1.0 -0.0680020961
C  C9  1  0.40340000  0.17180000  0.41910000  1.0 -0.0680020961
C  C10  1  0.59660000  0.17180000  0.58090000  1.0 -0.0680020961
C  C11  1  0.40340000  0.82820000  0.58090000  1.0 -0.0680020961
C  C12  1  0.59660000  0.82820000  0.41910000  1.0 -0.0680020961
C  C13  1  0.58090000  0.59660000  0.82820000  1.0 -0.0680020961
C  C14  1  0.41910000  0.40340000  0.82820000  1.0 -0.0680020961
C  C15  1  0.41910000  0.59660000  0.17180000  1.0 -0.0680020961
C  C16  1  0.58090000  0.40340000  0.17180000  1.0 -0.0680020961
C  C17  1  0.82820000  0.58090000  0.59660000  1.0 -0.0680020961
C  C18  1  0.82820000  0.41910000  0.40340000  1.0 -0.0680020961
C  C19  1  0.17180000  0.41910000  0.59660000  1.0 -0.0680020961
C  C20  1  0.17180000  0.58090000  0.40340000  1.0 -0.0680020961
C  C21  1  0.59660000  0.82820000  0.58090000  1.0 -0.0680020961
C  C22  1  0.40340000  0.82820000  0.41910000  1.0 -0.0680020961
C  C23  1  0.59660000  0.17180000  0.41910000  1.0 -0.0680020961
C  C24  1  0.40340000  0.17180000  0.58090000  1.0 -0.0680020961
C  C25  1  0.39570000  0.39690000  0.20930000  1.0 -0.0680020961
C  C26  1  0.60430000  0.60310000  0.20930000  1.0 -0.0680020961
C  C27  1  0.60430000  0.39690000  0.79070000  1.0 -0.0680020961
C  C28  1  0.39570000  0.60310000  0.79070000  1.0 -0.0680020961
C  C29  1  0.20930000  0.39570000  0.39690000  1.0 -0.0680020961
C  C30  1  0.20930000  0.60430000  0.60310000  1.0 -0.0680020961
C  C31  1  0.79070000  0.60430000  0.39690000  1.0 -0.0680020961
C  C32  1  0.79070000  0.39570000  0.60310000  1.0 -0.0680020961
C  C33  1  0.39690000  0.20930000  0.39570000  1.0 -0.0680020961
C  C34  1  0.60310000  0.20930000  0.60430000  1.0 -0.0680020961
C  C35  1  0.39690000  0.79070000  0.60430000  1.0 -0.0680020961
C  C36  1  0.60310000  0.79070000  0.39570000  1.0 -0.0680020961
C  C37  1  0.60430000  0.60310000  0.79070000  1.0 -0.0680020961
C  C38  1  0.39570000  0.39690000  0.79070000  1.0 -0.0680020961
C  C39  1  0.39570000  0.60310000  0.20930000  1.0 -0.0680020961
C  C40  1  0.60430000  0.39690000  0.20930000  1.0 -0.0680020961
C  C41  1  0.79070000  0.60430000  0.60310000  1.0 -0.0680020961
C  C42  1  0.79070000  0.39570000  0.39690000  1.0 -0.0680020961
C  C43  1  0.20930000  0.39570000  0.60310000  1.0 -0.0680020961
C  C44  1  0.20930000  0.60430000  0.39690000  1.0 -0.0680020961
C  C45  1  0.60310000  0.79070000  0.60430000  1.0 -0.0680020961
C  C46  1  0.39690000  0.79070000  0.39570000  1.0 -0.0680020961
C  C47  1  0.60310000  0.20930000  0.39570000  1.0 -0.0680020961
C  C48  1  0.39690000  0.20930000  0.60430000  1.0 -0.0680020961
C  C49  1  0.37050000  0.36030000  0.21390000  1.0 -0.0814930649
C  C50  1  0.62950000  0.63970000  0.21390000  1.0 -0.0814930649
C  C51  1  0.62950000  0.36030000  0.78610000  1.0 -0.0814930649
C  C52  1  0.37050000  0.63970000  0.78610000  1.0 -0.0814930649
C  C53  1  0.21390000  0.37050000  0.36030000  1.0 -0.0814930649
C  C54  1  0.21390000  0.62950000  0.63970000  1.0 -0.0814930649
C  C55  1  0.78610000  0.62950000  0.36030000  1.0 -0.0814930649
C  C56  1  0.78610000  0.37050000  0.63970000  1.0 -0.0814930649
C  C57  1  0.36030000  0.21390000  0.37050000  1.0 -0.0814930649
C  C58  1  0.63970000  0.21390000  0.62950000  1.0 -0.0814930649
C  C59  1  0.36030000  0.78610000  0.62950000  1.0 -0.0814930649
C  C60  1  0.63970000  0.78610000  0.37050000  1.0 -0.0814930649
C  C61  1  0.62950000  0.63970000  0.78610000  1.0 -0.0814930649
C  C62  1  0.37050000  0.36030000  0.78610000  1.0 -0.0814930649
C  C63  1  0.37050000  0.63970000  0.21390000  1.0 -0.0814930649
C  C64  1  0.62950000  0.36030000  0.21390000  1.0 -0.0814930649
C  C65  1  0.78610000  0.62950000  0.63970000  1.0 -0.0814930649
C  C66  1  0.78610000  0.37050000  0.36030000  1.0 -0.0814930649
C  C67  1  0.21390000  0.37050000  0.63970000  1.0 -0.0814930649
C  C68  1  0.21390000  0.62950000  0.36030000  1.0 -0.0814930649
C  C69  1  0.63970000  0.78610000  0.62950000  1.0 -0.0814930649
C  C70  1  0.36030000  0.78610000  0.37050000  1.0 -0.0814930649
C  C71  1  0.63970000  0.21390000  0.37050000  1.0 -0.0814930649
C  C72  1  0.36030000  0.21390000  0.62950000  1.0 -0.0814930649
C  C73  1  0.36870000  0.33020000  0.18090000  1.0 -0.1560164634
C  C74  1  0.63130000  0.66980000  0.18090000  1.0 -0.1560164634
C  C75  1  0.63130000  0.33020000  0.81910000  1.0 -0.1560164634
C  C76  1  0.36870000  0.66980000  0.81910000  1.0 -0.1560164634
C  C77  1  0.18090000  0.36870000  0.33020000  1.0 -0.1560164634
C  C78  1  0.18090000  0.63130000  0.66980000  1.0 -0.1560164634
C  C79  1  0.81910000  0.63130000  0.33020000  1.0 -0.1560164634
C  C80  1  0.81910000  0.36870000  0.66980000  1.0 -0.1560164634
C  C81  1  0.33020000  0.18090000  0.36870000  1.0 -0.1560164634
C  C82  1  0.66980000  0.18090000  0.63130000  1.0 -0.1560164634
C  C83  1  0.33020000  0.81910000  0.63130000  1.0 -0.1560164634
C  C84  1  0.66980000  0.81910000  0.36870000  1.0 -0.1560164634
C  C85  1  0.63130000  0.66980000  0.81910000  1.0 -0.1560164634
C  C86  1  0.36870000  0.33020000  0.81910000  1.0 -0.1560164634
C  C87  1  0.36870000  0.66980000  0.18090000  1.0 -0.1560164634
C  C88  1  0.63130000  0.33020000  0.18090000  1.0 -0.1560164634
C  C89  1  0.81910000  0.63130000  0.66980000  1.0 -0.1560164634
C  C90  1  0.81910000  0.36870000  0.33020000  1.0 -0.1560164634
C  C91  1  0.18090000  0.36870000  0.66980000  1.0 -0.1560164634
C  C92  1  0.18090000  0.63130000  0.33020000  1.0 -0.1560164634
C  C93  1  0.66980000  0.81910000  0.63130000  1.0 -0.1560164634
C  C94  1  0.33020000  0.81910000  0.36870000  1.0 -0.1560164634
C  C95  1  0.66980000  0.18090000  0.36870000  1.0 -0.1560164634
C  C96  1  0.33020000  0.18090000  0.63130000  1.0 -0.1560164634
C  C97  1  0.39210000  0.33670000  0.14340000  1.0 0.2229978684
C  C98  1  0.60790000  0.66330000  0.14340000  1.0 0.2229978684
C  C99  1  0.60790000  0.33670000  0.85660000  1.0 0.2229978684
C  C100  1  0.39210000  0.66330000  0.85660000  1.0 0.2229978684
C  C101  1  0.14340000  0.39210000  0.33670000  1.0 0.2229978684
C  C102  1  0.14340000  0.60790000  0.66330000  1.0 0.2229978684
C  C103  1  0.85660000  0.60790000  0.33670000  1.0 0.2229978684
C  C104  1  0.85660000  0.39210000  0.66330000  1.0 0.2229978684
C  C105  1  0.33670000  0.14340000  0.39210000  1.0 0.2229978684
C  C106  1  0.66330000  0.14340000  0.60790000  1.0 0.2229978684
C  C107  1  0.33670000  0.85660000  0.60790000  1.0 0.2229978684
C  C108  1  0.66330000  0.85660000  0.39210000  1.0 0.2229978684
C  C109  1  0.60790000  0.66330000  0.85660000  1.0 0.2229978684
C  C110  1  0.39210000  0.33670000  0.85660000  1.0 0.2229978684
C  C111  1  0.39210000  0.66330000  0.14340000  1.0 0.2229978684
C  C112  1  0.60790000  0.33670000  0.14340000  1.0 0.2229978684
C  C113  1  0.85660000  0.60790000  0.66330000  1.0 0.2229978684
C  C114  1  0.85660000  0.39210000  0.33670000  1.0 0.2229978684
C  C115  1  0.14340000  0.39210000  0.66330000  1.0 0.2229978684
C  C116  1  0.14340000  0.60790000  0.33670000  1.0 0.2229978684
C  C117  1  0.66330000  0.85660000  0.60790000  1.0 0.2229978684
C  C118  1  0.33670000  0.85660000  0.39210000  1.0 0.2229978684
C  C119  1  0.66330000  0.14340000  0.39210000  1.0 0.2229978684
C  C120  1  0.33670000  0.14340000  0.60790000  1.0 0.2229978684
C  C121  1  0.41730000  0.37330000  0.13890000  1.0 -0.1795951531
C  C122  1  0.58270000  0.62670000  0.13890000  1.0 -0.1795951531
C  C123  1  0.58270000  0.37330000  0.86110000  1.0 -0.1795951531
C  C124  1  0.41730000  0.62670000  0.86110000  1.0 -0.1795951531
C  C125  1  0.13890000  0.41730000  0.37330000  1.0 -0.1795951531
C  C126  1  0.13890000  0.58270000  0.62670000  1.0 -0.1795951531
C  C127  1  0.86110000  0.58270000  0.37330000  1.0 -0.1795951531
C  C128  1  0.86110000  0.41730000  0.62670000  1.0 -0.1795951531
C  C129  1  0.37330000  0.13890000  0.41730000  1.0 -0.1795951531
C  C130  1  0.62670000  0.13890000  0.58270000  1.0 -0.1795951531
C  C131  1  0.37330000  0.86110000  0.58270000  1.0 -0.1795951531
C  C132  1  0.62670000  0.86110000  0.41730000  1.0 -0.1795951531
C  C133  1  0.58270000  0.62670000  0.86110000  1.0 -0.1795951531
C  C134  1  0.41730000  0.37330000  0.86110000  1.0 -0.1795951531
C  C135  1  0.41730000  0.62670000  0.13890000  1.0 -0.1795951531
C  C136  1  0.58270000  0.37330000  0.13890000  1.0 -0.1795951531
C  C137  1  0.86110000  0.58270000  0.62670000  1.0 -0.1795951531
C  C138  1  0.86110000  0.41730000  0.37330000  1.0 -0.1795951531
C  C139  1  0.13890000  0.41730000  0.62670000  1.0 -0.1795951531
C  C140  1  0.13890000  0.58270000  0.37330000  1.0 -0.1795951531
C  C141  1  0.62670000  0.86110000  0.58270000  1.0 -0.1795951531
C  C142  1  0.37330000  0.86110000  0.41730000  1.0 -0.1795951531
C  C143  1  0.62670000  0.13890000  0.41730000  1.0 -0.1795951531
C  C144  1  0.37330000  0.13890000  0.58270000  1.0 -0.1795951531
C  C145  1  0.44470000  0.44050000  0.17580000  1.0 0.5609812159
C  C146  1  0.55530000  0.55950000  0.17580000  1.0 0.5609812159
C  C147  1  0.55530000  0.44050000  0.82420000  1.0 0.5609812159
C  C148  1  0.44470000  0.55950000  0.82420000  1.0 0.5609812159
C  C149  1  0.17580000  0.44470000  0.44050000  1.0 0.5609812159
C  C150  1  0.17580000  0.55530000  0.55950000  1.0 0.5609812159
C  C151  1  0.82420000  0.55530000  0.44050000  1.0 0.5609812159
C  C152  1  0.82420000  0.44470000  0.55950000  1.0 0.5609812159
C  C153  1  0.44050000  0.17580000  0.44470000  1.0 0.5609812159
C  C154  1  0.55950000  0.17580000  0.55530000  1.0 0.5609812159
C  C155  1  0.44050000  0.82420000  0.55530000  1.0 0.5609812159
C  C156  1  0.55950000  0.82420000  0.44470000  1.0 0.5609812159
C  C157  1  0.55530000  0.55950000  0.82420000  1.0 0.5609812159
C  C158  1  0.44470000  0.44050000  0.82420000  1.0 0.5609812159
C  C159  1  0.44470000  0.55950000  0.17580000  1.0 0.5609812159
C  C160  1  0.55530000  0.44050000  0.17580000  1.0 0.5609812159
C  C161  1  0.82420000  0.55530000  0.55950000  1.0 0.5609812159
C  C162  1  0.82420000  0.44470000  0.44050000  1.0 0.5609812159
C  C163  1  0.17580000  0.44470000  0.55950000  1.0 0.5609812159
C  C164  1  0.17580000  0.55530000  0.44050000  1.0 0.5609812159
C  C165  1  0.55950000  0.82420000  0.55530000  1.0 0.5609812159
C  C166  1  0.44050000  0.82420000  0.44470000  1.0 0.5609812159
C  C167  1  0.55950000  0.17580000  0.44470000  1.0 0.5609812159
C  C168  1  0.44050000  0.17580000  0.55530000  1.0 0.5609812159
C  C169  1  0.34700000  0.34480000  0.24880000  1.0 0.5688743536
C  C170  1  0.65300000  0.65520000  0.24880000  1.0 0.5688743536
C  C171  1  0.65300000  0.34480000  0.75120000  1.0 0.5688743536
C  C172  1  0.34700000  0.65520000  0.75120000  1.0 0.5688743536
C  C173  1  0.24880000  0.34700000  0.34480000  1.0 0.5688743536
C  C174  1  0.24880000  0.65300000  0.65520000  1.0 0.5688743536
C  C175  1  0.75120000  0.65300000  0.34480000  1.0 0.5688743536
C  C176  1  0.75120000  0.34700000  0.65520000  1.0 0.5688743536
C  C177  1  0.34480000  0.24880000  0.34700000  1.0 0.5688743536
C  C178  1  0.65520000  0.24880000  0.65300000  1.0 0.5688743536
C  C179  1  0.34480000  0.75120000  0.65300000  1.0 0.5688743536
C  C180  1  0.65520000  0.75120000  0.34700000  1.0 0.5688743536
C  C181  1  0.65300000  0.65520000  0.75120000  1.0 0.5688743536
C  C182  1  0.34700000  0.34480000  0.75120000  1.0 0.5688743536
C  C183  1  0.34700000  0.65520000  0.24880000  1.0 0.5688743536
C  C184  1  0.65300000  0.34480000  0.24880000  1.0 0.5688743536
C  C185  1  0.75120000  0.65300000  0.65520000  1.0 0.5688743536
C  C186  1  0.75120000  0.34700000  0.34480000  1.0 0.5688743536
C  C187  1  0.24880000  0.34700000  0.65520000  1.0 0.5688743536
C  C188  1  0.24880000  0.65300000  0.34480000  1.0 0.5688743536
C  C189  1  0.65520000  0.75120000  0.65300000  1.0 0.5688743536
C  C190  1  0.34480000  0.75120000  0.34700000  1.0 0.5688743536
C  C191  1  0.65520000  0.24880000  0.34700000  1.0 0.5688743536
C  C192  1  0.34480000  0.24880000  0.65300000  1.0 0.5688743536
C  C193  1  0.35400000  0.29090000  0.08200000  1.0 0.4557321401
C  C194  1  0.64600000  0.70910000  0.08200000  1.0 0.4557321401
C  C195  1  0.64600000  0.29090000  0.91800000  1.0 0.4557321401
C  C196  1  0.35400000  0.70910000  0.91800000  1.0 0.4557321401
C  C197  1  0.08200000  0.35400000  0.29090000  1.0 0.4557321401
C  C198  1  0.08200000  0.64600000  0.70910000  1.0 0.4557321401
C  C199  1  0.91800000  0.64600000  0.29090000  1.0 0.4557321401
C  C200  1  0.91800000  0.35400000  0.70910000  1.0 0.4557321401
C  C201  1  0.29090000  0.08200000  0.35400000  1.0 0.4557321401
C  C202  1  0.70910000  0.08200000  0.64600000  1.0 0.4557321401
C  C203  1  0.29090000  0.91800000  0.64600000  1.0 0.4557321401
C  C204  1  0.70910000  0.91800000  0.35400000  1.0 0.4557321401
C  C205  1  0.64600000  0.70910000  0.91800000  1.0 0.4557321401
C  C206  1  0.35400000  0.29090000  0.91800000  1.0 0.4557321401
C  C207  1  0.35400000  0.70910000  0.08200000  1.0 0.4557321401
C  C208  1  0.64600000  0.29090000  0.08200000  1.0 0.4557321401
C  C209  1  0.91800000  0.64600000  0.70910000  1.0 0.4557321401
C  C210  1  0.91800000  0.35400000  0.29090000  1.0 0.4557321401
C  C211  1  0.08200000  0.35400000  0.70910000  1.0 0.4557321401
C  C212  1  0.08200000  0.64600000  0.29090000  1.0 0.4557321401
C  C213  1  0.70910000  0.91800000  0.64600000  1.0 0.4557321401
C  C214  1  0.29090000  0.91800000  0.35400000  1.0 0.4557321401
C  C215  1  0.70910000  0.08200000  0.35400000  1.0 0.4557321401
C  C216  1  0.29090000  0.08200000  0.64600000  1.0 0.4557321401
C  C217  1  0.35680000  0.29550000  0.00000000  1.0 -0.1672894961
C  C218  1  0.64320000  0.70450000  0.00000000  1.0 -0.1672894961
C  C219  1  0.64320000  0.29550000  0.00000000  1.0 -0.1672894961
C  C220  1  0.35680000  0.70450000  0.00000000  1.0 -0.1672894961
C  C221  1  0.00000000  0.35680000  0.29550000  1.0 -0.1672894961
C  C222  1  0.00000000  0.64320000  0.70450000  1.0 -0.1672894961
C  C223  1  0.00000000  0.64320000  0.29550000  1.0 -0.1672894961
C  C224  1  0.00000000  0.35680000  0.70450000  1.0 -0.1672894961
C  C225  1  0.29550000  0.00000000  0.35680000  1.0 -0.1672894961
C  C226  1  0.70450000  0.00000000  0.64320000  1.0 -0.1672894961
C  C227  1  0.29550000  0.00000000  0.64320000  1.0 -0.1672894961
C  C228  1  0.70450000  0.00000000  0.35680000  1.0 -0.1672894961
C  C229  1  0.36190000  0.27350000  0.03880000  1.0 -0.0315918298
C  C230  1  0.63810000  0.72650000  0.03880000  1.0 -0.0315918298
C  C231  1  0.63810000  0.27350000  0.96120000  1.0 -0.0315918298
C  C232  1  0.36190000  0.72650000  0.96120000  1.0 -0.0315918298
C  C233  1  0.03880000  0.36190000  0.27350000  1.0 -0.0315918298
C  C234  1  0.03880000  0.63810000  0.72650000  1.0 -0.0315918298
C  C235  1  0.96120000  0.63810000  0.27350000  1.0 -0.0315918298
C  C236  1  0.96120000  0.36190000  0.72650000  1.0 -0.0315918298
C  C237  1  0.27350000  0.03880000  0.36190000  1.0 -0.0315918298
C  C238  1  0.72650000  0.03880000  0.63810000  1.0 -0.0315918298
C  C239  1  0.27350000  0.96120000  0.63810000  1.0 -0.0315918298
C  C240  1  0.72650000  0.96120000  0.36190000  1.0 -0.0315918298
C  C241  1  0.63810000  0.72650000  0.96120000  1.0 -0.0315918298
C  C242  1  0.36190000  0.27350000  0.96120000  1.0 -0.0315918298
C  C243  1  0.36190000  0.72650000  0.03880000  1.0 -0.0315918298
C  C244  1  0.63810000  0.27350000  0.03880000  1.0 -0.0315918298
C  C245  1  0.96120000  0.63810000  0.72650000  1.0 -0.0315918298
C  C246  1  0.96120000  0.36190000  0.27350000  1.0 -0.0315918298
C  C247  1  0.03880000  0.36190000  0.72650000  1.0 -0.0315918298
C  C248  1  0.03880000  0.63810000  0.27350000  1.0 -0.0315918298
C  C249  1  0.72650000  0.96120000  0.63810000  1.0 -0.0315918298
C  C250  1  0.27350000  0.96120000  0.36190000  1.0 -0.0315918298
C  C251  1  0.72650000  0.03880000  0.36190000  1.0 -0.0315918298
C  C252  1  0.27350000  0.03880000  0.63810000  1.0 -0.0315918298
C  C253  1  0.37300000  0.23040000  0.03870000  1.0 -0.1197487311
C  C254  1  0.62700000  0.76960000  0.03870000  1.0 -0.1197487311
C  C255  1  0.62700000  0.23040000  0.96130000  1.0 -0.1197487311
C  C256  1  0.37300000  0.76960000  0.96130000  1.0 -0.1197487311
C  C257  1  0.03870000  0.37300000  0.23040000  1.0 -0.1197487311
C  C258  1  0.03870000  0.62700000  0.76960000  1.0 -0.1197487311
C  C259  1  0.96130000  0.62700000  0.23040000  1.0 -0.1197487311
C  C260  1  0.96130000  0.37300000  0.76960000  1.0 -0.1197487311
C  C261  1  0.23040000  0.03870000  0.37300000  1.0 -0.1197487311
C  C262  1  0.76960000  0.03870000  0.62700000  1.0 -0.1197487311
C  C263  1  0.23040000  0.96130000  0.62700000  1.0 -0.1197487311
C  C264  1  0.76960000  0.96130000  0.37300000  1.0 -0.1197487311
C  C265  1  0.62700000  0.76960000  0.96130000  1.0 -0.1197487311
C  C266  1  0.37300000  0.23040000  0.96130000  1.0 -0.1197487311
C  C267  1  0.37300000  0.76960000  0.03870000  1.0 -0.1197487311
C  C268  1  0.62700000  0.23040000  0.03870000  1.0 -0.1197487311
C  C269  1  0.96130000  0.62700000  0.76960000  1.0 -0.1197487311
C  C270  1  0.96130000  0.37300000  0.23040000  1.0 -0.1197487311
C  C271  1  0.03870000  0.37300000  0.76960000  1.0 -0.1197487311
C  C272  1  0.03870000  0.62700000  0.23040000  1.0 -0.1197487311
C  C273  1  0.76960000  0.96130000  0.62700000  1.0 -0.1197487311
C  C274  1  0.23040000  0.96130000  0.37300000  1.0 -0.1197487311
C  C275  1  0.76960000  0.03870000  0.37300000  1.0 -0.1197487311
C  C276  1  0.23040000  0.03870000  0.62700000  1.0 -0.1197487311
C  C277  1  0.37880000  0.20870000  0.00000000  1.0 -0.0814930649
C  C278  1  0.62120000  0.79130000  0.00000000  1.0 -0.0814930649
C  C279  1  0.62120000  0.20870000  0.00000000  1.0 -0.0814930649
C  C280  1  0.37880000  0.79130000  0.00000000  1.0 -0.0814930649
C  C281  1  0.00000000  0.37880000  0.20870000  1.0 -0.0814930649
C  C282  1  0.00000000  0.62120000  0.79130000  1.0 -0.0814930649
C  C283  1  0.00000000  0.62120000  0.20870000  1.0 -0.0814930649
C  C284  1  0.00000000  0.37880000  0.79130000  1.0 -0.0814930649
C  C285  1  0.20870000  0.00000000  0.37880000  1.0 -0.0814930649
C  C286  1  0.79130000  0.00000000  0.62120000  1.0 -0.0814930649
C  C287  1  0.20870000  0.00000000  0.62120000  1.0 -0.0814930649
C  C288  1  0.79130000  0.00000000  0.37880000  1.0 -0.0814930649
N  N1  1  0.38540000  0.31010000  0.10340000  1.0 -0.3544773217
N  N2  1  0.61460000  0.68990000  0.10340000  1.0 -0.3544773217
N  N3  1  0.61460000  0.31010000  0.89660000  1.0 -0.3551320787
N  N4  1  0.38540000  0.68990000  0.89660000  1.0 -0.3544773217
N  N5  1  0.10340000  0.38540000  0.31010000  1.0 -0.3544773217
N  N6  1  0.10340000  0.61460000  0.68990000  1.0 -0.3544773217
N  N7  1  0.89660000  0.61460000  0.31010000  1.0 -0.3544773217
N  N8  1  0.89660000  0.38540000  0.68990000  1.0 -0.3551320787
N  N9  1  0.31010000  0.10340000  0.38540000  1.0 -0.3544773217
N  N10  1  0.68990000  0.10340000  0.61460000  1.0 -0.3551320787
N  N11  1  0.31010000  0.89660000  0.61460000  1.0 -0.3544773217
N  N12  1  0.68990000  0.89660000  0.38540000  1.0 -0.3544773217
N  N13  1  0.61460000  0.68990000  0.89660000  1.0 -0.3544773217
N  N14  1  0.38540000  0.31010000  0.89660000  1.0 -0.3544773217
N  N15  1  0.38540000  0.68990000  0.10340000  1.0 -0.3544773217
N  N16  1  0.61460000  0.31010000  0.10340000  1.0 -0.3544773217
N  N17  1  0.89660000  0.61460000  0.68990000  1.0 -0.3551320787
N  N18  1  0.89660000  0.38540000  0.31010000  1.0 -0.3551320787
N  N19  1  0.10340000  0.38540000  0.68990000  1.0 -0.3544773217
N  N20  1  0.10340000  0.61460000  0.31010000  1.0 -0.3544773217
N  N21  1  0.68990000  0.89660000  0.61460000  1.0 -0.3544773217
N  N22  1  0.31010000  0.89660000  0.38540000  1.0 -0.3544773217
N  N23  1  0.68990000  0.10340000  0.38540000  1.0 -0.3551320787
N  N24  1  0.31010000  0.10340000  0.61460000  1.0 -0.3551320787
O  O1  1  0.45720000  0.45810000  0.14030000  1.0 -0.5382111426
O  O2  1  0.54280000  0.54190000  0.14030000  1.0 -0.5382111426
O  O3  1  0.54280000  0.45810000  0.85970000  1.0 -0.5382111426
O  O4  1  0.45720000  0.54190000  0.85970000  1.0 -0.5382111426
O  O5  1  0.14030000  0.45720000  0.45810000  1.0 -0.5382111426
O  O6  1  0.14030000  0.54280000  0.54190000  1.0 -0.5382111426
O  O7  1  0.85970000  0.54280000  0.45810000  1.0 -0.5382111426
O  O8  1  0.85970000  0.45720000  0.54190000  1.0 -0.5382111426
O  O9  1  0.45810000  0.14030000  0.45720000  1.0 -0.5382111426
O  O10  1  0.54190000  0.14030000  0.54280000  1.0 -0.5382111426
O  O11  1  0.45810000  0.85970000  0.54280000  1.0 -0.5382111426
O  O12  1  0.54190000  0.85970000  0.45720000  1.0 -0.5382111426
O  O13  1  0.54280000  0.54190000  0.85970000  1.0 -0.5382111426
O  O14  1  0.45720000  0.45810000  0.85970000  1.0 -0.5382111426
O  O15  1  0.45720000  0.54190000  0.14030000  1.0 -0.5382111426
O  O16  1  0.54280000  0.45810000  0.14030000  1.0 -0.5382111426
O  O17  1  0.85970000  0.54280000  0.54190000  1.0 -0.5382111426
O  O18  1  0.85970000  0.45720000  0.45810000  1.0 -0.5382111426
O  O19  1  0.14030000  0.45720000  0.54190000  1.0 -0.5382111426
O  O20  1  0.14030000  0.54280000  0.45810000  1.0 -0.5382111426
O  O21  1  0.54190000  0.85970000  0.54280000  1.0 -0.5382111426
O  O22  1  0.45810000  0.85970000  0.45720000  1.0 -0.5382111426
O  O23  1  0.54190000  0.14030000  0.45720000  1.0 -0.5382111426
O  O24  1  0.45810000  0.14030000  0.54280000  1.0 -0.5382111426
O  O25  1  0.45620000  0.45690000  0.21130000  1.0 -0.5105672236
O  O26  1  0.54380000  0.54310000  0.21130000  1.0 -0.5105672236
O  O27  1  0.54380000  0.45690000  0.78870000  1.0 -0.5105672236
O  O28  1  0.45620000  0.54310000  0.78870000  1.0 -0.5105672236
O  O29  1  0.21130000  0.45620000  0.45690000  1.0 -0.5105672236
O  O30  1  0.21130000  0.54380000  0.54310000  1.0 -0.5105672236
O  O31  1  0.78870000  0.54380000  0.45690000  1.0 -0.5105672236
O  O32  1  0.78870000  0.45620000  0.54310000  1.0 -0.5105672236
O  O33  1  0.45690000  0.21130000  0.45620000  1.0 -0.5105672236
O  O34  1  0.54310000  0.21130000  0.54380000  1.0 -0.5105672236
O  O35  1  0.45690000  0.78870000  0.54380000  1.0 -0.5105672236
O  O36  1  0.54310000  0.78870000  0.45620000  1.0 -0.5105672236
O  O37  1  0.54380000  0.54310000  0.78870000  1.0 -0.5105672236
O  O38  1  0.45620000  0.45690000  0.78870000  1.0 -0.5105672236
O  O39  1  0.45620000  0.54310000  0.21130000  1.0 -0.5105672236
O  O40  1  0.54380000  0.45690000  0.21130000  1.0 -0.5105672236
O  O41  1  0.78870000  0.54380000  0.54310000  1.0 -0.5105672236
O  O42  1  0.78870000  0.45620000  0.45690000  1.0 -0.5105672236
O  O43  1  0.21130000  0.45620000  0.54310000  1.0 -0.5105672236
O  O44  1  0.21130000  0.54380000  0.45690000  1.0 -0.5105672236
O  O45  1  0.54310000  0.78870000  0.54380000  1.0 -0.5105672236
O  O46  1  0.45690000  0.78870000  0.45620000  1.0 -0.5105672236
O  O47  1  0.54310000  0.21130000  0.45620000  1.0 -0.5105672236
O  O48  1  0.45690000  0.21130000  0.54380000  1.0 -0.5105672236
O  O49  1  0.35810000  0.35850000  0.28580000  1.0 -0.5469346748
O  O50  1  0.64190000  0.64150000  0.28580000  1.0 -0.5469346748
O  O51  1  0.64190000  0.35850000  0.71420000  1.0 -0.5469346748
O  O52  1  0.35810000  0.64150000  0.71420000  1.0 -0.5469346748
O  O53  1  0.28580000  0.35810000  0.35850000  1.0 -0.5469346748
O  O54  1  0.28580000  0.64190000  0.64150000  1.0 -0.5469346748
O  O55  1  0.71420000  0.64190000  0.35850000  1.0 -0.5469346748
O  O56  1  0.71420000  0.35810000  0.64150000  1.0 -0.5469346748
O  O57  1  0.35850000  0.28580000  0.35810000  1.0 -0.5469346748
O  O58  1  0.64150000  0.28580000  0.64190000  1.0 -0.5469346748
O  O59  1  0.35850000  0.71420000  0.64190000  1.0 -0.5469346748
O  O60  1  0.64150000  0.71420000  0.35810000  1.0 -0.5469346748
O  O61  1  0.64190000  0.64150000  0.71420000  1.0 -0.5469346748
O  O62  1  0.35810000  0.35850000  0.71420000  1.0 -0.5469346748
O  O63  1  0.35810000  0.64150000  0.28580000  1.0 -0.5469346748
O  O64  1  0.64190000  0.35850000  0.28580000  1.0 -0.5469346748
O  O65  1  0.71420000  0.64190000  0.64150000  1.0 -0.5469346748
O  O66  1  0.71420000  0.35810000  0.35850000  1.0 -0.5469346748
O  O67  1  0.28580000  0.35810000  0.64150000  1.0 -0.5469346748
O  O68  1  0.28580000  0.64190000  0.35850000  1.0 -0.5469346748
O  O69  1  0.64150000  0.71420000  0.64190000  1.0 -0.5469346748
O  O70  1  0.35850000  0.71420000  0.35810000  1.0 -0.5469346748
O  O71  1  0.64150000  0.28580000  0.35810000  1.0 -0.5469346748
O  O72  1  0.35850000  0.28580000  0.64190000  1.0 -0.5469346748
O  O73  1  0.31510000  0.31780000  0.24730000  1.0 -0.5977680317
O  O74  1  0.68490000  0.68220000  0.24730000  1.0 -0.5977680317
O  O75  1  0.68490000  0.31780000  0.75270000  1.0 -0.5977680317
O  O76  1  0.31510000  0.68220000  0.75270000  1.0 -0.5977680317
O  O77  1  0.24730000  0.31510000  0.31780000  1.0 -0.5977680317
O  O78  1  0.24730000  0.68490000  0.68220000  1.0 -0.5977680317
O  O79  1  0.75270000  0.68490000  0.31780000  1.0 -0.5977680317
O  O80  1  0.75270000  0.31510000  0.68220000  1.0 -0.5977680317
O  O81  1  0.31780000  0.24730000  0.31510000  1.0 -0.5977680317
O  O82  1  0.68220000  0.24730000  0.68490000  1.0 -0.5977680317
O  O83  1  0.31780000  0.75270000  0.68490000  1.0 -0.5977680317
O  O84  1  0.68220000  0.75270000  0.31510000  1.0 -0.5977680317
O  O85  1  0.68490000  0.68220000  0.75270000  1.0 -0.5977680317
O  O86  1  0.31510000  0.31780000  0.75270000  1.0 -0.5977680317
O  O87  1  0.31510000  0.68220000  0.24730000  1.0 -0.5977680317
O  O88  1  0.68490000  0.31780000  0.24730000  1.0 -0.5977680317
O  O89  1  0.75270000  0.68490000  0.68220000  1.0 -0.5977680317
O  O90  1  0.75270000  0.31510000  0.31780000  1.0 -0.5977680317
O  O91  1  0.24730000  0.31510000  0.68220000  1.0 -0.5977680317
O  O92  1  0.24730000  0.68490000  0.31780000  1.0 -0.5977680317
O  O93  1  0.68220000  0.75270000  0.68490000  1.0 -0.5977680317
O  O94  1  0.31780000  0.75270000  0.31510000  1.0 -0.5977680317
O  O95  1  0.68220000  0.24730000  0.31510000  1.0 -0.5977680317
O  O96  1  0.31780000  0.24730000  0.68490000  1.0 -0.5977680317
O  O97  1  0.32180000  0.27670000  0.10380000  1.0 -0.4736040936
O  O98  1  0.67820000  0.72330000  0.10380000  1.0 -0.4736040936
O  O99  1  0.67820000  0.27670000  0.89620000  1.0 -0.4736040936
O  O100  1  0.32180000  0.72330000  0.89620000  1.0 -0.4736040936
O  O101  1  0.10380000  0.32180000  0.27670000  1.0 -0.4736040936
O  O102  1  0.10380000  0.67820000  0.72330000  1.0 -0.4736040936
O  O103  1  0.89620000  0.67820000  0.27670000  1.0 -0.4736040936
O  O104  1  0.89620000  0.32180000  0.72330000  1.0 -0.4736040936
O  O105  1  0.27670000  0.10380000  0.32180000  1.0 -0.4736040936
O  O106  1  0.72330000  0.10380000  0.67820000  1.0 -0.4736040936
O  O107  1  0.27670000  0.89620000  0.67820000  1.0 -0.4736040936
O  O108  1  0.72330000  0.89620000  0.32180000  1.0 -0.4736040936
O  O109  1  0.67820000  0.72330000  0.89620000  1.0 -0.4736040936
O  O110  1  0.32180000  0.27670000  0.89620000  1.0 -0.4736040936
O  O111  1  0.32180000  0.72330000  0.10380000  1.0 -0.4736040936
O  O112  1  0.67820000  0.27670000  0.10380000  1.0 -0.4736040936
O  O113  1  0.89620000  0.67820000  0.72330000  1.0 -0.4736040936
O  O114  1  0.89620000  0.32180000  0.27670000  1.0 -0.4736040936
O  O115  1  0.10380000  0.32180000  0.72330000  1.0 -0.4736040936
O  O116  1  0.10380000  0.67820000  0.27670000  1.0 -0.4736040936
O  O117  1  0.72330000  0.89620000  0.67820000  1.0 -0.4736040936
O  O118  1  0.27670000  0.89620000  0.32180000  1.0 -0.4736040936
O  O119  1  0.72330000  0.10380000  0.32180000  1.0 -0.4736040936
O  O120  1  0.27670000  0.10380000  0.67820000  1.0 -0.4736040936
