# DDEC6 charges by PACMAN v1.1 (https://github.com/mtap-research/PACMAN-charge/)
data_YOGKIQ_FSR_pacman
_symmetry_space_group_name_H-M   'P 1'
_cell_length_a   28.26260000
_cell_length_b   28.26260000
_cell_length_c   28.26260000
_cell_angle_alpha   38.23570000
_cell_angle_beta   38.23570000
_cell_angle_gamma   38.23570000
_symmetry_Int_Tables_number   1
_chemical_formula_structural   Zn3H21C61(NO5)3
_chemical_formula_sum   'Zn12 H84 C244 N12 O60'
_cell_volume   7765.46921645
_cell_formula_units_Z   4
loop_
 _symmetry_equiv_pos_site_id
 _symmetry_equiv_pos_as_xyz
  1  'x, y, z'
loop_
 _atom_site_type_symbol
 _atom_site_label
 _atom_site_symmetry_multiplicity
 _atom_site_fract_x
 _atom_site_fract_y
 _atom_site_fract_z
 _atom_site_occupancy
 _atom_site_charge
Zn  Zn1  1  0.77757000  0.80849000  0.21032000  1.0 0.9182584859
Zn  Zn2  1  0.80849000  0.21032000  0.77757000  1.0 0.9182584859
Zn  Zn3  1  0.21032000  0.77757000  0.80849000  1.0 0.9182584859
Zn  Zn4  1  0.69151000  0.72243000  0.28968000  1.0 0.9182584859
Zn  Zn5  1  0.28968000  0.69151000  0.72243000  1.0 0.9182584859
Zn  Zn6  1  0.72243000  0.28968000  0.69151000  1.0 0.9182584859
Zn  Zn7  1  0.22243000  0.19151000  0.78968000  1.0 0.9182584859
Zn  Zn8  1  0.19151000  0.78968000  0.22243000  1.0 0.9182584859
Zn  Zn9  1  0.78968000  0.22243000  0.19151000  1.0 0.9182584859
Zn  Zn10  1  0.30849000  0.27757000  0.71032000  1.0 0.9182584859
Zn  Zn11  1  0.71032000  0.30849000  0.27757000  1.0 0.9182584859
Zn  Zn12  1  0.27757000  0.71032000  0.30849000  1.0 0.9182584859
H  H1  1  0.00340000  0.70620000  0.03170000  1.0 0.1372209268
H  H2  1  0.70620000  0.03170000  0.00340000  1.0 0.1372209268
H  H3  1  0.03170000  0.00340000  0.70620000  1.0 0.1372209268
H  H4  1  0.79380000  0.49660000  0.46830000  1.0 0.1372209268
H  H5  1  0.46830000  0.79380000  0.49660000  1.0 0.1372209268
H  H6  1  0.49660000  0.46830000  0.79380000  1.0 0.1372209268
H  H7  1  0.99660000  0.29380000  0.96830000  1.0 0.1372209268
H  H8  1  0.29380000  0.96830000  0.99660000  1.0 0.1372209268
H  H9  1  0.96830000  0.99660000  0.29380000  1.0 0.1372209268
H  H10  1  0.20620000  0.50340000  0.53170000  1.0 0.1372209268
H  H11  1  0.53170000  0.20620000  0.50340000  1.0 0.1372209268
H  H12  1  0.50340000  0.53170000  0.20620000  1.0 0.1372209268
H  H13  1  0.88660000  0.59950000  0.12530000  1.0 0.1289456973
H  H14  1  0.59950000  0.12530000  0.88660000  1.0 0.1289456973
H  H15  1  0.12530000  0.88660000  0.59950000  1.0 0.1289456973
H  H16  1  0.90050000  0.61340000  0.37470000  1.0 0.1289456973
H  H17  1  0.37470000  0.90050000  0.61340000  1.0 0.1289456973
H  H18  1  0.61340000  0.37470000  0.90050000  1.0 0.1289456973
H  H19  1  0.11340000  0.40050000  0.87470000  1.0 0.1289456973
H  H20  1  0.40050000  0.87470000  0.11340000  1.0 0.1289456973
H  H21  1  0.87470000  0.11340000  0.40050000  1.0 0.1289456973
H  H22  1  0.09950000  0.38660000  0.62530000  1.0 0.1289456973
H  H23  1  0.62530000  0.09950000  0.38660000  1.0 0.1289456973
H  H24  1  0.38660000  0.62530000  0.09950000  1.0 0.1289456973
H  H25  1  0.11630000  0.58490000  0.91860000  1.0 0.1289456973
H  H26  1  0.58490000  0.91860000  0.11630000  1.0 0.1289456973
H  H27  1  0.91860000  0.11630000  0.58490000  1.0 0.1289456973
H  H28  1  0.91510000  0.38370000  0.58140000  1.0 0.1289456973
H  H29  1  0.58140000  0.91510000  0.38370000  1.0 0.1289456973
H  H30  1  0.38370000  0.58140000  0.91510000  1.0 0.1289456973
H  H31  1  0.88370000  0.41510000  0.08140000  1.0 0.1289456973
H  H32  1  0.41510000  0.08140000  0.88370000  1.0 0.1289456973
H  H33  1  0.08140000  0.88370000  0.41510000  1.0 0.1289456973
H  H34  1  0.08490000  0.61630000  0.41860000  1.0 0.1289456973
H  H35  1  0.41860000  0.08490000  0.61630000  1.0 0.1289456973
H  H36  1  0.61630000  0.41860000  0.08490000  1.0 0.1289456973
H  H37  1  0.88020000  0.70170000  0.97700000  1.0 0.1162744296
H  H38  1  0.70170000  0.97700000  0.88020000  1.0 0.1162744296
H  H39  1  0.97700000  0.88020000  0.70170000  1.0 0.1162744296
H  H40  1  0.79830000  0.61980000  0.52300000  1.0 0.1162744296
H  H41  1  0.52300000  0.79830000  0.61980000  1.0 0.1162744296
H  H42  1  0.61980000  0.52300000  0.79830000  1.0 0.1162744296
H  H43  1  0.11980000  0.29830000  0.02300000  1.0 0.1162744296
H  H44  1  0.29830000  0.02300000  0.11980000  1.0 0.1162744296
H  H45  1  0.02300000  0.11980000  0.29830000  1.0 0.1162744296
H  H46  1  0.20170000  0.38020000  0.47700000  1.0 0.1162744296
H  H47  1  0.47700000  0.20170000  0.38020000  1.0 0.1162744296
H  H48  1  0.38020000  0.47700000  0.20170000  1.0 0.1162744296
H  H49  1  0.78680000  0.77360000  0.93400000  1.0 0.1126099042
H  H50  1  0.77360000  0.93400000  0.78680000  1.0 0.1126099042
H  H51  1  0.93400000  0.78680000  0.77360000  1.0 0.1126099042
H  H52  1  0.72640000  0.71320000  0.56600000  1.0 0.1126099042
H  H53  1  0.56600000  0.72640000  0.71320000  1.0 0.1126099042
H  H54  1  0.71320000  0.56600000  0.72640000  1.0 0.1126099042
H  H55  1  0.21320000  0.22640000  0.06600000  1.0 0.1126099042
H  H56  1  0.22640000  0.06600000  0.21320000  1.0 0.1126099042
H  H57  1  0.06600000  0.21320000  0.22640000  1.0 0.1126099042
H  H58  1  0.27360000  0.28680000  0.43400000  1.0 0.1126099042
H  H59  1  0.43400000  0.27360000  0.28680000  1.0 0.1126099042
H  H60  1  0.28680000  0.43400000  0.27360000  1.0 0.1126099042
H  H61  1  0.11400000  0.43310000  0.06550000  1.0 0.1162744296
H  H62  1  0.43310000  0.06550000  0.11400000  1.0 0.1162744296
H  H63  1  0.06550000  0.11400000  0.43310000  1.0 0.1162744296
H  H64  1  0.06690000  0.38600000  0.43450000  1.0 0.1162744296
H  H65  1  0.43450000  0.06690000  0.38600000  1.0 0.1162744296
H  H66  1  0.38600000  0.43450000  0.06690000  1.0 0.1162744296
H  H67  1  0.88600000  0.56690000  0.93450000  1.0 0.1162744296
H  H68  1  0.56690000  0.93450000  0.88600000  1.0 0.1162744296
H  H69  1  0.93450000  0.88600000  0.56690000  1.0 0.1162744296
H  H70  1  0.93310000  0.61400000  0.56550000  1.0 0.1162744296
H  H71  1  0.56550000  0.93310000  0.61400000  1.0 0.1162744296
H  H72  1  0.61400000  0.56550000  0.93310000  1.0 0.1162744296
H  H73  1  0.20930000  0.29310000  0.08950000  1.0 0.1162744296
H  H74  1  0.29310000  0.08950000  0.20930000  1.0 0.1162744296
H  H75  1  0.08950000  0.20930000  0.29310000  1.0 0.1162744296
H  H76  1  0.20690000  0.29070000  0.41050000  1.0 0.1162744296
H  H77  1  0.41050000  0.20690000  0.29070000  1.0 0.1162744296
H  H78  1  0.29070000  0.41050000  0.20690000  1.0 0.1162744296
H  H79  1  0.79070000  0.70690000  0.91050000  1.0 0.1162744296
H  H80  1  0.70690000  0.91050000  0.79070000  1.0 0.1162744296
H  H81  1  0.91050000  0.79070000  0.70690000  1.0 0.1162744296
H  H82  1  0.79310000  0.70930000  0.58950000  1.0 0.1162744296
H  H83  1  0.58950000  0.79310000  0.70930000  1.0 0.1162744296
H  H84  1  0.70930000  0.58950000  0.79310000  1.0 0.1162744296
C  C1  1  0.06985000  0.64855000  0.96575000  1.0 -0.0122184341
C  C2  1  0.64855000  0.96575000  0.06985000  1.0 -0.0122184341
C  C3  1  0.96575000  0.06985000  0.64855000  1.0 -0.0122184341
C  C4  1  0.85145000  0.43015000  0.53425000  1.0 -0.0122184341
C  C5  1  0.53425000  0.85145000  0.43015000  1.0 -0.0122184341
C  C6  1  0.43015000  0.53425000  0.85145000  1.0 -0.0122184341
C  C7  1  0.93015000  0.35145000  0.03425000  1.0 -0.0122184341
C  C8  1  0.35145000  0.03425000  0.93015000  1.0 -0.0122184341
C  C9  1  0.03425000  0.93015000  0.35145000  1.0 -0.0122184341
C  C10  1  0.14855000  0.56985000  0.46575000  1.0 -0.0122184341
C  C11  1  0.46575000  0.14855000  0.56985000  1.0 -0.0122184341
C  C12  1  0.56985000  0.46575000  0.14855000  1.0 -0.0122184341
C  C13  1  0.00259000  0.67559000  0.02889000  1.0 -0.1137189975
C  C14  1  0.67559000  0.02889000  0.00259000  1.0 -0.1137189975
C  C15  1  0.02889000  0.00259000  0.67559000  1.0 -0.1137189975
C  C16  1  0.82441000  0.49741000  0.47111000  1.0 -0.1137189975
C  C17  1  0.47111000  0.82441000  0.49741000  1.0 -0.1137189975
C  C18  1  0.49741000  0.47111000  0.82441000  1.0 -0.1137189975
C  C19  1  0.99741000  0.32441000  0.97111000  1.0 -0.1137189975
C  C20  1  0.32441000  0.97111000  0.99741000  1.0 -0.1137189975
C  C21  1  0.97111000  0.99741000  0.32441000  1.0 -0.1137189975
C  C22  1  0.17559000  0.50259000  0.52889000  1.0 -0.1137189975
C  C23  1  0.52889000  0.17559000  0.50259000  1.0 -0.1137189975
C  C24  1  0.50259000  0.52889000  0.17559000  1.0 -0.1137189975
C  C25  1  0.93399000  0.65769000  0.08809000  1.0 -0.0122184341
C  C26  1  0.65769000  0.08809000  0.93399000  1.0 -0.0122184341
C  C27  1  0.08809000  0.93399000  0.65769000  1.0 -0.0122184341
C  C28  1  0.84231000  0.56601000  0.41191000  1.0 -0.0122184341
C  C29  1  0.41191000  0.84231000  0.56601000  1.0 -0.0122184341
C  C30  1  0.56601000  0.41191000  0.84231000  1.0 -0.0122184341
C  C31  1  0.06601000  0.34231000  0.91191000  1.0 -0.0122184341
C  C32  1  0.34231000  0.91191000  0.06601000  1.0 -0.0122184341
C  C33  1  0.91191000  0.06601000  0.34231000  1.0 -0.0122184341
C  C34  1  0.15769000  0.43399000  0.58809000  1.0 -0.0122184341
C  C35  1  0.58809000  0.15769000  0.43399000  1.0 -0.0122184341
C  C36  1  0.43399000  0.58809000  0.15769000  1.0 -0.0122184341
C  C37  1  0.93336000  0.61216000  0.08436000  1.0 -0.149349278
C  C38  1  0.61216000  0.08436000  0.93336000  1.0 -0.149349278
C  C39  1  0.08436000  0.93336000  0.61216000  1.0 -0.149349278
C  C40  1  0.88784000  0.56664000  0.41564000  1.0 -0.149349278
C  C41  1  0.41564000  0.88784000  0.56664000  1.0 -0.149349278
C  C42  1  0.56664000  0.41564000  0.88784000  1.0 -0.149349278
C  C43  1  0.06664000  0.38784000  0.91564000  1.0 -0.149349278
C  C44  1  0.38784000  0.91564000  0.06664000  1.0 -0.149349278
C  C45  1  0.91564000  0.06664000  0.38784000  1.0 -0.149349278
C  C46  1  0.11216000  0.43336000  0.58436000  1.0 -0.149349278
C  C47  1  0.58436000  0.11216000  0.43336000  1.0 -0.149349278
C  C48  1  0.43336000  0.58436000  0.11216000  1.0 -0.149349278
C  C49  1  0.00072000  0.58462000  0.02102000  1.0 0.0656100439
C  C50  1  0.58462000  0.02102000  0.00072000  1.0 0.0656100439
C  C51  1  0.02102000  0.00072000  0.58462000  1.0 0.0656100439
C  C52  1  0.91538000  0.49928000  0.47898000  1.0 0.0656100439
C  C53  1  0.47898000  0.91538000  0.49928000  1.0 0.0656100439
C  C54  1  0.49928000  0.47898000  0.91538000  1.0 0.0656100439
C  C55  1  0.99928000  0.41538000  0.97898000  1.0 0.0656100439
C  C56  1  0.41538000  0.97898000  0.99928000  1.0 0.0656100439
C  C57  1  0.97898000  0.99928000  0.41538000  1.0 0.0656100439
C  C58  1  0.08462000  0.50072000  0.52102000  1.0 0.0626226203
C  C59  1  0.52102000  0.08462000  0.50072000  1.0 0.0626226203
C  C60  1  0.50072000  0.52102000  0.08462000  1.0 0.0656100439
C  C61  1  0.06936000  0.60366000  0.96196000  1.0 -0.149349278
C  C62  1  0.60366000  0.96196000  0.06936000  1.0 -0.149349278
C  C63  1  0.96196000  0.06936000  0.60366000  1.0 -0.149349278
C  C64  1  0.89634000  0.43064000  0.53804000  1.0 -0.149349278
C  C65  1  0.53804000  0.89634000  0.43064000  1.0 -0.149349278
C  C66  1  0.43064000  0.53804000  0.89634000  1.0 -0.149349278
C  C67  1  0.93064000  0.39634000  0.03804000  1.0 -0.149349278
C  C68  1  0.39634000  0.03804000  0.93064000  1.0 -0.149349278
C  C69  1  0.03804000  0.93064000  0.39634000  1.0 -0.149349278
C  C70  1  0.10366000  0.56936000  0.46196000  1.0 -0.149349278
C  C71  1  0.46196000  0.10366000  0.56936000  1.0 -0.149349278
C  C72  1  0.56936000  0.46196000  0.10366000  1.0 -0.149349278
C  C73  1  0.13951000  0.67631000  0.89551000  1.0 0.5968233498
C  C74  1  0.67631000  0.89551000  0.13951000  1.0 0.5968233498
C  C75  1  0.89551000  0.13951000  0.67631000  1.0 0.5968233498
C  C76  1  0.82369000  0.36049000  0.60449000  1.0 0.5968233498
C  C77  1  0.60449000  0.82369000  0.36049000  1.0 0.5968233498
C  C78  1  0.36049000  0.60449000  0.82369000  1.0 0.5968233498
C  C79  1  0.86049000  0.32369000  0.10449000  1.0 0.5968233498
C  C80  1  0.32369000  0.10449000  0.86049000  1.0 0.5968233498
C  C81  1  0.10449000  0.86049000  0.32369000  1.0 0.5968233498
C  C82  1  0.17631000  0.63951000  0.39551000  1.0 0.5968233498
C  C83  1  0.39551000  0.17631000  0.63951000  1.0 0.5968233498
C  C84  1  0.63951000  0.39551000  0.17631000  1.0 0.5968233498
C  C85  1  0.85842000  0.69262000  0.15222000  1.0 0.5968233498
C  C86  1  0.69262000  0.15222000  0.85842000  1.0 0.5968233498
C  C87  1  0.15222000  0.85842000  0.69262000  1.0 0.5968233498
C  C88  1  0.80738000  0.64158000  0.34778000  1.0 0.5968233498
C  C89  1  0.34778000  0.80738000  0.64158000  1.0 0.5968233498
C  C90  1  0.64158000  0.34778000  0.80738000  1.0 0.5968233498
C  C91  1  0.14158000  0.30738000  0.84778000  1.0 0.5968233498
C  C92  1  0.30738000  0.84778000  0.14158000  1.0 0.5968233498
C  C93  1  0.84778000  0.14158000  0.30738000  1.0 0.5968233498
C  C94  1  0.19262000  0.35842000  0.65222000  1.0 0.5968233498
C  C95  1  0.65222000  0.19262000  0.35842000  1.0 0.5968233498
C  C96  1  0.35842000  0.65222000  0.19262000  1.0 0.5968233498
C  C97  1  0.99847000  0.54117000  0.01227000  1.0 -0.0359683528
C  C98  1  0.54117000  0.01227000  0.99847000  1.0 -0.0359683528
C  C99  1  0.01227000  0.99847000  0.54117000  1.0 -0.0359683528
C  C100  1  0.95883000  0.50153000  0.48773000  1.0 -0.0359683528
C  C101  1  0.48773000  0.95883000  0.50153000  1.0 -0.0359683528
C  C102  1  0.50153000  0.48773000  0.95883000  1.0 -0.0359683528
C  C103  1  0.00153000  0.45883000  0.98773000  1.0 -0.0359683528
C  C104  1  0.45883000  0.98773000  0.00153000  1.0 -0.0359683528
C  C105  1  0.98773000  0.00153000  0.45883000  1.0 -0.0359683528
C  C106  1  0.04117000  0.49847000  0.51227000  1.0 -0.0359683528
C  C107  1  0.51227000  0.04117000  0.49847000  1.0 -0.0359683528
C  C108  1  0.49847000  0.51227000  0.04117000  1.0 -0.0359683528
C  C109  1  0.94135000  0.58565000  0.98615000  1.0 0.0390378582
C  C110  1  0.58565000  0.98615000  0.94135000  1.0 0.0390378582
C  C111  1  0.98615000  0.94135000  0.58565000  1.0 0.0390378582
C  C112  1  0.91435000  0.55865000  0.51385000  1.0 0.0390378582
C  C113  1  0.51385000  0.91435000  0.55865000  1.0 0.0390378582
C  C114  1  0.55865000  0.51385000  0.91435000  1.0 0.0390378582
C  C115  1  0.05865000  0.41435000  0.01385000  1.0 0.0390378582
C  C116  1  0.41435000  0.01385000  0.05865000  1.0 0.0390378582
C  C117  1  0.01385000  0.05865000  0.41435000  1.0 0.0390378582
C  C118  1  0.08565000  0.44135000  0.48615000  1.0 0.0390378582
C  C119  1  0.48615000  0.08565000  0.44135000  1.0 0.0390378582
C  C120  1  0.44135000  0.48615000  0.08565000  1.0 0.0390378582
C  C121  1  0.88167000  0.67307000  0.96957000  1.0 -0.149349278
C  C122  1  0.67307000  0.96957000  0.88167000  1.0 -0.149349278
C  C123  1  0.96957000  0.88167000  0.67307000  1.0 -0.149349278
C  C124  1  0.82693000  0.61833000  0.53043000  1.0 -0.149349278
C  C125  1  0.53043000  0.82693000  0.61833000  1.0 -0.149349278
C  C126  1  0.61833000  0.53043000  0.82693000  1.0 -0.149349278
C  C127  1  0.11833000  0.32693000  0.03043000  1.0 -0.149349278
C  C128  1  0.32693000  0.03043000  0.11833000  1.0 -0.149349278
C  C129  1  0.03043000  0.11833000  0.32693000  1.0 -0.149349278
C  C130  1  0.17307000  0.38167000  0.46957000  1.0 -0.149349278
C  C131  1  0.46957000  0.17307000  0.38167000  1.0 -0.149349278
C  C132  1  0.38167000  0.46957000  0.17307000  1.0 -0.149349278
C  C133  1  0.82673000  0.71603000  0.94333000  1.0 -0.1032424517
C  C134  1  0.71603000  0.94333000  0.82673000  1.0 -0.1032424517
C  C135  1  0.94333000  0.82673000  0.71603000  1.0 -0.1032424517
C  C136  1  0.78397000  0.67327000  0.55667000  1.0 -0.1032424517
C  C137  1  0.55667000  0.78397000  0.67327000  1.0 -0.1032424517
C  C138  1  0.67327000  0.55667000  0.78397000  1.0 -0.1032424517
C  C139  1  0.17327000  0.28397000  0.05667000  1.0 -0.1032424517
C  C140  1  0.28397000  0.05667000  0.17327000  1.0 -0.1032424517
C  C141  1  0.05667000  0.17327000  0.28397000  1.0 -0.1032424517
C  C142  1  0.21603000  0.32673000  0.44333000  1.0 -0.1032424517
C  C143  1  0.44333000  0.21603000  0.32673000  1.0 -0.1032424517
C  C144  1  0.32673000  0.44333000  0.21603000  1.0 -0.1032424517
C  C145  1  0.05727000  0.45547000  0.02657000  1.0 0.0390378582
C  C146  1  0.45547000  0.02657000  0.05727000  1.0 0.0390378582
C  C147  1  0.02657000  0.05727000  0.45547000  1.0 0.0390378582
C  C148  1  0.04453000  0.44273000  0.47343000  1.0 0.0390378582
C  C149  1  0.47343000  0.04453000  0.44273000  1.0 0.0390378582
C  C150  1  0.44273000  0.47343000  0.04453000  1.0 0.0390378582
C  C151  1  0.94273000  0.54453000  0.97343000  1.0 0.0390378582
C  C152  1  0.54453000  0.97343000  0.94273000  1.0 0.0390378582
C  C153  1  0.97343000  0.94273000  0.54453000  1.0 0.0390378582
C  C154  1  0.95547000  0.55727000  0.52657000  1.0 0.0390378582
C  C155  1  0.52657000  0.95547000  0.55727000  1.0 0.0390378582
C  C156  1  0.55727000  0.52657000  0.95547000  1.0 0.0390378582
C  C157  1  0.11507000  0.40677000  0.05587000  1.0 -0.149349278
C  C158  1  0.40677000  0.05587000  0.11507000  1.0 -0.149349278
C  C159  1  0.05587000  0.11507000  0.40677000  1.0 -0.149349278
C  C160  1  0.09323000  0.38493000  0.44413000  1.0 -0.149349278
C  C161  1  0.44413000  0.09323000  0.38493000  1.0 -0.149349278
C  C162  1  0.38493000  0.44413000  0.09323000  1.0 -0.149349278
C  C163  1  0.88493000  0.59323000  0.94413000  1.0 -0.149349278
C  C164  1  0.59323000  0.94413000  0.88493000  1.0 -0.149349278
C  C165  1  0.94413000  0.88493000  0.59323000  1.0 -0.149349278
C  C166  1  0.90677000  0.61507000  0.55587000  1.0 -0.149349278
C  C167  1  0.55587000  0.90677000  0.61507000  1.0 -0.149349278
C  C168  1  0.61507000  0.55587000  0.90677000  1.0 -0.149349278
C  C169  1  0.17141000  0.32381000  0.07031000  1.0 -0.1032424517
C  C170  1  0.32381000  0.07031000  0.17141000  1.0 -0.1032424517
C  C171  1  0.07031000  0.17141000  0.32381000  1.0 -0.1032424517
C  C172  1  0.17619000  0.32859000  0.42969000  1.0 -0.1032424517
C  C173  1  0.42969000  0.17619000  0.32859000  1.0 -0.1032424517
C  C174  1  0.32859000  0.42969000  0.17619000  1.0 -0.1032424517
C  C175  1  0.82859000  0.67619000  0.92969000  1.0 -0.1032424517
C  C176  1  0.67619000  0.92969000  0.82859000  1.0 -0.1032424517
C  C177  1  0.92969000  0.82859000  0.67619000  1.0 -0.1032424517
C  C178  1  0.82381000  0.67141000  0.57031000  1.0 -0.1032424517
C  C179  1  0.57031000  0.82381000  0.67141000  1.0 -0.1032424517
C  C180  1  0.67141000  0.57031000  0.82381000  1.0 -0.1032424517
C  C181  1  0.86382000  0.91542000  0.07912000  1.0 0.0530719696
C  C182  1  0.91542000  0.07912000  0.86382000  1.0 0.0530719696
C  C183  1  0.07912000  0.86382000  0.91542000  1.0 0.0530719696
C  C184  1  0.58458000  0.63618000  0.42088000  1.0 0.0530719696
C  C185  1  0.42088000  0.58458000  0.63618000  1.0 0.0530719696
C  C186  1  0.63618000  0.42088000  0.58458000  1.0 0.0530719696
C  C187  1  0.13618000  0.08458000  0.92088000  1.0 0.0530719696
C  C188  1  0.08458000  0.92088000  0.13618000  1.0 0.0626226203
C  C189  1  0.92088000  0.13618000  0.08458000  1.0 0.0626226203
C  C190  1  0.41542000  0.36382000  0.57912000  1.0 0.0530719696
C  C191  1  0.57912000  0.41542000  0.36382000  1.0 0.0530719696
C  C192  1  0.36382000  0.57912000  0.41542000  1.0 0.0530719696
C  C193  1  0.98250000  0.87220000  0.09600000  1.0 -0.1201030871
C  C194  1  0.87220000  0.09600000  0.98250000  1.0 -0.1201030871
C  C195  1  0.09600000  0.98250000  0.87220000  1.0 -0.1201030871
C  C196  1  0.62780000  0.51750000  0.40400000  1.0 -0.1201030871
C  C197  1  0.40400000  0.62780000  0.51750000  1.0 -0.1201030871
C  C198  1  0.51750000  0.40400000  0.62780000  1.0 -0.1201030871
C  C199  1  0.01750000  0.12780000  0.90400000  1.0 -0.1201030871
C  C200  1  0.12780000  0.90400000  0.01750000  1.0 -0.1201030871
C  C201  1  0.90400000  0.01750000  0.12780000  1.0 -0.1201030871
C  C202  1  0.37220000  0.48250000  0.59600000  1.0 -0.1201030871
C  C203  1  0.59600000  0.37220000  0.48250000  1.0 -0.1201030871
C  C204  1  0.48250000  0.59600000  0.37220000  1.0 -0.1201030871
C  C205  1  0.96814000  0.96814000  0.96814000  1.0 0.1126099042
C  C206  1  0.53186000  0.53186000  0.53186000  1.0 0.1126099042
C  C207  1  0.03186000  0.03186000  0.03186000  1.0 0.1126099042
C  C208  1  0.46814000  0.46814000  0.46814000  1.0 0.1126099042
C  C209  1  0.89595000  0.84985000  0.14325000  1.0 0.0626226203
C  C210  1  0.84985000  0.14325000  0.89595000  1.0 0.0626226203
C  C211  1  0.14325000  0.89595000  0.84985000  1.0 0.0626226203
C  C212  1  0.65015000  0.60405000  0.35675000  1.0 0.0626226203
C  C213  1  0.35675000  0.65015000  0.60405000  1.0 0.0626226203
C  C214  1  0.60405000  0.35675000  0.65015000  1.0 0.0626226203
C  C215  1  0.10405000  0.15015000  0.85675000  1.0 0.0626226203
C  C216  1  0.15015000  0.85675000  0.10405000  1.0 0.0656100439
C  C217  1  0.85675000  0.10405000  0.15015000  1.0 0.0626226203
C  C218  1  0.34985000  0.39595000  0.64325000  1.0 0.0656100439
C  C219  1  0.64325000  0.34985000  0.39595000  1.0 0.0626226203
C  C220  1  0.39595000  0.64325000  0.34985000  1.0 0.0626226203
C  C221  1  0.89450000  0.98820000  0.99750000  1.0 0.0038016017
C  C222  1  0.98820000  0.99750000  0.89450000  1.0 0.0061083529
C  C223  1  0.99750000  0.89450000  0.98820000  1.0 0.0038016017
C  C224  1  0.51180000  0.60550000  0.50250000  1.0 0.0061083529
C  C225  1  0.50250000  0.51180000  0.60550000  1.0 0.0061083529
C  C226  1  0.60550000  0.50250000  0.51180000  1.0 0.0061083529
C  C227  1  0.10550000  0.01180000  0.00250000  1.0 0.0061083529
C  C228  1  0.01180000  0.00250000  0.10550000  1.0 0.0061083529
C  C229  1  0.00250000  0.10550000  0.01180000  1.0 0.0061083529
C  C230  1  0.48820000  0.39450000  0.49750000  1.0 0.0061083529
C  C231  1  0.49750000  0.48820000  0.39450000  1.0 0.0038016017
C  C232  1  0.39450000  0.49750000  0.48820000  1.0 0.0061083529
C  C233  1  0.00948000  0.91268000  0.02038000  1.0 0.021569497
C  C234  1  0.91268000  0.02038000  0.00948000  1.0 0.021569497
C  C235  1  0.02038000  0.00948000  0.91268000  1.0 0.021569497
C  C236  1  0.58732000  0.49052000  0.47962000  1.0 0.021569497
C  C237  1  0.47962000  0.58732000  0.49052000  1.0 0.021569497
C  C238  1  0.49052000  0.47962000  0.58732000  1.0 0.021569497
C  C239  1  0.99052000  0.08732000  0.97962000  1.0 0.021569497
C  C240  1  0.08732000  0.97962000  0.99052000  1.0 0.021569497
C  C241  1  0.97962000  0.99052000  0.08732000  1.0 0.021569497
C  C242  1  0.41268000  0.50948000  0.52038000  1.0 0.021569497
C  C243  1  0.52038000  0.41268000  0.50948000  1.0 0.021569497
C  C244  1  0.50948000  0.52038000  0.41268000  1.0 0.021569497
N  N1  1  0.93122000  0.91030000  0.06178000  1.0 0.1126099042
N  N2  1  0.91030000  0.06178000  0.93122000  1.0 0.1126099042
N  N3  1  0.06178000  0.93122000  0.91030000  1.0 0.1126099042
N  N4  1  0.58970000  0.56878000  0.43822000  1.0 0.1162744296
N  N5  1  0.43822000  0.58970000  0.56878000  1.0 0.1126099042
N  N6  1  0.56878000  0.43822000  0.58970000  1.0 0.1162744296
N  N7  1  0.06878000  0.08970000  0.93822000  1.0 0.1126099042
N  N8  1  0.08970000  0.93822000  0.06878000  1.0 0.1126099042
N  N9  1  0.93822000  0.06878000  0.08970000  1.0 0.1126099042
N  N10  1  0.41030000  0.43122000  0.56178000  1.0 0.1126099042
N  N11  1  0.56178000  0.41030000  0.43122000  1.0 0.1126099042
N  N12  1  0.43122000  0.56178000  0.41030000  1.0 0.1126099042
O  O1  1  0.19602000  0.65412000  0.83722000  1.0 -0.5377919156
O  O2  1  0.65412000  0.83722000  0.19602000  1.0 -0.5377919156
O  O3  1  0.83722000  0.19602000  0.65412000  1.0 -0.5377919156
O  O4  1  0.84588000  0.30398000  0.66278000  1.0 -0.5377919156
O  O5  1  0.66278000  0.84588000  0.30398000  1.0 -0.5377919156
O  O6  1  0.30398000  0.66278000  0.84588000  1.0 -0.5377919156
O  O7  1  0.80398000  0.34588000  0.16278000  1.0 -0.5377919156
O  O8  1  0.34588000  0.16278000  0.80398000  1.0 -0.5377919156
O  O9  1  0.16278000  0.80398000  0.34588000  1.0 -0.5377919156
O  O10  1  0.15412000  0.69602000  0.33722000  1.0 -0.5377919156
O  O11  1  0.33722000  0.15412000  0.69602000  1.0 -0.5377919156
O  O12  1  0.69602000  0.33722000  0.15412000  1.0 -0.5377919156
O  O13  1  0.13396000  0.72056000  0.90106000  1.0 -0.5323846722
O  O14  1  0.72056000  0.90106000  0.13396000  1.0 -0.5323846722
O  O15  1  0.90106000  0.13396000  0.72056000  1.0 -0.5323846722
O  O16  1  0.77944000  0.36604000  0.59894000  1.0 -0.5323846722
O  O17  1  0.59894000  0.77944000  0.36604000  1.0 -0.5323846722
O  O18  1  0.36604000  0.59894000  0.77944000  1.0 -0.5323846722
O  O19  1  0.86604000  0.27944000  0.09894000  1.0 -0.5323846722
O  O20  1  0.27944000  0.09894000  0.86604000  1.0 -0.5323846722
O  O21  1  0.09894000  0.86604000  0.27944000  1.0 -0.5323846722
O  O22  1  0.22056000  0.63396000  0.40106000  1.0 -0.5323846722
O  O23  1  0.40106000  0.22056000  0.63396000  1.0 -0.5323846722
O  O24  1  0.63396000  0.40106000  0.22056000  1.0 -0.5323846722
O  O25  1  0.79795000  0.67425000  0.20445000  1.0 -0.5377919156
O  O26  1  0.67425000  0.20445000  0.79795000  1.0 -0.5377919156
O  O27  1  0.20445000  0.79795000  0.67425000  1.0 -0.5377919156
O  O28  1  0.82575000  0.70205000  0.29555000  1.0 -0.5377919156
O  O29  1  0.29555000  0.82575000  0.70205000  1.0 -0.5377919156
O  O30  1  0.70205000  0.29555000  0.82575000  1.0 -0.5377919156
O  O31  1  0.20205000  0.32575000  0.79555000  1.0 -0.5377919156
O  O32  1  0.32575000  0.79555000  0.20205000  1.0 -0.5323846722
O  O33  1  0.79555000  0.20205000  0.32575000  1.0 -0.5377919156
O  O34  1  0.17425000  0.29795000  0.70445000  1.0 -0.5377919156
O  O35  1  0.70445000  0.17425000  0.29795000  1.0 -0.5377919156
O  O36  1  0.29795000  0.70445000  0.17425000  1.0 -0.5377919156
O  O37  1  0.86044000  0.73804000  0.14864000  1.0 -0.5523047818
O  O38  1  0.73804000  0.14864000  0.86044000  1.0 -0.5523047818
O  O39  1  0.14864000  0.86044000  0.73804000  1.0 -0.5523047818
O  O40  1  0.76196000  0.63956000  0.35136000  1.0 -0.5523047818
O  O41  1  0.35136000  0.76196000  0.63956000  1.0 -0.5523047818
O  O42  1  0.63956000  0.35136000  0.76196000  1.0 -0.5523047818
O  O43  1  0.13956000  0.26196000  0.85136000  1.0 -0.5523047818
O  O44  1  0.26196000  0.85136000  0.13956000  1.0 -0.5523047818
O  O45  1  0.85136000  0.13956000  0.26196000  1.0 -0.5523047818
O  O46  1  0.23804000  0.36044000  0.64864000  1.0 -0.5523047818
O  O47  1  0.64864000  0.23804000  0.36044000  1.0 -0.5523047818
O  O48  1  0.36044000  0.64864000  0.23804000  1.0 -0.5523047818
O  O49  1  0.83203000  0.86993000  0.15373000  1.0 -0.149349278
O  O50  1  0.86993000  0.15373000  0.83203000  1.0 -0.149349278
O  O51  1  0.15373000  0.83203000  0.86993000  1.0 -0.149349278
O  O52  1  0.63007000  0.66797000  0.34627000  1.0 -0.149349278
O  O53  1  0.34627000  0.63007000  0.66797000  1.0 -0.149349278
O  O54  1  0.66797000  0.34627000  0.63007000  1.0 -0.149349278
O  O55  1  0.16797000  0.13007000  0.84627000  1.0 -0.149349278
O  O56  1  0.13007000  0.84627000  0.16797000  1.0 -0.149349278
O  O57  1  0.84627000  0.16797000  0.13007000  1.0 -0.149349278
O  O58  1  0.36993000  0.33203000  0.65373000  1.0 -0.149349278
O  O59  1  0.65373000  0.36993000  0.33203000  1.0 -0.149349278
O  O60  1  0.33203000  0.65373000  0.36993000  1.0 -0.149349278
