# DDEC6 charges by PACMAN v1.1 (https://github.com/mtap-research/PACMAN-charge/)
data_YOKZOQ_ASR_pacman
_symmetry_space_group_name_H-M   'P 1'
_cell_length_a   22.06700000
_cell_length_b   22.06700000
_cell_length_c   22.06700000
_cell_angle_alpha   50.21740000
_cell_angle_beta   50.21740000
_cell_angle_gamma   50.21740000
_symmetry_Int_Tables_number   1
_chemical_formula_structural   CuH11C18NO4
_chemical_formula_sum   'Cu6 H66 C108 N6 O24'
_cell_volume   5842.85885939
_cell_formula_units_Z   6
loop_
 _symmetry_equiv_pos_site_id
 _symmetry_equiv_pos_as_xyz
  1  'x, y, z'
loop_
 _atom_site_type_symbol
 _atom_site_label
 _atom_site_symmetry_multiplicity
 _atom_site_fract_x
 _atom_site_fract_y
 _atom_site_fract_z
 _atom_site_occupancy
 _atom_site_charge
Cu  Cu1  1  0.93466000  0.50436000  0.50436000  1.0 0.8635707685
Cu  Cu2  1  0.50436000  0.93466000  0.50436000  1.0 0.8635707685
Cu  Cu3  1  0.50436000  0.50436000  0.93466000  1.0 0.8635707685
Cu  Cu4  1  0.49564000  0.06534000  0.49564000  1.0 0.8635707685
Cu  Cu5  1  0.06534000  0.49564000  0.49564000  1.0 0.8635707685
Cu  Cu6  1  0.49564000  0.49564000  0.06534000  1.0 0.8635707685
H  H1  1  0.96680000  0.75282000  0.46048000  1.0 0.1286590435
H  H2  1  0.79746000  0.96229000  0.53556000  1.0 0.0918112889
H  H3  1  0.85676000  0.99886000  0.55872000  1.0 0.0796350242
H  H4  1  0.85261000  0.02451000  0.38559000  1.0 0.1024042192
H  H5  1  0.89535000  0.08554000  0.40087000  1.0 0.1024042192
H  H6  1  0.46048000  0.96680000  0.75282000  1.0 0.1286590435
H  H7  1  0.53556000  0.79746000  0.96229000  1.0 0.0918112889
H  H8  1  0.55872000  0.85676000  0.99886000  1.0 0.0796350242
H  H9  1  0.38559000  0.85261000  0.02451000  1.0 0.1024042192
H  H10  1  0.40087000  0.89535000  0.08554000  1.0 0.1024042192
H  H11  1  0.75282000  0.46048000  0.96680000  1.0 0.1286590435
H  H12  1  0.96229000  0.53556000  0.79746000  1.0 0.0918112889
H  H13  1  0.99886000  0.55872000  0.85676000  1.0 0.0796350242
H  H14  1  0.02451000  0.38559000  0.85261000  1.0 0.1024042192
H  H15  1  0.08554000  0.40087000  0.89535000  1.0 0.1024042192
H  H16  1  0.24718000  0.03320000  0.53952000  1.0 0.1286590435
H  H17  1  0.03771000  0.20254000  0.46444000  1.0 0.0918112889
H  H18  1  0.00114000  0.14324000  0.44128000  1.0 0.0796350242
H  H19  1  0.97549000  0.14739000  0.61441000  1.0 0.1024042192
H  H20  1  0.91446000  0.10465000  0.59913000  1.0 0.1024042192
H  H21  1  0.03320000  0.53952000  0.24718000  1.0 0.1286590435
H  H22  1  0.20254000  0.46444000  0.03771000  1.0 0.0918112889
H  H23  1  0.14324000  0.44128000  0.00114000  1.0 0.0796350242
H  H24  1  0.14739000  0.61441000  0.97549000  1.0 0.1024042192
H  H25  1  0.10465000  0.59913000  0.91446000  1.0 0.1024042192
H  H26  1  0.53952000  0.24718000  0.03320000  1.0 0.1286590435
H  H27  1  0.46444000  0.03771000  0.20254000  1.0 0.0918112889
H  H28  1  0.44128000  0.00114000  0.14324000  1.0 0.0796350242
H  H29  1  0.61441000  0.97549000  0.14739000  1.0 0.1024042192
H  H30  1  0.59913000  0.91446000  0.10465000  1.0 0.1024042192
H  H31  1  0.03320000  0.24718000  0.53952000  1.0 0.1286590435
H  H32  1  0.20254000  0.03771000  0.46444000  1.0 0.0918112889
H  H33  1  0.14324000  0.00114000  0.44128000  1.0 0.0796350242
H  H34  1  0.14739000  0.97549000  0.61441000  1.0 0.1024042192
H  H35  1  0.10465000  0.91446000  0.59913000  1.0 0.1024042192
H  H36  1  0.53952000  0.03320000  0.24718000  1.0 0.1286590435
H  H37  1  0.46444000  0.20254000  0.03771000  1.0 0.0918112889
H  H38  1  0.44128000  0.14324000  0.00114000  1.0 0.0796350242
H  H39  1  0.61441000  0.14739000  0.97549000  1.0 0.1024042192
H  H40  1  0.59913000  0.10465000  0.91446000  1.0 0.1024042192
H  H41  1  0.24718000  0.53952000  0.03320000  1.0 0.1286590435
H  H42  1  0.03771000  0.46444000  0.20254000  1.0 0.0918112889
H  H43  1  0.00114000  0.44128000  0.14324000  1.0 0.0796350242
H  H44  1  0.97549000  0.61441000  0.14739000  1.0 0.1024042192
H  H45  1  0.91446000  0.59913000  0.10465000  1.0 0.1024042192
H  H46  1  0.75282000  0.96680000  0.46048000  1.0 0.1286590435
H  H47  1  0.96229000  0.79746000  0.53556000  1.0 0.0918112889
H  H48  1  0.99886000  0.85676000  0.55872000  1.0 0.0796350242
H  H49  1  0.02451000  0.85261000  0.38559000  1.0 0.1024042192
H  H50  1  0.08554000  0.89535000  0.40087000  1.0 0.1024042192
H  H51  1  0.96680000  0.46048000  0.75282000  1.0 0.1286590435
H  H52  1  0.79746000  0.53556000  0.96229000  1.0 0.0918112889
H  H53  1  0.85676000  0.55872000  0.99886000  1.0 0.0796350242
H  H54  1  0.85261000  0.38559000  0.02451000  1.0 0.1024042192
H  H55  1  0.89535000  0.40087000  0.08554000  1.0 0.1024042192
H  H56  1  0.46048000  0.75282000  0.96680000  1.0 0.1286590435
H  H57  1  0.53556000  0.96229000  0.79746000  1.0 0.0918112889
H  H58  1  0.55872000  0.99886000  0.85676000  1.0 0.0796350242
H  H59  1  0.38559000  0.02451000  0.85261000  1.0 0.1024042192
H  H60  1  0.40087000  0.08554000  0.89535000  1.0 0.1024042192
H  H61  1  0.76975000  0.76975000  0.46852000  1.0 0.1483828017
H  H62  1  0.46852000  0.76975000  0.76975000  1.0 0.1483828017
H  H63  1  0.76975000  0.46852000  0.76975000  1.0 0.1483828017
H  H64  1  0.23025000  0.23025000  0.53148000  1.0 0.1483828017
H  H65  1  0.23025000  0.53148000  0.23025000  1.0 0.1483828017
H  H66  1  0.53148000  0.23025000  0.23025000  1.0 0.1483828017
C  C1  1  0.92410000  0.65701000  0.47237000  1.0 0.5866757818
C  C2  1  0.87626000  0.74729000  0.46485000  1.0 -0.0243691838
C  C3  1  0.91158000  0.78372000  0.46195000  1.0 -0.1556843456
C  C4  1  0.85632000  0.94792000  0.50802000  1.0 -0.0578508035
C  C5  1  0.89053000  0.97553000  0.51823000  1.0 -0.0726843592
C  C6  1  0.88413000  0.99003000  0.41893000  1.0 -0.1269483367
C  C7  1  0.91190000  0.02650000  0.42510000  1.0 -0.1225264841
C  C8  1  0.47237000  0.92410000  0.65701000  1.0 0.5866757818
C  C9  1  0.46485000  0.87626000  0.74729000  1.0 -0.0243691838
C  C10  1  0.46195000  0.91158000  0.78372000  1.0 -0.1556843456
C  C11  1  0.50802000  0.85632000  0.94792000  1.0 -0.0578508035
C  C12  1  0.51823000  0.89053000  0.97553000  1.0 -0.0726843592
C  C13  1  0.41893000  0.88413000  0.99003000  1.0 -0.1269483367
C  C14  1  0.42510000  0.91190000  0.02650000  1.0 -0.1225264841
C  C15  1  0.65701000  0.47237000  0.92410000  1.0 0.5866757818
C  C16  1  0.74729000  0.46485000  0.87626000  1.0 -0.0243691838
C  C17  1  0.78372000  0.46195000  0.91158000  1.0 -0.1556843456
C  C18  1  0.94792000  0.50802000  0.85632000  1.0 -0.0578508035
C  C19  1  0.97553000  0.51823000  0.89053000  1.0 -0.0726843592
C  C20  1  0.99003000  0.41893000  0.88413000  1.0 -0.1269483367
C  C21  1  0.02650000  0.42510000  0.91190000  1.0 -0.1225264841
C  C22  1  0.34299000  0.07590000  0.52763000  1.0 0.5866757818
C  C23  1  0.25271000  0.12374000  0.53515000  1.0 -0.0243691838
C  C24  1  0.21628000  0.08842000  0.53805000  1.0 -0.1556843456
C  C25  1  0.05208000  0.14368000  0.49198000  1.0 -0.0578508035
C  C26  1  0.02447000  0.10947000  0.48177000  1.0 -0.0726843592
C  C27  1  0.00997000  0.11587000  0.58107000  1.0 -0.1269483367
C  C28  1  0.97350000  0.08810000  0.57490000  1.0 -0.1225264841
C  C29  1  0.07590000  0.52763000  0.34299000  1.0 0.5866757818
C  C30  1  0.12374000  0.53515000  0.25271000  1.0 -0.0243691838
C  C31  1  0.08842000  0.53805000  0.21628000  1.0 -0.1556843456
C  C32  1  0.14368000  0.49198000  0.05208000  1.0 -0.0578508035
C  C33  1  0.10947000  0.48177000  0.02447000  1.0 -0.0726843592
C  C34  1  0.11587000  0.58107000  0.00997000  1.0 -0.1269483367
C  C35  1  0.08810000  0.57490000  0.97350000  1.0 -0.1225264841
C  C36  1  0.52763000  0.34299000  0.07590000  1.0 0.5866757818
C  C37  1  0.53515000  0.25271000  0.12374000  1.0 -0.0243691838
C  C38  1  0.53805000  0.21628000  0.08842000  1.0 -0.1556843456
C  C39  1  0.49198000  0.05208000  0.14368000  1.0 -0.0506610162
C  C40  1  0.48177000  0.02447000  0.10947000  1.0 -0.0726843592
C  C41  1  0.58107000  0.00997000  0.11587000  1.0 -0.1269483367
C  C42  1  0.57490000  0.97350000  0.08810000  1.0 -0.1225264841
C  C43  1  0.07590000  0.34299000  0.52763000  1.0 0.5866757818
C  C44  1  0.12374000  0.25271000  0.53515000  1.0 -0.0243691838
C  C45  1  0.08842000  0.21628000  0.53805000  1.0 -0.1556843456
C  C46  1  0.14368000  0.05208000  0.49198000  1.0 -0.0578508035
C  C47  1  0.10947000  0.02447000  0.48177000  1.0 -0.0726843592
C  C48  1  0.11587000  0.00997000  0.58107000  1.0 -0.1269483367
C  C49  1  0.08810000  0.97350000  0.57490000  1.0 -0.1225264841
C  C50  1  0.52763000  0.07590000  0.34299000  1.0 0.5866757818
C  C51  1  0.53515000  0.12374000  0.25271000  1.0 -0.0243691838
C  C52  1  0.53805000  0.08842000  0.21628000  1.0 -0.1556843456
C  C53  1  0.49198000  0.14368000  0.05208000  1.0 -0.0578508035
C  C54  1  0.48177000  0.10947000  0.02447000  1.0 -0.0726843592
C  C55  1  0.58107000  0.11587000  0.00997000  1.0 -0.1269483367
C  C56  1  0.57490000  0.08810000  0.97350000  1.0 -0.1225264841
C  C57  1  0.34299000  0.52763000  0.07590000  1.0 0.5866757818
C  C58  1  0.25271000  0.53515000  0.12374000  1.0 -0.0243691838
C  C59  1  0.21628000  0.53805000  0.08842000  1.0 -0.1556843456
C  C60  1  0.05208000  0.49198000  0.14368000  1.0 -0.0578508035
C  C61  1  0.02447000  0.48177000  0.10947000  1.0 -0.0726843592
C  C62  1  0.00997000  0.58107000  0.11587000  1.0 -0.1269483367
C  C63  1  0.97350000  0.57490000  0.08810000  1.0 -0.1225264841
C  C64  1  0.65701000  0.92410000  0.47237000  1.0 0.5866757818
C  C65  1  0.74729000  0.87626000  0.46485000  1.0 -0.0243691838
C  C66  1  0.78372000  0.91158000  0.46195000  1.0 -0.1556843456
C  C67  1  0.94792000  0.85632000  0.50802000  1.0 -0.0578508035
C  C68  1  0.97553000  0.89053000  0.51823000  1.0 -0.0726843592
C  C69  1  0.99003000  0.88413000  0.41893000  1.0 -0.1269483367
C  C70  1  0.02650000  0.91190000  0.42510000  1.0 -0.1225264841
C  C71  1  0.92410000  0.47237000  0.65701000  1.0 0.5866757818
C  C72  1  0.87626000  0.46485000  0.74729000  1.0 -0.0243691838
C  C73  1  0.91158000  0.46195000  0.78372000  1.0 -0.1556843456
C  C74  1  0.85632000  0.50802000  0.94792000  1.0 -0.0578508035
C  C75  1  0.89053000  0.51823000  0.97553000  1.0 -0.0726843592
C  C76  1  0.88413000  0.41893000  0.99003000  1.0 -0.1269483367
C  C77  1  0.91190000  0.42510000  0.02650000  1.0 -0.1225264841
C  C78  1  0.47237000  0.65701000  0.92410000  1.0 0.5866757818
C  C79  1  0.46485000  0.74729000  0.87626000  1.0 -0.0243691838
C  C80  1  0.46195000  0.78372000  0.91158000  1.0 -0.1556843456
C  C81  1  0.50802000  0.94792000  0.85632000  1.0 -0.0578508035
C  C82  1  0.51823000  0.97553000  0.89053000  1.0 -0.0726843592
C  C83  1  0.41893000  0.99003000  0.88413000  1.0 -0.1269483367
C  C84  1  0.42510000  0.02650000  0.91190000  1.0 -0.1225264841
C  C85  1  0.79382000  0.79382000  0.46641000  1.0 -0.1057308651
C  C86  1  0.86573000  0.86573000  0.46119000  1.0 0.0656656518
C  C87  1  0.90270000  0.90270000  0.46186000  1.0 0.0373221643
C  C88  1  0.96855000  0.96855000  0.47125000  1.0 0.0500644925
C  C89  1  0.46641000  0.79382000  0.79382000  1.0 -0.1057308651
C  C90  1  0.46119000  0.86573000  0.86573000  1.0 0.0656656518
C  C91  1  0.46186000  0.90270000  0.90270000  1.0 0.0373221643
C  C92  1  0.47125000  0.96855000  0.96855000  1.0 0.0500644925
C  C93  1  0.79382000  0.46641000  0.79382000  1.0 -0.1057308651
C  C94  1  0.86573000  0.46119000  0.86573000  1.0 0.0656656518
C  C95  1  0.90270000  0.46186000  0.90270000  1.0 0.0373221643
C  C96  1  0.96855000  0.47125000  0.96855000  1.0 0.0500644925
C  C97  1  0.20618000  0.20618000  0.53359000  1.0 -0.1057308651
C  C98  1  0.13427000  0.13427000  0.53881000  1.0 0.0656656518
C  C99  1  0.09730000  0.09730000  0.53814000  1.0 0.0373221643
C  C100  1  0.03145000  0.03145000  0.52875000  1.0 0.0500644925
C  C101  1  0.20618000  0.53359000  0.20618000  1.0 -0.1057308651
C  C102  1  0.13427000  0.53881000  0.13427000  1.0 0.0656656518
C  C103  1  0.09730000  0.53814000  0.09730000  1.0 0.0373221643
C  C104  1  0.03145000  0.52875000  0.03145000  1.0 0.0500644925
C  C105  1  0.53359000  0.20618000  0.20618000  1.0 -0.1057308651
C  C106  1  0.53881000  0.13427000  0.13427000  1.0 0.0656656518
C  C107  1  0.53814000  0.09730000  0.09730000  1.0 0.0373221643
C  C108  1  0.52875000  0.03145000  0.03145000  1.0 0.0500644925
N  N1  1  0.00159000  0.00159000  0.47819000  1.0 -0.0726843592
N  N2  1  0.47819000  0.00159000  0.00159000  1.0 -0.0726843592
N  N3  1  0.00159000  0.47819000  0.00159000  1.0 -0.0726843592
N  N4  1  0.99841000  0.99841000  0.52181000  1.0 -0.0726843592
N  N5  1  0.99841000  0.52181000  0.99841000  1.0 -0.0726843592
N  N6  1  0.52181000  0.99841000  0.99841000  1.0 -0.0578508035
O  O1  1  0.88690000  0.62592000  0.47970000  1.0 -0.5128376579
O  O2  1  0.99691000  0.61868000  0.47221000  1.0 -0.5128376579
O  O3  1  0.47970000  0.88690000  0.62592000  1.0 -0.5128376579
O  O4  1  0.47221000  0.99691000  0.61868000  1.0 -0.5128376579
O  O5  1  0.62592000  0.47970000  0.88690000  1.0 -0.5128376579
O  O6  1  0.61868000  0.47221000  0.99691000  1.0 -0.5151929072
O  O7  1  0.37408000  0.11310000  0.52030000  1.0 -0.5128376579
O  O8  1  0.38132000  0.00309000  0.52779000  1.0 -0.5151929072
O  O9  1  0.11310000  0.52030000  0.37408000  1.0 -0.5128376579
O  O10  1  0.00309000  0.52779000  0.38132000  1.0 -0.5128376579
O  O11  1  0.52030000  0.37408000  0.11310000  1.0 -0.5128376579
O  O12  1  0.52779000  0.38132000  0.00309000  1.0 -0.5128376579
O  O13  1  0.11310000  0.37408000  0.52030000  1.0 -0.5128376579
O  O14  1  0.00309000  0.38132000  0.52779000  1.0 -0.5128376579
O  O15  1  0.52030000  0.11310000  0.37408000  1.0 -0.5128376579
O  O16  1  0.52779000  0.00309000  0.38132000  1.0 -0.5151929072
O  O17  1  0.37408000  0.52030000  0.11310000  1.0 -0.5128376579
O  O18  1  0.38132000  0.52779000  0.00309000  1.0 -0.5128376579
O  O19  1  0.62592000  0.88690000  0.47970000  1.0 -0.5128376579
O  O20  1  0.61868000  0.99691000  0.47221000  1.0 -0.5128376579
O  O21  1  0.88690000  0.47970000  0.62592000  1.0 -0.5128376579
O  O22  1  0.99691000  0.47221000  0.61868000  1.0 -0.5151929072
O  O23  1  0.47970000  0.62592000  0.88690000  1.0 -0.5128376579
O  O24  1  0.47221000  0.61868000  0.99691000  1.0 -0.5151929072
