# DDEC6 charges by PACMAN v1.1 (https://github.com/mtap-research/PACMAN-charge/)
data_YOLGUB_ASR_pacman
_symmetry_space_group_name_H-M   'P 1'
_cell_length_a   12.21900000
_cell_length_b   16.01500000
_cell_length_c   22.01400000
_cell_angle_alpha   90.00000000
_cell_angle_beta   99.22300000
_cell_angle_gamma   90.00000000
_symmetry_Int_Tables_number   1
_chemical_formula_structural   Cu9C19N11
_chemical_formula_sum   'Cu18 C38 N22'
_cell_volume   4252.16790135
_cell_formula_units_Z   2
loop_
 _symmetry_equiv_pos_site_id
 _symmetry_equiv_pos_as_xyz
  1  'x, y, z'
loop_
 _atom_site_type_symbol
 _atom_site_label
 _atom_site_symmetry_multiplicity
 _atom_site_fract_x
 _atom_site_fract_y
 _atom_site_fract_z
 _atom_site_occupancy
 _atom_site_charge
Cu  Cu1  1  0.74200000  0.33100000  0.89111000  1.0 0.5185265227
Cu  Cu2  1  0.25800000  0.83100000  0.10889000  1.0 0.5072011633
Cu  Cu3  1  0.03840000  0.33650000  0.75266000  1.0 0.1985950404
Cu  Cu4  1  0.96160000  0.83650000  0.24734000  1.0 0.1811738147
Cu  Cu5  1  0.38880000  0.49190000  0.82524000  1.0 0.4512681349
Cu  Cu6  1  0.61120000  0.99190000  0.17476000  1.0 0.4605872317
Cu  Cu7  1  0.41390000  0.80200000  0.80311000  1.0 0.7505969687
Cu  Cu8  1  0.58610000  0.30200000  0.19689000  1.0 0.7801766677
Cu  Cu9  1  0.91990000  0.40200000  0.10659000  1.0 0.313858269
Cu  Cu10  1  0.08010000  0.90200000  0.89341000  1.0 0.2732137723
Cu  Cu11  1  0.69670000  0.02040000  0.87651000  1.0 0.4776850476
Cu  Cu12  1  0.30330000  0.52040000  0.12349000  1.0 0.4776850476
Cu  Cu13  1  0.39470000  0.79360000  0.56978000  1.0 0.6178797765
Cu  Cu14  1  0.60530000  0.29360000  0.43022000  1.0 0.6284464879
Cu  Cu15  1  0.97550000  0.20080000  0.54604000  1.0 0.3593150362
Cu  Cu16  1  0.02450000  0.70080000  0.45396000  1.0 0.3370470984
Cu  Cu17  1  0.33410000  0.09150000  0.49852000  1.0 0.3593150362
Cu  Cu18  1  0.66590000  0.59150000  0.50148000  1.0 0.3667189165
C  C1  1  0.81000000  0.36800000  0.97090000  1.0 0.112558855
C  C2  1  0.19000000  0.86800000  0.02910000  1.0 0.112558855
C  C3  1  0.69550000  0.13860000  0.88520000  1.0 -0.2670152502
C  C4  1  0.30450000  0.63860000  0.11480000  1.0 -0.2928390668
C  C5  1  0.70500000  0.20840000  0.89030000  1.0 -0.0938735844
C  C6  1  0.29500000  0.70840000  0.10970000  1.0 -0.0731018947
C  C7  1  0.91800000  0.33710000  0.80090000  1.0 0.2091545707
C  C8  1  0.08200000  0.83710000  0.19910000  1.0 0.1886852665
C  C9  1  0.02300000  0.27900000  0.67540000  1.0 0.2595119758
C  C10  1  0.97700000  0.77900000  0.32460000  1.0 0.2799019499
C  C11  1  0.60300000  0.39240000  0.86180000  1.0 -0.1926029887
C  C12  1  0.39700000  0.89240000  0.13820000  1.0 -0.1680414991
C  C13  1  0.52600000  0.42890000  0.85090000  1.0 -0.1956895159
C  C14  1  0.47400000  0.92890000  0.14910000  1.0 -0.1926029887
C  C15  1  0.17100000  0.39700000  0.77720000  1.0 -0.0731018947
C  C16  1  0.82900000  0.89700000  0.22280000  1.0 -0.0731018947
C  C17  1  0.25100000  0.43080000  0.79490000  1.0 -0.1926029887
C  C18  1  0.74900000  0.93080000  0.20510000  1.0 -0.1622003631
C  C19  1  0.40300000  0.61070000  0.82860000  1.0 -0.1377177106
C  C20  1  0.59700000  0.11070000  0.17140000  1.0 -0.1451608257
C  C21  1  0.41800000  0.68200000  0.82600000  1.0 -0.2986315207
C  C22  1  0.58200000  0.18200000  0.17400000  1.0 -0.2825625555
C  C23  1  0.81300000  0.36450000  0.15440000  1.0 0.1641019119
C  C24  1  0.18700000  0.86450000  0.84560000  1.0 0.1886852665
C  C25  1  0.06700000  0.44400000  0.11510000  1.0 0.1811738147
C  C26  1  0.93300000  0.94400000  0.88490000  1.0 0.1886852665
C  C27  1  0.59100000  0.93610000  0.85290000  1.0 0.1985950404
C  C28  1  0.40900000  0.43610000  0.14710000  1.0 0.2091545707
C  C29  1  0.40300000  0.79700000  0.65680000  1.0 0.1811738147
C  C30  1  0.59700000  0.29700000  0.34320000  1.0 0.1811738147
C  C31  1  0.83000000  0.22210000  0.50080000  1.0 0.2176261081
C  C32  1  0.17000000  0.72210000  0.49920000  1.0 0.2091545707
C  C33  1  0.10200000  0.15300000  0.52050000  1.0 0.1811738147
C  C34  1  0.89800000  0.65300000  0.47950000  1.0 0.2091545707
C  C35  1  0.42500000  0.17630000  0.47530000  1.0 0.1702434256
C  C36  1  0.57500000  0.67630000  0.52470000  1.0 0.1702434256
C  C37  1  0.36900000  0.97900000  0.52050000  1.0 0.1985950404
C  C38  1  0.63100000  0.47900000  0.47950000  1.0 0.1811738147
N  N1  1  0.85100000  0.39020000  0.01920000  1.0 -0.2928390668
N  N2  1  0.14900000  0.89020000  0.98080000  1.0 -0.2825625555
N  N3  1  0.84810000  0.33310000  0.82920000  1.0 -0.3727850036
N  N4  1  0.15190000  0.83310000  0.17080000  1.0 -0.3536344783
N  N5  1  0.00400000  0.24400000  0.62850000  1.0 -0.4397209824
N  N6  1  0.99600000  0.74400000  0.37150000  1.0 -0.4512894865
N  N7  1  0.26360000  0.83960000  0.82580000  1.0 -0.4397209824
N  N8  1  0.73640000  0.33960000  0.17420000  1.0 -0.4331937151
N  N9  1  0.84400000  0.96990000  0.88170000  1.0 -0.4097705798
N  N10  1  0.15600000  0.46990000  0.11830000  1.0 -0.4097705798
N  N11  1  0.52850000  0.88320000  0.84040000  1.0 -0.507677666
N  N12  1  0.47150000  0.38320000  0.15960000  1.0 -0.5026280002
N  N13  1  0.40150000  0.80430000  0.71040000  1.0 -0.507677666
N  N14  1  0.59850000  0.30430000  0.28960000  1.0 -0.507677666
N  N15  1  0.25160000  0.74370000  0.52730000  1.0 -0.4397209824
N  N16  1  0.74840000  0.24370000  0.47270000  1.0 -0.4512894865
N  N17  1  0.18610000  0.13020000  0.50740000  1.0 -0.3886350708
N  N18  1  0.81390000  0.63020000  0.49260000  1.0 -0.4097705798
N  N19  1  0.51370000  0.72440000  0.53990000  1.0 -0.4397209824
N  N20  1  0.48630000  0.22440000  0.46010000  1.0 -0.4512894865
N  N21  1  0.39310000  0.91130000  0.53750000  1.0 -0.4597741083
N  N22  1  0.60690000  0.41130000  0.46250000  1.0 -0.4597741083
