# DDEC6 charges by PACMAN v1.1 (https://github.com/mtap-research/PACMAN-charge/)
data_YOLPAT_ASR_pacman
_symmetry_space_group_name_H-M   'P 1'
_cell_length_a   23.72960000
_cell_length_b   23.72960000
_cell_length_c   23.72960000
_cell_angle_alpha   90.00000000
_cell_angle_beta   90.00000000
_cell_angle_gamma   90.00000000
_symmetry_Int_Tables_number   1
_chemical_formula_structural   Yb12Cu24H132C108N48O95
_chemical_formula_sum   'Yb12 Cu24 H132 C108 N48 O95'
_cell_volume   13361.99339291
_cell_formula_units_Z   1
loop_
 _symmetry_equiv_pos_site_id
 _symmetry_equiv_pos_as_xyz
  1  'x, y, z'
loop_
 _atom_site_type_symbol
 _atom_site_label
 _atom_site_symmetry_multiplicity
 _atom_site_fract_x
 _atom_site_fract_y
 _atom_site_fract_z
 _atom_site_occupancy
 _atom_site_charge
Yb  Yb1  1  0.37149000  0.50000000  0.00000000  1.0 1.7879327198
Yb  Yb2  1  0.62851000  0.50000000  0.00000000  1.0 1.7879327198
Yb  Yb3  1  0.00000000  0.37149000  0.50000000  1.0 1.7879327198
Yb  Yb4  1  0.00000000  0.62851000  0.50000000  1.0 1.7879327198
Yb  Yb5  1  0.50000000  0.00000000  0.37149000  1.0 1.7879327198
Yb  Yb6  1  0.50000000  0.00000000  0.62851000  1.0 1.7879327198
Yb  Yb7  1  0.50000000  0.37149000  0.00000000  1.0 1.7879327198
Yb  Yb8  1  0.50000000  0.62851000  0.00000000  1.0 1.7879327198
Yb  Yb9  1  0.37149000  0.00000000  0.50000000  1.0 1.7879327198
Yb  Yb10  1  0.62851000  0.00000000  0.50000000  1.0 1.7879327198
Yb  Yb11  1  0.00000000  0.50000000  0.62851000  1.0 1.7879327198
Yb  Yb12  1  0.00000000  0.50000000  0.37149000  1.0 1.7879327198
Cu  Cu1  1  0.28464000  0.38363000  0.28464000  1.0 0.7114711191
Cu  Cu2  1  0.71536000  0.61637000  0.28464000  1.0 0.7114711191
Cu  Cu3  1  0.71536000  0.38363000  0.71536000  1.0 0.7114711191
Cu  Cu4  1  0.28464000  0.61637000  0.71536000  1.0 0.7114711191
Cu  Cu5  1  0.28464000  0.28464000  0.38363000  1.0 0.7114711191
Cu  Cu6  1  0.28464000  0.71536000  0.61637000  1.0 0.7114711191
Cu  Cu7  1  0.71536000  0.71536000  0.38363000  1.0 0.7114711191
Cu  Cu8  1  0.71536000  0.28464000  0.61637000  1.0 0.7114711191
Cu  Cu9  1  0.38363000  0.28464000  0.28464000  1.0 0.7114711191
Cu  Cu10  1  0.61637000  0.28464000  0.71536000  1.0 0.7114711191
Cu  Cu11  1  0.38363000  0.71536000  0.71536000  1.0 0.7114711191
Cu  Cu12  1  0.61637000  0.71536000  0.28464000  1.0 0.7114711191
Cu  Cu13  1  0.38363000  0.28464000  0.71536000  1.0 0.7114711191
Cu  Cu14  1  0.61637000  0.71536000  0.71536000  1.0 0.7114711191
Cu  Cu15  1  0.38363000  0.71536000  0.28464000  1.0 0.7114711191
Cu  Cu16  1  0.61637000  0.28464000  0.28464000  1.0 0.7114711191
Cu  Cu17  1  0.28464000  0.28464000  0.61637000  1.0 0.7114711191
Cu  Cu18  1  0.71536000  0.28464000  0.38363000  1.0 0.7114711191
Cu  Cu19  1  0.71536000  0.71536000  0.61637000  1.0 0.7114711191
Cu  Cu20  1  0.28464000  0.71536000  0.38363000  1.0 0.7114711191
Cu  Cu21  1  0.28464000  0.38363000  0.71536000  1.0 0.7114711191
Cu  Cu22  1  0.28464000  0.61637000  0.28464000  1.0 0.7114711191
Cu  Cu23  1  0.71536000  0.38363000  0.28464000  1.0 0.7114711191
Cu  Cu24  1  0.71536000  0.61637000  0.71536000  1.0 0.7114711191
H  H1  1  0.31650000  0.43220000  0.16370000  1.0 0.1214741325
H  H2  1  0.26700000  0.52500000  0.01900000  1.0 0.0780105514
H  H3  1  0.68350000  0.56780000  0.16370000  1.0 0.1214741325
H  H4  1  0.73300000  0.47500000  0.01900000  1.0 0.0780105514
H  H5  1  0.68350000  0.43220000  0.83630000  1.0 0.1214741325
H  H6  1  0.73300000  0.52500000  0.98100000  1.0 0.0780105514
H  H7  1  0.31650000  0.56780000  0.83630000  1.0 0.1214741325
H  H8  1  0.26700000  0.47500000  0.98100000  1.0 0.0780105514
H  H9  1  0.16370000  0.31650000  0.43220000  1.0 0.1214741325
H  H10  1  0.01900000  0.26700000  0.52500000  1.0 0.0780105514
H  H11  1  0.16370000  0.68350000  0.56780000  1.0 0.1214741325
H  H12  1  0.01900000  0.73300000  0.47500000  1.0 0.0780105514
H  H13  1  0.83630000  0.68350000  0.43220000  1.0 0.1214741325
H  H14  1  0.98100000  0.73300000  0.52500000  1.0 0.0780105514
H  H15  1  0.83630000  0.31650000  0.56780000  1.0 0.1214741325
H  H16  1  0.98100000  0.26700000  0.47500000  1.0 0.0780105514
H  H17  1  0.43220000  0.16370000  0.31650000  1.0 0.1214741325
H  H18  1  0.52500000  0.01900000  0.26700000  1.0 0.0780105514
H  H19  1  0.56780000  0.16370000  0.68350000  1.0 0.1214741325
H  H20  1  0.47500000  0.01900000  0.73300000  1.0 0.0780105514
H  H21  1  0.43220000  0.83630000  0.68350000  1.0 0.1214741325
H  H22  1  0.52500000  0.98100000  0.73300000  1.0 0.0780105514
H  H23  1  0.56780000  0.83630000  0.31650000  1.0 0.1214741325
H  H24  1  0.47500000  0.98100000  0.26700000  1.0 0.0780105514
H  H25  1  0.43220000  0.31650000  0.83630000  1.0 0.1214741325
H  H26  1  0.52500000  0.26700000  0.98100000  1.0 0.0780105514
H  H27  1  0.56780000  0.68350000  0.83630000  1.0 0.1214741325
H  H28  1  0.47500000  0.73300000  0.98100000  1.0 0.0780105514
H  H29  1  0.43220000  0.68350000  0.16370000  1.0 0.1214741325
H  H30  1  0.52500000  0.73300000  0.01900000  1.0 0.0780105514
H  H31  1  0.56780000  0.31650000  0.16370000  1.0 0.1214741325
H  H32  1  0.47500000  0.26700000  0.01900000  1.0 0.0780105514
H  H33  1  0.31650000  0.16370000  0.56780000  1.0 0.1214741325
H  H34  1  0.26700000  0.01900000  0.47500000  1.0 0.0780105514
H  H35  1  0.68350000  0.16370000  0.43220000  1.0 0.1214741325
H  H36  1  0.73300000  0.01900000  0.52500000  1.0 0.0780105514
H  H37  1  0.68350000  0.83630000  0.56780000  1.0 0.1214741325
H  H38  1  0.73300000  0.98100000  0.47500000  1.0 0.0780105514
H  H39  1  0.31650000  0.83630000  0.43220000  1.0 0.1214741325
H  H40  1  0.26700000  0.98100000  0.52500000  1.0 0.0780105514
H  H41  1  0.16370000  0.43220000  0.68350000  1.0 0.1214741325
H  H42  1  0.01900000  0.52500000  0.73300000  1.0 0.0780105514
H  H43  1  0.16370000  0.56780000  0.31650000  1.0 0.1214741325
H  H44  1  0.01900000  0.47500000  0.26700000  1.0 0.0780105514
H  H45  1  0.83630000  0.43220000  0.31650000  1.0 0.1214741325
H  H46  1  0.98100000  0.52500000  0.26700000  1.0 0.0780105514
H  H47  1  0.83630000  0.56780000  0.68350000  1.0 0.1214741325
H  H48  1  0.98100000  0.47500000  0.73300000  1.0 0.0780105514
H  H49  1  0.68350000  0.56780000  0.83630000  1.0 0.1214741325
H  H50  1  0.73300000  0.47500000  0.98100000  1.0 0.0780105514
H  H51  1  0.31650000  0.43220000  0.83630000  1.0 0.1214741325
H  H52  1  0.26700000  0.52500000  0.98100000  1.0 0.0780105514
H  H53  1  0.31650000  0.56780000  0.16370000  1.0 0.1214741325
H  H54  1  0.26700000  0.47500000  0.01900000  1.0 0.0780105514
H  H55  1  0.68350000  0.43220000  0.16370000  1.0 0.1214741325
H  H56  1  0.73300000  0.52500000  0.01900000  1.0 0.0780105514
H  H57  1  0.83630000  0.68350000  0.56780000  1.0 0.1214741325
H  H58  1  0.98100000  0.73300000  0.47500000  1.0 0.0780105514
H  H59  1  0.83630000  0.31650000  0.43220000  1.0 0.1214741325
H  H60  1  0.98100000  0.26700000  0.52500000  1.0 0.0780105514
H  H61  1  0.16370000  0.31650000  0.56780000  1.0 0.1214741325
H  H62  1  0.01900000  0.26700000  0.47500000  1.0 0.0780105514
H  H63  1  0.16370000  0.68350000  0.43220000  1.0 0.1214741325
H  H64  1  0.01900000  0.73300000  0.52500000  1.0 0.0780105514
H  H65  1  0.56780000  0.83630000  0.68350000  1.0 0.1214741325
H  H66  1  0.47500000  0.98100000  0.73300000  1.0 0.0780105514
H  H67  1  0.43220000  0.83630000  0.31650000  1.0 0.1214741325
H  H68  1  0.52500000  0.98100000  0.26700000  1.0 0.0780105514
H  H69  1  0.56780000  0.16370000  0.31650000  1.0 0.1214741325
H  H70  1  0.47500000  0.01900000  0.26700000  1.0 0.0780105514
H  H71  1  0.43220000  0.16370000  0.68350000  1.0 0.1214741325
H  H72  1  0.52500000  0.01900000  0.73300000  1.0 0.0780105514
H  H73  1  0.56780000  0.68350000  0.16370000  1.0 0.1214741325
H  H74  1  0.47500000  0.73300000  0.01900000  1.0 0.0780105514
H  H75  1  0.43220000  0.31650000  0.16370000  1.0 0.1214741325
H  H76  1  0.52500000  0.26700000  0.01900000  1.0 0.0780105514
H  H77  1  0.56780000  0.31650000  0.83630000  1.0 0.1214741325
H  H78  1  0.47500000  0.26700000  0.98100000  1.0 0.0780105514
H  H79  1  0.43220000  0.68350000  0.83630000  1.0 0.1214741325
H  H80  1  0.52500000  0.73300000  0.98100000  1.0 0.0780105514
H  H81  1  0.68350000  0.83630000  0.43220000  1.0 0.1214741325
H  H82  1  0.73300000  0.98100000  0.52500000  1.0 0.0780105514
H  H83  1  0.31650000  0.83630000  0.56780000  1.0 0.1214741325
H  H84  1  0.26700000  0.98100000  0.47500000  1.0 0.0780105514
H  H85  1  0.31650000  0.16370000  0.43220000  1.0 0.1214741325
H  H86  1  0.26700000  0.01900000  0.52500000  1.0 0.0780105514
H  H87  1  0.68350000  0.16370000  0.56780000  1.0 0.1214741325
H  H88  1  0.73300000  0.01900000  0.47500000  1.0 0.0780105514
H  H89  1  0.83630000  0.56780000  0.31650000  1.0 0.1214741325
H  H90  1  0.98100000  0.47500000  0.26700000  1.0 0.0780105514
H  H91  1  0.83630000  0.43220000  0.68350000  1.0 0.1214741325
H  H92  1  0.98100000  0.52500000  0.73300000  1.0 0.0780105514
H  H93  1  0.16370000  0.56780000  0.68350000  1.0 0.1214741325
H  H94  1  0.01900000  0.47500000  0.73300000  1.0 0.0780105514
H  H95  1  0.16370000  0.43220000  0.31650000  1.0 0.1214741325
H  H96  1  0.01900000  0.52500000  0.26700000  1.0 0.0780105514
H  H97  1  0.26700000  0.46930000  0.00000000  1.0 0.1214741325
H  H98  1  0.73300000  0.53070000  0.00000000  1.0 0.1214741325
H  H99  1  0.73300000  0.46930000  0.00000000  1.0 0.1214741325
H  H100  1  0.26700000  0.53070000  0.00000000  1.0 0.1214741325
H  H101  1  0.00000000  0.26700000  0.46930000  1.0 0.1214741325
H  H102  1  0.00000000  0.73300000  0.53070000  1.0 0.1214741325
H  H103  1  0.00000000  0.73300000  0.46930000  1.0 0.1214741325
H  H104  1  0.00000000  0.26700000  0.53070000  1.0 0.1214741325
H  H105  1  0.46930000  0.00000000  0.26700000  1.0 0.1214741325
H  H106  1  0.53070000  0.00000000  0.73300000  1.0 0.1214741325
H  H107  1  0.46930000  0.00000000  0.73300000  1.0 0.1214741325
H  H108  1  0.53070000  0.00000000  0.26700000  1.0 0.1214741325
H  H109  1  0.46930000  0.26700000  0.00000000  1.0 0.1214741325
H  H110  1  0.53070000  0.73300000  0.00000000  1.0 0.1214741325
H  H111  1  0.46930000  0.73300000  0.00000000  1.0 0.1214741325
H  H112  1  0.53070000  0.26700000  0.00000000  1.0 0.1214741325
H  H113  1  0.26700000  0.00000000  0.53070000  1.0 0.1214741325
H  H114  1  0.73300000  0.00000000  0.46930000  1.0 0.1214741325
H  H115  1  0.73300000  0.00000000  0.53070000  1.0 0.1214741325
H  H116  1  0.26700000  0.00000000  0.46930000  1.0 0.1214741325
H  H117  1  0.00000000  0.46930000  0.73300000  1.0 0.1214741325
H  H118  1  0.00000000  0.53070000  0.26700000  1.0 0.1214741325
H  H119  1  0.00000000  0.46930000  0.26700000  1.0 0.1214741325
H  H120  1  0.00000000  0.53070000  0.73300000  1.0 0.1214741325
H  H121  1  0.30380000  0.50000000  0.30380000  1.0 0.0562505522
H  H122  1  0.69620000  0.50000000  0.30380000  1.0 0.0562505522
H  H123  1  0.69620000  0.50000000  0.69620000  1.0 0.0562505522
H  H124  1  0.30380000  0.50000000  0.69620000  1.0 0.0562505522
H  H125  1  0.30380000  0.30380000  0.50000000  1.0 0.0562505522
H  H126  1  0.30380000  0.69620000  0.50000000  1.0 0.0562505522
H  H127  1  0.69620000  0.69620000  0.50000000  1.0 0.0562505522
H  H128  1  0.69620000  0.30380000  0.50000000  1.0 0.0562505522
H  H129  1  0.50000000  0.30380000  0.30380000  1.0 0.0562505522
H  H130  1  0.50000000  0.30380000  0.69620000  1.0 0.0562505522
H  H131  1  0.50000000  0.69620000  0.69620000  1.0 0.0562505522
H  H132  1  0.50000000  0.69620000  0.30380000  1.0 0.0562505522
C  C1  1  0.34060000  0.40310000  0.17430000  1.0 0.0287451717
C  C2  1  0.65940000  0.59690000  0.17430000  1.0 0.0287451717
C  C3  1  0.65940000  0.40310000  0.82570000  1.0 0.0287451717
C  C4  1  0.34060000  0.59690000  0.82570000  1.0 0.0287451717
C  C5  1  0.17430000  0.34060000  0.40310000  1.0 0.0287451717
C  C6  1  0.17430000  0.65940000  0.59690000  1.0 0.0287451717
C  C7  1  0.82570000  0.65940000  0.40310000  1.0 0.0287451717
C  C8  1  0.82570000  0.34060000  0.59690000  1.0 0.0287451717
C  C9  1  0.40310000  0.17430000  0.34060000  1.0 0.0287451717
C  C10  1  0.59690000  0.17430000  0.65940000  1.0 0.0287451717
C  C11  1  0.40310000  0.82570000  0.65940000  1.0 0.0287451717
C  C12  1  0.59690000  0.82570000  0.34060000  1.0 0.0287451717
C  C13  1  0.40310000  0.34060000  0.82570000  1.0 0.0287451717
C  C14  1  0.59690000  0.65940000  0.82570000  1.0 0.0287451717
C  C15  1  0.40310000  0.65940000  0.17430000  1.0 0.0287451717
C  C16  1  0.59690000  0.34060000  0.17430000  1.0 0.0287451717
C  C17  1  0.34060000  0.17430000  0.59690000  1.0 0.0287451717
C  C18  1  0.65940000  0.17430000  0.40310000  1.0 0.0287451717
C  C19  1  0.65940000  0.82570000  0.59690000  1.0 0.0287451717
C  C20  1  0.34060000  0.82570000  0.40310000  1.0 0.0287451717
C  C21  1  0.17430000  0.40310000  0.65940000  1.0 0.0287451717
C  C22  1  0.17430000  0.59690000  0.34060000  1.0 0.0287451717
C  C23  1  0.82570000  0.40310000  0.34060000  1.0 0.0287451717
C  C24  1  0.82570000  0.59690000  0.65940000  1.0 0.0287451717
C  C25  1  0.65940000  0.59690000  0.82570000  1.0 0.0287451717
C  C26  1  0.34060000  0.40310000  0.82570000  1.0 0.0287451717
C  C27  1  0.34060000  0.59690000  0.17430000  1.0 0.0287451717
C  C28  1  0.65940000  0.40310000  0.17430000  1.0 0.0287451717
C  C29  1  0.82570000  0.65940000  0.59690000  1.0 0.0287451717
C  C30  1  0.82570000  0.34060000  0.40310000  1.0 0.0287451717
C  C31  1  0.17430000  0.34060000  0.59690000  1.0 0.0287451717
C  C32  1  0.17430000  0.65940000  0.40310000  1.0 0.0287451717
C  C33  1  0.59690000  0.82570000  0.65940000  1.0 0.0287451717
C  C34  1  0.40310000  0.82570000  0.34060000  1.0 0.0287451717
C  C35  1  0.59690000  0.17430000  0.34060000  1.0 0.0287451717
C  C36  1  0.40310000  0.17430000  0.65940000  1.0 0.0287451717
C  C37  1  0.59690000  0.65940000  0.17430000  1.0 0.0287451717
C  C38  1  0.40310000  0.34060000  0.17430000  1.0 0.0287451717
C  C39  1  0.59690000  0.34060000  0.82570000  1.0 0.0287451717
C  C40  1  0.40310000  0.65940000  0.82570000  1.0 0.0287451717
C  C41  1  0.65940000  0.82570000  0.40310000  1.0 0.0287451717
C  C42  1  0.34060000  0.82570000  0.59690000  1.0 0.0287451717
C  C43  1  0.34060000  0.17430000  0.40310000  1.0 0.0287451717
C  C44  1  0.65940000  0.17430000  0.59690000  1.0 0.0287451717
C  C45  1  0.82570000  0.59690000  0.34060000  1.0 0.0287451717
C  C46  1  0.82570000  0.40310000  0.65940000  1.0 0.0287451717
C  C47  1  0.17430000  0.59690000  0.65940000  1.0 0.0287451717
C  C48  1  0.17430000  0.40310000  0.34060000  1.0 0.0287451717
C  C49  1  0.38170000  0.38170000  0.13910000  1.0 -0.1970894922
C  C50  1  0.39600000  0.39600000  0.08640000  1.0 0.5199257866
C  C51  1  0.61830000  0.61830000  0.13910000  1.0 -0.1970894922
C  C52  1  0.60400000  0.60400000  0.08640000  1.0 0.5199257866
C  C53  1  0.61830000  0.38170000  0.86090000  1.0 -0.1970894922
C  C54  1  0.60400000  0.39600000  0.91360000  1.0 0.5199257866
C  C55  1  0.38170000  0.61830000  0.86090000  1.0 -0.1970894922
C  C56  1  0.39600000  0.60400000  0.91360000  1.0 0.5199257866
C  C57  1  0.13910000  0.38170000  0.38170000  1.0 -0.1970894922
C  C58  1  0.08640000  0.39600000  0.39600000  1.0 0.5199257866
C  C59  1  0.13910000  0.61830000  0.61830000  1.0 -0.1970894922
C  C60  1  0.08640000  0.60400000  0.60400000  1.0 0.5199257866
C  C61  1  0.86090000  0.61830000  0.38170000  1.0 -0.1970894922
C  C62  1  0.91360000  0.60400000  0.39600000  1.0 0.5199257866
C  C63  1  0.86090000  0.38170000  0.61830000  1.0 -0.1970894922
C  C64  1  0.91360000  0.39600000  0.60400000  1.0 0.5199257866
C  C65  1  0.38170000  0.13910000  0.38170000  1.0 -0.1970894922
C  C66  1  0.39600000  0.08640000  0.39600000  1.0 0.5199257866
C  C67  1  0.61830000  0.13910000  0.61830000  1.0 -0.1970894922
C  C68  1  0.60400000  0.08640000  0.60400000  1.0 0.5199257866
C  C69  1  0.38170000  0.86090000  0.61830000  1.0 -0.1970894922
C  C70  1  0.39600000  0.91360000  0.60400000  1.0 0.5199257866
C  C71  1  0.61830000  0.86090000  0.38170000  1.0 -0.1970894922
C  C72  1  0.60400000  0.91360000  0.39600000  1.0 0.5199257866
C  C73  1  0.38170000  0.38170000  0.86090000  1.0 -0.1970894922
C  C74  1  0.39600000  0.39600000  0.91360000  1.0 0.5199257866
C  C75  1  0.61830000  0.61830000  0.86090000  1.0 -0.1970894922
C  C76  1  0.60400000  0.60400000  0.91360000  1.0 0.5199257866
C  C77  1  0.38170000  0.61830000  0.13910000  1.0 -0.1970894922
C  C78  1  0.39600000  0.60400000  0.08640000  1.0 0.5199257866
C  C79  1  0.61830000  0.38170000  0.13910000  1.0 -0.1970894922
C  C80  1  0.60400000  0.39600000  0.08640000  1.0 0.5199257866
C  C81  1  0.38170000  0.13910000  0.61830000  1.0 -0.1970894922
C  C82  1  0.39600000  0.08640000  0.60400000  1.0 0.5199257866
C  C83  1  0.61830000  0.13910000  0.38170000  1.0 -0.1970894922
C  C84  1  0.60400000  0.08640000  0.39600000  1.0 0.5199257866
C  C85  1  0.61830000  0.86090000  0.61830000  1.0 -0.1970894922
C  C86  1  0.60400000  0.91360000  0.60400000  1.0 0.5199257866
C  C87  1  0.38170000  0.86090000  0.38170000  1.0 -0.1970894922
C  C88  1  0.39600000  0.91360000  0.39600000  1.0 0.5199257866
C  C89  1  0.13910000  0.38170000  0.61830000  1.0 -0.1970894922
C  C90  1  0.08640000  0.39600000  0.60400000  1.0 0.5199257866
C  C91  1  0.13910000  0.61830000  0.38170000  1.0 -0.1970894922
C  C92  1  0.08640000  0.60400000  0.39600000  1.0 0.5199257866
C  C93  1  0.86090000  0.38170000  0.38170000  1.0 -0.1970894922
C  C94  1  0.91360000  0.39600000  0.39600000  1.0 0.5199257866
C  C95  1  0.86090000  0.61830000  0.61830000  1.0 -0.1970894922
C  C96  1  0.91360000  0.60400000  0.60400000  1.0 0.5199257866
C  C97  1  0.27610000  0.50000000  0.27610000  1.0 0.4099495397
C  C98  1  0.72390000  0.50000000  0.27610000  1.0 0.4099495397
C  C99  1  0.72390000  0.50000000  0.72390000  1.0 0.4099495397
C  C100  1  0.27610000  0.50000000  0.72390000  1.0 0.4099495397
C  C101  1  0.27610000  0.27610000  0.50000000  1.0 0.4099495397
C  C102  1  0.27610000  0.72390000  0.50000000  1.0 0.4099495397
C  C103  1  0.72390000  0.72390000  0.50000000  1.0 0.4099495397
C  C104  1  0.72390000  0.27610000  0.50000000  1.0 0.4099495397
C  C105  1  0.50000000  0.27610000  0.27610000  1.0 0.4099495397
C  C106  1  0.50000000  0.27610000  0.72390000  1.0 0.4099495397
C  C107  1  0.50000000  0.72390000  0.72390000  1.0 0.4099495397
C  C108  1  0.50000000  0.72390000  0.27610000  1.0 0.4099495397
N  N1  1  0.33840000  0.37860000  0.22420000  1.0 -0.1943230795
N  N2  1  0.66160000  0.62140000  0.22420000  1.0 -0.1943230795
N  N3  1  0.66160000  0.37860000  0.77580000  1.0 -0.1943230795
N  N4  1  0.33840000  0.62140000  0.77580000  1.0 -0.1943230795
N  N5  1  0.22420000  0.33840000  0.37860000  1.0 -0.1943230795
N  N6  1  0.22420000  0.66160000  0.62140000  1.0 -0.1943230795
N  N7  1  0.77580000  0.66160000  0.37860000  1.0 -0.1943230795
N  N8  1  0.77580000  0.33840000  0.62140000  1.0 -0.1943230795
N  N9  1  0.37860000  0.22420000  0.33840000  1.0 -0.1943230795
N  N10  1  0.62140000  0.22420000  0.66160000  1.0 -0.1943230795
N  N11  1  0.37860000  0.77580000  0.66160000  1.0 -0.1943230795
N  N12  1  0.62140000  0.77580000  0.33840000  1.0 -0.1943230795
N  N13  1  0.37860000  0.33840000  0.77580000  1.0 -0.1943230795
N  N14  1  0.62140000  0.66160000  0.77580000  1.0 -0.1943230795
N  N15  1  0.37860000  0.66160000  0.22420000  1.0 -0.1943230795
N  N16  1  0.62140000  0.33840000  0.22420000  1.0 -0.1943230795
N  N17  1  0.33840000  0.22420000  0.62140000  1.0 -0.1943230795
N  N18  1  0.66160000  0.22420000  0.37860000  1.0 -0.1943230795
N  N19  1  0.66160000  0.77580000  0.62140000  1.0 -0.1943230795
N  N20  1  0.33840000  0.77580000  0.37860000  1.0 -0.1943230795
N  N21  1  0.22420000  0.37860000  0.66160000  1.0 -0.1943230795
N  N22  1  0.22420000  0.62140000  0.33840000  1.0 -0.1943230795
N  N23  1  0.77580000  0.37860000  0.33840000  1.0 -0.1943230795
N  N24  1  0.77580000  0.62140000  0.66160000  1.0 -0.1943230795
N  N25  1  0.66160000  0.62140000  0.77580000  1.0 -0.1943230795
N  N26  1  0.33840000  0.37860000  0.77580000  1.0 -0.1943230795
N  N27  1  0.33840000  0.62140000  0.22420000  1.0 -0.1943230795
N  N28  1  0.66160000  0.37860000  0.22420000  1.0 -0.1943230795
N  N29  1  0.77580000  0.66160000  0.62140000  1.0 -0.1943230795
N  N30  1  0.77580000  0.33840000  0.37860000  1.0 -0.1943230795
N  N31  1  0.22420000  0.33840000  0.62140000  1.0 -0.1943230795
N  N32  1  0.22420000  0.66160000  0.37860000  1.0 -0.1943230795
N  N33  1  0.62140000  0.77580000  0.66160000  1.0 -0.1943230795
N  N34  1  0.37860000  0.77580000  0.33840000  1.0 -0.1943230795
N  N35  1  0.62140000  0.22420000  0.33840000  1.0 -0.1943230795
N  N36  1  0.37860000  0.22420000  0.66160000  1.0 -0.1943230795
N  N37  1  0.62140000  0.66160000  0.22420000  1.0 -0.1943230795
N  N38  1  0.37860000  0.33840000  0.22420000  1.0 -0.1943230795
N  N39  1  0.62140000  0.33840000  0.77580000  1.0 -0.1943230795
N  N40  1  0.37860000  0.66160000  0.77580000  1.0 -0.1943230795
N  N41  1  0.66160000  0.77580000  0.37860000  1.0 -0.1943230795
N  N42  1  0.33840000  0.77580000  0.62140000  1.0 -0.1943230795
N  N43  1  0.33840000  0.22420000  0.37860000  1.0 -0.1943230795
N  N44  1  0.66160000  0.22420000  0.62140000  1.0 -0.1943230795
N  N45  1  0.77580000  0.62140000  0.33840000  1.0 -0.1943230795
N  N46  1  0.77580000  0.37860000  0.66160000  1.0 -0.1943230795
N  N47  1  0.22420000  0.62140000  0.66160000  1.0 -0.1943230795
N  N48  1  0.22420000  0.37860000  0.33840000  1.0 -0.1943230795
O  O1  1  0.36580000  0.43370000  0.06200000  1.0 -0.6897692521
O  O2  1  0.63420000  0.56630000  0.06200000  1.0 -0.6897692521
O  O3  1  0.63420000  0.43370000  0.93800000  1.0 -0.6897692521
O  O4  1  0.36580000  0.56630000  0.93800000  1.0 -0.6897692521
O  O5  1  0.06200000  0.36580000  0.43370000  1.0 -0.6897692521
O  O6  1  0.06200000  0.63420000  0.56630000  1.0 -0.6897692521
O  O7  1  0.93800000  0.63420000  0.43370000  1.0 -0.6897692521
O  O8  1  0.93800000  0.36580000  0.56630000  1.0 -0.6897692521
O  O9  1  0.43370000  0.06200000  0.36580000  1.0 -0.6897692521
O  O10  1  0.56630000  0.06200000  0.63420000  1.0 -0.6897692521
O  O11  1  0.43370000  0.93800000  0.63420000  1.0 -0.6897692521
O  O12  1  0.56630000  0.93800000  0.36580000  1.0 -0.6897692521
O  O13  1  0.43370000  0.36580000  0.93800000  1.0 -0.6897692521
O  O14  1  0.56630000  0.63420000  0.93800000  1.0 -0.6897692521
O  O15  1  0.43370000  0.63420000  0.06200000  1.0 -0.6897692521
O  O16  1  0.56630000  0.36580000  0.06200000  1.0 -0.6897692521
O  O17  1  0.36580000  0.06200000  0.56630000  1.0 -0.6897692521
O  O18  1  0.63420000  0.06200000  0.43370000  1.0 -0.6897692521
O  O19  1  0.63420000  0.93800000  0.56630000  1.0 -0.6897692521
O  O20  1  0.36580000  0.93800000  0.43370000  1.0 -0.6897692521
O  O21  1  0.06200000  0.43370000  0.63420000  1.0 -0.6897692521
O  O22  1  0.06200000  0.56630000  0.36580000  1.0 -0.6897692521
O  O23  1  0.93800000  0.43370000  0.36580000  1.0 -0.6897692521
O  O24  1  0.93800000  0.56630000  0.63420000  1.0 -0.6897692521
O  O25  1  0.63420000  0.56630000  0.93800000  1.0 -0.6897692521
O  O26  1  0.36580000  0.43370000  0.93800000  1.0 -0.6897692521
O  O27  1  0.36580000  0.56630000  0.06200000  1.0 -0.6897692521
O  O28  1  0.63420000  0.43370000  0.06200000  1.0 -0.6897692521
O  O29  1  0.93800000  0.63420000  0.56630000  1.0 -0.6897692521
O  O30  1  0.93800000  0.36580000  0.43370000  1.0 -0.6897692521
O  O31  1  0.06200000  0.36580000  0.56630000  1.0 -0.6897692521
O  O32  1  0.06200000  0.63420000  0.43370000  1.0 -0.6897692521
O  O33  1  0.56630000  0.93800000  0.63420000  1.0 -0.6897692521
O  O34  1  0.43370000  0.93800000  0.36580000  1.0 -0.6897692521
O  O35  1  0.56630000  0.06200000  0.36580000  1.0 -0.6897692521
O  O36  1  0.43370000  0.06200000  0.63420000  1.0 -0.6897692521
O  O37  1  0.56630000  0.63420000  0.06200000  1.0 -0.6897692521
O  O38  1  0.43370000  0.36580000  0.06200000  1.0 -0.6897692521
O  O39  1  0.56630000  0.36580000  0.93800000  1.0 -0.6897692521
O  O40  1  0.43370000  0.63420000  0.93800000  1.0 -0.6897692521
O  O41  1  0.63420000  0.93800000  0.43370000  1.0 -0.6897692521
O  O42  1  0.36580000  0.93800000  0.56630000  1.0 -0.6897692521
O  O43  1  0.36580000  0.06200000  0.43370000  1.0 -0.6897692521
O  O44  1  0.63420000  0.06200000  0.56630000  1.0 -0.6897692521
O  O45  1  0.93800000  0.56630000  0.36580000  1.0 -0.6897692521
O  O46  1  0.93800000  0.43370000  0.63420000  1.0 -0.6897692521
O  O47  1  0.06200000  0.56630000  0.63420000  1.0 -0.6897692521
O  O48  1  0.06200000  0.43370000  0.36580000  1.0 -0.6897692521
O  O49  1  0.28500000  0.50000000  0.00000000  1.0 -0.4223504056
O  O50  1  0.71500000  0.50000000  0.00000000  1.0 -0.4223504056
O  O51  1  0.00000000  0.28500000  0.50000000  1.0 -0.4223504056
O  O52  1  0.00000000  0.71500000  0.50000000  1.0 -0.4223504056
O  O53  1  0.50000000  0.00000000  0.28500000  1.0 -0.4223504056
O  O54  1  0.50000000  0.00000000  0.71500000  1.0 -0.4223504056
O  O55  1  0.50000000  0.28500000  0.00000000  1.0 -0.4223504056
O  O56  1  0.50000000  0.71500000  0.00000000  1.0 -0.4223504056
O  O57  1  0.28500000  0.00000000  0.50000000  1.0 -0.4223504056
O  O58  1  0.71500000  0.00000000  0.50000000  1.0 -0.4223504056
O  O59  1  0.00000000  0.50000000  0.71500000  1.0 -0.4223504056
O  O60  1  0.00000000  0.50000000  0.28500000  1.0 -0.4223504056
O  O61  1  0.25310000  0.45530000  0.25310000  1.0 -0.4327318807
O  O62  1  0.74690000  0.54470000  0.25310000  1.0 -0.4327318807
O  O63  1  0.74690000  0.45530000  0.74690000  1.0 -0.4327318807
O  O64  1  0.25310000  0.54470000  0.74690000  1.0 -0.4327318807
O  O65  1  0.25310000  0.25310000  0.45530000  1.0 -0.4327318807
O  O66  1  0.25310000  0.74690000  0.54470000  1.0 -0.4327318807
O  O67  1  0.74690000  0.74690000  0.45530000  1.0 -0.4327318807
O  O68  1  0.74690000  0.25310000  0.54470000  1.0 -0.4327318807
O  O69  1  0.45530000  0.25310000  0.25310000  1.0 -0.4327318807
O  O70  1  0.54470000  0.25310000  0.74690000  1.0 -0.4327318807
O  O71  1  0.45530000  0.74690000  0.74690000  1.0 -0.4327318807
O  O72  1  0.54470000  0.74690000  0.25310000  1.0 -0.4327318807
O  O73  1  0.45530000  0.25310000  0.74690000  1.0 -0.4327318807
O  O74  1  0.54470000  0.74690000  0.74690000  1.0 -0.4327318807
O  O75  1  0.45530000  0.74690000  0.25310000  1.0 -0.4327318807
O  O76  1  0.54470000  0.25310000  0.25310000  1.0 -0.4327318807
O  O77  1  0.25310000  0.25310000  0.54470000  1.0 -0.4327318807
O  O78  1  0.74690000  0.25310000  0.45530000  1.0 -0.4327318807
O  O79  1  0.74690000  0.74690000  0.54470000  1.0 -0.4327318807
O  O80  1  0.25310000  0.74690000  0.45530000  1.0 -0.4327318807
O  O81  1  0.25310000  0.45530000  0.74690000  1.0 -0.4327318807
O  O82  1  0.25310000  0.54470000  0.25310000  1.0 -0.4327318807
O  O83  1  0.74690000  0.45530000  0.25310000  1.0 -0.4327318807
O  O84  1  0.74690000  0.54470000  0.74690000  1.0 -0.4327318807
O  O85  1  0.30970000  0.30970000  0.30970000  1.0 -0.8376719122
O  O86  1  0.69030000  0.69030000  0.30970000  1.0 -0.8376719122
O  O87  1  0.69030000  0.30970000  0.69030000  1.0 -0.8376719122
O  O88  1  0.30970000  0.69030000  0.69030000  1.0 -0.8376719122
O  O89  1  0.30970000  0.30970000  0.69030000  1.0 -0.8376719122
O  O90  1  0.69030000  0.69030000  0.69030000  1.0 -0.8376719122
O  O91  1  0.30970000  0.69030000  0.30970000  1.0 -0.8376719122
O  O92  1  0.69030000  0.30970000  0.30970000  1.0 -0.8376719122
O  O93  1  0.50000000  0.50000000  0.00000000  1.0 -0.3839355647
O  O94  1  0.00000000  0.50000000  0.50000000  1.0 -0.3839355647
O  O95  1  0.50000000  0.00000000  0.50000000  1.0 -0.3839355647
