# DDEC6 charges by PACMAN v1.1 (https://github.com/mtap-research/PACMAN-charge/)
data_YOMZIL_ASR_pacman
_symmetry_space_group_name_H-M   'P 1'
_cell_length_a   16.28930000
_cell_length_b   16.79910000
_cell_length_c   17.48290000
_cell_angle_alpha   86.41900000
_cell_angle_beta   87.72500000
_cell_angle_gamma   66.90500000
_symmetry_Int_Tables_number   1
_chemical_formula_structural   Ag3P4H89C83S3
_chemical_formula_sum   'Ag6 P8 H178 C166 S6'
_cell_volume   4391.50457732
_cell_formula_units_Z   2
loop_
 _symmetry_equiv_pos_site_id
 _symmetry_equiv_pos_as_xyz
  1  'x, y, z'
loop_
 _atom_site_type_symbol
 _atom_site_label
 _atom_site_symmetry_multiplicity
 _atom_site_fract_x
 _atom_site_fract_y
 _atom_site_fract_z
 _atom_site_occupancy
 _atom_site_charge
Ag  Ag1  1  0.77904000  0.07106000  0.14922000  1.0 0.1194272468
Ag  Ag2  1  0.22096000  0.92894000  0.85078000  1.0 0.1194272468
Ag  Ag3  1  0.60357000  0.29885000  0.20186000  1.0 0.1105378979
Ag  Ag4  1  0.39643000  0.70115000  0.79814000  1.0 0.1105378979
Ag  Ag5  1  0.73149000  0.09990000  0.39054000  1.0 0.0284407493
Ag  Ag6  1  0.26851000  0.90010000  0.60946000  1.0 0.0284407493
P  P1  1  0.77354000  0.12101000  0.51875000  1.0 0.2310978919
P  P2  1  0.22646000  0.87899000  0.48125000  1.0 0.2310978919
P  P3  1  0.71244000  0.95407000  0.42098000  1.0 0.2230884656
P  P4  1  0.28756000  0.04593000  0.57902000  1.0 0.2230884656
P  P5  1  0.81842000  0.95392000  0.06126000  1.0 0.2402248159
P  P6  1  0.18158000  0.04608000  0.93874000  1.0 0.2402248159
P  P7  1  0.49932000  0.44823000  0.19426000  1.0 0.2603169456
P  P8  1  0.50068000  0.55177000  0.80574000  1.0 0.2603169456
H  H1  1  0.58630000  0.19040000  0.52990000  1.0 0.1105378979
H  H2  1  0.41370000  0.80960000  0.47010000  1.0 0.1105378979
H  H3  1  0.47720000  0.17160000  0.61100000  1.0 0.1105378979
H  H4  1  0.52280000  0.82840000  0.38900000  1.0 0.1105378979
H  H5  1  0.51850000  0.07040000  0.71390000  1.0 0.1018962407
H  H6  1  0.48150000  0.92960000  0.28610000  1.0 0.1018962407
H  H7  1  0.66900000  0.99050000  0.73890000  1.0 0.1105378979
H  H8  1  0.33100000  0.00950000  0.26110000  1.0 0.1105378979
H  H9  1  0.77950000  0.01060000  0.65930000  1.0 0.1105378979
H  H10  1  0.22050000  0.98940000  0.34070000  1.0 0.1105378979
H  H11  1  0.77090000  0.28260000  0.45000000  1.0 0.1194272468
H  H12  1  0.22910000  0.71740000  0.55000000  1.0 0.1194272468
H  H13  1  0.77720000  0.40790000  0.49500000  1.0 0.1194272468
H  H14  1  0.22280000  0.59210000  0.50500000  1.0 0.1194272468
H  H15  1  0.79150000  0.41920000  0.62510000  1.0 0.1194272468
H  H16  1  0.20850000  0.58080000  0.37490000  1.0 0.1194272468
H  H17  1  0.79820000  0.30610000  0.71120000  1.0 0.1105378979
H  H18  1  0.20180000  0.69390000  0.28880000  1.0 0.1194272468
H  H19  1  0.79050000  0.18100000  0.66750000  1.0 0.1194272468
H  H20  1  0.20950000  0.81900000  0.33250000  1.0 0.1194272468
H  H21  1  0.89740000  0.04730000  0.59760000  1.0 0.130225064
H  H22  1  0.10260000  0.95270000  0.40240000  1.0 0.130225064
H  H23  1  0.87650000  0.97930000  0.54960000  1.0 0.130225064
H  H24  1  0.12350000  0.02070000  0.45040000  1.0 0.130225064
H  H25  1  0.93970000  0.02190000  0.43730000  1.0 0.0924006123
H  H26  1  0.06030000  0.97810000  0.56270000  1.0 0.0924006123
H  H27  1  0.95880000  0.09170000  0.48400000  1.0 0.0924006123
H  H28  1  0.04120000  0.90830000  0.51600000  1.0 0.0924006123
H  H29  1  0.65230000  0.01730000  0.26950000  1.0 0.1018962407
H  H30  1  0.34770000  0.98270000  0.73050000  1.0 0.1018962407
H  H31  1  0.62110000  0.96080000  0.16090000  1.0 0.1105378979
H  H32  1  0.37890000  0.03920000  0.83910000  1.0 0.1105378979
H  H33  1  0.64230000  0.81530000  0.16220000  1.0 0.1105378979
H  H34  1  0.35770000  0.18470000  0.83780000  1.0 0.1105378979
H  H35  1  0.69440000  0.72600000  0.27190000  1.0 0.1105378979
H  H36  1  0.30560000  0.27400000  0.72810000  1.0 0.1105378979
H  H37  1  0.72560000  0.78170000  0.38080000  1.0 0.1194272468
H  H38  1  0.27440000  0.21830000  0.61920000  1.0 0.1194272468
H  H39  1  0.77110000  0.84850000  0.56500000  1.0 0.1105378979
H  H40  1  0.22890000  0.15150000  0.43500000  1.0 0.1105378979
H  H41  1  0.90920000  0.75610000  0.61290000  1.0 0.1194272468
H  H42  1  0.09080000  0.24390000  0.38710000  1.0 0.1194272468
H  H43  1  0.03780000  0.72310000  0.53600000  1.0 0.1105378979
H  H44  1  0.96220000  0.27690000  0.46400000  1.0 0.1105378979
H  H45  1  0.02760000  0.78180000  0.41160000  1.0 0.1105378979
H  H46  1  0.97240000  0.21820000  0.58840000  1.0 0.1105378979
H  H47  1  0.89020000  0.87560000  0.36270000  1.0 0.1105378979
H  H48  1  0.10980000  0.12440000  0.63730000  1.0 0.1105378979
H  H49  1  0.63310000  0.88440000  0.49440000  1.0 0.130225064
H  H50  1  0.36690000  0.11560000  0.50560000  1.0 0.130225064
H  H51  1  0.64180000  0.95910000  0.54190000  1.0 0.130225064
H  H52  1  0.35820000  0.04090000  0.45810000  1.0 0.130225064
H  H53  1  0.51940000  0.99050000  0.41930000  1.0 0.0924006123
H  H54  1  0.48060000  0.00950000  0.58070000  1.0 0.0924006123
H  H55  1  0.52840000  0.06550000  0.46630000  1.0 0.1018962407
H  H56  1  0.47160000  0.93450000  0.53370000  1.0 0.1018962407
H  H57  1  0.68650000  0.06440000  0.96040000  1.0 0.1105378979
H  H58  1  0.31350000  0.93560000  0.03960000  1.0 0.1105378979
H  H59  1  0.57860000  0.05380000  0.88350000  1.0 0.1105378979
H  H60  1  0.42140000  0.94620000  0.11650000  1.0 0.1105378979
H  H61  1  0.56340000  0.92250000  0.87680000  1.0 0.1194272468
H  H62  1  0.43660000  0.07750000  0.12320000  1.0 0.1194272468
H  H63  1  0.65810000  0.80070000  0.94730000  1.0 0.1194272468
H  H64  1  0.34190000  0.19930000  0.05270000  1.0 0.1194272468
H  H65  1  0.76530000  0.81070000  0.02640000  1.0 0.1105378979
H  H66  1  0.23470000  0.18930000  0.97360000  1.0 0.1105378979
H  H67  1  0.84330000  0.87590000  0.21090000  1.0 0.1105378979
H  H68  1  0.15670000  0.12410000  0.78910000  1.0 0.1105378979
H  H69  1  0.92560000  0.74010000  0.26770000  1.0 0.1194272468
H  H70  1  0.07440000  0.25990000  0.73230000  1.0 0.1194272468
H  H71  1  0.01670000  0.62840000  0.19330000  1.0 0.1105378979
H  H72  1  0.98330000  0.37160000  0.80670000  1.0 0.1105378979
H  H73  1  0.02720000  0.65240000  0.06130000  1.0 0.1194272468
H  H74  1  0.97280000  0.34760000  0.93870000  1.0 0.1194272468
H  H75  1  0.94560000  0.78830000  0.00390000  1.0 0.1194272468
H  H76  1  0.05440000  0.21170000  0.99610000  1.0 0.1194272468
H  H77  1  0.91900000  0.92680000  0.95570000  1.0 0.130225064
H  H78  1  0.08100000  0.07320000  0.04430000  1.0 0.130225064
H  H79  1  0.85960000  0.02860000  0.95770000  1.0 0.1397455009
H  H80  1  0.14040000  0.97140000  0.04230000  1.0 0.1397455009
H  H81  1  0.94360000  0.03660000  0.06470000  1.0 0.0924006123
H  H82  1  0.05640000  0.96340000  0.93530000  1.0 0.0924006123
H  H83  1  0.00450000  0.93550000  0.05940000  1.0 0.1018962407
H  H84  1  0.99550000  0.06450000  0.94060000  1.0 0.1018962407
H  H85  1  0.38280000  0.54820000  0.31670000  1.0 0.1105378979
H  H86  1  0.61720000  0.45180000  0.68330000  1.0 0.1105378979
H  H87  1  0.40020000  0.63230000  0.41030000  1.0 0.1105378979
H  H88  1  0.59980000  0.36770000  0.58970000  1.0 0.1105378979
H  H89  1  0.53330000  0.64940000  0.42080000  1.0 0.1105378979
H  H90  1  0.46670000  0.35060000  0.57920000  1.0 0.1105378979
H  H91  1  0.65360000  0.57740000  0.33940000  1.0 0.1105378979
H  H92  1  0.34640000  0.42260000  0.66060000  1.0 0.1105378979
H  H93  1  0.63810000  0.49150000  0.24560000  1.0 0.1194272468
H  H94  1  0.36190000  0.50850000  0.75440000  1.0 0.1194272468
H  H95  1  0.40610000  0.33920000  0.23040000  1.0 0.1105378979
H  H96  1  0.59390000  0.66080000  0.76960000  1.0 0.1105378979
H  H97  1  0.25860000  0.35160000  0.22440000  1.0 0.1194272468
H  H98  1  0.74140000  0.64840000  0.77560000  1.0 0.1194272468
H  H99  1  0.14780000  0.48100000  0.18050000  1.0 0.1105378979
H  H100  1  0.85220000  0.51900000  0.81950000  1.0 0.1105378979
H  H101  1  0.18230000  0.60060000  0.14680000  1.0 0.1105378979
H  H102  1  0.81770000  0.39940000  0.85320000  1.0 0.1105378979
H  H103  1  0.32890000  0.58890000  0.15270000  1.0 0.1105378979
H  H104  1  0.67110000  0.41110000  0.84730000  1.0 0.1105378979
H  H105  1  0.46480000  0.57150000  0.11020000  1.0 0.130225064
H  H106  1  0.53520000  0.42850000  0.88980000  1.0 0.130225064
H  H107  1  0.57000000  0.51480000  0.10740000  1.0 0.1397455009
H  H108  1  0.43000000  0.48520000  0.89260000  1.0 0.1397455009
H  H109  1  0.44210000  0.46410000  0.03880000  1.0 0.1018962407
H  H110  1  0.55790000  0.53590000  0.96120000  1.0 0.1018962407
H  H111  1  0.54820000  0.41400000  0.03180000  1.0 0.1018962407
H  H112  1  0.45180000  0.58600000  0.96820000  1.0 0.1018962407
H  H113  1  0.49510000  0.23600000  0.92680000  1.0 0.130225064
H  H114  1  0.50490000  0.76400000  0.07320000  1.0 0.130225064
H  H115  1  0.72080000  0.23950000  0.82940000  1.0 0.130225064
H  H116  1  0.27920000  0.76050000  0.17060000  1.0 0.130225064
H  H117  1  0.57170000  0.16850000  0.10620000  1.0 0.130225064
H  H118  1  0.42830000  0.83150000  0.89380000  1.0 0.130225064
H  H119  1  0.48420000  0.20350000  0.05490000  1.0 0.130225064
H  H120  1  0.51580000  0.79650000  0.94510000  1.0 0.130225064
H  H121  1  0.51010000  0.26990000  0.10040000  1.0 0.130225064
H  H122  1  0.48990000  0.73010000  0.89960000  1.0 0.130225064
H  H123  1  0.52450000  0.21250000  0.78880000  1.0 0.1194272468
H  H124  1  0.47550000  0.78750000  0.21120000  1.0 0.1194272468
H  H125  1  0.60900000  0.22530000  0.74900000  1.0 0.130225064
H  H126  1  0.39100000  0.77470000  0.25100000  1.0 0.130225064
H  H127  1  0.52390000  0.30780000  0.77450000  1.0 0.130225064
H  H128  1  0.47610000  0.69220000  0.22550000  1.0 0.130225064
H  H129  1  0.81010000  0.28910000  0.96980000  1.0 0.1397455009
H  H130  1  0.18990000  0.71090000  0.03020000  1.0 0.1397455009
H  H131  1  0.84190000  0.22810000  0.89850000  1.0 0.130225064
H  H132  1  0.15810000  0.77190000  0.10150000  1.0 0.130225064
H  H133  1  0.85070000  0.18590000  0.98400000  1.0 0.1397455009
H  H134  1  0.14930000  0.81410000  0.01600000  1.0 0.1397455009
H  H135  1  0.97940000  0.25300000  0.25120000  1.0 0.130225064
H  H136  1  0.02060000  0.74700000  0.74880000  1.0 0.130225064
H  H137  1  0.14450000  0.00910000  0.20950000  1.0 0.130225064
H  H138  1  0.85550000  0.99090000  0.79050000  1.0 0.130225064
H  H139  1  0.78670000  0.23800000  0.24260000  1.0 0.130225064
H  H140  1  0.21330000  0.76200000  0.75740000  1.0 0.130225064
H  H141  1  0.83240000  0.29120000  0.28550000  1.0 0.130225064
H  H142  1  0.16760000  0.70880000  0.71450000  1.0 0.130225064
H  H143  1  0.80720000  0.21850000  0.33210000  1.0 0.1194272468
H  H144  1  0.19280000  0.78150000  0.66790000  1.0 0.1194272468
H  H145  1  0.12560000  0.22630000  0.19290000  1.0 0.130225064
H  H146  1  0.87440000  0.77370000  0.80710000  1.0 0.130225064
H  H147  1  0.18890000  0.13040000  0.17020000  1.0 0.130225064
H  H148  1  0.81110000  0.86960000  0.82980000  1.0 0.130225064
H  H149  1  0.18450000  0.15760000  0.25690000  1.0 0.130225064
H  H150  1  0.81550000  0.84240000  0.74310000  1.0 0.130225064
H  H151  1  0.03090000  0.90130000  0.28760000  1.0 0.1397455009
H  H152  1  0.96910000  0.09870000  0.71240000  1.0 0.1397455009
H  H153  1  0.10000000  0.89470000  0.21830000  1.0 0.130225064
H  H154  1  0.90000000  0.10530000  0.78170000  1.0 0.130225064
H  H155  1  0.99710000  0.91820000  0.20110000  1.0 0.130225064
H  H156  1  0.00290000  0.08180000  0.79890000  1.0 0.130225064
H  H157  1  0.39290000  0.41090000  0.46250000  1.0 0.1194272468
H  H158  1  0.60710000  0.58910000  0.53750000  1.0 0.1194272468
H  H159  1  0.29700000  0.24910000  0.37670000  1.0 0.1194272468
H  H160  1  0.70300000  0.75090000  0.62330000  1.0 0.1194272468
H  H161  1  0.60630000  0.30050000  0.44210000  1.0 0.1194272468
H  H162  1  0.39370000  0.69950000  0.55790000  1.0 0.1194272468
H  H163  1  0.53700000  0.39950000  0.44000000  1.0 0.130225064
H  H164  1  0.46300000  0.60050000  0.56000000  1.0 0.130225064
H  H165  1  0.58430000  0.35630000  0.36240000  1.0 0.1194272468
H  H166  1  0.41570000  0.64370000  0.63760000  1.0 0.1194272468
H  H167  1  0.25140000  0.40880000  0.51290000  1.0 0.1194272468
H  H168  1  0.74860000  0.59120000  0.48710000  1.0 0.1194272468
H  H169  1  0.21240000  0.34500000  0.47850000  1.0 0.130225064
H  H170  1  0.78760000  0.65500000  0.52150000  1.0 0.130225064
H  H171  1  0.20460000  0.43220000  0.43110000  1.0 0.130225064
H  H172  1  0.79540000  0.56780000  0.56890000  1.0 0.130225064
H  H173  1  0.44590000  0.16740000  0.24210000  1.0 0.1397455009
H  H174  1  0.55410000  0.83260000  0.75790000  1.0 0.1397455009
H  H175  1  0.37730000  0.14250000  0.29650000  1.0 0.130225064
H  H176  1  0.62270000  0.85750000  0.70350000  1.0 0.130225064
H  H177  1  0.48210000  0.09760000  0.31220000  1.0 0.1397455009
H  H178  1  0.51790000  0.90240000  0.68780000  1.0 0.1397455009
C  C1  1  0.69369000  0.10307000  0.58670000  1.0 -0.0411730269
C  C2  1  0.30631000  0.89693000  0.41330000  1.0 -0.0411730269
C  C3  1  0.60358000  0.15000000  0.57268000  1.0 -0.1209478606
C  C4  1  0.39642000  0.85000000  0.42732000  1.0 -0.1209478606
C  C5  1  0.53853000  0.13842000  0.62056000  1.0 -0.0825838894
C  C6  1  0.46147000  0.86158000  0.37944000  1.0 -0.0825838894
C  C7  1  0.56302000  0.07889000  0.68172000  1.0 -0.0907467827
C  C8  1  0.43698000  0.92111000  0.31828000  1.0 -0.0907467827
C  C9  1  0.65235000  0.03138000  0.69645000  1.0 -0.0907467827
C  C10  1  0.34765000  0.96862000  0.30355000  1.0 -0.0907467827
C  C11  1  0.71821000  0.04325000  0.64903000  1.0 -0.1209478606
C  C12  1  0.28179000  0.95675000  0.35097000  1.0 -0.1209478606
C  C13  1  0.77962000  0.21932000  0.55417000  1.0 -0.028507659
C  C14  1  0.22038000  0.78068000  0.44583000  1.0 -0.028507659
C  C15  1  0.77609000  0.28703000  0.50335000  1.0 -0.1209478606
C  C16  1  0.22391000  0.71297000  0.49665000  1.0 -0.1209478606
C  C17  1  0.78020000  0.36141000  0.53010000  1.0 -0.0998943409
C  C18  1  0.21980000  0.63859000  0.46990000  1.0 -0.0998943409
C  C19  1  0.78848000  0.36817000  0.60714000  1.0 -0.0998943409
C  C20  1  0.21152000  0.63183000  0.39286000  1.0 -0.0998943409
C  C21  1  0.79241000  0.30141000  0.65797000  1.0 -0.0998943409
C  C22  1  0.20759000  0.69859000  0.34203000  1.0 -0.0998943409
C  C23  1  0.78790000  0.22705000  0.63201000  1.0 -0.1105292151
C  C24  1  0.21210000  0.77295000  0.36799000  1.0 -0.1105292151
C  C25  1  0.88143000  0.03637000  0.54631000  1.0 -0.3304176299
C  C26  1  0.11857000  0.96363000  0.45369000  1.0 -0.3362920309
C  C27  1  0.95502000  0.03422000  0.48829000  1.0 -0.128833464
C  C28  1  0.04498000  0.96578000  0.51171000  1.0 -0.128833464
C  C29  1  0.69201000  0.90536000  0.33670000  1.0 -0.028507659
C  C30  1  0.30799000  0.09464000  0.66330000  1.0 -0.028507659
C  C31  1  0.66090000  0.95798000  0.27039000  1.0 -0.128833464
C  C32  1  0.33910000  0.04202000  0.72961000  1.0 -0.128833464
C  C33  1  0.64239000  0.92445000  0.20565000  1.0 -0.0998943409
C  C34  1  0.35761000  0.07555000  0.79435000  1.0 -0.0998943409
C  C35  1  0.65493000  0.83830000  0.20650000  1.0 -0.0998943409
C  C36  1  0.34507000  0.16170000  0.79350000  1.0 -0.0998943409
C  C37  1  0.68578000  0.78536000  0.27148000  1.0 -0.0998943409
C  C38  1  0.31422000  0.21464000  0.72852000  1.0 -0.0998943409
C  C39  1  0.70432000  0.81858000  0.33631000  1.0 -0.1209478606
C  C40  1  0.29568000  0.18142000  0.66369000  1.0 -0.1209478606
C  C41  1  0.81580000  0.87189000  0.45894000  1.0 -0.0411730269
C  C42  1  0.18420000  0.12811000  0.54106000  1.0 -0.0411730269
C  C43  1  0.82305000  0.83546000  0.53345000  1.0 -0.128833464
C  C44  1  0.17695000  0.16454000  0.46655000  1.0 -0.128833464
C  C45  1  0.90516000  0.78040000  0.56199000  1.0 -0.0998943409
C  C46  1  0.09484000  0.21960000  0.43801000  1.0 -0.0998943409
C  C47  1  0.98145000  0.76072000  0.51635000  1.0 -0.0907467827
C  C48  1  0.01855000  0.23928000  0.48365000  1.0 -0.0907467827
C  C49  1  0.97532000  0.79572000  0.44289000  1.0 -0.0907467827
C  C50  1  0.02468000  0.20428000  0.55711000  1.0 -0.0907467827
C  C51  1  0.89347000  0.85137000  0.41361000  1.0 -0.1209478606
C  C52  1  0.10653000  0.14863000  0.58639000  1.0 -0.1209478606
C  C53  1  0.62855000  0.94507000  0.49083000  1.0 -0.3304176299
C  C54  1  0.37145000  0.05493000  0.50917000  1.0 -0.3304176299
C  C55  1  0.53351000  0.00473000  0.46996000  1.0 -0.1407546714
C  C56  1  0.46649000  0.99527000  0.53004000  1.0 -0.1407546714
C  C57  1  0.73681000  0.93906000  0.00140000  1.0 -0.0475478787
C  C58  1  0.26319000  0.06094000  0.99860000  1.0 -0.0475478787
C  C59  1  0.68076000  0.01046000  0.95835000  1.0 -0.1105292151
C  C60  1  0.31924000  0.98954000  0.04165000  1.0 -0.1105292151
C  C61  1  0.61669000  0.00415000  0.91242000  1.0 -0.0907467827
C  C62  1  0.38331000  0.99585000  0.08758000  1.0 -0.0998943409
C  C63  1  0.60765000  0.92670000  0.90831000  1.0 -0.1105292151
C  C64  1  0.39235000  0.07330000  0.09169000  1.0 -0.1105292151
C  C65  1  0.66360000  0.85470000  0.95050000  1.0 -0.0998943409
C  C66  1  0.33640000  0.14530000  0.04950000  1.0 -0.0998943409
C  C67  1  0.72765000  0.86037000  0.99721000  1.0 -0.1209478606
C  C68  1  0.27235000  0.13963000  0.00279000  1.0 -0.1209478606
C  C69  1  0.88497000  0.84596000  0.10150000  1.0 -0.0411730269
C  C70  1  0.11503000  0.15404000  0.89850000  1.0 -0.0411730269
C  C71  1  0.88045000  0.83058000  0.17996000  1.0 -0.1105292151
C  C72  1  0.11955000  0.16942000  0.82004000  1.0 -0.1105292151
C  C73  1  0.92940000  0.74980000  0.21383000  1.0 -0.0907467827
C  C74  1  0.07060000  0.25020000  0.78617000  1.0 -0.0907467827
C  C75  1  0.98349000  0.68382000  0.16987000  1.0 -0.1105292151
C  C76  1  0.01651000  0.31618000  0.83013000  1.0 -0.1105292151
C  C77  1  0.98960000  0.69797000  0.09174000  1.0 -0.0998943409
C  C78  1  0.01040000  0.30203000  0.90826000  1.0 -0.0998943409
C  C79  1  0.94088000  0.77868000  0.05770000  1.0 -0.1105292151
C  C80  1  0.05912000  0.22132000  0.94230000  1.0 -0.1105292151
C  C81  1  0.89364000  0.97598000  0.98968000  1.0 -0.3362920309
C  C82  1  0.10636000  0.02402000  0.01032000  1.0 -0.3362920309
C  C83  1  0.96925000  0.98905000  0.02900000  1.0 -0.1458225176
C  C84  1  0.03075000  0.01095000  0.97100000  1.0 -0.1407546714
C  C85  1  0.50785000  0.51368000  0.26999000  1.0 -0.0475478787
C  C86  1  0.49215000  0.48632000  0.73001000  1.0 -0.0475478787
C  C87  1  0.43795000  0.55457000  0.32052000  1.0 -0.0998943409
C  C88  1  0.56205000  0.44543000  0.67948000  1.0 -0.0998943409
C  C89  1  0.44850000  0.60440000  0.37623000  1.0 -0.0825838894
C  C90  1  0.55150000  0.39560000  0.62377000  1.0 -0.0825838894
C  C91  1  0.52720000  0.61396000  0.38299000  1.0 -0.0998943409
C  C92  1  0.47280000  0.38604000  0.61701000  1.0 -0.0998943409
C  C93  1  0.59840000  0.57170000  0.33435000  1.0 -0.0998943409
C  C94  1  0.40160000  0.42830000  0.66565000  1.0 -0.0998943409
C  C95  1  0.58896000  0.52111000  0.27830000  1.0 -0.1209478606
C  C96  1  0.41104000  0.47889000  0.72170000  1.0 -0.1209478606
C  C97  1  0.38250000  0.46276000  0.19258000  1.0 -0.0411730269
C  C98  1  0.61750000  0.53724000  0.80742000  1.0 -0.0411730269
C  C99  1  0.36084000  0.39265000  0.21336000  1.0 -0.1209478606
C  C100  1  0.63916000  0.60735000  0.78664000  1.0 -0.1209478606
C  C101  1  0.27320000  0.39990000  0.20940000  1.0 -0.0907467827
C  C102  1  0.72680000  0.60010000  0.79060000  1.0 -0.0907467827
C  C103  1  0.20740000  0.47670000  0.18400000  1.0 -0.1105292151
C  C104  1  0.79260000  0.52330000  0.81600000  1.0 -0.1105292151
C  C105  1  0.22787000  0.54730000  0.16350000  1.0 -0.0998943409
C  C106  1  0.77213000  0.45270000  0.83650000  1.0 -0.0998943409
C  C107  1  0.31486000  0.54027000  0.16740000  1.0 -0.1105292151
C  C108  1  0.68514000  0.45973000  0.83260000  1.0 -0.1105292151
C  C109  1  0.51045000  0.51171000  0.10832000  1.0 -0.3304176299
C  C110  1  0.48955000  0.48829000  0.89168000  1.0 -0.3304176299
C  C111  1  0.49937000  0.47190000  0.03573000  1.0 -0.1407546714
C  C112  1  0.50063000  0.52810000  0.96427000  1.0 -0.1407546714
C  C113  1  0.67253000  0.23017000  0.01231000  1.0 -0.028507659
C  C114  1  0.32747000  0.76983000  0.98769000  1.0 -0.028507659
C  C115  1  0.58782000  0.22834000  0.00450000  1.0 0.1397455009
C  C116  1  0.41218000  0.77166000  0.99550000  1.0 0.1397455009
C  C117  1  0.55350000  0.23483000  0.93147000  1.0 -0.2521193177
C  C118  1  0.44650000  0.76517000  0.06853000  1.0 -0.2521193177
C  C119  1  0.60180000  0.23962000  0.86562000  1.0 0.174770385
C  C120  1  0.39820000  0.76038000  0.13438000  1.0 0.174770385
C  C121  1  0.68620000  0.23799000  0.87418000  1.0 -0.2669788078
C  C122  1  0.31380000  0.76201000  0.12582000  1.0 -0.2669788078
C  C123  1  0.72310000  0.23428000  0.94538000  1.0 0.1397455009
C  C124  1  0.27690000  0.76572000  0.05462000  1.0 0.1397455009
C  C125  1  0.53379000  0.21650000  0.07236000  1.0 -0.4640618369
C  C126  1  0.46621000  0.78350000  0.92764000  1.0 -0.4640618369
C  C127  1  0.56120000  0.24700000  0.78757000  1.0 -0.4871618375
C  C128  1  0.43880000  0.75300000  0.21243000  1.0 -0.4871618375
C  C129  1  0.81430000  0.23430000  0.94980000  1.0 -0.4640618369
C  C130  1  0.18570000  0.76570000  0.05020000  1.0 -0.4640618369
C  C131  1  0.93346000  0.07984000  0.26062000  1.0 -0.0196456648
C  C132  1  0.06654000  0.92016000  0.73938000  1.0 -0.0196456648
C  C133  1  0.91918000  0.16758000  0.26411000  1.0 0.1620052158
C  C134  1  0.08082000  0.83242000  0.73589000  1.0 0.1620052158
C  C135  1  0.98957000  0.19360000  0.24809000  1.0 -0.2611204311
C  C136  1  0.01043000  0.80640000  0.75191000  1.0 -0.2611204311
C  C137  1  0.07424000  0.13560000  0.22764000  1.0 0.1781478301
C  C138  1  0.92576000  0.86440000  0.77236000  1.0 0.1781478301
C  C139  1  0.08714000  0.04950000  0.22404000  1.0 -0.2611204311
C  C140  1  0.91286000  0.95050000  0.77596000  1.0 -0.2611204311
C  C141  1  0.01974000  0.01966000  0.24078000  1.0 0.1397455009
C  C142  1  0.98026000  0.98034000  0.75922000  1.0 0.1397455009
C  C143  1  0.82849000  0.23466000  0.28271000  1.0 -0.4490015134
C  C144  1  0.17151000  0.76534000  0.71729000  1.0 -0.4490015134
C  C145  1  0.15000000  0.16510000  0.21040000  1.0 -0.4752432033
C  C146  1  0.85000000  0.83490000  0.78960000  1.0 -0.4715647586
C  C147  1  0.03857000  0.92529000  0.23659000  1.0 -0.4715647586
C  C148  1  0.96143000  0.07471000  0.76341000  1.0 -0.4715647586
C  C149  1  0.49736000  0.24707000  0.35550000  1.0 -0.028507659
C  C150  1  0.50264000  0.75293000  0.64450000  1.0 -0.028507659
C  C151  1  0.48504000  0.31777000  0.40044000  1.0 0.130225064
C  C152  1  0.51496000  0.68223000  0.59956000  1.0 0.130225064
C  C153  1  0.40161000  0.36182000  0.43395000  1.0 -0.2611204311
C  C154  1  0.59839000  0.63818000  0.56605000  1.0 -0.2611204311
C  C155  1  0.33130000  0.33670000  0.42710000  1.0 0.1781478301
C  C156  1  0.66870000  0.66330000  0.57290000  1.0 0.1781478301
C  C157  1  0.34498000  0.26688000  0.38244000  1.0 -0.2611204311
C  C158  1  0.65502000  0.73312000  0.61756000  1.0 -0.2611204311
C  C159  1  0.42541000  0.22222000  0.34611000  1.0 0.1397455009
C  C160  1  0.57459000  0.77778000  0.65389000  1.0 0.1397455009
C  C161  1  0.55956000  0.34594000  0.41228000  1.0 -0.4715647586
C  C162  1  0.44044000  0.65406000  0.58772000  1.0 -0.4715647586
C  C163  1  0.24200000  0.38490000  0.46580000  1.0 -0.4640618369
C  C164  1  0.75800000  0.61510000  0.53420000  1.0 -0.4715647586
C  C165  1  0.43340000  0.15129000  0.29481000  1.0 -0.4715647586
C  C166  1  0.56660000  0.84871000  0.70519000  1.0 -0.4715647586
S  S1  1  0.72035000  0.22555000  0.10260000  1.0 -0.3160261735
S  S2  1  0.27965000  0.77445000  0.89740000  1.0 -0.3160261735
S  S3  1  0.84658000  0.04202000  0.27879000  1.0 -0.3304176299
S  S4  1  0.15342000  0.95798000  0.72121000  1.0 -0.3304176299
S  S5  1  0.59986000  0.19271000  0.30620000  1.0 -0.3062456027
S  S6  1  0.40014000  0.80729000  0.69380000  1.0 -0.3062456027
