# DDEC6 charges by PACMAN v1.1 (https://github.com/mtap-research/PACMAN-charge/)
data_YONNAR_ASR_pacman
_symmetry_space_group_name_H-M   'P 1'
_cell_length_a   20.13080000
_cell_length_b   27.40990000
_cell_length_c   45.33380000
_cell_angle_alpha   90.00000000
_cell_angle_beta   90.00000000
_cell_angle_gamma   90.00000000
_symmetry_Int_Tables_number   1
_chemical_formula_structural   Zn6H17C45O22
_chemical_formula_sum   'Zn48 H136 C360 O176'
_cell_volume   25014.42990854
_cell_formula_units_Z   8
loop_
 _symmetry_equiv_pos_site_id
 _symmetry_equiv_pos_as_xyz
  1  'x, y, z'
loop_
 _atom_site_type_symbol
 _atom_site_label
 _atom_site_symmetry_multiplicity
 _atom_site_fract_x
 _atom_site_fract_y
 _atom_site_fract_z
 _atom_site_occupancy
 _atom_site_charge
Zn  Zn1  1  0.31364000  0.75097000  0.40981000  1.0 1.0020622104
Zn  Zn2  1  0.81364000  0.24903000  0.59019000  1.0 1.0020622104
Zn  Zn3  1  0.31364000  0.25097000  0.59019000  1.0 1.0020622104
Zn  Zn4  1  0.81364000  0.74903000  0.40981000  1.0 1.0020622104
Zn  Zn5  1  0.27102000  0.87102000  0.41599000  1.0 0.9571062713
Zn  Zn6  1  0.77102000  0.12898000  0.58401000  1.0 0.9571062713
Zn  Zn7  1  0.27102000  0.37102000  0.58401000  1.0 0.9571062713
Zn  Zn8  1  0.77102000  0.62898000  0.41599000  1.0 0.9571062713
Zn  Zn9  1  0.25962000  0.81361000  0.35279000  1.0 0.9571062713
Zn  Zn10  1  0.75962000  0.18639000  0.64721000  1.0 0.9571062713
Zn  Zn11  1  0.25962000  0.31361000  0.64721000  1.0 0.9571062713
Zn  Zn12  1  0.75962000  0.68639000  0.35279000  1.0 0.9571062713
Zn  Zn13  1  0.97464000  0.32000000  0.34919000  1.0 1.0020622104
Zn  Zn14  1  0.47464000  0.68000000  0.65081000  1.0 1.0020622104
Zn  Zn15  1  0.97464000  0.82000000  0.65081000  1.0 1.0020622104
Zn  Zn16  1  0.47464000  0.18000000  0.34919000  1.0 1.0020622104
Zn  Zn17  1  0.54082000  0.21248000  0.41516000  1.0 0.9512391179
Zn  Zn18  1  0.04082000  0.78752000  0.58484000  1.0 0.9512391179
Zn  Zn19  1  0.54082000  0.71248000  0.58484000  1.0 0.9512391179
Zn  Zn20  1  0.04082000  0.28752000  0.41516000  1.0 0.9512391179
Zn  Zn21  1  0.42392000  0.13342000  0.41297000  1.0 0.9687691568
Zn  Zn22  1  0.92392000  0.86658000  0.58703000  1.0 0.9687691568
Zn  Zn23  1  0.42392000  0.63342000  0.58703000  1.0 0.9687691568
Zn  Zn24  1  0.92392000  0.36658000  0.41297000  1.0 0.9687691568
Zn  Zn25  1  0.90922000  0.24906000  0.08517000  1.0 1.016159901
Zn  Zn26  1  0.40922000  0.75094000  0.91483000  1.0 1.016159901
Zn  Zn27  1  0.90922000  0.74906000  0.91483000  1.0 1.016159901
Zn  Zn28  1  0.40922000  0.25094000  0.08517000  1.0 1.016159901
Zn  Zn29  1  0.43158000  0.12813000  0.08297000  1.0 0.9512391179
Zn  Zn30  1  0.93158000  0.87187000  0.91703000  1.0 0.9512391179
Zn  Zn31  1  0.43158000  0.62813000  0.91703000  1.0 0.9512391179
Zn  Zn32  1  0.93158000  0.37187000  0.08297000  1.0 0.9512391179
Zn  Zn33  1  0.45605000  0.18850000  0.14401000  1.0 0.9571062713
Zn  Zn34  1  0.95605000  0.81150000  0.85599000  1.0 0.9571062713
Zn  Zn35  1  0.45605000  0.68850000  0.85599000  1.0 0.9571062713
Zn  Zn36  1  0.95605000  0.31150000  0.14401000  1.0 0.9571062713
Zn  Zn37  1  0.74742000  0.67616000  0.14919000  1.0 1.0020622104
Zn  Zn38  1  0.24742000  0.32384000  0.85081000  1.0 1.0020622104
Zn  Zn39  1  0.74742000  0.17616000  0.85081000  1.0 1.0020622104
Zn  Zn40  1  0.24742000  0.82384000  0.14919000  1.0 1.0020622104
Zn  Zn41  1  0.67275000  0.68583000  0.08251000  1.0 0.9426639765
Zn  Zn42  1  0.17275000  0.31417000  0.91749000  1.0 0.9426639765
Zn  Zn43  1  0.67275000  0.18583000  0.91749000  1.0 0.9426639765
Zn  Zn44  1  0.17275000  0.81417000  0.08251000  1.0 0.9426639765
Zn  Zn45  1  0.32939000  0.81142000  0.08472000  1.0 0.9687691568
Zn  Zn46  1  0.82939000  0.18858000  0.91528000  1.0 0.9687691568
Zn  Zn47  1  0.32939000  0.31142000  0.91528000  1.0 0.9687691568
Zn  Zn48  1  0.82939000  0.68858000  0.08472000  1.0 0.9687691568
H  H1  1  0.21240000  0.80070000  0.40020000  1.0 0.390768743
H  H2  1  0.71240000  0.19930000  0.59980000  1.0 0.390768743
H  H3  1  0.21240000  0.30070000  0.59980000  1.0 0.390768743
H  H4  1  0.71240000  0.69930000  0.40020000  1.0 0.390768743
H  H5  1  0.61740000  0.21480000  0.20130000  1.0 0.128653241
H  H6  1  0.11740000  0.78520000  0.79870000  1.0 0.128653241
H  H7  1  0.61740000  0.71480000  0.79870000  1.0 0.128653241
H  H8  1  0.11740000  0.28520000  0.20130000  1.0 0.128653241
H  H9  1  0.71050000  0.23720000  0.12440000  1.0 0.1220671264
H  H10  1  0.21050000  0.76280000  0.87560000  1.0 0.1220671264
H  H11  1  0.71050000  0.73720000  0.87560000  1.0 0.1220671264
H  H12  1  0.21050000  0.26280000  0.12440000  1.0 0.1220671264
H  H13  1  0.80940000  0.25550000  0.20040000  1.0 0.128653241
H  H14  1  0.30940000  0.74450000  0.79960000  1.0 0.128653241
H  H15  1  0.80940000  0.75550000  0.79960000  1.0 0.128653241
H  H16  1  0.30940000  0.24450000  0.20040000  1.0 0.128653241
H  H17  1  0.82110000  0.25110000  0.29790000  1.0 0.128653241
H  H18  1  0.32110000  0.74890000  0.70210000  1.0 0.128653241
H  H19  1  0.82110000  0.75110000  0.70210000  1.0 0.128653241
H  H20  1  0.32110000  0.24890000  0.29790000  1.0 0.128653241
H  H21  1  0.73370000  0.24310000  0.37690000  1.0 0.1220671264
H  H22  1  0.23370000  0.75690000  0.62310000  1.0 0.1220671264
H  H23  1  0.73370000  0.74310000  0.62310000  1.0 0.1220671264
H  H24  1  0.23370000  0.25690000  0.37690000  1.0 0.1220671264
H  H25  1  0.62490000  0.22560000  0.30370000  1.0 0.1220671264
H  H26  1  0.12490000  0.77440000  0.69630000  1.0 0.1220671264
H  H27  1  0.62490000  0.72560000  0.69630000  1.0 0.1220671264
H  H28  1  0.12490000  0.27440000  0.30370000  1.0 0.1220671264
H  H29  1  0.30270000  0.93830000  0.30010000  1.0 0.128653241
H  H30  1  0.80270000  0.06170000  0.69990000  1.0 0.128653241
H  H31  1  0.30270000  0.43830000  0.69990000  1.0 0.128653241
H  H32  1  0.80270000  0.56170000  0.30010000  1.0 0.128653241
H  H33  1  0.34270000  0.99940000  0.37830000  1.0 0.1220671264
H  H34  1  0.84270000  0.00060000  0.62170000  1.0 0.1220671264
H  H35  1  0.34270000  0.49940000  0.62170000  1.0 0.1220671264
H  H36  1  0.84270000  0.50060000  0.37830000  1.0 0.1220671264
H  H37  1  0.38230000  0.07160000  0.30340000  1.0 0.128653241
H  H38  1  0.88230000  0.92840000  0.69660000  1.0 0.128653241
H  H39  1  0.38230000  0.57160000  0.69660000  1.0 0.128653241
H  H40  1  0.88230000  0.42840000  0.30340000  1.0 0.128653241
H  H41  1  0.39650000  0.07410000  0.20120000  1.0 0.128653241
H  H42  1  0.89650000  0.92590000  0.79880000  1.0 0.128653241
H  H43  1  0.39650000  0.57410000  0.79880000  1.0 0.128653241
H  H44  1  0.89650000  0.42590000  0.20120000  1.0 0.128653241
H  H45  1  0.34730000  0.00730000  0.12570000  1.0 0.128653241
H  H46  1  0.84730000  0.99270000  0.87430000  1.0 0.128653241
H  H47  1  0.34730000  0.50730000  0.87430000  1.0 0.128653241
H  H48  1  0.84730000  0.49270000  0.12570000  1.0 0.128653241
H  H49  1  0.29930000  0.94590000  0.20280000  1.0 0.128653241
H  H50  1  0.79930000  0.05410000  0.79720000  1.0 0.128653241
H  H51  1  0.29930000  0.44590000  0.79720000  1.0 0.128653241
H  H52  1  0.79930000  0.55410000  0.20280000  1.0 0.128653241
H  H53  1  0.41100000  0.76630000  0.29510000  1.0 0.128653241
H  H54  1  0.91100000  0.23370000  0.70490000  1.0 0.128653241
H  H55  1  0.41100000  0.26630000  0.70490000  1.0 0.128653241
H  H56  1  0.91100000  0.73370000  0.29510000  1.0 0.128653241
H  H57  1  0.50920000  0.74630000  0.37160000  1.0 0.1220671264
H  H58  1  0.00920000  0.25370000  0.62840000  1.0 0.1220671264
H  H59  1  0.50920000  0.24630000  0.62840000  1.0 0.1220671264
H  H60  1  0.00920000  0.75370000  0.37160000  1.0 0.1220671264
H  H61  1  0.59820000  0.71830000  0.29420000  1.0 0.128653241
H  H62  1  0.09820000  0.28170000  0.70580000  1.0 0.128653241
H  H63  1  0.59820000  0.21830000  0.70580000  1.0 0.128653241
H  H64  1  0.09820000  0.78170000  0.29420000  1.0 0.128653241
H  H65  1  0.58590000  0.70630000  0.19410000  1.0 0.128653241
H  H66  1  0.08590000  0.29370000  0.80590000  1.0 0.128653241
H  H67  1  0.58590000  0.20630000  0.80590000  1.0 0.128653241
H  H68  1  0.08590000  0.79370000  0.19410000  1.0 0.128653241
H  H69  1  0.49160000  0.73730000  0.11880000  1.0 0.128653241
H  H70  1  0.99160000  0.26270000  0.88120000  1.0 0.128653241
H  H71  1  0.49160000  0.23730000  0.88120000  1.0 0.128653241
H  H72  1  0.99160000  0.76270000  0.11880000  1.0 0.128653241
H  H73  1  0.40940000  0.77280000  0.19540000  1.0 0.128653241
H  H74  1  0.90940000  0.22720000  0.80460000  1.0 0.128653241
H  H75  1  0.40940000  0.27280000  0.80460000  1.0 0.128653241
H  H76  1  0.90940000  0.72720000  0.19540000  1.0 0.128653241
H  H77  1  0.68860000  0.83950000  0.04760000  1.0 0.128653241
H  H78  1  0.18860000  0.16050000  0.95240000  1.0 0.128653241
H  H79  1  0.68860000  0.33950000  0.95240000  1.0 0.128653241
H  H80  1  0.18860000  0.66050000  0.04760000  1.0 0.128653241
H  H81  1  0.81990000  0.76450000  0.99920000  1.0 0.128653241
H  H82  1  0.31990000  0.23550000  0.00080000  1.0 0.128653241
H  H83  1  0.81990000  0.26450000  0.00080000  1.0 0.128653241
H  H84  1  0.31990000  0.73550000  0.99920000  1.0 0.128653241
H  H85  1  0.76400000  0.89890000  0.97390000  1.0 0.128653241
H  H86  1  0.26400000  0.10110000  0.02610000  1.0 0.128653241
H  H87  1  0.76400000  0.39890000  0.02610000  1.0 0.128653241
H  H88  1  0.26400000  0.60110000  0.97390000  1.0 0.128653241
H  H89  1  0.68870000  0.02160000  0.97470000  1.0 0.1220671264
H  H90  1  0.18870000  0.97840000  0.02530000  1.0 0.128653241
H  H91  1  0.68870000  0.52160000  0.02530000  1.0 0.128653241
H  H92  1  0.18870000  0.47840000  0.97470000  1.0 0.1220671264
H  H93  1  0.56970000  0.13290000  0.99500000  1.0 0.128653241
H  H94  1  0.06970000  0.86710000  0.00500000  1.0 0.128653241
H  H95  1  0.56970000  0.63290000  0.00500000  1.0 0.128653241
H  H96  1  0.06970000  0.36710000  0.99500000  1.0 0.128653241
H  H97  1  0.57540000  0.01590000  0.04800000  1.0 0.128653241
H  H98  1  0.07540000  0.98410000  0.95200000  1.0 0.128653241
H  H99  1  0.57540000  0.51590000  0.95200000  1.0 0.128653241
H  H100  1  0.07540000  0.48410000  0.04800000  1.0 0.128653241
H  H101  1  0.43230000  0.21340000  0.39620000  1.0 0.3820396452
H  H102  1  0.93230000  0.78660000  0.60380000  1.0 0.3820396452
H  H103  1  0.43230000  0.71340000  0.60380000  1.0 0.3820396452
H  H104  1  0.93230000  0.28660000  0.39620000  1.0 0.3820396452
H  H105  1  0.51590000  0.03620000  0.46920000  1.0 0.128653241
H  H106  1  0.01590000  0.96380000  0.53080000  1.0 0.128653241
H  H107  1  0.51590000  0.53620000  0.53080000  1.0 0.128653241
H  H108  1  0.01590000  0.46380000  0.46920000  1.0 0.128653241
H  H109  1  0.63510000  0.14720000  0.49080000  1.0 0.128653241
H  H110  1  0.13510000  0.85280000  0.50920000  1.0 0.128653241
H  H111  1  0.63510000  0.64720000  0.50920000  1.0 0.128653241
H  H112  1  0.13510000  0.35280000  0.49080000  1.0 0.128653241
H  H113  1  0.63110000  0.02680000  0.54120000  1.0 0.128653241
H  H114  1  0.13110000  0.97320000  0.45880000  1.0 0.128653241
H  H115  1  0.63110000  0.52680000  0.45880000  1.0 0.128653241
H  H116  1  0.13110000  0.47320000  0.54120000  1.0 0.128653241
H  H117  1  0.53080000  0.85420000  0.54070000  1.0 0.128653241
H  H118  1  0.03080000  0.14580000  0.45930000  1.0 0.128653241
H  H119  1  0.53080000  0.35420000  0.45930000  1.0 0.128653241
H  H120  1  0.03080000  0.64580000  0.54070000  1.0 0.128653241
H  H121  1  0.40770000  0.76810000  0.49490000  1.0 0.128653241
H  H122  1  0.90770000  0.23190000  0.50510000  1.0 0.128653241
H  H123  1  0.40770000  0.26810000  0.50510000  1.0 0.128653241
H  H124  1  0.90770000  0.73190000  0.49490000  1.0 0.128653241
H  H125  1  0.43850000  0.90570000  0.46910000  1.0 0.128653241
H  H126  1  0.93850000  0.09430000  0.53090000  1.0 0.128653241
H  H127  1  0.43850000  0.40570000  0.53090000  1.0 0.128653241
H  H128  1  0.93850000  0.59430000  0.46910000  1.0 0.128653241
H  H129  1  0.00190000  0.30630000  0.09620000  1.0 0.390768743
H  H130  1  0.50190000  0.69370000  0.90380000  1.0 0.390768743
H  H131  1  0.00190000  0.80630000  0.90380000  1.0 0.390768743
H  H132  1  0.50190000  0.19370000  0.09620000  1.0 0.390768743
H  H133  1  0.75210000  0.63190000  0.10200000  1.0 0.390768743
H  H134  1  0.25210000  0.36810000  0.89800000  1.0 0.390768743
H  H135  1  0.75210000  0.13190000  0.89800000  1.0 0.390768743
H  H136  1  0.25210000  0.86810000  0.10200000  1.0 0.390768743
C  C1  1  0.71350000  0.23530000  0.20613000  1.0 0.1220671264
C  C2  1  0.21350000  0.76470000  0.79387000  1.0 0.1220671264
C  C3  1  0.71350000  0.73530000  0.79387000  1.0 0.1220671264
C  C4  1  0.21350000  0.26470000  0.20613000  1.0 0.1220671264
C  C5  1  0.65540000  0.22330000  0.19089000  1.0 -0.1203871925
C  C6  1  0.15540000  0.77670000  0.80911000  1.0 -0.1203871925
C  C7  1  0.65540000  0.72330000  0.80911000  1.0 -0.1203871925
C  C8  1  0.15540000  0.27670000  0.19089000  1.0 -0.1203871925
C  C9  1  0.65410000  0.22410000  0.16066000  1.0 -0.0317873766
C  C10  1  0.15410000  0.77590000  0.83934000  1.0 -0.0317873766
C  C11  1  0.65410000  0.72410000  0.83934000  1.0 -0.0317873766
C  C12  1  0.15410000  0.27590000  0.16066000  1.0 -0.0317873766
C  C13  1  0.71130000  0.23680000  0.14490000  1.0 -0.0812316065
C  C14  1  0.21130000  0.76320000  0.85510000  1.0 -0.0812316065
C  C15  1  0.71130000  0.73680000  0.85510000  1.0 -0.0812316065
C  C16  1  0.21130000  0.26320000  0.14490000  1.0 -0.0812316065
C  C17  1  0.76930000  0.24900000  0.15991000  1.0 -0.0383972877
C  C18  1  0.26930000  0.75100000  0.84009000  1.0 -0.0383972877
C  C19  1  0.76930000  0.74900000  0.84009000  1.0 -0.0383972877
C  C20  1  0.26930000  0.25100000  0.15991000  1.0 -0.0383972877
C  C21  1  0.77050000  0.24780000  0.19036000  1.0 -0.1268073396
C  C22  1  0.27050000  0.75220000  0.80964000  1.0 -0.1268073396
C  C23  1  0.77050000  0.74780000  0.80964000  1.0 -0.1268073396
C  C24  1  0.27050000  0.25220000  0.19036000  1.0 -0.1268073396
C  C25  1  0.59200000  0.21070000  0.14432000  1.0 0.5583404276
C  C26  1  0.09200000  0.78930000  0.85568000  1.0 0.5583404276
C  C27  1  0.59200000  0.71070000  0.85568000  1.0 0.5583404276
C  C28  1  0.09200000  0.28930000  0.14432000  1.0 0.5583404276
C  C29  1  0.83050000  0.26530000  0.14381000  1.0 0.5910971477
C  C30  1  0.33050000  0.73470000  0.85619000  1.0 0.5910971477
C  C31  1  0.83050000  0.76530000  0.85619000  1.0 0.5910971477
C  C32  1  0.33050000  0.23470000  0.14381000  1.0 0.5910971477
C  C33  1  0.72320000  0.23710000  0.29531000  1.0 0.111666196
C  C34  1  0.22320000  0.76290000  0.70469000  1.0 0.111666196
C  C35  1  0.72320000  0.73710000  0.70469000  1.0 0.111666196
C  C36  1  0.22320000  0.26290000  0.29531000  1.0 0.111666196
C  C37  1  0.78340000  0.24620000  0.30935000  1.0 -0.1203871925
C  C38  1  0.28340000  0.75380000  0.69065000  1.0 -0.1203871925
C  C39  1  0.78340000  0.74620000  0.69065000  1.0 -0.1203871925
C  C40  1  0.28340000  0.25380000  0.30935000  1.0 -0.1203871925
C  C41  1  0.78900000  0.24820000  0.33950000  1.0 -0.0317873766
C  C42  1  0.28900000  0.75180000  0.66050000  1.0 -0.0317873766
C  C43  1  0.78900000  0.74820000  0.66050000  1.0 -0.0317873766
C  C44  1  0.28900000  0.25180000  0.33950000  1.0 -0.0317873766
C  C45  1  0.73130000  0.24180000  0.35648000  1.0 -0.0812316065
C  C46  1  0.23130000  0.75820000  0.64352000  1.0 -0.0812316065
C  C47  1  0.73130000  0.74180000  0.64352000  1.0 -0.0812316065
C  C48  1  0.23130000  0.25820000  0.35648000  1.0 -0.0812316065
C  C49  1  0.67100000  0.23370000  0.34300000  1.0 -0.0471964241
C  C50  1  0.17100000  0.76630000  0.65700000  1.0 -0.0471964241
C  C51  1  0.67100000  0.73370000  0.65700000  1.0 -0.0471964241
C  C52  1  0.17100000  0.26630000  0.34300000  1.0 -0.0471964241
C  C53  1  0.66590000  0.23120000  0.31254000  1.0 -0.1203871925
C  C54  1  0.16590000  0.76880000  0.68746000  1.0 -0.1203871925
C  C55  1  0.66590000  0.73120000  0.68746000  1.0 -0.1203871925
C  C56  1  0.16590000  0.26880000  0.31254000  1.0 -0.1203871925
C  C57  1  0.85430000  0.25970000  0.35406000  1.0 0.5810423483
C  C58  1  0.35430000  0.74030000  0.64594000  1.0 0.5810423483
C  C59  1  0.85430000  0.75970000  0.64594000  1.0 0.5810423483
C  C60  1  0.35430000  0.24030000  0.35406000  1.0 0.5810423483
C  C61  1  0.60930000  0.22890000  0.36121000  1.0 0.5997066257
C  C62  1  0.10930000  0.77110000  0.63879000  1.0 0.5997066257
C  C63  1  0.60930000  0.72890000  0.63879000  1.0 0.5997066257
C  C64  1  0.10930000  0.27110000  0.36121000  1.0 0.5997066257
C  C65  1  0.71630000  0.23280000  0.23810000  1.0 -0.0988735419
C  C66  1  0.21630000  0.76720000  0.76190000  1.0 -0.0988735419
C  C67  1  0.71630000  0.73280000  0.76190000  1.0 -0.0988735419
C  C68  1  0.21630000  0.26720000  0.23810000  1.0 -0.0988735419
C  C69  1  0.71890000  0.23530000  0.26416000  1.0 -0.0906207501
C  C70  1  0.21890000  0.76470000  0.73584000  1.0 -0.0906207501
C  C71  1  0.71890000  0.73530000  0.73584000  1.0 -0.0906207501
C  C72  1  0.21890000  0.26470000  0.26416000  1.0 -0.0906207501
C  C73  1  0.34450000  0.00500000  0.29666000  1.0 0.111666196
C  C74  1  0.84450000  0.99500000  0.70334000  1.0 0.111666196
C  C75  1  0.34450000  0.50500000  0.70334000  1.0 0.111666196
C  C76  1  0.84450000  0.49500000  0.29666000  1.0 0.111666196
C  C77  1  0.31960000  0.96410000  0.31103000  1.0 -0.1203871925
C  C78  1  0.81960000  0.03590000  0.68897000  1.0 -0.1203871925
C  C79  1  0.31960000  0.46410000  0.68897000  1.0 -0.1203871925
C  C80  1  0.81960000  0.53590000  0.31103000  1.0 -0.1203871925
C  C81  1  0.31980000  0.96160000  0.34122000  1.0 -0.0317873766
C  C82  1  0.81980000  0.03840000  0.65878000  1.0 -0.0317873766
C  C83  1  0.31980000  0.46160000  0.65878000  1.0 -0.0317873766
C  C84  1  0.81980000  0.53840000  0.34122000  1.0 -0.0317873766
C  C85  1  0.34340000  0.00100000  0.35777000  1.0 -0.0906207501
C  C86  1  0.84340000  0.99900000  0.64223000  1.0 -0.0906207501
C  C87  1  0.34340000  0.50100000  0.64223000  1.0 -0.0906207501
C  C88  1  0.84340000  0.49900000  0.35777000  1.0 -0.0906207501
C  C89  1  0.36740000  0.04200000  0.34408000  1.0 -0.0383972877
C  C90  1  0.86740000  0.95800000  0.65592000  1.0 -0.0383972877
C  C91  1  0.36740000  0.54200000  0.65592000  1.0 -0.0383972877
C  C92  1  0.86740000  0.45800000  0.34408000  1.0 -0.0383972877
C  C93  1  0.36700000  0.04380000  0.31295000  1.0 -0.1203871925
C  C94  1  0.86700000  0.95620000  0.68705000  1.0 -0.1203871925
C  C95  1  0.36700000  0.54380000  0.68705000  1.0 -0.1203871925
C  C96  1  0.86700000  0.45620000  0.31295000  1.0 -0.1203871925
C  C97  1  0.29520000  0.91720000  0.35708000  1.0 0.5997066257
C  C98  1  0.79520000  0.08280000  0.64292000  1.0 0.5997066257
C  C99  1  0.29520000  0.41720000  0.64292000  1.0 0.5997066257
C  C100  1  0.79520000  0.58280000  0.35708000  1.0 0.5997066257
C  C101  1  0.39090000  0.08580000  0.36088000  1.0 0.5997066257
C  C102  1  0.89090000  0.91420000  0.63912000  1.0 0.5997066257
C  C103  1  0.39090000  0.58580000  0.63912000  1.0 0.5997066257
C  C104  1  0.89090000  0.41420000  0.36088000  1.0 0.5997066257
C  C105  1  0.34830000  0.00940000  0.20740000  1.0 0.111666196
C  C106  1  0.84830000  0.99060000  0.79260000  1.0 0.111666196
C  C107  1  0.34830000  0.50940000  0.79260000  1.0 0.111666196
C  C108  1  0.84830000  0.49060000  0.20740000  1.0 0.111666196
C  C109  1  0.37670000  0.04810000  0.19144000  1.0 -0.1268073396
C  C110  1  0.87670000  0.95190000  0.80856000  1.0 -0.1268073396
C  C111  1  0.37670000  0.54810000  0.80856000  1.0 -0.1268073396
C  C112  1  0.87670000  0.45190000  0.19144000  1.0 -0.1268073396
C  C113  1  0.37470000  0.04690000  0.16077000  1.0 -0.0222308084
C  C114  1  0.87470000  0.95310000  0.83923000  1.0 -0.0222308084
C  C115  1  0.37470000  0.54690000  0.83923000  1.0 -0.0222308084
C  C116  1  0.87470000  0.45310000  0.16077000  1.0 -0.0222308084
C  C117  1  0.34710000  0.00780000  0.14622000  1.0 -0.0906207501
C  C118  1  0.84710000  0.99220000  0.85378000  1.0 -0.0906207501
C  C119  1  0.34710000  0.50780000  0.85378000  1.0 -0.0906207501
C  C120  1  0.84710000  0.49220000  0.14622000  1.0 -0.0906207501
C  C121  1  0.31970000  0.96980000  0.16124000  1.0 -0.0222308084
C  C122  1  0.81970000  0.03020000  0.83876000  1.0 -0.0222308084
C  C123  1  0.31970000  0.46980000  0.83876000  1.0 -0.0222308084
C  C124  1  0.81970000  0.53020000  0.16124000  1.0 -0.0222308084
C  C125  1  0.31930000  0.97110000  0.19228000  1.0 -0.1268073396
C  C126  1  0.81930000  0.02890000  0.80772000  1.0 -0.1268073396
C  C127  1  0.31930000  0.47110000  0.80772000  1.0 -0.1268073396
C  C128  1  0.81930000  0.52890000  0.19228000  1.0 -0.1268073396
C  C129  1  0.40560000  0.08940000  0.14343000  1.0 0.5910971477
C  C130  1  0.90560000  0.91060000  0.85657000  1.0 0.5910971477
C  C131  1  0.40560000  0.58940000  0.85657000  1.0 0.5910971477
C  C132  1  0.90560000  0.41060000  0.14343000  1.0 0.5910971477
C  C133  1  0.29000000  0.92600000  0.14531000  1.0 0.5810423483
C  C134  1  0.79000000  0.07400000  0.85469000  1.0 0.5729408253
C  C135  1  0.29000000  0.42600000  0.85469000  1.0 0.5810423483
C  C136  1  0.79000000  0.57400000  0.14531000  1.0 0.5729408253
C  C137  1  0.34680000  0.00710000  0.26543000  1.0 -0.0988735419
C  C138  1  0.84680000  0.99290000  0.73457000  1.0 -0.0988735419
C  C139  1  0.34680000  0.50710000  0.73457000  1.0 -0.0988735419
C  C140  1  0.84680000  0.49290000  0.26543000  1.0 -0.0988735419
C  C141  1  0.34890000  0.00960000  0.23885000  1.0 -0.0988735419
C  C142  1  0.84890000  0.99040000  0.76115000  1.0 -0.0988735419
C  C143  1  0.34890000  0.50960000  0.76115000  1.0 -0.0988735419
C  C144  1  0.84890000  0.49040000  0.23885000  1.0 -0.0988735419
C  C145  1  0.50430000  0.74190000  0.28955000  1.0 0.111666196
C  C146  1  0.00430000  0.25810000  0.71045000  1.0 0.111666196
C  C147  1  0.50430000  0.24190000  0.71045000  1.0 0.111666196
C  C148  1  0.00430000  0.75810000  0.28955000  1.0 0.111666196
C  C149  1  0.44900000  0.75670000  0.30517000  1.0 -0.1268073396
C  C150  1  0.94900000  0.24330000  0.69483000  1.0 -0.1268073396
C  C151  1  0.44900000  0.25670000  0.69483000  1.0 -0.1268073396
C  C152  1  0.94900000  0.74330000  0.30517000  1.0 -0.1268073396
C  C153  1  0.44980000  0.75740000  0.33596000  1.0 -0.0317873766
C  C154  1  0.94980000  0.24260000  0.66404000  1.0 -0.0317873766
C  C155  1  0.44980000  0.25740000  0.66404000  1.0 -0.0317873766
C  C156  1  0.94980000  0.74260000  0.33596000  1.0 -0.0317873766
C  C157  1  0.50810000  0.74490000  0.35114000  1.0 -0.0906207501
C  C158  1  0.00810000  0.25510000  0.64886000  1.0 -0.0906207501
C  C159  1  0.50810000  0.24490000  0.64886000  1.0 -0.0906207501
C  C160  1  0.00810000  0.75510000  0.35114000  1.0 -0.0906207501
C  C161  1  0.56440000  0.73060000  0.33549000  1.0 -0.0383972877
C  C162  1  0.06440000  0.26940000  0.66451000  1.0 -0.0383972877
C  C163  1  0.56440000  0.23060000  0.66451000  1.0 -0.0383972877
C  C164  1  0.06440000  0.76940000  0.33549000  1.0 -0.0383972877
C  C165  1  0.56120000  0.72870000  0.30477000  1.0 -0.1203871925
C  C166  1  0.06120000  0.27130000  0.69523000  1.0 -0.1203871925
C  C167  1  0.56120000  0.22870000  0.69523000  1.0 -0.1203871925
C  C168  1  0.06120000  0.77130000  0.30477000  1.0 -0.1203871925
C  C169  1  0.38820000  0.77390000  0.35267000  1.0 0.5910971477
C  C170  1  0.88820000  0.22610000  0.64733000  1.0 0.5910971477
C  C171  1  0.38820000  0.27390000  0.64733000  1.0 0.5910971477
C  C172  1  0.88820000  0.72610000  0.35267000  1.0 0.5910971477
C  C173  1  0.62700000  0.71630000  0.35145000  1.0 0.5729408253
C  C174  1  0.12700000  0.28370000  0.64855000  1.0 0.5729408253
C  C175  1  0.62700000  0.21630000  0.64855000  1.0 0.5729408253
C  C176  1  0.12700000  0.78370000  0.35145000  1.0 0.5729408253
C  C177  1  0.49880000  0.73800000  0.20017000  1.0 0.1220671264
C  C178  1  0.99880000  0.26200000  0.79983000  1.0 0.1220671264
C  C179  1  0.49880000  0.23800000  0.79983000  1.0 0.1220671264
C  C180  1  0.99880000  0.76200000  0.20017000  1.0 0.1220671264
C  C181  1  0.54920000  0.71870000  0.18420000  1.0 -0.1203871925
C  C182  1  0.04920000  0.28130000  0.81580000  1.0 -0.1203871925
C  C183  1  0.54920000  0.21870000  0.81580000  1.0 -0.1203871925
C  C184  1  0.04920000  0.78130000  0.18420000  1.0 -0.1203871925
C  C185  1  0.54840000  0.71680000  0.15345000  1.0 -0.0729027581
C  C186  1  0.04840000  0.28320000  0.84655000  1.0 -0.0729027581
C  C187  1  0.54840000  0.21680000  0.84655000  1.0 -0.0729027581
C  C188  1  0.04840000  0.78320000  0.15345000  1.0 -0.0729027581
C  C189  1  0.49390000  0.73800000  0.13928000  1.0 -0.0812316065
C  C190  1  0.99390000  0.26200000  0.86072000  1.0 -0.0812316065
C  C191  1  0.49390000  0.23800000  0.86072000  1.0 -0.0812316065
C  C192  1  0.99390000  0.76200000  0.13928000  1.0 -0.0812316065
C  C193  1  0.44400000  0.75960000  0.15483000  1.0 -0.0383972877
C  C194  1  0.94400000  0.24040000  0.84517000  1.0 -0.0317873766
C  C195  1  0.44400000  0.25960000  0.84517000  1.0 -0.0317873766
C  C196  1  0.94400000  0.74040000  0.15483000  1.0 -0.0383972877
C  C197  1  0.44460000  0.75920000  0.18490000  1.0 -0.1203871925
C  C198  1  0.94460000  0.24080000  0.81510000  1.0 -0.1203871925
C  C199  1  0.44460000  0.25920000  0.81510000  1.0 -0.1203871925
C  C200  1  0.94460000  0.74080000  0.18490000  1.0 -0.1203871925
C  C201  1  0.60250000  0.69510000  0.13664000  1.0 0.5910971477
C  C202  1  0.10250000  0.30490000  0.86336000  1.0 0.5910971477
C  C203  1  0.60250000  0.19510000  0.86336000  1.0 0.5910971477
C  C204  1  0.10250000  0.80490000  0.13664000  1.0 0.5910971477
C  C205  1  0.38800000  0.78350000  0.13854000  1.0 0.5997066257
C  C206  1  0.88800000  0.21650000  0.86146000  1.0 0.5997066257
C  C207  1  0.38800000  0.28350000  0.86146000  1.0 0.6085614811
C  C208  1  0.88800000  0.71650000  0.13854000  1.0 0.5997066257
C  C209  1  0.50270000  0.74000000  0.25845000  1.0 -0.0906207501
C  C210  1  0.00270000  0.26000000  0.74155000  1.0 -0.0906207501
C  C211  1  0.50270000  0.24000000  0.74155000  1.0 -0.0906207501
C  C212  1  0.00270000  0.76000000  0.25845000  1.0 -0.0906207501
C  C213  1  0.50100000  0.73990000  0.23178000  1.0 -0.0988735419
C  C214  1  0.00100000  0.26010000  0.76822000  1.0 -0.0988735419
C  C215  1  0.50100000  0.23990000  0.76822000  1.0 -0.0988735419
C  C216  1  0.00100000  0.76010000  0.23178000  1.0 -0.0988735419
C  C217  1  0.72030000  0.87710000  0.01242000  1.0 0.111666196
C  C218  1  0.22030000  0.12290000  0.98758000  1.0 0.111666196
C  C219  1  0.72030000  0.37710000  0.98758000  1.0 0.111666196
C  C220  1  0.22030000  0.62290000  0.01242000  1.0 0.111666196
C  C221  1  0.71680000  0.83800000  0.03143000  1.0 -0.1203871925
C  C222  1  0.21680000  0.16200000  0.96857000  1.0 -0.1203871925
C  C223  1  0.71680000  0.33800000  0.96857000  1.0 -0.1203871925
C  C224  1  0.21680000  0.66200000  0.03143000  1.0 -0.1203871925
C  C225  1  0.75360000  0.79720000  0.02695000  1.0 -0.0222308084
C  C226  1  0.25360000  0.20280000  0.97305000  1.0 -0.0222308084
C  C227  1  0.75360000  0.29720000  0.97305000  1.0 -0.0222308084
C  C228  1  0.25360000  0.70280000  0.02695000  1.0 -0.0222308084
C  C229  1  0.79470000  0.79250000  0.00209000  1.0 -0.0812316065
C  C230  1  0.29470000  0.20750000  0.99791000  1.0 -0.0812316065
C  C231  1  0.79470000  0.29250000  0.99791000  1.0 -0.0812316065
C  C232  1  0.29470000  0.70750000  0.00209000  1.0 -0.0812316065
C  C233  1  0.79680000  0.83100000  0.98166000  1.0 -0.0317873766
C  C234  1  0.29680000  0.16900000  0.01834000  1.0 -0.0317873766
C  C235  1  0.79680000  0.33100000  0.01834000  1.0 -0.0317873766
C  C236  1  0.29680000  0.66900000  0.98166000  1.0 -0.0317873766
C  C237  1  0.76120000  0.87300000  0.98706000  1.0 -0.1203871925
C  C238  1  0.26120000  0.12700000  0.01294000  1.0 -0.1203871925
C  C239  1  0.76120000  0.37300000  0.01294000  1.0 -0.1203871925
C  C240  1  0.26120000  0.62700000  0.98706000  1.0 -0.1203871925
C  C241  1  0.75190000  0.75430000  0.04906000  1.0 0.5997066257
C  C242  1  0.25190000  0.24570000  0.95094000  1.0 0.5997066257
C  C243  1  0.75190000  0.25430000  0.95094000  1.0 0.5997066257
C  C244  1  0.25190000  0.74570000  0.04906000  1.0 0.5997066257
C  C245  1  0.83980000  0.82660000  0.95475000  1.0 0.6085614811
C  C246  1  0.33980000  0.17340000  0.04525000  1.0 0.6085614811
C  C247  1  0.83980000  0.32660000  0.04525000  1.0 0.6085614811
C  C248  1  0.33980000  0.67340000  0.95475000  1.0 0.6085614811
C  C249  1  0.63550000  0.00990000  0.01189000  1.0 0.1220671264
C  C250  1  0.13550000  0.99010000  0.98811000  1.0 0.1220671264
C  C251  1  0.63550000  0.50990000  0.98811000  1.0 0.1220671264
C  C252  1  0.13550000  0.49010000  0.01189000  1.0 0.1220671264
C  C253  1  0.65760000  0.03570000  0.98729000  1.0 -0.1268073396
C  C254  1  0.15760000  0.96430000  0.01271000  1.0 -0.1268073396
C  C255  1  0.65760000  0.53570000  0.01271000  1.0 -0.1268073396
C  C256  1  0.15760000  0.46430000  0.98729000  1.0 -0.1268073396
C  C257  1  0.63350000  0.08210000  0.98134000  1.0 -0.0222308084
C  C258  1  0.13350000  0.91790000  0.01866000  1.0 -0.0222308084
C  C259  1  0.63350000  0.58210000  0.01866000  1.0 -0.0222308084
C  C260  1  0.13350000  0.41790000  0.98134000  1.0 -0.0222308084
C  C261  1  0.58730000  0.10240000  0.99949000  1.0 -0.0906207501
C  C262  1  0.08730000  0.89760000  0.00051000  1.0 -0.0906207501
C  C263  1  0.58730000  0.60240000  0.00051000  1.0 -0.0906207501
C  C264  1  0.08730000  0.39760000  0.99949000  1.0 -0.0906207501
C  C265  1  0.56620000  0.07800000  0.02468000  1.0 -0.011577045
C  C266  1  0.06620000  0.92200000  0.97532000  1.0 -0.011577045
C  C267  1  0.56620000  0.57800000  0.97532000  1.0 -0.011577045
C  C268  1  0.06620000  0.42200000  0.02468000  1.0 -0.011577045
C  C269  1  0.58970000  0.03210000  0.03114000  1.0 -0.1268073396
C  C270  1  0.08970000  0.96790000  0.96886000  1.0 -0.1268073396
C  C271  1  0.58970000  0.53210000  0.96886000  1.0 -0.1268073396
C  C272  1  0.08970000  0.46790000  0.03114000  1.0 -0.1268073396
C  C273  1  0.66090000  0.11010000  0.95576000  1.0 0.5583404276
C  C274  1  0.16090000  0.88990000  0.04424000  1.0 0.5583404276
C  C275  1  0.66090000  0.61010000  0.04424000  1.0 0.5583404276
C  C276  1  0.16090000  0.38990000  0.95576000  1.0 0.5583404276
C  C277  1  0.51730000  0.10310000  0.04461000  1.0 0.5583404276
C  C278  1  0.01730000  0.89690000  0.95539000  1.0 0.5583404276
C  C279  1  0.51730000  0.60310000  0.95539000  1.0 0.5583404276
C  C280  1  0.01730000  0.39690000  0.04461000  1.0 0.5583404276
C  C281  1  0.68600000  0.92220000  0.01642000  1.0 -0.0906207501
C  C282  1  0.18600000  0.07780000  0.98358000  1.0 -0.0906207501
C  C283  1  0.68600000  0.42220000  0.98358000  1.0 -0.0906207501
C  C284  1  0.18600000  0.57780000  0.01642000  1.0 -0.0906207501
C  C285  1  0.66120000  0.96130000  0.01658000  1.0 -0.0906207501
C  C286  1  0.16120000  0.03870000  0.98342000  1.0 -0.0906207501
C  C287  1  0.66120000  0.46130000  0.98342000  1.0 -0.0906207501
C  C288  1  0.16120000  0.53870000  0.01658000  1.0 -0.0906207501
C  C289  1  0.57170000  0.02230000  0.50590000  1.0 0.111666196
C  C290  1  0.07170000  0.97770000  0.49410000  1.0 0.111666196
C  C291  1  0.57170000  0.52230000  0.49410000  1.0 0.111666196
C  C292  1  0.07170000  0.47770000  0.50590000  1.0 0.111666196
C  C293  1  0.54750000  0.04960000  0.48175000  1.0 -0.1203871925
C  C294  1  0.04750000  0.95040000  0.51825000  1.0 -0.1203871925
C  C295  1  0.54750000  0.54960000  0.51825000  1.0 -0.1203871925
C  C296  1  0.04750000  0.45040000  0.48175000  1.0 -0.1203871925
C  C297  1  0.57100000  0.09630000  0.47679000  1.0 -0.0317873766
C  C298  1  0.07100000  0.90370000  0.52321000  1.0 -0.0317873766
C  C299  1  0.57100000  0.59630000  0.52321000  1.0 -0.0317873766
C  C300  1  0.07100000  0.40370000  0.47679000  1.0 -0.0317873766
C  C301  1  0.61760000  0.11660000  0.49508000  1.0 -0.0906207501
C  C302  1  0.11760000  0.88340000  0.50492000  1.0 -0.0906207501
C  C303  1  0.61760000  0.61660000  0.50492000  1.0 -0.0906207501
C  C304  1  0.11760000  0.38340000  0.49508000  1.0 -0.0906207501
C  C305  1  0.63860000  0.09160000  0.52000000  1.0 -0.0222308084
C  C306  1  0.13860000  0.90840000  0.48000000  1.0 -0.0222308084
C  C307  1  0.63860000  0.59160000  0.48000000  1.0 -0.0222308084
C  C308  1  0.13860000  0.40840000  0.52000000  1.0 -0.0222308084
C  C309  1  0.61590000  0.04400000  0.52484000  1.0 -0.1203871925
C  C310  1  0.11590000  0.95600000  0.47516000  1.0 -0.1203871925
C  C311  1  0.61590000  0.54400000  0.47516000  1.0 -0.1203871925
C  C312  1  0.11590000  0.45600000  0.52484000  1.0 -0.1203871925
C  C313  1  0.54210000  0.12360000  0.45072000  1.0 0.6085614811
C  C314  1  0.04210000  0.87640000  0.54928000  1.0 0.6085614811
C  C315  1  0.54210000  0.62360000  0.54928000  1.0 0.6085614811
C  C316  1  0.04210000  0.37640000  0.45072000  1.0 0.6085614811
C  C317  1  0.68750000  0.11480000  0.54047000  1.0 0.5541520335
C  C318  1  0.18750000  0.88520000  0.45953000  1.0 0.5541520335
C  C319  1  0.68750000  0.61480000  0.45953000  1.0 0.5541520335
C  C320  1  0.18750000  0.38520000  0.54047000  1.0 0.5541520335
C  C321  1  0.49030000  0.88780000  0.50506000  1.0 0.111666196
C  C322  1  0.99030000  0.11220000  0.49494000  1.0 0.111666196
C  C323  1  0.49030000  0.38780000  0.49494000  1.0 0.111666196
C  C324  1  0.99030000  0.61220000  0.50506000  1.0 0.111666196
C  C325  1  0.50200000  0.84950000  0.52491000  1.0 -0.1203871925
C  C326  1  0.00200000  0.15050000  0.47509000  1.0 -0.1203871925
C  C327  1  0.50200000  0.34950000  0.47509000  1.0 -0.1203871925
C  C328  1  0.00200000  0.65050000  0.52491000  1.0 -0.1203871925
C  C329  1  0.47160000  0.80510000  0.52128000  1.0 -0.0222308084
C  C330  1  0.97160000  0.19490000  0.47872000  1.0 -0.0222308084
C  C331  1  0.47160000  0.30510000  0.47872000  1.0 -0.0222308084
C  C332  1  0.97160000  0.69490000  0.52128000  1.0 -0.0222308084
C  C333  1  0.42850000  0.79810000  0.49744000  1.0 -0.0812316065
C  C334  1  0.92850000  0.20190000  0.50256000  1.0 -0.0812316065
C  C335  1  0.42850000  0.29810000  0.50256000  1.0 -0.0812316065
C  C336  1  0.92850000  0.70190000  0.49744000  1.0 -0.0812316065
C  C337  1  0.41680000  0.83550000  0.47766000  1.0 -0.0317873766
C  C338  1  0.91680000  0.16450000  0.52234000  1.0 -0.0317873766
C  C339  1  0.41680000  0.33550000  0.52234000  1.0 -0.0317873766
C  C340  1  0.91680000  0.66450000  0.47766000  1.0 -0.0317873766
C  C341  1  0.44730000  0.88020000  0.48207000  1.0 -0.1203871925
C  C342  1  0.94730000  0.11980000  0.51793000  1.0 -0.1203871925
C  C343  1  0.44730000  0.38020000  0.51793000  1.0 -0.1203871925
C  C344  1  0.94730000  0.61980000  0.48207000  1.0 -0.1203871925
C  C345  1  0.48480000  0.76340000  0.54179000  1.0 0.5583404276
C  C346  1  0.98480000  0.23660000  0.45821000  1.0 0.5541520335
C  C347  1  0.48480000  0.26340000  0.45821000  1.0 0.5541520335
C  C348  1  0.98480000  0.73660000  0.54179000  1.0 0.5541520335
C  C349  1  0.37050000  0.82740000  0.45192000  1.0 0.6085614811
C  C350  1  0.87050000  0.17260000  0.54808000  1.0 0.6085614811
C  C351  1  0.37050000  0.32740000  0.54808000  1.0 0.6085614811
C  C352  1  0.87050000  0.67260000  0.45192000  1.0 0.6085614811
C  C353  1  0.54610000  0.97420000  0.50940000  1.0 -0.0988735419
C  C354  1  0.04610000  0.02580000  0.49060000  1.0 -0.0988735419
C  C355  1  0.54610000  0.47420000  0.49060000  1.0 -0.0988735419
C  C356  1  0.04610000  0.52580000  0.50940000  1.0 -0.0988735419
C  C357  1  0.52260000  0.93460000  0.50856000  1.0 -0.0906207501
C  C358  1  0.02260000  0.06540000  0.49144000  1.0 -0.0906207501
C  C359  1  0.52260000  0.43460000  0.49144000  1.0 -0.0906207501
C  C360  1  0.02260000  0.56540000  0.50856000  1.0 -0.0906207501
O  O1  1  0.59210000  0.20690000  0.11756000  1.0 -0.4878422529
O  O2  1  0.09210000  0.79310000  0.88244000  1.0 -0.4878422529
O  O3  1  0.59210000  0.70690000  0.88244000  1.0 -0.4878422529
O  O4  1  0.09210000  0.29310000  0.11756000  1.0 -0.4878422529
O  O5  1  0.54030000  0.20469000  0.16140000  1.0 -0.5584061033
O  O6  1  0.04030000  0.79531000  0.83860000  1.0 -0.5584061033
O  O7  1  0.54030000  0.70469000  0.83860000  1.0 -0.5584061033
O  O8  1  0.04030000  0.29531000  0.16140000  1.0 -0.5584061033
O  O9  1  0.82992000  0.26424000  0.11606000  1.0 -0.5683456273
O  O10  1  0.32992000  0.73576000  0.88394000  1.0 -0.5683456273
O  O11  1  0.82992000  0.76424000  0.88394000  1.0 -0.5683456273
O  O12  1  0.32992000  0.23576000  0.11606000  1.0 -0.5683456273
O  O13  1  0.87920000  0.27778000  0.15974000  1.0 -0.5506039471
O  O14  1  0.37920000  0.72222000  0.84026000  1.0 -0.5506039471
O  O15  1  0.87920000  0.77778000  0.84026000  1.0 -0.5506039471
O  O16  1  0.37920000  0.22222000  0.15974000  1.0 -0.5506039471
O  O17  1  0.85700000  0.25700000  0.38179000  1.0 -0.5389923715
O  O18  1  0.35700000  0.74300000  0.61821000  1.0 -0.5389923715
O  O19  1  0.85700000  0.75700000  0.61821000  1.0 -0.5389923715
O  O20  1  0.35700000  0.24300000  0.38179000  1.0 -0.5389923715
O  O21  1  0.90060000  0.27268000  0.33775000  1.0 -0.5208748304
O  O22  1  0.40060000  0.72732000  0.66225000  1.0 -0.5208748304
O  O23  1  0.90060000  0.77268000  0.66225000  1.0 -0.5208748304
O  O24  1  0.40060000  0.22732000  0.33775000  1.0 -0.5208748304
O  O25  1  0.61610000  0.22440000  0.38896000  1.0 -0.5310928826
O  O26  1  0.11610000  0.77560000  0.61104000  1.0 -0.5310928826
O  O27  1  0.61610000  0.72440000  0.61104000  1.0 -0.5310928826
O  O28  1  0.11610000  0.27560000  0.38896000  1.0 -0.5310928826
O  O29  1  0.55350000  0.22870000  0.34764000  1.0 -0.5823953361
O  O30  1  0.05350000  0.77130000  0.65236000  1.0 -0.5823953361
O  O31  1  0.55350000  0.72870000  0.65236000  1.0 -0.5823953361
O  O32  1  0.05350000  0.27130000  0.34764000  1.0 -0.5823953361
O  O33  1  0.25227000  0.80854000  0.39618000  1.0 -0.9008468636
O  O34  1  0.75227000  0.19146000  0.60382000  1.0 -0.9008468636
O  O35  1  0.25227000  0.30854000  0.60382000  1.0 -0.9008468636
O  O36  1  0.75227000  0.69146000  0.39618000  1.0 -0.9008468636
O  O37  1  0.29820000  0.91710000  0.38447000  1.0 -0.5208748304
O  O38  1  0.79820000  0.08290000  0.61553000  1.0 -0.5208748304
O  O39  1  0.29820000  0.41710000  0.61553000  1.0 -0.5208748304
O  O40  1  0.79820000  0.58290000  0.38447000  1.0 -0.5208748304
O  O41  1  0.27270000  0.88298000  0.34120000  1.0 -0.5389923715
O  O42  1  0.77270000  0.11702000  0.65880000  1.0 -0.5389923715
O  O43  1  0.27270000  0.38298000  0.65880000  1.0 -0.5389923715
O  O44  1  0.77270000  0.61702000  0.34120000  1.0 -0.5389923715
O  O45  1  0.39660000  0.07950000  0.38849000  1.0 -0.5506039471
O  O46  1  0.89660000  0.92050000  0.61151000  1.0 -0.5506039471
O  O47  1  0.39660000  0.57950000  0.61151000  1.0 -0.5506039471
O  O48  1  0.89660000  0.42050000  0.38849000  1.0 -0.5506039471
O  O49  1  0.40320000  0.12310000  0.34731000  1.0 -0.5506039471
O  O50  1  0.90320000  0.87690000  0.65269000  1.0 -0.5506039471
O  O51  1  0.40320000  0.62310000  0.65269000  1.0 -0.5506039471
O  O52  1  0.90320000  0.37690000  0.34731000  1.0 -0.5506039471
O  O53  1  0.39720000  0.08783000  0.11630000  1.0 -0.5208748304
O  O54  1  0.89720000  0.91217000  0.88370000  1.0 -0.5208748304
O  O55  1  0.39720000  0.58783000  0.88370000  1.0 -0.5208748304
O  O56  1  0.89720000  0.41217000  0.11630000  1.0 -0.5208748304
O  O57  1  0.43350000  0.12179000  0.15782000  1.0 -0.5310928826
O  O58  1  0.93350000  0.87821000  0.84218000  1.0 -0.5310928826
O  O59  1  0.43350000  0.62179000  0.84218000  1.0 -0.5310928826
O  O60  1  0.93350000  0.37821000  0.15782000  1.0 -0.5310928826
O  O61  1  0.28810000  0.92750000  0.11829000  1.0 -0.498243174
O  O62  1  0.78810000  0.07250000  0.88171000  1.0 -0.498243174
O  O63  1  0.28810000  0.42750000  0.88171000  1.0 -0.498243174
O  O64  1  0.78810000  0.57250000  0.11829000  1.0 -0.498243174
O  O65  1  0.26660000  0.89272000  0.16191000  1.0 -0.5389923715
O  O66  1  0.76660000  0.10728000  0.83809000  1.0 -0.5389923715
O  O67  1  0.26660000  0.39272000  0.83809000  1.0 -0.5389923715
O  O68  1  0.76660000  0.60728000  0.16191000  1.0 -0.5389923715
O  O69  1  0.38910000  0.77190000  0.37977000  1.0 -0.5584061033
O  O70  1  0.88910000  0.22810000  0.62023000  1.0 -0.5584061033
O  O71  1  0.38910000  0.27190000  0.62023000  1.0 -0.5584061033
O  O72  1  0.88910000  0.72810000  0.37977000  1.0 -0.5584061033
O  O73  1  0.33950000  0.78670000  0.33621000  1.0 -0.5506039471
O  O74  1  0.83950000  0.21330000  0.66379000  1.0 -0.5584061033
O  O75  1  0.33950000  0.28670000  0.66379000  1.0 -0.5584061033
O  O76  1  0.83950000  0.71330000  0.33621000  1.0 -0.5506039471
O  O77  1  0.62600000  0.71470000  0.37904000  1.0 -0.5208748304
O  O78  1  0.12600000  0.28530000  0.62096000  1.0 -0.5208748304
O  O79  1  0.62600000  0.21470000  0.62096000  1.0 -0.5208748304
O  O80  1  0.12600000  0.78530000  0.37904000  1.0 -0.5208748304
O  O81  1  0.67690000  0.70653000  0.33490000  1.0 -0.5584061033
O  O82  1  0.17690000  0.29347000  0.66510000  1.0 -0.5584061033
O  O83  1  0.67690000  0.20653000  0.66510000  1.0 -0.5584061033
O  O84  1  0.17690000  0.79347000  0.33490000  1.0 -0.5584061033
O  O85  1  0.60160000  0.70260000  0.10905000  1.0 -0.5310928826
O  O86  1  0.10160000  0.29740000  0.89095000  1.0 -0.5310928826
O  O87  1  0.60160000  0.20260000  0.89095000  1.0 -0.5310928826
O  O88  1  0.10160000  0.79740000  0.10905000  1.0 -0.5310928826
O  O89  1  0.64560000  0.67100000  0.14979000  1.0 -0.5584061033
O  O90  1  0.14560000  0.32900000  0.85021000  1.0 -0.5584061033
O  O91  1  0.64560000  0.17100000  0.85021000  1.0 -0.5584061033
O  O92  1  0.14560000  0.82900000  0.14979000  1.0 -0.5584061033
O  O93  1  0.38880000  0.77820000  0.11057000  1.0 -0.5584061033
O  O94  1  0.88880000  0.22180000  0.88943000  1.0 -0.5584061033
O  O95  1  0.38880000  0.27820000  0.88943000  1.0 -0.5584061033
O  O96  1  0.88880000  0.72180000  0.11057000  1.0 -0.5584061033
O  O97  1  0.34510000  0.80540000  0.15340000  1.0 -0.5683456273
O  O98  1  0.84510000  0.19460000  0.84660000  1.0 -0.5683456273
O  O99  1  0.34510000  0.30540000  0.84660000  1.0 -0.5683456273
O  O100  1  0.84510000  0.69460000  0.15340000  1.0 -0.5683456273
O  O101  1  0.80530000  0.72995000  0.05144000  1.0 -0.5584061033
O  O102  1  0.30530000  0.27005000  0.94856000  1.0 -0.5683456273
O  O103  1  0.80530000  0.22995000  0.94856000  1.0 -0.5683456273
O  O104  1  0.30530000  0.77005000  0.05144000  1.0 -0.5584061033
O  O105  1  0.69970000  0.74796000  0.06299000  1.0 -0.5208748304
O  O106  1  0.19970000  0.25204000  0.93701000  1.0 -0.5208748304
O  O107  1  0.69970000  0.24796000  0.93701000  1.0 -0.5208748304
O  O108  1  0.19970000  0.75204000  0.06299000  1.0 -0.5208748304
O  O109  1  0.86020000  0.78574000  0.94809000  1.0 -0.5389923715
O  O110  1  0.36020000  0.21426000  0.05191000  1.0 -0.5389923715
O  O111  1  0.86020000  0.28574000  0.05191000  1.0 -0.5389923715
O  O112  1  0.36020000  0.71426000  0.94809000  1.0 -0.5389923715
O  O113  1  0.85110000  0.86583000  0.94087000  1.0 -0.5310928826
O  O114  1  0.35110000  0.13417000  0.05913000  1.0 -0.5310928826
O  O115  1  0.85110000  0.36583000  0.05913000  1.0 -0.5310928826
O  O116  1  0.35110000  0.63417000  0.94087000  1.0 -0.5310928826
O  O117  1  0.63520000  0.14995000  0.94975000  1.0 -0.5208748304
O  O118  1  0.13520000  0.85005000  0.05025000  1.0 -0.5208748304
O  O119  1  0.63520000  0.64995000  0.05025000  1.0 -0.5208748304
O  O120  1  0.13520000  0.35005000  0.94975000  1.0 -0.5208748304
O  O121  1  0.70790000  0.09260000  0.94200000  1.0 -0.4832411022
O  O122  1  0.20790000  0.90740000  0.05800000  1.0 -0.4832411022
O  O123  1  0.70790000  0.59260000  0.05800000  1.0 -0.4832411022
O  O124  1  0.20790000  0.40740000  0.94200000  1.0 -0.4832411022
O  O125  1  0.49660000  0.14490000  0.03866000  1.0 -0.5208748304
O  O126  1  0.99660000  0.85510000  0.96134000  1.0 -0.5208748304
O  O127  1  0.49660000  0.64490000  0.96134000  1.0 -0.5208748304
O  O128  1  0.99660000  0.35510000  0.03866000  1.0 -0.5208748304
O  O129  1  0.49670000  0.07977000  0.06723000  1.0 -0.5310928826
O  O130  1  0.99670000  0.92023000  0.93277000  1.0 -0.5310928826
O  O131  1  0.49670000  0.57977000  0.93277000  1.0 -0.5310928826
O  O132  1  0.99670000  0.42023000  0.06723000  1.0 -0.5310928826
O  O133  1  0.46094000  0.19081000  0.39435000  1.0 -0.9008468636
O  O134  1  0.96094000  0.80919000  0.60565000  1.0 -0.9008468636
O  O135  1  0.46094000  0.69081000  0.60565000  1.0 -0.9008468636
O  O136  1  0.96094000  0.30919000  0.39435000  1.0 -0.9008468636
O  O137  1  0.57400000  0.16055000  0.44177000  1.0 -0.5389923715
O  O138  1  0.07400000  0.83945000  0.55823000  1.0 -0.5310928826
O  O139  1  0.57400000  0.66055000  0.55823000  1.0 -0.5389923715
O  O140  1  0.07400000  0.33945000  0.44177000  1.0 -0.5389923715
O  O141  1  0.48780000  0.10805000  0.44081000  1.0 -0.5506039471
O  O142  1  0.98780000  0.89195000  0.55919000  1.0 -0.5506039471
O  O143  1  0.48780000  0.60805000  0.55919000  1.0 -0.5506039471
O  O144  1  0.98780000  0.39195000  0.44081000  1.0 -0.5506039471
O  O145  1  0.70780000  0.15630000  0.53553000  1.0 -0.498243174
O  O146  1  0.20780000  0.84370000  0.46447000  1.0 -0.498243174
O  O147  1  0.70780000  0.65630000  0.46447000  1.0 -0.498243174
O  O148  1  0.20780000  0.34370000  0.53553000  1.0 -0.498243174
O  O149  1  0.70370000  0.09090000  0.56352000  1.0 -0.5310928826
O  O150  1  0.20370000  0.90910000  0.43648000  1.0 -0.5310928826
O  O151  1  0.70370000  0.59090000  0.43648000  1.0 -0.5310928826
O  O152  1  0.20370000  0.40910000  0.56352000  1.0 -0.5310928826
O  O153  1  0.45270000  0.72548000  0.53991000  1.0 -0.498243174
O  O154  1  0.95270000  0.27452000  0.46009000  1.0 -0.498243174
O  O155  1  0.45270000  0.22548000  0.46009000  1.0 -0.498243174
O  O156  1  0.95270000  0.77452000  0.53991000  1.0 -0.498243174
O  O157  1  0.53080000  0.77092000  0.56108000  1.0 -0.5310928826
O  O158  1  0.03080000  0.22908000  0.43892000  1.0 -0.5310928826
O  O159  1  0.53080000  0.27092000  0.43892000  1.0 -0.5310928826
O  O160  1  0.03080000  0.72908000  0.56108000  1.0 -0.5310928826
O  O161  1  0.35390000  0.78576000  0.44579000  1.0 -0.5208748304
O  O162  1  0.85390000  0.21424000  0.55421000  1.0 -0.5208748304
O  O163  1  0.35390000  0.28576000  0.55421000  1.0 -0.5208748304
O  O164  1  0.85390000  0.71424000  0.44579000  1.0 -0.5208748304
O  O165  1  0.35360000  0.86625000  0.43824000  1.0 -0.5389923715
O  O166  1  0.85360000  0.13375000  0.56176000  1.0 -0.5389923715
O  O167  1  0.35360000  0.36625000  0.56176000  1.0 -0.5389923715
O  O168  1  0.85360000  0.63375000  0.43824000  1.0 -0.5389923715
O  O169  1  0.96132000  0.31014000  0.10083000  1.0 -0.9008468636
O  O170  1  0.46132000  0.68986000  0.89917000  1.0 -0.9008468636
O  O171  1  0.96132000  0.81014000  0.89917000  1.0 -0.9008468636
O  O172  1  0.46132000  0.18986000  0.10083000  1.0 -0.9008468636
O  O173  1  0.75090000  0.66269000  0.10412000  1.0 -0.9008468636
O  O174  1  0.25090000  0.33731000  0.89588000  1.0 -0.9008468636
O  O175  1  0.75090000  0.16269000  0.89588000  1.0 -0.9008468636
O  O176  1  0.25090000  0.83731000  0.10412000  1.0 -0.9008468636
