# DDEC6 charges by PACMAN v1.1 (https://github.com/mtap-research/PACMAN-charge/)
data_YOQLAT_ASR_pacman
_symmetry_space_group_name_H-M   'P 1'
_cell_length_a   10.84160000
_cell_length_b   17.64980000
_cell_length_c   18.50490000
_cell_angle_alpha   90.00000000
_cell_angle_beta   92.70700000
_cell_angle_gamma   90.00000000
_symmetry_Int_Tables_number   1
_chemical_formula_structural   Ba3Fe2(C4O9)3
_chemical_formula_sum   'Ba12 Fe8 C48 O108'
_cell_volume   3536.99964786
_cell_formula_units_Z   4
loop_
 _symmetry_equiv_pos_site_id
 _symmetry_equiv_pos_as_xyz
  1  'x, y, z'
loop_
 _atom_site_type_symbol
 _atom_site_label
 _atom_site_symmetry_multiplicity
 _atom_site_fract_x
 _atom_site_fract_y
 _atom_site_fract_z
 _atom_site_occupancy
 _atom_site_charge
Ba  Ba1  1  0.80088000  0.18125000  0.75309000  1.0 1.3801679698
Ba  Ba2  1  0.19912000  0.68125000  0.74691000  1.0 1.3801679698
Ba  Ba3  1  0.19912000  0.81875000  0.24691000  1.0 1.3801679698
Ba  Ba4  1  0.80088000  0.31875000  0.25309000  1.0 1.3801679698
Ba  Ba5  1  0.55645000  0.12135000  0.55440000  1.0 1.4202578751
Ba  Ba6  1  0.44355000  0.62135000  0.94560000  1.0 1.4202578751
Ba  Ba7  1  0.44355000  0.87865000  0.44560000  1.0 1.4202578751
Ba  Ba8  1  0.55645000  0.37865000  0.05440000  1.0 1.4202578751
Ba  Ba9  1  0.41943000  0.89510000  0.06138000  1.0 1.4268718151
Ba  Ba10  1  0.58057000  0.39510000  0.43862000  1.0 1.4268718151
Ba  Ba11  1  0.58057000  0.10490000  0.93862000  1.0 1.4268718151
Ba  Ba12  1  0.41943000  0.60490000  0.56138000  1.0 1.4268718151
Fe  Fe1  1  0.24849000  0.95465000  0.74798000  1.0 1.0474264411
Fe  Fe2  1  0.75151000  0.45465000  0.75202000  1.0 1.0419539598
Fe  Fe3  1  0.75151000  0.04535000  0.25202000  1.0 1.0419539598
Fe  Fe4  1  0.24849000  0.54535000  0.24798000  1.0 1.0474264411
Fe  Fe5  1  0.30317000  0.34392000  0.74796000  1.0 0.9714639274
Fe  Fe6  1  0.69683000  0.84392000  0.75204000  1.0 0.9775387434
Fe  Fe7  1  0.69683000  0.65608000  0.25204000  1.0 0.9775387434
Fe  Fe8  1  0.30317000  0.15608000  0.24796000  1.0 0.9714639274
C  C1  1  0.36750000  0.96370000  0.61690000  1.0 0.4999771503
C  C2  1  0.63250000  0.46370000  0.88310000  1.0 0.5050047425
C  C3  1  0.63250000  0.03630000  0.38310000  1.0 0.4999771503
C  C4  1  0.36750000  0.53630000  0.11690000  1.0 0.5050047425
C  C5  1  0.33720000  0.87920000  0.62710000  1.0 0.4695467217
C  C6  1  0.66280000  0.37920000  0.87290000  1.0 0.4695467217
C  C7  1  0.66280000  0.12080000  0.37290000  1.0 0.4695467217
C  C8  1  0.33720000  0.62080000  0.12710000  1.0 0.4695467217
C  C9  1  0.29000000  0.88720000  0.88220000  1.0 0.4695467217
C  C10  1  0.71000000  0.38720000  0.61780000  1.0 0.4695467217
C  C11  1  0.71000000  0.11280000  0.11780000  1.0 0.4695467217
C  C12  1  0.29000000  0.61280000  0.38220000  1.0 0.4695467217
C  C13  1  0.40050000  0.94300000  0.87350000  1.0 0.4912734616
C  C14  1  0.59950000  0.44300000  0.62650000  1.0 0.4912734616
C  C15  1  0.59950000  0.05700000  0.12650000  1.0 0.4912734616
C  C16  1  0.40050000  0.55700000  0.37350000  1.0 0.4912734616
C  C17  1  0.01270000  0.02180000  0.72150000  1.0 0.4816125818
C  C18  1  0.98730000  0.52180000  0.77850000  1.0 0.4816125818
C  C19  1  0.98730000  0.97820000  0.27850000  1.0 0.4816125818
C  C20  1  0.01270000  0.47820000  0.22150000  1.0 0.4816125818
C  C21  1  0.07720000  0.06620000  0.78560000  1.0 0.4912734616
C  C22  1  0.92280000  0.56620000  0.71440000  1.0 0.4912734616
C  C23  1  0.92280000  0.93380000  0.21440000  1.0 0.4912734616
C  C24  1  0.07720000  0.43380000  0.28560000  1.0 0.4912734616
C  C25  1  0.34970000  0.49690000  0.78140000  1.0 0.4912734616
C  C26  1  0.65030000  0.99690000  0.71860000  1.0 0.4912734616
C  C27  1  0.65030000  0.50310000  0.21860000  1.0 0.4912734616
C  C28  1  0.34970000  0.00310000  0.28140000  1.0 0.4912734616
C  C29  1  0.28950000  0.49560000  0.70540000  1.0 0.4912734616
C  C30  1  0.71050000  0.99560000  0.79460000  1.0 0.4912734616
C  C31  1  0.71050000  0.50440000  0.29460000  1.0 0.4999771503
C  C32  1  0.28950000  0.00440000  0.20540000  1.0 0.4999771503
C  C33  1  0.51420000  0.26720000  0.70800000  1.0 0.4628624705
C  C34  1  0.48580000  0.76720000  0.79200000  1.0 0.4628624705
C  C35  1  0.48580000  0.73280000  0.29200000  1.0 0.4628624705
C  C36  1  0.51420000  0.23280000  0.20800000  1.0 0.4628624705
C  C37  1  0.49090000  0.23960000  0.78470000  1.0 0.4912734616
C  C38  1  0.50910000  0.73960000  0.71530000  1.0 0.4912734616
C  C39  1  0.50910000  0.76040000  0.21530000  1.0 0.4912734616
C  C40  1  0.49090000  0.26040000  0.28470000  1.0 0.4912734616
C  C41  1  0.09160000  0.25880000  0.71190000  1.0 0.4816125818
C  C42  1  0.90840000  0.75880000  0.78810000  1.0 0.4816125818
C  C43  1  0.90840000  0.74120000  0.28810000  1.0 0.4816125818
C  C44  1  0.09160000  0.24120000  0.21190000  1.0 0.4816125818
C  C45  1  0.06730000  0.29840000  0.78270000  1.0 0.4816125818
C  C46  1  0.93270000  0.79840000  0.71730000  1.0 0.4816125818
C  C47  1  0.93270000  0.70160000  0.21730000  1.0 0.4816125818
C  C48  1  0.06730000  0.20160000  0.28270000  1.0 0.4816125818
O  O1  1  0.33150000  0.00678000  0.66740000  1.0 -0.4692230162
O  O2  1  0.66850000  0.50678000  0.83260000  1.0 -0.4692230162
O  O3  1  0.66850000  0.99322000  0.33260000  1.0 -0.4692230162
O  O4  1  0.33150000  0.49322000  0.16740000  1.0 -0.4692230162
O  O5  1  0.29270000  0.86264000  0.68823000  1.0 -0.4970911257
O  O6  1  0.70730000  0.36264000  0.81177000  1.0 -0.4927213204
O  O7  1  0.70730000  0.13736000  0.31177000  1.0 -0.4927213204
O  O8  1  0.29270000  0.63736000  0.18823000  1.0 -0.4970911257
O  O9  1  0.42090000  0.98469000  0.56346000  1.0 -0.5861744794
O  O10  1  0.57910000  0.48469000  0.93654000  1.0 -0.5861744794
O  O11  1  0.57910000  0.01531000  0.43654000  1.0 -0.5861744794
O  O12  1  0.42090000  0.51531000  0.06346000  1.0 -0.5861744794
O  O13  1  0.35560000  0.83424000  0.57809000  1.0 -0.4269987183
O  O14  1  0.64440000  0.33424000  0.92191000  1.0 -0.4269987183
O  O15  1  0.64440000  0.16576000  0.42191000  1.0 -0.4269987183
O  O16  1  0.35560000  0.66576000  0.07809000  1.0 -0.4269987183
O  O17  1  0.21320000  0.88397000  0.82822000  1.0 -0.4835190462
O  O18  1  0.78680000  0.38397000  0.67178000  1.0 -0.4835190462
O  O19  1  0.78680000  0.11603000  0.17178000  1.0 -0.4835190462
O  O20  1  0.21320000  0.61603000  0.32822000  1.0 -0.4835190462
O  O21  1  0.40490000  0.97219000  0.81253000  1.0 -0.4594466237
O  O22  1  0.59510000  0.47219000  0.68747000  1.0 -0.4594466237
O  O23  1  0.59510000  0.02781000  0.18747000  1.0 -0.4594466237
O  O24  1  0.40490000  0.52781000  0.31253000  1.0 -0.4594466237
O  O25  1  0.28390000  0.85019000  0.93883000  1.0 -0.4067607435
O  O26  1  0.71610000  0.35019000  0.56117000  1.0 -0.4067607435
O  O27  1  0.71610000  0.14981000  0.06117000  1.0 -0.4067607435
O  O28  1  0.28390000  0.64981000  0.43883000  1.0 -0.4067607435
O  O29  1  0.47100000  0.95651000  0.92603000  1.0 -0.5756098094
O  O30  1  0.52900000  0.45651000  0.57397000  1.0 -0.5756098094
O  O31  1  0.52900000  0.04349000  0.07397000  1.0 -0.5756098094
O  O32  1  0.47100000  0.54349000  0.42603000  1.0 -0.5756098094
O  O33  1  0.07760000  0.96521000  0.70157000  1.0 -0.4692230162
O  O34  1  0.92240000  0.46521000  0.79843000  1.0 -0.4692230162
O  O35  1  0.92240000  0.03479000  0.29843000  1.0 -0.4692230162
O  O36  1  0.07760000  0.53479000  0.20157000  1.0 -0.4692230162
O  O37  1  0.18820000  0.04820000  0.79893000  1.0 -0.4692230162
O  O38  1  0.81180000  0.54820000  0.70107000  1.0 -0.4692230162
O  O39  1  0.81180000  0.95180000  0.20107000  1.0 -0.4692230162
O  O40  1  0.18820000  0.45180000  0.29893000  1.0 -0.4692230162
O  O41  1  0.91080000  0.04266000  0.69673000  1.0 -0.4594466237
O  O42  1  0.08920000  0.54266000  0.80327000  1.0 -0.4594466237
O  O43  1  0.08920000  0.95734000  0.30327000  1.0 -0.4594466237
O  O44  1  0.91080000  0.45734000  0.19673000  1.0 -0.4594466237
O  O45  1  0.01640000  0.11400000  0.81870000  1.0 -0.4970911257
O  O46  1  0.98360000  0.61400000  0.68130000  1.0 -0.4970911257
O  O47  1  0.98360000  0.88600000  0.18130000  1.0 -0.4970911257
O  O48  1  0.01640000  0.38600000  0.31870000  1.0 -0.4970911257
O  O49  1  0.37570000  0.43084000  0.80698000  1.0 -0.4523425108
O  O50  1  0.62430000  0.93084000  0.69302000  1.0 -0.4594466237
O  O51  1  0.62430000  0.56916000  0.19302000  1.0 -0.4594466237
O  O52  1  0.37570000  0.06916000  0.30698000  1.0 -0.4523425108
O  O53  1  0.25650000  0.43020000  0.68140000  1.0 -0.4428402197
O  O54  1  0.74350000  0.93020000  0.81860000  1.0 -0.4428402197
O  O55  1  0.74350000  0.56980000  0.31860000  1.0 -0.4428402197
O  O56  1  0.25650000  0.06980000  0.18140000  1.0 -0.4428402197
O  O57  1  0.36900000  0.55746000  0.81190000  1.0 -0.5161710763
O  O58  1  0.63100000  0.05746000  0.68810000  1.0 -0.5138406964
O  O59  1  0.63100000  0.44254000  0.18810000  1.0 -0.5161710763
O  O60  1  0.36900000  0.94254000  0.31190000  1.0 -0.5161710763
O  O61  1  0.27460000  0.55550000  0.67111000  1.0 -0.5572748097
O  O62  1  0.72540000  0.05550000  0.82889000  1.0 -0.5572748097
O  O63  1  0.72540000  0.44450000  0.32889000  1.0 -0.5572748097
O  O64  1  0.27460000  0.94450000  0.17111000  1.0 -0.5572748097
O  O65  1  0.44180000  0.31761000  0.68258000  1.0 -0.4238166126
O  O66  1  0.55820000  0.81761000  0.81742000  1.0 -0.4238166126
O  O67  1  0.55820000  0.68239000  0.31742000  1.0 -0.4238166126
O  O68  1  0.44180000  0.18239000  0.18258000  1.0 -0.4238166126
O  O69  1  0.39520000  0.26912000  0.81147000  1.0 -0.4523425108
O  O70  1  0.60480000  0.76912000  0.68853000  1.0 -0.4523425108
O  O71  1  0.60480000  0.73088000  0.18853000  1.0 -0.4523425108
O  O72  1  0.39520000  0.23088000  0.31147000  1.0 -0.4523425108
O  O73  1  0.60020000  0.23837000  0.67504000  1.0 -0.4927213204
O  O74  1  0.39980000  0.73837000  0.82496000  1.0 -0.4927213204
O  O75  1  0.39980000  0.76163000  0.32496000  1.0 -0.4927213204
O  O76  1  0.60020000  0.26163000  0.17504000  1.0 -0.4927213204
O  O77  1  0.55950000  0.19344000  0.81442000  1.0 -0.5161710763
O  O78  1  0.44050000  0.69344000  0.68558000  1.0 -0.5161710763
O  O79  1  0.44050000  0.80656000  0.18558000  1.0 -0.5161710763
O  O80  1  0.55950000  0.30656000  0.31442000  1.0 -0.5161710763
O  O81  1  0.19800000  0.27220000  0.68716000  1.0 -0.4523425108
O  O82  1  0.80200000  0.77220000  0.81284000  1.0 -0.4523425108
O  O83  1  0.80200000  0.72780000  0.31284000  1.0 -0.4523425108
O  O84  1  0.19800000  0.22780000  0.18716000  1.0 -0.4523425108
O  O85  1  0.15620000  0.34001000  0.80780000  1.0 -0.4523425108
O  O86  1  0.84380000  0.84001000  0.69220000  1.0 -0.4523425108
O  O87  1  0.84380000  0.65999000  0.19220000  1.0 -0.4523425108
O  O88  1  0.15620000  0.15999000  0.30780000  1.0 -0.4523425108
O  O89  1  0.01480000  0.21690000  0.68274000  1.0 -0.4594466237
O  O90  1  0.98520000  0.71690000  0.81726000  1.0 -0.4594466237
O  O91  1  0.98520000  0.78310000  0.31726000  1.0 -0.4594466237
O  O92  1  0.01480000  0.28310000  0.18274000  1.0 -0.4594466237
O  O93  1  0.96830000  0.28792000  0.81124000  1.0 -0.4428402197
O  O94  1  0.03170000  0.78792000  0.68876000  1.0 -0.4523425108
O  O95  1  0.03170000  0.71208000  0.18876000  1.0 -0.4428402197
O  O96  1  0.96830000  0.21208000  0.31124000  1.0 -0.4523425108
O  O97  1  0.78040000  0.20119000  0.90664000  1.0 -0.0990802093
O  O98  1  0.21960000  0.70119000  0.59336000  1.0 -0.0990802093
O  O99  1  0.21960000  0.79881000  0.09336000  1.0 -0.0990802093
O  O100  1  0.78040000  0.29881000  0.40664000  1.0 -0.0990802093
O  O101  1  0.78540000  0.19685000  0.58516000  1.0 -0.1321679323
O  O102  1  0.21460000  0.69685000  0.91484000  1.0 -0.1321679323
O  O103  1  0.21460000  0.80315000  0.41484000  1.0 -0.1321679323
O  O104  1  0.78540000  0.30315000  0.08516000  1.0 -0.1321679323
O  O105  1  0.46510000  0.27760000  0.52589000  1.0 -0.3592497619
O  O106  1  0.53490000  0.77760000  0.97411000  1.0 -0.3592497619
O  O107  1  0.53490000  0.72240000  0.47411000  1.0 -0.3592497619
O  O108  1  0.46510000  0.22240000  0.02589000  1.0 -0.3592497619
