# DDEC6 charges by PACMAN v1.1 (https://github.com/mtap-research/PACMAN-charge/)
data_YORRII_ion_pacman
_symmetry_space_group_name_H-M   'P 1'
_cell_length_a   20.00340000
_cell_length_b   20.21880000
_cell_length_c   20.97310000
_cell_angle_alpha   90.00000000
_cell_angle_beta   90.00000000
_cell_angle_gamma   90.00000000
_symmetry_Int_Tables_number   1
_chemical_formula_structural   Be6P9H26C15(NO8)3
_chemical_formula_sum   'Be48 P72 H208 C120 N24 O192'
_cell_volume   8482.46005871
_cell_formula_units_Z   8
loop_
 _symmetry_equiv_pos_site_id
 _symmetry_equiv_pos_as_xyz
  1  'x, y, z'
loop_
 _atom_site_type_symbol
 _atom_site_label
 _atom_site_symmetry_multiplicity
 _atom_site_fract_x
 _atom_site_fract_y
 _atom_site_fract_z
 _atom_site_occupancy
 _atom_site_charge
Be  Be1  1  0.59820000  0.49290000  0.63710000  1.0 1.1810427057
Be  Be2  1  0.90180000  0.50710000  0.13710000  1.0 1.1810427057
Be  Be3  1  0.40180000  0.99290000  0.86290000  1.0 1.1810427057
Be  Be4  1  0.09820000  0.00710000  0.36290000  1.0 1.1879230487
Be  Be5  1  0.40180000  0.50710000  0.36290000  1.0 1.1810427057
Be  Be6  1  0.09820000  0.49290000  0.86290000  1.0 1.1810427057
Be  Be7  1  0.59820000  0.00710000  0.13710000  1.0 1.1879230487
Be  Be8  1  0.90180000  0.99290000  0.63710000  1.0 1.1810427057
Be  Be9  1  0.54310000  0.29360000  0.62110000  1.0 0.9792938748
Be  Be10  1  0.95690000  0.70640000  0.12110000  1.0 0.9792938748
Be  Be11  1  0.45690000  0.79360000  0.87890000  1.0 0.9716235745
Be  Be12  1  0.04310000  0.20640000  0.37890000  1.0 0.9792938748
Be  Be13  1  0.45690000  0.70640000  0.37890000  1.0 0.9792938748
Be  Be14  1  0.04310000  0.29360000  0.87890000  1.0 0.9792938748
Be  Be15  1  0.54310000  0.20640000  0.12110000  1.0 0.9792938748
Be  Be16  1  0.95690000  0.79360000  0.62110000  1.0 0.9792938748
Be  Be17  1  0.36930000  0.36280000  0.55020000  1.0 1.1365495967
Be  Be18  1  0.13070000  0.63720000  0.05020000  1.0 1.1365495967
Be  Be19  1  0.63070000  0.86280000  0.94980000  1.0 1.1322387504
Be  Be20  1  0.86930000  0.13720000  0.44980000  1.0 1.1365495967
Be  Be21  1  0.63070000  0.63720000  0.44980000  1.0 1.1322387504
Be  Be22  1  0.86930000  0.36280000  0.94980000  1.0 1.1322387504
Be  Be23  1  0.36930000  0.13720000  0.05020000  1.0 1.1365495967
Be  Be24  1  0.13070000  0.86280000  0.55020000  1.0 1.1322387504
Be  Be25  1  0.18020000  0.40950000  0.48990000  1.0 0.9982086467
Be  Be26  1  0.31980000  0.59050000  0.98990000  1.0 0.9935075986
Be  Be27  1  0.81980000  0.90950000  0.01010000  1.0 0.9935075986
Be  Be28  1  0.68020000  0.09050000  0.51010000  1.0 0.9982086467
Be  Be29  1  0.81980000  0.59050000  0.51010000  1.0 0.9935075986
Be  Be30  1  0.68020000  0.40950000  0.01010000  1.0 0.9982086467
Be  Be31  1  0.18020000  0.09050000  0.98990000  1.0 0.9982086467
Be  Be32  1  0.31980000  0.90950000  0.48990000  1.0 0.9935075986
Be  Be33  1  0.13880000  0.43900000  0.67940000  1.0 1.0707627483
Be  Be34  1  0.36120000  0.56100000  0.17940000  1.0 1.0707627483
Be  Be35  1  0.86120000  0.93900000  0.82060000  1.0 1.0620854246
Be  Be36  1  0.63880000  0.06100000  0.32060000  1.0 1.0707627483
Be  Be37  1  0.86120000  0.56100000  0.32060000  1.0 1.0707627483
Be  Be38  1  0.63880000  0.43900000  0.82060000  1.0 1.0707627483
Be  Be39  1  0.13880000  0.06100000  0.17940000  1.0 1.0765225041
Be  Be40  1  0.36120000  0.93900000  0.67940000  1.0 1.0707627483
Be  Be41  1  0.04970000  0.61080000  0.62630000  1.0 1.0317735024
Be  Be42  1  0.45030000  0.38920000  0.12630000  1.0 1.0365563976
Be  Be43  1  0.95030000  0.11080000  0.87370000  1.0 1.0317735024
Be  Be44  1  0.54970000  0.88920000  0.37370000  1.0 1.0317735024
Be  Be45  1  0.95030000  0.38920000  0.37370000  1.0 1.0317735024
Be  Be46  1  0.54970000  0.61080000  0.87370000  1.0 1.0317735024
Be  Be47  1  0.04970000  0.88920000  0.12630000  1.0 1.0365563976
Be  Be48  1  0.45030000  0.11080000  0.62630000  1.0 1.0317735024
P  P1  1  0.63286000  0.36973000  0.70394000  1.0 0.918664177
P  P2  1  0.86714000  0.63027000  0.20394000  1.0 0.918664177
P  P3  1  0.36714000  0.86973000  0.79606000  1.0 0.918664177
P  P4  1  0.13286000  0.13027000  0.29606000  1.0 0.918664177
P  P5  1  0.36714000  0.63027000  0.29606000  1.0 0.918664177
P  P6  1  0.13286000  0.36973000  0.79606000  1.0 0.918664177
P  P7  1  0.63286000  0.13027000  0.20394000  1.0 0.918664177
P  P8  1  0.86714000  0.86973000  0.70394000  1.0 0.918664177
P  P9  1  0.50339000  0.41899000  0.56226000  1.0 0.918664177
P  P10  1  0.99661000  0.58101000  0.06226000  1.0 0.9275875288
P  P11  1  0.49661000  0.91899000  0.93774000  1.0 0.9275875288
P  P12  1  0.00339000  0.08101000  0.43774000  1.0 0.918664177
P  P13  1  0.49661000  0.58101000  0.43774000  1.0 0.9275875288
P  P14  1  0.00339000  0.41899000  0.93774000  1.0 0.918664177
P  P15  1  0.50339000  0.08101000  0.06226000  1.0 0.918664177
P  P16  1  0.99661000  0.91899000  0.56226000  1.0 0.9275875288
P  P17  1  0.40938000  0.25026000  0.62333000  1.0 0.8331907141
P  P18  1  0.09062000  0.74974000  0.12333000  1.0 0.8331907141
P  P19  1  0.59062000  0.75026000  0.87667000  1.0 0.8331907141
P  P20  1  0.90938000  0.24974000  0.37667000  1.0 0.8331907141
P  P21  1  0.59062000  0.74974000  0.37667000  1.0 0.8331907141
P  P22  1  0.90938000  0.25026000  0.87667000  1.0 0.8331907141
P  P23  1  0.40938000  0.24974000  0.12333000  1.0 0.8331907141
P  P24  1  0.09062000  0.75026000  0.62333000  1.0 0.8331907141
P  P25  1  0.31267000  0.41712000  0.43430000  1.0 0.8878875975
P  P26  1  0.18733000  0.58288000  0.93430000  1.0 0.8843721497
P  P27  1  0.68733000  0.91712000  0.06570000  1.0 0.8878875975
P  P28  1  0.81267000  0.08288000  0.56570000  1.0 0.8843721497
P  P29  1  0.68733000  0.58288000  0.56570000  1.0 0.8878875975
P  P30  1  0.81267000  0.41712000  0.06570000  1.0 0.8878875975
P  P31  1  0.31267000  0.08288000  0.93430000  1.0 0.8878875975
P  P32  1  0.18733000  0.91712000  0.43430000  1.0 0.8878875975
P  P33  1  0.23799000  0.36396000  0.60771000  1.0 0.8878875975
P  P34  1  0.26201000  0.63604000  0.10771000  1.0 0.8878875975
P  P35  1  0.76201000  0.86396000  0.89229000  1.0 0.8878875975
P  P36  1  0.73799000  0.13604000  0.39229000  1.0 0.8878875975
P  P37  1  0.76201000  0.63604000  0.39229000  1.0 0.8878875975
P  P38  1  0.73799000  0.36396000  0.89229000  1.0 0.8878875975
P  P39  1  0.23799000  0.13604000  0.10771000  1.0 0.8878875975
P  P40  1  0.26201000  0.86396000  0.60771000  1.0 0.8878875975
P  P41  1  0.08055000  0.48376000  0.56331000  1.0 0.8678359139
P  P42  1  0.41945000  0.51624000  0.06331000  1.0 0.8678359139
P  P43  1  0.91945000  0.98376000  0.93669000  1.0 0.8678359139
P  P44  1  0.58055000  0.01624000  0.43669000  1.0 0.8678359139
P  P45  1  0.91945000  0.51624000  0.43669000  1.0 0.8678359139
P  P46  1  0.58055000  0.48376000  0.93669000  1.0 0.8678359139
P  P47  1  0.08055000  0.01624000  0.06331000  1.0 0.8678359139
P  P48  1  0.41945000  0.98376000  0.56331000  1.0 0.8678359139
P  P49  1  0.11249000  0.56223000  0.74204000  1.0 0.8112845617
P  P50  1  0.38751000  0.43777000  0.24204000  1.0 0.8112845617
P  P51  1  0.88751000  0.06223000  0.75796000  1.0 0.8112845617
P  P52  1  0.61249000  0.93777000  0.25796000  1.0 0.8112845617
P  P53  1  0.88751000  0.43777000  0.25796000  1.0 0.8112845617
P  P54  1  0.61249000  0.56223000  0.75796000  1.0 0.8112845617
P  P55  1  0.11249000  0.93777000  0.24204000  1.0 0.8112845617
P  P56  1  0.38751000  0.06223000  0.74204000  1.0 0.8112845617
P  P57  1  0.92854000  0.65773000  0.57157000  1.0 0.278745764
P  P58  1  0.57146000  0.34227000  0.07157000  1.0 0.278745764
P  P59  1  0.07146000  0.15773000  0.92843000  1.0 0.278745764
P  P60  1  0.42854000  0.84227000  0.42843000  1.0 0.278745764
P  P61  1  0.07146000  0.34227000  0.42843000  1.0 0.278745764
P  P62  1  0.42854000  0.65773000  0.92843000  1.0 0.278745764
P  P63  1  0.92854000  0.84227000  0.07157000  1.0 0.278745764
P  P64  1  0.57146000  0.15773000  0.57157000  1.0 0.278745764
P  P65  1  0.90950000  0.66210000  0.60310000  1.0 0.449953259
P  P66  1  0.59050000  0.33790000  0.10310000  1.0 0.449953259
P  P67  1  0.09050000  0.16210000  0.89690000  1.0 0.449953259
P  P68  1  0.40950000  0.83790000  0.39690000  1.0 0.449953259
P  P69  1  0.09050000  0.33790000  0.39690000  1.0 0.449953259
P  P70  1  0.40950000  0.66210000  0.89690000  1.0 0.449953259
P  P71  1  0.90950000  0.83790000  0.10310000  1.0 0.449953259
P  P72  1  0.59050000  0.16210000  0.60310000  1.0 0.449953259
H  H1  1  0.69410000  0.34570000  0.71370000  1.0 -0.1218379406
H  H2  1  0.80590000  0.65430000  0.21370000  1.0 -0.1218379406
H  H3  1  0.30590000  0.84570000  0.78630000  1.0 -0.1218379406
H  H4  1  0.19410000  0.15430000  0.28630000  1.0 -0.1218379406
H  H5  1  0.30590000  0.65430000  0.28630000  1.0 -0.1218379406
H  H6  1  0.19410000  0.34570000  0.78630000  1.0 -0.1218379406
H  H7  1  0.69410000  0.15430000  0.21370000  1.0 -0.1218379406
H  H8  1  0.80590000  0.84570000  0.71370000  1.0 -0.1218379406
H  H9  1  0.51920000  0.43170000  0.49450000  1.0 -0.19207153
H  H10  1  0.98080000  0.56830000  0.99450000  1.0 -0.19207153
H  H11  1  0.48080000  0.93170000  0.00550000  1.0 -0.19207153
H  H12  1  0.01920000  0.06830000  0.50550000  1.0 -0.19207153
H  H13  1  0.48080000  0.56830000  0.50550000  1.0 -0.19207153
H  H14  1  0.01920000  0.43170000  0.00550000  1.0 -0.19207153
H  H15  1  0.51920000  0.06830000  0.99450000  1.0 -0.19207153
H  H16  1  0.98080000  0.93170000  0.49450000  1.0 -0.19207153
H  H17  1  0.36330000  0.26140000  0.66420000  1.0 -0.1218379406
H  H18  1  0.13670000  0.73860000  0.16420000  1.0 -0.1218379406
H  H19  1  0.63670000  0.76140000  0.83580000  1.0 -0.1218379406
H  H20  1  0.86330000  0.23860000  0.33580000  1.0 -0.1218379406
H  H21  1  0.63670000  0.73860000  0.33580000  1.0 -0.1218379406
H  H22  1  0.86330000  0.26140000  0.83580000  1.0 -0.1218379406
H  H23  1  0.36330000  0.23860000  0.16420000  1.0 -0.1218379406
H  H24  1  0.13670000  0.76140000  0.66420000  1.0 -0.1218379406
H  H25  1  0.30170000  0.38720000  0.38230000  1.0 -0.1218379406
H  H26  1  0.19830000  0.61280000  0.88230000  1.0 -0.1218379406
H  H27  1  0.69830000  0.88720000  0.11770000  1.0 -0.1218379406
H  H28  1  0.80170000  0.11280000  0.61770000  1.0 -0.1218379406
H  H29  1  0.69830000  0.61280000  0.61770000  1.0 -0.1218379406
H  H30  1  0.80170000  0.38720000  0.11770000  1.0 -0.1218379406
H  H31  1  0.30170000  0.11280000  0.88230000  1.0 -0.1218379406
H  H32  1  0.19830000  0.88720000  0.38230000  1.0 -0.1218379406
H  H33  1  0.23950000  0.30160000  0.63550000  1.0 -0.1636319122
H  H34  1  0.26050000  0.69840000  0.13550000  1.0 -0.1636319122
H  H35  1  0.76050000  0.80160000  0.86450000  1.0 -0.1636319122
H  H36  1  0.73950000  0.19840000  0.36450000  1.0 -0.1636319122
H  H37  1  0.76050000  0.69840000  0.36450000  1.0 -0.1636319122
H  H38  1  0.73950000  0.30160000  0.86450000  1.0 -0.1636319122
H  H39  1  0.23950000  0.19840000  0.13550000  1.0 -0.1636319122
H  H40  1  0.26050000  0.80160000  0.63550000  1.0 -0.1636319122
H  H41  1  0.02220000  0.45750000  0.53650000  1.0 -0.1660364173
H  H42  1  0.47780000  0.54250000  0.03650000  1.0 -0.1660364173
H  H43  1  0.97780000  0.95750000  0.96350000  1.0 -0.1660364173
H  H44  1  0.52220000  0.04250000  0.46350000  1.0 -0.1660364173
H  H45  1  0.97780000  0.54250000  0.46350000  1.0 -0.1660364173
H  H46  1  0.52220000  0.45750000  0.96350000  1.0 -0.1660364173
H  H47  1  0.02220000  0.04250000  0.03650000  1.0 -0.1660364173
H  H48  1  0.47780000  0.95750000  0.53650000  1.0 -0.1660364173
H  H49  1  0.15240000  0.61260000  0.75270000  1.0 -0.1393345654
H  H50  1  0.34760000  0.38740000  0.25270000  1.0 -0.1393345654
H  H51  1  0.84760000  0.11260000  0.74730000  1.0 -0.1393345654
H  H52  1  0.65240000  0.88740000  0.24730000  1.0 -0.1393345654
H  H53  1  0.84760000  0.38740000  0.24730000  1.0 -0.1393345654
H  H54  1  0.65240000  0.61260000  0.74730000  1.0 -0.1393345654
H  H55  1  0.15240000  0.88740000  0.25270000  1.0 -0.1393345654
H  H56  1  0.34760000  0.11260000  0.75270000  1.0 -0.1393345654
H  H57  1  0.95660000  0.64840000  0.52090000  1.0 -0.0909018563
H  H58  1  0.54340000  0.35160000  0.02090000  1.0 -0.0909018563
H  H59  1  0.04340000  0.14840000  0.97910000  1.0 -0.0909018563
H  H60  1  0.45660000  0.85160000  0.47910000  1.0 -0.0909018563
H  H61  1  0.04340000  0.35160000  0.47910000  1.0 -0.0909018563
H  H62  1  0.45660000  0.64840000  0.97910000  1.0 -0.0909018563
H  H63  1  0.95660000  0.85160000  0.02090000  1.0 -0.0909018563
H  H64  1  0.54340000  0.14840000  0.52090000  1.0 -0.0909018563
H  H65  1  0.55490000  0.44910000  0.34700000  1.0 0.278745764
H  H66  1  0.60480000  0.35480000  0.28390000  1.0 0.1008164408
H  H67  1  0.71320000  0.33680000  0.30900000  1.0 0.1194147226
H  H68  1  0.61990000  0.50660000  0.40950000  1.0 0.1091483335
H  H69  1  0.72180000  0.49050000  0.42540000  1.0 0.129539961
H  H70  1  0.77820000  0.39800000  0.37910000  1.0 0.1091483335
H  H71  1  0.94510000  0.55090000  0.84700000  1.0 0.278745764
H  H72  1  0.89520000  0.64520000  0.78390000  1.0 0.1008164408
H  H73  1  0.78680000  0.66320000  0.80900000  1.0 0.1194147226
H  H74  1  0.88010000  0.49340000  0.90950000  1.0 0.1091483335
H  H75  1  0.77820000  0.50950000  0.92540000  1.0 0.129539961
H  H76  1  0.72180000  0.60200000  0.87910000  1.0 0.1091483335
H  H77  1  0.44510000  0.94910000  0.15300000  1.0 0.278745764
H  H78  1  0.39520000  0.85480000  0.21610000  1.0 0.1008164408
H  H79  1  0.28680000  0.83680000  0.19100000  1.0 0.1194147226
H  H80  1  0.38010000  0.00660000  0.09050000  1.0 0.1091483335
H  H81  1  0.27820000  0.99050000  0.07460000  1.0 0.129539961
H  H82  1  0.22180000  0.89800000  0.12090000  1.0 0.1091483335
H  H83  1  0.05490000  0.05090000  0.65300000  1.0 0.278745764
H  H84  1  0.10480000  0.14520000  0.71610000  1.0 0.1008164408
H  H85  1  0.21320000  0.16320000  0.69100000  1.0 0.1194147226
H  H86  1  0.11990000  0.99340000  0.59050000  1.0 0.1091483335
H  H87  1  0.22180000  0.00950000  0.57460000  1.0 0.129539961
H  H88  1  0.27820000  0.10200000  0.62090000  1.0 0.1091483335
H  H89  1  0.44510000  0.55090000  0.65300000  1.0 0.278745764
H  H90  1  0.39520000  0.64520000  0.71610000  1.0 0.1008164408
H  H91  1  0.28680000  0.66320000  0.69100000  1.0 0.1194147226
H  H92  1  0.38010000  0.49340000  0.59050000  1.0 0.1091483335
H  H93  1  0.27820000  0.50950000  0.57460000  1.0 0.129539961
H  H94  1  0.22180000  0.60200000  0.62090000  1.0 0.1091483335
H  H95  1  0.05490000  0.44910000  0.15300000  1.0 0.278745764
H  H96  1  0.10480000  0.35480000  0.21610000  1.0 0.1008164408
H  H97  1  0.21320000  0.33680000  0.19100000  1.0 0.1194147226
H  H98  1  0.11990000  0.50660000  0.09050000  1.0 0.1091483335
H  H99  1  0.22180000  0.49050000  0.07460000  1.0 0.129539961
H  H100  1  0.27820000  0.39800000  0.12090000  1.0 0.1091483335
H  H101  1  0.55490000  0.05090000  0.84700000  1.0 0.278745764
H  H102  1  0.60480000  0.14520000  0.78390000  1.0 0.1008164408
H  H103  1  0.71320000  0.16320000  0.80900000  1.0 0.1194147226
H  H104  1  0.61990000  0.99340000  0.90950000  1.0 0.1091483335
H  H105  1  0.72180000  0.00950000  0.92540000  1.0 0.129539961
H  H106  1  0.77820000  0.10200000  0.87910000  1.0 0.1091483335
H  H107  1  0.94510000  0.94910000  0.34700000  1.0 0.278745764
H  H108  1  0.89520000  0.85480000  0.28390000  1.0 0.1008164408
H  H109  1  0.78680000  0.83680000  0.30900000  1.0 0.1194147226
H  H110  1  0.88010000  0.00660000  0.40950000  1.0 0.1091483335
H  H111  1  0.77820000  0.99050000  0.42540000  1.0 0.129539961
H  H112  1  0.72180000  0.89800000  0.37910000  1.0 0.1091483335
H  H113  1  0.56950000  0.68450000  0.68620000  1.0 0.1008164408
H  H114  1  0.54780000  0.66350000  0.57960000  1.0 0.1194147226
H  H115  1  0.46850000  0.72480000  0.52730000  1.0 0.1091483335
H  H116  1  0.51100000  0.76730000  0.73730000  1.0 0.129539961
H  H117  1  0.43680000  0.82570000  0.68570000  1.0 0.129539961
H  H118  1  0.41650000  0.80600000  0.58440000  1.0 0.2725028592
H  H119  1  0.93050000  0.31550000  0.18620000  1.0 0.1008164408
H  H120  1  0.95220000  0.33650000  0.07960000  1.0 0.1194147226
H  H121  1  0.03150000  0.27520000  0.02730000  1.0 0.1091483335
H  H122  1  0.98900000  0.23270000  0.23730000  1.0 0.129539961
H  H123  1  0.06320000  0.17430000  0.18570000  1.0 0.129539961
H  H124  1  0.08350000  0.19400000  0.08440000  1.0 0.2725028592
H  H125  1  0.43050000  0.18450000  0.81380000  1.0 0.1008164408
H  H126  1  0.45220000  0.16350000  0.92040000  1.0 0.1194147226
H  H127  1  0.53150000  0.22480000  0.97270000  1.0 0.1091483335
H  H128  1  0.48900000  0.26730000  0.76270000  1.0 0.129539961
H  H129  1  0.56320000  0.32570000  0.81430000  1.0 0.129539961
H  H130  1  0.58350000  0.30600000  0.91560000  1.0 0.2725028592
H  H131  1  0.06950000  0.81550000  0.31380000  1.0 0.1008164408
H  H132  1  0.04780000  0.83650000  0.42040000  1.0 0.1194147226
H  H133  1  0.96850000  0.77520000  0.47270000  1.0 0.1091483335
H  H134  1  0.01100000  0.73270000  0.26270000  1.0 0.129539961
H  H135  1  0.93680000  0.67430000  0.31430000  1.0 0.129539961
H  H136  1  0.91650000  0.69400000  0.41560000  1.0 0.2725028592
H  H137  1  0.43050000  0.31550000  0.31380000  1.0 0.1008164408
H  H138  1  0.45220000  0.33650000  0.42040000  1.0 0.1194147226
H  H139  1  0.53150000  0.27520000  0.47270000  1.0 0.1091483335
H  H140  1  0.48900000  0.23270000  0.26270000  1.0 0.129539961
H  H141  1  0.56320000  0.17430000  0.31430000  1.0 0.129539961
H  H142  1  0.58350000  0.19400000  0.41560000  1.0 0.2725028592
H  H143  1  0.06950000  0.68450000  0.81380000  1.0 0.1008164408
H  H144  1  0.04780000  0.66350000  0.92040000  1.0 0.1194147226
H  H145  1  0.96850000  0.72480000  0.97270000  1.0 0.1091483335
H  H146  1  0.01100000  0.76730000  0.76270000  1.0 0.129539961
H  H147  1  0.93680000  0.82570000  0.81430000  1.0 0.129539961
H  H148  1  0.91650000  0.80600000  0.91560000  1.0 0.2725028592
H  H149  1  0.56950000  0.81550000  0.18620000  1.0 0.1008164408
H  H150  1  0.54780000  0.83650000  0.07960000  1.0 0.1194147226
H  H151  1  0.46850000  0.77520000  0.02730000  1.0 0.1091483335
H  H152  1  0.51100000  0.73270000  0.23730000  1.0 0.129539961
H  H153  1  0.43680000  0.67430000  0.18570000  1.0 0.129539961
H  H154  1  0.41650000  0.69400000  0.08440000  1.0 0.2725028592
H  H155  1  0.93050000  0.18450000  0.68620000  1.0 0.1008164408
H  H156  1  0.95220000  0.16350000  0.57960000  1.0 0.1194147226
H  H157  1  0.03150000  0.22480000  0.52730000  1.0 0.1091483335
H  H158  1  0.98900000  0.26730000  0.73730000  1.0 0.129539961
H  H159  1  0.06320000  0.32570000  0.68570000  1.0 0.129539961
H  H160  1  0.08350000  0.30600000  0.58440000  1.0 0.2725028592
H  H161  1  0.23570000  0.97220000  0.79160000  1.0 0.1194147226
H  H162  1  0.17240000  0.03550000  0.85440000  1.0 0.129539961
H  H163  1  0.06280000  0.04150000  0.83980000  1.0 0.1091483335
H  H164  1  0.18360000  0.90170000  0.72210000  1.0 0.1194147226
H  H165  1  0.06820000  0.89390000  0.71940000  1.0 0.1091483335
H  H166  1  0.01370000  0.96130000  0.78750000  1.0 0.2725028592
H  H167  1  0.26430000  0.02780000  0.29160000  1.0 0.1194147226
H  H168  1  0.32760000  0.96450000  0.35440000  1.0 0.129539961
H  H169  1  0.43720000  0.95850000  0.33980000  1.0 0.1091483335
H  H170  1  0.31640000  0.09830000  0.22210000  1.0 0.1194147226
H  H171  1  0.43180000  0.10610000  0.21940000  1.0 0.1091483335
H  H172  1  0.48630000  0.03870000  0.28750000  1.0 0.2725028592
H  H173  1  0.76430000  0.47220000  0.70840000  1.0 0.1194147226
H  H174  1  0.82760000  0.53550000  0.64560000  1.0 0.129539961
H  H175  1  0.93720000  0.54150000  0.66020000  1.0 0.1091483335
H  H176  1  0.81640000  0.40170000  0.77790000  1.0 0.1194147226
H  H177  1  0.93180000  0.39390000  0.78060000  1.0 0.1091483335
H  H178  1  0.98630000  0.46130000  0.71250000  1.0 0.2725028592
H  H179  1  0.73570000  0.52780000  0.20840000  1.0 0.1194147226
H  H180  1  0.67240000  0.46450000  0.14560000  1.0 0.129539961
H  H181  1  0.56280000  0.45850000  0.16020000  1.0 0.1091483335
H  H182  1  0.68360000  0.59830000  0.27790000  1.0 0.1194147226
H  H183  1  0.56820000  0.60610000  0.28060000  1.0 0.1091483335
H  H184  1  0.51370000  0.53870000  0.21250000  1.0 0.2725028592
H  H185  1  0.76430000  0.02780000  0.20840000  1.0 0.1194147226
H  H186  1  0.82760000  0.96450000  0.14560000  1.0 0.129539961
H  H187  1  0.93720000  0.95850000  0.16020000  1.0 0.1091483335
H  H188  1  0.81640000  0.09830000  0.27790000  1.0 0.1194147226
H  H189  1  0.93180000  0.10610000  0.28060000  1.0 0.1091483335
H  H190  1  0.98630000  0.03870000  0.21250000  1.0 0.2725028592
H  H191  1  0.73570000  0.97220000  0.70840000  1.0 0.1194147226
H  H192  1  0.67240000  0.03550000  0.64560000  1.0 0.129539961
H  H193  1  0.56280000  0.04150000  0.66020000  1.0 0.1091483335
H  H194  1  0.68360000  0.90170000  0.77790000  1.0 0.1194147226
H  H195  1  0.56820000  0.89390000  0.78060000  1.0 0.1091483335
H  H196  1  0.51370000  0.96130000  0.71250000  1.0 0.2725028592
H  H197  1  0.23570000  0.52780000  0.29160000  1.0 0.1194147226
H  H198  1  0.17240000  0.46450000  0.35440000  1.0 0.129539961
H  H199  1  0.06280000  0.45850000  0.33980000  1.0 0.1091483335
H  H200  1  0.18360000  0.59830000  0.22210000  1.0 0.1194147226
H  H201  1  0.06820000  0.60610000  0.21940000  1.0 0.1091483335
H  H202  1  0.01370000  0.53870000  0.28750000  1.0 0.2725028592
H  H203  1  0.26430000  0.47220000  0.79160000  1.0 0.1194147226
H  H204  1  0.32760000  0.53550000  0.85440000  1.0 0.129539961
H  H205  1  0.43720000  0.54150000  0.83980000  1.0 0.1091483335
H  H206  1  0.31640000  0.40170000  0.72210000  1.0 0.1194147226
H  H207  1  0.43180000  0.39390000  0.71940000  1.0 0.1091483335
H  H208  1  0.48630000  0.46130000  0.78750000  1.0 0.2725028592
C  C1  1  0.62760000  0.38070000  0.31330000  1.0 -0.0378815131
C  C2  1  0.69240000  0.37220000  0.32910000  1.0 -0.1393345654
C  C3  1  0.63850000  0.47100000  0.38780000  1.0 0.0617800849
C  C4  1  0.69910000  0.46160000  0.39850000  1.0 -0.1297458438
C  C5  1  0.73370000  0.40820000  0.37080000  1.0 -0.0037782052
C  C6  1  0.87240000  0.61930000  0.81330000  1.0 -0.0378815131
C  C7  1  0.80760000  0.62780000  0.82910000  1.0 -0.1393345654
C  C8  1  0.86150000  0.52900000  0.88780000  1.0 0.0617800849
C  C9  1  0.80090000  0.53840000  0.89850000  1.0 -0.1297458438
C  C10  1  0.76630000  0.59180000  0.87080000  1.0 -0.0037782052
C  C11  1  0.37240000  0.88070000  0.18670000  1.0 -0.0378815131
C  C12  1  0.30760000  0.87220000  0.17090000  1.0 -0.1393345654
C  C13  1  0.36150000  0.97100000  0.11220000  1.0 0.0617800849
C  C14  1  0.30090000  0.96160000  0.10150000  1.0 -0.1297458438
C  C15  1  0.26630000  0.90820000  0.12920000  1.0 -0.0037782052
C  C16  1  0.12760000  0.11930000  0.68670000  1.0 -0.0378815131
C  C17  1  0.19240000  0.12780000  0.67090000  1.0 -0.1393345654
C  C18  1  0.13850000  0.02900000  0.61220000  1.0 0.0617800849
C  C19  1  0.19910000  0.03840000  0.60150000  1.0 -0.1297458438
C  C20  1  0.23370000  0.09180000  0.62920000  1.0 -0.0037782052
C  C21  1  0.37240000  0.61930000  0.68670000  1.0 -0.0378815131
C  C22  1  0.30760000  0.62780000  0.67090000  1.0 -0.1393345654
C  C23  1  0.36150000  0.52900000  0.61220000  1.0 0.0617800849
C  C24  1  0.30090000  0.53840000  0.60150000  1.0 -0.1297458438
C  C25  1  0.26630000  0.59180000  0.62920000  1.0 -0.0037782052
C  C26  1  0.12760000  0.38070000  0.18670000  1.0 -0.0378815131
C  C27  1  0.19240000  0.37220000  0.17090000  1.0 -0.1393345654
C  C28  1  0.13850000  0.47100000  0.11220000  1.0 0.0617800849
C  C29  1  0.19910000  0.46160000  0.10150000  1.0 -0.1297458438
C  C30  1  0.23370000  0.40820000  0.12920000  1.0 -0.0037782052
C  C31  1  0.62760000  0.11930000  0.81330000  1.0 -0.0378815131
C  C32  1  0.69240000  0.12780000  0.82910000  1.0 -0.1393345654
C  C33  1  0.63850000  0.02900000  0.88780000  1.0 0.0617800849
C  C34  1  0.69910000  0.03840000  0.89850000  1.0 -0.1297458438
C  C35  1  0.73370000  0.09180000  0.87080000  1.0 -0.0037782052
C  C36  1  0.87240000  0.88070000  0.31330000  1.0 -0.0378815131
C  C37  1  0.80760000  0.87220000  0.32910000  1.0 -0.1393345654
C  C38  1  0.86150000  0.97100000  0.38780000  1.0 0.0617800849
C  C39  1  0.80090000  0.96160000  0.39850000  1.0 -0.1297458438
C  C40  1  0.76630000  0.90820000  0.37080000  1.0 -0.0037782052
C  C41  1  0.53770000  0.70920000  0.66430000  1.0 -0.0378815131
C  C42  1  0.52470000  0.69670000  0.60090000  1.0 -0.1297458438
C  C43  1  0.47830000  0.73280000  0.57000000  1.0 0.0296483645
C  C44  1  0.50290000  0.75850000  0.69440000  1.0 -0.1636319122
C  C45  1  0.45960000  0.79240000  0.66420000  1.0 0.0452596444
C  C46  1  0.96230000  0.29080000  0.16430000  1.0 -0.0378815131
C  C47  1  0.97530000  0.30330000  0.10090000  1.0 -0.1297458438
C  C48  1  0.02170000  0.26720000  0.07000000  1.0 0.0296483645
C  C49  1  0.99710000  0.24150000  0.19440000  1.0 -0.1636319122
C  C50  1  0.04040000  0.20760000  0.16420000  1.0 0.0452596444
C  C51  1  0.46230000  0.20920000  0.83570000  1.0 -0.0378815131
C  C52  1  0.47530000  0.19670000  0.89910000  1.0 -0.1297458438
C  C53  1  0.52170000  0.23280000  0.93000000  1.0 0.0296483645
C  C54  1  0.49710000  0.25850000  0.80560000  1.0 -0.1636319122
C  C55  1  0.54040000  0.29240000  0.83580000  1.0 0.0452596444
C  C56  1  0.03770000  0.79080000  0.33570000  1.0 -0.0378815131
C  C57  1  0.02470000  0.80330000  0.39910000  1.0 -0.1297458438
C  C58  1  0.97830000  0.76720000  0.43000000  1.0 0.0296483645
C  C59  1  0.00290000  0.74150000  0.30560000  1.0 -0.1636319122
C  C60  1  0.95960000  0.70760000  0.33580000  1.0 0.0452596444
C  C61  1  0.46230000  0.29080000  0.33570000  1.0 -0.0378815131
C  C62  1  0.47530000  0.30330000  0.39910000  1.0 -0.1297458438
C  C63  1  0.52170000  0.26720000  0.43000000  1.0 0.0296483645
C  C64  1  0.49710000  0.24150000  0.30560000  1.0 -0.1636319122
C  C65  1  0.54040000  0.20760000  0.33580000  1.0 0.0452596444
C  C66  1  0.03770000  0.70920000  0.83570000  1.0 -0.0378815131
C  C67  1  0.02470000  0.69670000  0.89910000  1.0 -0.1297458438
C  C68  1  0.97830000  0.73280000  0.93000000  1.0 0.0296483645
C  C69  1  0.00290000  0.75850000  0.80560000  1.0 -0.1636319122
C  C70  1  0.95960000  0.79240000  0.83580000  1.0 0.0452596444
C  C71  1  0.53770000  0.79080000  0.16430000  1.0 -0.0378815131
C  C72  1  0.52470000  0.80330000  0.10090000  1.0 -0.1297458438
C  C73  1  0.47830000  0.76720000  0.07000000  1.0 0.0296483645
C  C74  1  0.50290000  0.74150000  0.19440000  1.0 -0.1636319122
C  C75  1  0.45960000  0.70760000  0.16420000  1.0 0.0452596444
C  C76  1  0.96230000  0.20920000  0.66430000  1.0 -0.0378815131
C  C77  1  0.97530000  0.19670000  0.60090000  1.0 -0.1297458438
C  C78  1  0.02170000  0.23280000  0.57000000  1.0 0.0296483645
C  C79  1  0.99710000  0.25850000  0.69440000  1.0 -0.1636319122
C  C80  1  0.04040000  0.29240000  0.66420000  1.0 0.0452596444
C  C81  1  0.18930000  0.97040000  0.78930000  1.0 -0.0378815131
C  C82  1  0.15210000  0.00820000  0.82450000  1.0 -0.1798328114
C  C83  1  0.08740000  0.00890000  0.81910000  1.0 0.0296483645
C  C84  1  0.15790000  0.92820000  0.74880000  1.0 -0.1660364173
C  C85  1  0.08990000  0.92360000  0.74630000  1.0 0.0296483645
C  C86  1  0.31070000  0.02960000  0.28930000  1.0 -0.0378815131
C  C87  1  0.34790000  0.99180000  0.32450000  1.0 -0.1798328114
C  C88  1  0.41260000  0.99110000  0.31910000  1.0 0.0296483645
C  C89  1  0.34210000  0.07180000  0.24880000  1.0 -0.1660364173
C  C90  1  0.41010000  0.07640000  0.24630000  1.0 0.0296483645
C  C91  1  0.81070000  0.47040000  0.71070000  1.0 -0.0378815131
C  C92  1  0.84790000  0.50820000  0.67550000  1.0 -0.1798328114
C  C93  1  0.91260000  0.50890000  0.68090000  1.0 0.0296483645
C  C94  1  0.84210000  0.42820000  0.75120000  1.0 -0.1660364173
C  C95  1  0.91010000  0.42360000  0.75370000  1.0 0.0296483645
C  C96  1  0.68930000  0.52960000  0.21070000  1.0 -0.0378815131
C  C97  1  0.65210000  0.49180000  0.17550000  1.0 -0.1798328114
C  C98  1  0.58740000  0.49110000  0.18090000  1.0 0.0296483645
C  C99  1  0.65790000  0.57180000  0.25120000  1.0 -0.1660364173
C  C100  1  0.58990000  0.57640000  0.25370000  1.0 0.0296483645
C  C101  1  0.81070000  0.02960000  0.21070000  1.0 -0.0378815131
C  C102  1  0.84790000  0.99180000  0.17550000  1.0 -0.1798328114
C  C103  1  0.91260000  0.99110000  0.18090000  1.0 0.0296483645
C  C104  1  0.84210000  0.07180000  0.25120000  1.0 -0.1660364173
C  C105  1  0.91010000  0.07640000  0.25370000  1.0 0.0296483645
C  C106  1  0.68930000  0.97040000  0.71070000  1.0 -0.0378815131
C  C107  1  0.65210000  0.00820000  0.67550000  1.0 -0.1798328114
C  C108  1  0.58740000  0.00890000  0.68090000  1.0 0.0296483645
C  C109  1  0.65790000  0.92820000  0.75120000  1.0 -0.1660364173
C  C110  1  0.58990000  0.92360000  0.75370000  1.0 0.0296483645
C  C111  1  0.18930000  0.52960000  0.28930000  1.0 -0.0378815131
C  C112  1  0.15210000  0.49180000  0.32450000  1.0 -0.1798328114
C  C113  1  0.08740000  0.49110000  0.31910000  1.0 0.0296483645
C  C114  1  0.15790000  0.57180000  0.24880000  1.0 -0.1660364173
C  C115  1  0.08990000  0.57640000  0.24630000  1.0 0.0296483645
C  C116  1  0.31070000  0.47040000  0.78930000  1.0 -0.0378815131
C  C117  1  0.34790000  0.50820000  0.82450000  1.0 -0.1798328114
C  C118  1  0.41260000  0.50890000  0.81910000  1.0 0.0296483645
C  C119  1  0.34210000  0.42820000  0.74880000  1.0 -0.1636319122
C  C120  1  0.41010000  0.42360000  0.74630000  1.0 0.0296483645
N  N1  1  0.59640000  0.43860000  0.35040000  1.0 -0.1509149623
N  N2  1  0.90360000  0.56140000  0.85040000  1.0 -0.1509149623
N  N3  1  0.40360000  0.93860000  0.14960000  1.0 -0.1509149623
N  N4  1  0.09640000  0.06140000  0.64960000  1.0 -0.1509149623
N  N5  1  0.40360000  0.56140000  0.64960000  1.0 -0.1509149623
N  N6  1  0.09640000  0.43860000  0.14960000  1.0 -0.1509149623
N  N7  1  0.59640000  0.06140000  0.85040000  1.0 -0.1509149623
N  N8  1  0.90360000  0.93860000  0.35040000  1.0 -0.1509149623
N  N9  1  0.44590000  0.78190000  0.60330000  1.0 -0.1393345654
N  N10  1  0.05410000  0.21810000  0.10330000  1.0 -0.1393345654
N  N11  1  0.55410000  0.28190000  0.89670000  1.0 -0.1393345654
N  N12  1  0.94590000  0.71810000  0.39670000  1.0 -0.1393345654
N  N13  1  0.55410000  0.21810000  0.39670000  1.0 -0.1393345654
N  N14  1  0.94590000  0.78190000  0.89670000  1.0 -0.1393345654
N  N15  1  0.44590000  0.71810000  0.10330000  1.0 -0.1393345654
N  N16  1  0.05410000  0.28190000  0.60330000  1.0 -0.1393345654
N  N17  1  0.05650000  0.96450000  0.78500000  1.0 -0.1393345654
N  N18  1  0.44350000  0.03550000  0.28500000  1.0 -0.1393345654
N  N19  1  0.94350000  0.46450000  0.71500000  1.0 -0.1393345654
N  N20  1  0.55650000  0.53550000  0.21500000  1.0 -0.1393345654
N  N21  1  0.94350000  0.03550000  0.21500000  1.0 -0.1393345654
N  N22  1  0.55650000  0.96450000  0.71500000  1.0 -0.1393345654
N  N23  1  0.05650000  0.53550000  0.28500000  1.0 -0.1393345654
N  N24  1  0.44350000  0.46450000  0.78500000  1.0 -0.1393345654
O  O1  1  0.60455000  0.38764000  0.76922000  1.0 -0.6028508865
O  O2  1  0.89545000  0.61236000  0.26922000  1.0 -0.6056723249
O  O3  1  0.39545000  0.88764000  0.73078000  1.0 -0.6056723249
O  O4  1  0.10455000  0.11236000  0.23078000  1.0 -0.6056723249
O  O5  1  0.39545000  0.61236000  0.23078000  1.0 -0.6056723249
O  O6  1  0.10455000  0.38764000  0.73078000  1.0 -0.6056723249
O  O7  1  0.60455000  0.11236000  0.26922000  1.0 -0.6056723249
O  O8  1  0.89545000  0.88764000  0.76922000  1.0 -0.6056723249
O  O9  1  0.59491000  0.31141000  0.67760000  1.0 -0.5802032966
O  O10  1  0.90509000  0.68859000  0.17760000  1.0 -0.5802032966
O  O11  1  0.40509000  0.81141000  0.82240000  1.0 -0.5802032966
O  O12  1  0.09491000  0.18859000  0.32240000  1.0 -0.5802032966
O  O13  1  0.40509000  0.68859000  0.32240000  1.0 -0.5802032966
O  O14  1  0.09491000  0.31141000  0.82240000  1.0 -0.5802032966
O  O15  1  0.59491000  0.18859000  0.17760000  1.0 -0.5802032966
O  O16  1  0.90509000  0.81141000  0.67760000  1.0 -0.5802032966
O  O17  1  0.63947000  0.42824000  0.66052000  1.0 -0.5888835194
O  O18  1  0.86053000  0.57176000  0.16052000  1.0 -0.5888835194
O  O19  1  0.36053000  0.92824000  0.83948000  1.0 -0.5888835194
O  O20  1  0.13947000  0.07176000  0.33948000  1.0 -0.5888835194
O  O21  1  0.36053000  0.57176000  0.33948000  1.0 -0.5888835194
O  O22  1  0.13947000  0.42824000  0.83948000  1.0 -0.5888835194
O  O23  1  0.63947000  0.07176000  0.16052000  1.0 -0.5888835194
O  O24  1  0.86053000  0.92824000  0.66052000  1.0 -0.5888835194
O  O25  1  0.52648000  0.47162000  0.60793000  1.0 -0.5888835194
O  O26  1  0.97352000  0.52838000  0.10793000  1.0 -0.5888835194
O  O27  1  0.47352000  0.97162000  0.89207000  1.0 -0.5888835194
O  O28  1  0.02648000  0.02838000  0.39207000  1.0 -0.5888835194
O  O29  1  0.47352000  0.52838000  0.39207000  1.0 -0.5888835194
O  O30  1  0.02648000  0.47162000  0.89207000  1.0 -0.5888835194
O  O31  1  0.52648000  0.02838000  0.10793000  1.0 -0.5888835194
O  O32  1  0.97352000  0.97162000  0.60793000  1.0 -0.5888835194
O  O33  1  0.47168000  0.27748000  0.65453000  1.0 -0.6028508865
O  O34  1  0.02832000  0.72252000  0.15453000  1.0 -0.6028508865
O  O35  1  0.52832000  0.77748000  0.84547000  1.0 -0.6028508865
O  O36  1  0.97168000  0.22252000  0.34547000  1.0 -0.6028508865
O  O37  1  0.52832000  0.72252000  0.34547000  1.0 -0.6028508865
O  O38  1  0.97168000  0.27748000  0.84547000  1.0 -0.6028508865
O  O39  1  0.47168000  0.22252000  0.15453000  1.0 -0.6028508865
O  O40  1  0.02832000  0.77748000  0.65453000  1.0 -0.6028508865
O  O41  1  0.39043000  0.28720000  0.56320000  1.0 -0.5712837425
O  O42  1  0.10957000  0.71280000  0.06320000  1.0 -0.5712837425
O  O43  1  0.60957000  0.78720000  0.93680000  1.0 -0.5712837425
O  O44  1  0.89043000  0.21280000  0.43680000  1.0 -0.5712837425
O  O45  1  0.60957000  0.71280000  0.43680000  1.0 -0.5712837425
O  O46  1  0.89043000  0.28720000  0.93680000  1.0 -0.5712837425
O  O47  1  0.39043000  0.21280000  0.06320000  1.0 -0.5712837425
O  O48  1  0.10957000  0.78720000  0.56320000  1.0 -0.5712837425
O  O49  1  0.53748000  0.35302000  0.56989000  1.0 -0.5573869002
O  O50  1  0.96252000  0.64698000  0.06989000  1.0 -0.5573869002
O  O51  1  0.46252000  0.85302000  0.93011000  1.0 -0.5573869002
O  O52  1  0.03748000  0.14698000  0.43011000  1.0 -0.5573869002
O  O53  1  0.46252000  0.64698000  0.43011000  1.0 -0.5573869002
O  O54  1  0.03748000  0.35302000  0.93011000  1.0 -0.5573869002
O  O55  1  0.53748000  0.14698000  0.06989000  1.0 -0.5573869002
O  O56  1  0.96252000  0.85302000  0.56989000  1.0 -0.5573869002
O  O57  1  0.42807000  0.41560000  0.56540000  1.0 -0.5712837425
O  O58  1  0.07193000  0.58440000  0.06540000  1.0 -0.5712837425
O  O59  1  0.57193000  0.91560000  0.93460000  1.0 -0.5712837425
O  O60  1  0.92807000  0.08440000  0.43460000  1.0 -0.5712837425
O  O61  1  0.57193000  0.58440000  0.43460000  1.0 -0.5712837425
O  O62  1  0.92807000  0.41560000  0.93460000  1.0 -0.5712837425
O  O63  1  0.42807000  0.08440000  0.06540000  1.0 -0.5712837425
O  O64  1  0.07193000  0.91560000  0.56540000  1.0 -0.5712837425
O  O65  1  0.30967000  0.38408000  0.59782000  1.0 -0.5888835194
O  O66  1  0.19033000  0.61592000  0.09782000  1.0 -0.5888835194
O  O67  1  0.69033000  0.88408000  0.90218000  1.0 -0.5888835194
O  O68  1  0.80967000  0.11592000  0.40218000  1.0 -0.5888835194
O  O69  1  0.69033000  0.61592000  0.40218000  1.0 -0.5888835194
O  O70  1  0.80967000  0.38408000  0.90218000  1.0 -0.5888835194
O  O71  1  0.30967000  0.11592000  0.09782000  1.0 -0.5888835194
O  O72  1  0.19033000  0.88408000  0.59782000  1.0 -0.5888835194
O  O73  1  0.34553000  0.36612000  0.47632000  1.0 -0.5802032966
O  O74  1  0.15447000  0.63388000  0.97632000  1.0 -0.5802032966
O  O75  1  0.65447000  0.86612000  0.02368000  1.0 -0.5802032966
O  O76  1  0.84553000  0.13388000  0.52368000  1.0 -0.5802032966
O  O77  1  0.65447000  0.63388000  0.52368000  1.0 -0.5802032966
O  O78  1  0.84553000  0.36612000  0.02368000  1.0 -0.5802032966
O  O79  1  0.34553000  0.13388000  0.97632000  1.0 -0.5802032966
O  O80  1  0.15447000  0.86612000  0.47632000  1.0 -0.5802032966
O  O81  1  0.35714000  0.47429000  0.41898000  1.0 -0.5712837425
O  O82  1  0.14286000  0.52571000  0.91898000  1.0 -0.5712837425
O  O83  1  0.64286000  0.97429000  0.08102000  1.0 -0.5712837425
O  O84  1  0.85714000  0.02571000  0.58102000  1.0 -0.5712837425
O  O85  1  0.64286000  0.52571000  0.58102000  1.0 -0.5712837425
O  O86  1  0.85714000  0.47429000  0.08102000  1.0 -0.5712837425
O  O87  1  0.35714000  0.02571000  0.91898000  1.0 -0.5712837425
O  O88  1  0.14286000  0.97429000  0.41898000  1.0 -0.5712837425
O  O89  1  0.24695000  0.44195000  0.46009000  1.0 -0.5712837425
O  O90  1  0.25305000  0.55805000  0.96009000  1.0 -0.5712837425
O  O91  1  0.75305000  0.94195000  0.03991000  1.0 -0.5712837425
O  O92  1  0.74695000  0.05805000  0.53991000  1.0 -0.5712837425
O  O93  1  0.75305000  0.55805000  0.53991000  1.0 -0.5712837425
O  O94  1  0.74695000  0.44195000  0.03991000  1.0 -0.5712837425
O  O95  1  0.24695000  0.05805000  0.96009000  1.0 -0.5712837425
O  O96  1  0.25305000  0.94195000  0.46009000  1.0 -0.5712837425
O  O97  1  0.19757000  0.35799000  0.54736000  1.0 -0.5802032966
O  O98  1  0.30243000  0.64201000  0.04736000  1.0 -0.5802032966
O  O99  1  0.80243000  0.85799000  0.95264000  1.0 -0.5802032966
O  O100  1  0.69757000  0.14201000  0.45264000  1.0 -0.5802032966
O  O101  1  0.80243000  0.64201000  0.45264000  1.0 -0.5802032966
O  O102  1  0.69757000  0.35799000  0.95264000  1.0 -0.5802032966
O  O103  1  0.19757000  0.14201000  0.04736000  1.0 -0.5802032966
O  O104  1  0.30243000  0.85799000  0.54736000  1.0 -0.5802032966
O  O105  1  0.20865000  0.40870000  0.65724000  1.0 -0.5712837425
O  O106  1  0.29135000  0.59130000  0.15724000  1.0 -0.5712837425
O  O107  1  0.79135000  0.90870000  0.84276000  1.0 -0.5712837425
O  O108  1  0.70865000  0.09130000  0.34276000  1.0 -0.5712837425
O  O109  1  0.79135000  0.59130000  0.34276000  1.0 -0.5712837425
O  O110  1  0.70865000  0.40870000  0.84276000  1.0 -0.5712837425
O  O111  1  0.20865000  0.09130000  0.15724000  1.0 -0.5712837425
O  O112  1  0.29135000  0.90870000  0.65724000  1.0 -0.5712837425
O  O113  1  0.13441000  0.46990000  0.51515000  1.0 -0.5549399507
O  O114  1  0.36559000  0.53010000  0.01515000  1.0 -0.5549399507
O  O115  1  0.86559000  0.96990000  0.98485000  1.0 -0.5573869002
O  O116  1  0.63441000  0.03010000  0.48485000  1.0 -0.5573869002
O  O117  1  0.86559000  0.53010000  0.48485000  1.0 -0.5573869002
O  O118  1  0.63441000  0.46990000  0.98485000  1.0 -0.5573869002
O  O119  1  0.13441000  0.03010000  0.01515000  1.0 -0.5549399507
O  O120  1  0.36559000  0.96990000  0.51515000  1.0 -0.5549399507
O  O121  1  0.08481000  0.44201000  0.62282000  1.0 -0.6028508865
O  O122  1  0.41519000  0.55799000  0.12282000  1.0 -0.6028508865
O  O123  1  0.91519000  0.94201000  0.87718000  1.0 -0.6028508865
O  O124  1  0.58481000  0.05799000  0.37718000  1.0 -0.6028508865
O  O125  1  0.91519000  0.55799000  0.37718000  1.0 -0.6028508865
O  O126  1  0.58481000  0.44201000  0.87718000  1.0 -0.6028508865
O  O127  1  0.08481000  0.05799000  0.12282000  1.0 -0.6028508865
O  O128  1  0.41519000  0.94201000  0.62282000  1.0 -0.6028508865
O  O129  1  0.15474000  0.50904000  0.71185000  1.0 -0.5802032966
O  O130  1  0.34526000  0.49096000  0.21185000  1.0 -0.5888835194
O  O131  1  0.84526000  0.00904000  0.78815000  1.0 -0.5802032966
O  O132  1  0.65474000  0.99096000  0.28815000  1.0 -0.5888835194
O  O133  1  0.84526000  0.49096000  0.28815000  1.0 -0.5802032966
O  O134  1  0.65474000  0.50904000  0.78815000  1.0 -0.5888835194
O  O135  1  0.15474000  0.99096000  0.21185000  1.0 -0.5888835194
O  O136  1  0.34526000  0.00904000  0.71185000  1.0 -0.5802032966
O  O137  1  0.08364000  0.54396000  0.80594000  1.0 -0.5888835194
O  O138  1  0.41636000  0.45604000  0.30594000  1.0 -0.5888835194
O  O139  1  0.91636000  0.04396000  0.69406000  1.0 -0.5888835194
O  O140  1  0.58364000  0.95604000  0.19406000  1.0 -0.5888835194
O  O141  1  0.91636000  0.45604000  0.19406000  1.0 -0.5888835194
O  O142  1  0.58364000  0.54396000  0.69406000  1.0 -0.5888835194
O  O143  1  0.08364000  0.95604000  0.30594000  1.0 -0.5888835194
O  O144  1  0.41636000  0.04396000  0.80594000  1.0 -0.5888835194
O  O145  1  0.07713000  0.55685000  0.57591000  1.0 -0.5573869002
O  O146  1  0.42287000  0.44315000  0.07591000  1.0 -0.5573869002
O  O147  1  0.92287000  0.05685000  0.92409000  1.0 -0.5573869002
O  O148  1  0.57713000  0.94315000  0.42409000  1.0 -0.5573869002
O  O149  1  0.92287000  0.44315000  0.42409000  1.0 -0.5573869002
O  O150  1  0.57713000  0.55685000  0.92409000  1.0 -0.5573869002
O  O151  1  0.07713000  0.94315000  0.07591000  1.0 -0.5573869002
O  O152  1  0.42287000  0.05685000  0.57591000  1.0 -0.5573869002
O  O153  1  0.05743000  0.58768000  0.69956000  1.0 -0.5802032966
O  O154  1  0.44257000  0.41232000  0.19956000  1.0 -0.5802032966
O  O155  1  0.94257000  0.08768000  0.80044000  1.0 -0.5802032966
O  O156  1  0.55743000  0.91232000  0.30044000  1.0 -0.5802032966
O  O157  1  0.94257000  0.41232000  0.30044000  1.0 -0.5802032966
O  O158  1  0.55743000  0.58768000  0.80044000  1.0 -0.5802032966
O  O159  1  0.05743000  0.91232000  0.19956000  1.0 -0.5802032966
O  O160  1  0.44257000  0.08768000  0.69956000  1.0 -0.5802032966
O  O161  1  0.41118000  0.17743000  0.61014000  1.0 -0.5573869002
O  O162  1  0.08882000  0.82257000  0.11014000  1.0 -0.5573869002
O  O163  1  0.58882000  0.67743000  0.88986000  1.0 -0.5573869002
O  O164  1  0.91118000  0.32257000  0.38986000  1.0 -0.5573869002
O  O165  1  0.58882000  0.82257000  0.38986000  1.0 -0.5573869002
O  O166  1  0.91118000  0.17743000  0.88986000  1.0 -0.5573869002
O  O167  1  0.41118000  0.32257000  0.11014000  1.0 -0.5573869002
O  O168  1  0.08882000  0.67743000  0.61014000  1.0 -0.5573869002
O  O169  1  0.96861000  0.61869000  0.61815000  1.0 -0.4319015284
O  O170  1  0.53139000  0.38131000  0.11815000  1.0 -0.4319015284
O  O171  1  0.03139000  0.11869000  0.88185000  1.0 -0.4319015284
O  O172  1  0.46861000  0.88131000  0.38185000  1.0 -0.4319015284
O  O173  1  0.03139000  0.38131000  0.38185000  1.0 -0.4319015284
O  O174  1  0.46861000  0.61869000  0.88185000  1.0 -0.4319015284
O  O175  1  0.96861000  0.88131000  0.11815000  1.0 -0.4319015284
O  O176  1  0.53139000  0.11869000  0.61815000  1.0 -0.4319015284
O  O177  1  0.85772000  0.63135000  0.56605000  1.0 -0.4319015284
O  O178  1  0.64228000  0.36865000  0.06605000  1.0 -0.4319015284
O  O179  1  0.14228000  0.13135000  0.93395000  1.0 -0.4319015284
O  O180  1  0.35772000  0.86865000  0.43395000  1.0 -0.4319015284
O  O181  1  0.14228000  0.36865000  0.43395000  1.0 -0.4319015284
O  O182  1  0.35772000  0.63135000  0.93395000  1.0 -0.4319015284
O  O183  1  0.85772000  0.86865000  0.06605000  1.0 -0.4319015284
O  O184  1  0.64228000  0.13135000  0.56605000  1.0 -0.4319015284
O  O185  1  0.92842000  0.73093000  0.58221000  1.0 -0.4223618609
O  O186  1  0.57158000  0.26907000  0.08221000  1.0 -0.4223618609
O  O187  1  0.07158000  0.23093000  0.91779000  1.0 -0.4223618609
O  O188  1  0.42842000  0.76907000  0.41779000  1.0 -0.4223618609
O  O189  1  0.07158000  0.26907000  0.41779000  1.0 -0.4223618609
O  O190  1  0.42842000  0.73093000  0.91779000  1.0 -0.4223618609
O  O191  1  0.92842000  0.76907000  0.08221000  1.0 -0.4223618609
O  O192  1  0.57158000  0.23093000  0.58221000  1.0 -0.4223618609
