# DDEC6 charges by PACMAN v1.1 (https://github.com/mtap-research/PACMAN-charge/)
data_YOTREG_FSR_pacman
_symmetry_space_group_name_H-M   'P 1'
_cell_length_a   38.84520000
_cell_length_b   38.84520000
_cell_length_c   24.82410000
_cell_angle_alpha   90.00000000
_cell_angle_beta   90.00000000
_cell_angle_gamma   120.00000000
_symmetry_Int_Tables_number   1
_chemical_formula_structural   Fe6H226C117(N3O13)2
_chemical_formula_sum   'Fe48 H1808 C936 N48 O208'
_cell_volume   32439.85224120
_cell_formula_units_Z   8
loop_
 _symmetry_equiv_pos_site_id
 _symmetry_equiv_pos_as_xyz
  1  'x, y, z'
loop_
 _atom_site_type_symbol
 _atom_site_label
 _atom_site_symmetry_multiplicity
 _atom_site_fract_x
 _atom_site_fract_y
 _atom_site_fract_z
 _atom_site_occupancy
 _atom_site_charge
Fe  Fe1  1  0.76053000  0.06601000  0.81611000  1.0 0.8966324495
Fe  Fe2  1  0.30548000  0.23947000  0.81611000  1.0 0.8966324495
Fe  Fe3  1  0.93399000  0.69452000  0.81611000  1.0 0.8925949846
Fe  Fe4  1  0.93399000  0.23947000  0.18389000  1.0 0.8925949846
Fe  Fe5  1  0.76053000  0.69452000  0.18389000  1.0 0.8966324495
Fe  Fe6  1  0.30548000  0.06601000  0.18389000  1.0 0.8966324495
Fe  Fe7  1  0.76053000  0.06601000  0.68389000  1.0 0.8966324495
Fe  Fe8  1  0.30548000  0.23947000  0.68389000  1.0 0.8925949846
Fe  Fe9  1  0.93399000  0.69452000  0.68389000  1.0 0.8925949846
Fe  Fe10  1  0.93399000  0.23947000  0.31611000  1.0 0.8925949846
Fe  Fe11  1  0.76053000  0.69452000  0.31611000  1.0 0.8966324495
Fe  Fe12  1  0.30548000  0.06601000  0.31611000  1.0 0.8966324495
Fe  Fe13  1  0.68566000  0.99592000  0.75000000  1.0 0.8966324495
Fe  Fe14  1  0.31026000  0.31434000  0.75000000  1.0 0.8966324495
Fe  Fe15  1  0.00408000  0.68974000  0.75000000  1.0 0.8925949846
Fe  Fe16  1  0.00408000  0.31434000  0.25000000  1.0 0.8925949846
Fe  Fe17  1  0.68566000  0.68974000  0.25000000  1.0 0.8966324495
Fe  Fe18  1  0.31026000  0.99592000  0.25000000  1.0 0.8966324495
Fe  Fe19  1  0.38363000  0.71299000  0.75000000  1.0 1.0726360773
Fe  Fe20  1  0.32936000  0.61637000  0.75000000  1.0 1.0726360773
Fe  Fe21  1  0.28701000  0.67064000  0.75000000  1.0 1.0726360773
Fe  Fe22  1  0.28701000  0.61637000  0.25000000  1.0 1.0726360773
Fe  Fe23  1  0.38363000  0.67064000  0.25000000  1.0 1.0726360773
Fe  Fe24  1  0.32936000  0.71299000  0.25000000  1.0 1.0726360773
Fe  Fe25  1  0.23947000  0.93399000  0.81611000  1.0 0.8925949846
Fe  Fe26  1  0.69452000  0.76053000  0.81611000  1.0 0.8966324495
Fe  Fe27  1  0.06601000  0.30548000  0.81611000  1.0 0.8966324495
Fe  Fe28  1  0.06601000  0.76053000  0.18389000  1.0 0.8925949846
Fe  Fe29  1  0.23947000  0.30548000  0.18389000  1.0 0.8966324495
Fe  Fe30  1  0.69452000  0.93399000  0.18389000  1.0 0.8925949846
Fe  Fe31  1  0.23947000  0.93399000  0.68389000  1.0 0.8925949846
Fe  Fe32  1  0.69452000  0.76053000  0.68389000  1.0 0.8966324495
Fe  Fe33  1  0.06601000  0.30548000  0.68389000  1.0 0.8966324495
Fe  Fe34  1  0.06601000  0.76053000  0.31611000  1.0 0.8925949846
Fe  Fe35  1  0.23947000  0.30548000  0.31611000  1.0 0.8966324495
Fe  Fe36  1  0.69452000  0.93399000  0.31611000  1.0 0.8925949846
Fe  Fe37  1  0.31434000  0.00408000  0.75000000  1.0 0.8925949846
Fe  Fe38  1  0.68974000  0.68566000  0.75000000  1.0 0.8966324495
Fe  Fe39  1  0.99592000  0.31026000  0.75000000  1.0 0.8966324495
Fe  Fe40  1  0.99592000  0.68566000  0.25000000  1.0 0.8966324495
Fe  Fe41  1  0.31434000  0.31026000  0.25000000  1.0 0.8966324495
Fe  Fe42  1  0.68974000  0.00408000  0.25000000  1.0 0.8925949846
Fe  Fe43  1  0.61637000  0.28701000  0.75000000  1.0 1.0726360773
Fe  Fe44  1  0.67064000  0.38363000  0.75000000  1.0 1.0726360773
Fe  Fe45  1  0.71299000  0.32936000  0.75000000  1.0 1.0726360773
Fe  Fe46  1  0.71299000  0.38363000  0.25000000  1.0 1.0726360773
Fe  Fe47  1  0.61637000  0.32936000  0.25000000  1.0 1.0726360773
Fe  Fe48  1  0.67064000  0.28701000  0.25000000  1.0 1.0726360773
H  H1  1  0.76540000  0.12610000  0.89540000  1.0 0.142353546
H  H2  1  0.36070000  0.23460000  0.89540000  1.0 0.142353546
H  H3  1  0.87390000  0.63930000  0.89540000  1.0 0.1501157755
H  H4  1  0.87390000  0.23460000  0.10460000  1.0 0.1501157755
H  H5  1  0.76540000  0.63930000  0.10460000  1.0 0.142353546
H  H6  1  0.36070000  0.12610000  0.10460000  1.0 0.142353546
H  H7  1  0.76540000  0.12610000  0.60460000  1.0 0.142353546
H  H8  1  0.36070000  0.23460000  0.60460000  1.0 0.142353546
H  H9  1  0.87390000  0.63930000  0.60460000  1.0 0.1501157755
H  H10  1  0.87390000  0.23460000  0.39540000  1.0 0.1501157755
H  H11  1  0.76540000  0.63930000  0.39540000  1.0 0.142353546
H  H12  1  0.36070000  0.12610000  0.39540000  1.0 0.142353546
H  H13  1  0.82160000  0.06710000  0.89850000  1.0 0.1568000057
H  H14  1  0.24550000  0.17840000  0.89850000  1.0 0.1568000057
H  H15  1  0.93290000  0.75450000  0.89850000  1.0 0.1568000057
H  H16  1  0.93290000  0.17840000  0.10150000  1.0 0.1568000057
H  H17  1  0.82160000  0.75450000  0.10150000  1.0 0.1568000057
H  H18  1  0.24550000  0.06710000  0.10150000  1.0 0.1568000057
H  H19  1  0.82160000  0.06710000  0.60150000  1.0 0.1568000057
H  H20  1  0.24550000  0.17840000  0.60150000  1.0 0.1568000057
H  H21  1  0.93290000  0.75450000  0.60150000  1.0 0.1568000057
H  H22  1  0.93290000  0.17840000  0.39850000  1.0 0.1568000057
H  H23  1  0.82160000  0.75450000  0.39850000  1.0 0.1568000057
H  H24  1  0.24550000  0.06710000  0.39850000  1.0 0.1568000057
H  H25  1  0.80110000  0.16340000  0.96940000  1.0 0.1204657287
H  H26  1  0.36230000  0.19890000  0.96940000  1.0 0.1204657287
H  H27  1  0.83660000  0.63770000  0.96940000  1.0 0.1204657287
H  H28  1  0.83660000  0.19890000  0.03060000  1.0 0.1204657287
H  H29  1  0.80110000  0.63770000  0.03060000  1.0 0.1204657287
H  H30  1  0.36230000  0.16340000  0.03060000  1.0 0.1204657287
H  H31  1  0.80110000  0.16340000  0.53060000  1.0 0.1204657287
H  H32  1  0.36230000  0.19890000  0.53060000  1.0 0.1204657287
H  H33  1  0.83660000  0.63770000  0.53060000  1.0 0.1204657287
H  H34  1  0.83660000  0.19890000  0.46940000  1.0 0.1204657287
H  H35  1  0.80110000  0.63770000  0.46940000  1.0 0.1204657287
H  H36  1  0.36230000  0.16340000  0.46940000  1.0 0.1204657287
H  H37  1  0.85830000  0.10190000  0.97020000  1.0 0.1294397733
H  H38  1  0.24360000  0.14170000  0.97020000  1.0 0.1294397733
H  H39  1  0.89810000  0.75640000  0.97020000  1.0 0.1294397733
H  H40  1  0.89810000  0.14170000  0.02980000  1.0 0.1294397733
H  H41  1  0.85830000  0.75640000  0.02980000  1.0 0.1294397733
H  H42  1  0.24360000  0.10190000  0.02980000  1.0 0.1294397733
H  H43  1  0.85830000  0.10190000  0.52980000  1.0 0.1294397733
H  H44  1  0.24360000  0.14170000  0.52980000  1.0 0.1294397733
H  H45  1  0.89810000  0.75640000  0.52980000  1.0 0.1294397733
H  H46  1  0.89810000  0.14170000  0.47020000  1.0 0.1294397733
H  H47  1  0.85830000  0.75640000  0.47020000  1.0 0.1294397733
H  H48  1  0.24360000  0.10190000  0.47020000  1.0 0.1294397733
H  H49  1  0.62170000  0.93540000  0.82800000  1.0 0.1294397733
H  H50  1  0.31370000  0.37830000  0.82800000  1.0 0.1294397733
H  H51  1  0.06460000  0.68630000  0.82800000  1.0 0.1294397733
H  H52  1  0.06460000  0.37830000  0.17200000  1.0 0.1294397733
H  H53  1  0.62170000  0.68630000  0.17200000  1.0 0.1294397733
H  H54  1  0.31370000  0.93540000  0.17200000  1.0 0.1294397733
H  H55  1  0.62170000  0.93540000  0.67200000  1.0 0.1294397733
H  H56  1  0.31370000  0.37830000  0.67200000  1.0 0.1294397733
H  H57  1  0.06460000  0.68630000  0.67200000  1.0 0.1294397733
H  H58  1  0.06460000  0.37830000  0.32800000  1.0 0.1294397733
H  H59  1  0.62170000  0.68630000  0.32800000  1.0 0.1294397733
H  H60  1  0.31370000  0.93540000  0.32800000  1.0 0.1294397733
H  H61  1  0.56060000  0.87920000  0.83030000  1.0 0.1294397733
H  H62  1  0.31860000  0.43940000  0.83030000  1.0 0.1294397733
H  H63  1  0.12080000  0.68140000  0.83030000  1.0 0.1294397733
H  H64  1  0.12080000  0.43940000  0.16970000  1.0 0.1294397733
H  H65  1  0.56060000  0.68140000  0.16970000  1.0 0.1294397733
H  H66  1  0.31860000  0.87920000  0.16970000  1.0 0.1294397733
H  H67  1  0.56060000  0.87920000  0.66970000  1.0 0.1294397733
H  H68  1  0.31860000  0.43940000  0.66970000  1.0 0.1294397733
H  H69  1  0.12080000  0.68140000  0.66970000  1.0 0.1294397733
H  H70  1  0.12080000  0.43940000  0.33030000  1.0 0.1294397733
H  H71  1  0.56060000  0.68140000  0.33030000  1.0 0.1294397733
H  H72  1  0.31860000  0.87920000  0.33030000  1.0 0.1294397733
H  H73  1  0.50630000  0.82700000  0.83060000  1.0 0.1294397733
H  H74  1  0.32070000  0.49370000  0.83060000  1.0 0.1294397733
H  H75  1  0.17300000  0.67930000  0.83060000  1.0 0.1294397733
H  H76  1  0.17300000  0.49370000  0.16940000  1.0 0.1294397733
H  H77  1  0.50630000  0.67930000  0.16940000  1.0 0.1294397733
H  H78  1  0.32070000  0.82700000  0.16940000  1.0 0.1294397733
H  H79  1  0.50630000  0.82700000  0.66940000  1.0 0.1294397733
H  H80  1  0.32070000  0.49370000  0.66940000  1.0 0.1294397733
H  H81  1  0.17300000  0.67930000  0.66940000  1.0 0.1294397733
H  H82  1  0.17300000  0.49370000  0.33060000  1.0 0.1294397733
H  H83  1  0.50630000  0.67930000  0.33060000  1.0 0.1294397733
H  H84  1  0.32070000  0.82700000  0.33060000  1.0 0.1294397733
H  H85  1  0.44670000  0.77040000  0.82730000  1.0 0.1096623484
H  H86  1  0.32370000  0.55330000  0.82730000  1.0 0.1096623484
H  H87  1  0.22960000  0.67630000  0.82730000  1.0 0.1096623484
H  H88  1  0.22960000  0.55330000  0.17270000  1.0 0.1096623484
H  H89  1  0.44670000  0.67630000  0.17270000  1.0 0.1096623484
H  H90  1  0.32370000  0.77040000  0.17270000  1.0 0.1096623484
H  H91  1  0.44670000  0.77040000  0.67270000  1.0 0.1096623484
H  H92  1  0.32370000  0.55330000  0.67270000  1.0 0.1096623484
H  H93  1  0.22960000  0.67630000  0.67270000  1.0 0.1096623484
H  H94  1  0.22960000  0.55330000  0.32730000  1.0 0.1096623484
H  H95  1  0.44670000  0.67630000  0.32730000  1.0 0.1096623484
H  H96  1  0.32370000  0.77040000  0.32730000  1.0 0.1096623484
H  H97  1  0.59710000  0.00170000  0.85050000  1.0 0.0997663971
H  H98  1  0.40460000  0.40290000  0.85050000  1.0 0.0997663971
H  H99  1  0.99830000  0.59540000  0.85050000  1.0 0.0997663971
H  H100  1  0.99830000  0.40290000  0.14950000  1.0 0.0997663971
H  H101  1  0.59710000  0.59540000  0.14950000  1.0 0.0997663971
H  H102  1  0.40460000  0.00170000  0.14950000  1.0 0.0997663971
H  H103  1  0.59710000  0.00170000  0.64950000  1.0 0.0997663971
H  H104  1  0.40460000  0.40290000  0.64950000  1.0 0.0997663971
H  H105  1  0.99830000  0.59540000  0.64950000  1.0 0.0997663971
H  H106  1  0.99830000  0.40290000  0.35050000  1.0 0.0997663971
H  H107  1  0.59710000  0.59540000  0.35050000  1.0 0.0997663971
H  H108  1  0.40460000  0.00170000  0.35050000  1.0 0.0997663971
H  H109  1  0.61330000  0.99210000  0.90270000  1.0 0.0597909283
H  H110  1  0.37880000  0.38670000  0.90270000  1.0 0.0597909283
H  H111  1  0.00790000  0.62120000  0.90270000  1.0 0.0597909283
H  H112  1  0.00790000  0.38670000  0.09730000  1.0 0.0597909283
H  H113  1  0.61330000  0.62120000  0.09730000  1.0 0.0597909283
H  H114  1  0.37880000  0.99210000  0.09730000  1.0 0.0597909283
H  H115  1  0.61330000  0.99210000  0.59730000  1.0 0.0597909283
H  H116  1  0.37880000  0.38670000  0.59730000  1.0 0.0597909283
H  H117  1  0.00790000  0.62120000  0.59730000  1.0 0.0597909283
H  H118  1  0.00790000  0.38670000  0.40270000  1.0 0.0597909283
H  H119  1  0.61330000  0.62120000  0.40270000  1.0 0.0597909283
H  H120  1  0.37880000  0.99210000  0.40270000  1.0 0.0597909283
H  H121  1  0.59300000  0.01820000  0.90630000  1.0 0.0688374409
H  H122  1  0.42520000  0.40700000  0.90630000  1.0 0.0597909283
H  H123  1  0.98180000  0.57480000  0.90630000  1.0 0.0688374409
H  H124  1  0.98180000  0.40700000  0.09370000  1.0 0.0688374409
H  H125  1  0.59300000  0.57480000  0.09370000  1.0 0.0597909283
H  H126  1  0.42520000  0.01820000  0.09370000  1.0 0.0688374409
H  H127  1  0.59300000  0.01820000  0.59370000  1.0 0.0688374409
H  H128  1  0.42520000  0.40700000  0.59370000  1.0 0.0597909283
H  H129  1  0.98180000  0.57480000  0.59370000  1.0 0.0688374409
H  H130  1  0.98180000  0.40700000  0.40630000  1.0 0.0688374409
H  H131  1  0.59300000  0.57480000  0.40630000  1.0 0.0688374409
H  H132  1  0.42520000  0.01820000  0.40630000  1.0 0.0688374409
H  H133  1  0.69130000  0.08760000  0.92510000  1.0 0.0688374409
H  H134  1  0.39630000  0.30870000  0.92510000  1.0 0.0688374409
H  H135  1  0.91240000  0.60370000  0.92510000  1.0 0.0597909283
H  H136  1  0.91240000  0.30870000  0.07490000  1.0 0.0597909283
H  H137  1  0.69130000  0.60370000  0.07490000  1.0 0.0688374409
H  H138  1  0.39630000  0.08760000  0.07490000  1.0 0.0688374409
H  H139  1  0.69130000  0.08760000  0.57490000  1.0 0.0688374409
H  H140  1  0.39630000  0.30870000  0.57490000  1.0 0.0688374409
H  H141  1  0.91240000  0.60370000  0.57490000  1.0 0.0597909283
H  H142  1  0.91240000  0.30870000  0.42510000  1.0 0.0597909283
H  H143  1  0.69130000  0.60370000  0.42510000  1.0 0.0688374409
H  H144  1  0.39630000  0.08760000  0.42510000  1.0 0.0688374409
H  H145  1  0.64940000  0.06630000  0.95260000  1.0 0.0597909283
H  H146  1  0.41690000  0.35060000  0.95260000  1.0 0.0525383516
H  H147  1  0.93370000  0.58310000  0.95260000  1.0 0.0525383516
H  H148  1  0.93370000  0.35060000  0.04740000  1.0 0.0525383516
H  H149  1  0.64940000  0.58310000  0.04740000  1.0 0.0525383516
H  H150  1  0.41690000  0.06630000  0.04740000  1.0 0.0525383516
H  H151  1  0.64940000  0.06630000  0.54740000  1.0 0.0525383516
H  H152  1  0.41690000  0.35060000  0.54740000  1.0 0.0525383516
H  H153  1  0.93370000  0.58310000  0.54740000  1.0 0.0525383516
H  H154  1  0.93370000  0.35060000  0.45260000  1.0 0.0525383516
H  H155  1  0.64940000  0.58310000  0.45260000  1.0 0.0525383516
H  H156  1  0.41690000  0.06630000  0.45260000  1.0 0.0525383516
H  H157  1  0.67320000  0.04370000  0.94560000  1.0 0.0863695304
H  H158  1  0.37050000  0.32680000  0.94560000  1.0 0.0863695304
H  H159  1  0.95630000  0.62950000  0.94560000  1.0 0.1096623484
H  H160  1  0.95630000  0.32680000  0.05440000  1.0 0.1096623484
H  H161  1  0.67320000  0.62950000  0.05440000  1.0 0.0863695304
H  H162  1  0.37050000  0.04370000  0.05440000  1.0 0.0863695304
H  H163  1  0.67320000  0.04370000  0.55440000  1.0 0.0863695304
H  H164  1  0.37050000  0.32680000  0.55440000  1.0 0.0863695304
H  H165  1  0.95630000  0.62950000  0.55440000  1.0 0.1096623484
H  H166  1  0.95630000  0.32680000  0.44560000  1.0 0.1096623484
H  H167  1  0.67320000  0.62950000  0.44560000  1.0 0.0863695304
H  H168  1  0.37050000  0.04370000  0.44560000  1.0 0.0863695304
H  H169  1  0.62880000  0.06980000  0.81750000  1.0 0.0688374409
H  H170  1  0.44100000  0.37120000  0.81750000  1.0 0.0688374409
H  H171  1  0.93020000  0.55900000  0.81750000  1.0 0.0688374409
H  H172  1  0.93020000  0.37120000  0.18250000  1.0 0.0688374409
H  H173  1  0.62880000  0.55900000  0.18250000  1.0 0.0688374409
H  H174  1  0.44100000  0.06980000  0.18250000  1.0 0.0688374409
H  H175  1  0.62880000  0.06980000  0.68250000  1.0 0.0688374409
H  H176  1  0.44100000  0.37120000  0.68250000  1.0 0.0688374409
H  H177  1  0.93020000  0.55900000  0.68250000  1.0 0.0688374409
H  H178  1  0.93020000  0.37120000  0.31750000  1.0 0.0688374409
H  H179  1  0.62880000  0.55900000  0.31750000  1.0 0.0688374409
H  H180  1  0.44100000  0.06980000  0.31750000  1.0 0.0688374409
H  H181  1  0.62560000  0.08470000  0.87500000  1.0 0.0404692075
H  H182  1  0.45910000  0.37440000  0.87500000  1.0 0.0404692075
H  H183  1  0.91530000  0.54090000  0.87500000  1.0 0.0404692075
H  H184  1  0.91530000  0.37440000  0.12500000  1.0 0.0404692075
H  H185  1  0.62560000  0.54090000  0.12500000  1.0 0.0404692075
H  H186  1  0.45910000  0.08470000  0.12500000  1.0 0.0404692075
H  H187  1  0.62560000  0.08470000  0.62500000  1.0 0.0404692075
H  H188  1  0.45910000  0.37440000  0.62500000  1.0 0.0404692075
H  H189  1  0.91530000  0.54090000  0.62500000  1.0 0.0404692075
H  H190  1  0.91530000  0.37440000  0.37500000  1.0 0.0404692075
H  H191  1  0.62560000  0.54090000  0.37500000  1.0 0.0404692075
H  H192  1  0.45910000  0.08470000  0.37500000  1.0 0.0404692075
H  H193  1  0.66700000  0.10270000  0.84630000  1.0 0.1096623484
H  H194  1  0.43570000  0.33300000  0.84630000  1.0 0.1096623484
H  H195  1  0.89730000  0.56430000  0.84630000  1.0 0.1096623484
H  H196  1  0.89730000  0.33300000  0.15370000  1.0 0.0997663971
H  H197  1  0.66700000  0.56430000  0.15370000  1.0 0.1096623484
H  H198  1  0.43570000  0.10270000  0.15370000  1.0 0.0997663971
H  H199  1  0.66700000  0.10270000  0.65370000  1.0 0.1096623484
H  H200  1  0.43570000  0.33300000  0.65370000  1.0 0.1096623484
H  H201  1  0.89730000  0.56430000  0.65370000  1.0 0.1096623484
H  H202  1  0.89730000  0.33300000  0.34630000  1.0 0.0997663971
H  H203  1  0.66700000  0.56430000  0.34630000  1.0 0.1096623484
H  H204  1  0.43570000  0.10270000  0.34630000  1.0 0.0997663971
H  H205  1  0.69300000  0.90360000  0.82920000  1.0 0.1204657287
H  H206  1  0.21060000  0.30700000  0.82920000  1.0 0.1204657287
H  H207  1  0.09640000  0.78940000  0.82920000  1.0 0.1204657287
H  H208  1  0.09640000  0.30700000  0.17080000  1.0 0.1204657287
H  H209  1  0.69300000  0.78940000  0.17080000  1.0 0.1204657287
H  H210  1  0.21060000  0.90360000  0.17080000  1.0 0.1204657287
H  H211  1  0.69300000  0.90360000  0.67080000  1.0 0.1204657287
H  H212  1  0.21060000  0.30700000  0.67080000  1.0 0.1204657287
H  H213  1  0.09640000  0.78940000  0.67080000  1.0 0.1204657287
H  H214  1  0.09640000  0.30700000  0.32920000  1.0 0.1204657287
H  H215  1  0.69300000  0.78940000  0.32920000  1.0 0.1204657287
H  H216  1  0.21060000  0.90360000  0.32920000  1.0 0.1204657287
H  H217  1  0.73930000  0.92200000  0.82670000  1.0 0.0785004839
H  H218  1  0.18270000  0.26070000  0.82670000  1.0 0.0785004839
H  H219  1  0.07800000  0.81730000  0.82670000  1.0 0.0785004839
H  H220  1  0.07800000  0.26070000  0.17330000  1.0 0.0785004839
H  H221  1  0.73930000  0.81730000  0.17330000  1.0 0.0785004839
H  H222  1  0.18270000  0.92200000  0.17330000  1.0 0.0785004839
H  H223  1  0.73930000  0.92200000  0.67330000  1.0 0.0785004839
H  H224  1  0.18270000  0.26070000  0.67330000  1.0 0.0785004839
H  H225  1  0.07800000  0.81730000  0.67330000  1.0 0.0785004839
H  H226  1  0.07800000  0.26070000  0.32670000  1.0 0.0785004839
H  H227  1  0.73930000  0.81730000  0.32670000  1.0 0.0785004839
H  H228  1  0.18270000  0.92200000  0.32670000  1.0 0.0785004839
H  H229  1  0.71500000  0.89380000  0.87440000  1.0 0.0597909283
H  H230  1  0.17880000  0.28500000  0.87440000  1.0 0.0597909283
H  H231  1  0.10620000  0.82120000  0.87440000  1.0 0.0597909283
H  H232  1  0.10620000  0.28500000  0.12560000  1.0 0.0597909283
H  H233  1  0.71500000  0.82120000  0.12560000  1.0 0.0597909283
H  H234  1  0.17880000  0.89380000  0.12560000  1.0 0.0597909283
H  H235  1  0.71500000  0.89380000  0.62560000  1.0 0.0597909283
H  H236  1  0.17880000  0.28500000  0.62560000  1.0 0.0597909283
H  H237  1  0.10620000  0.82120000  0.62560000  1.0 0.0597909283
H  H238  1  0.10620000  0.28500000  0.37440000  1.0 0.0597909283
H  H239  1  0.71500000  0.82120000  0.37440000  1.0 0.0597909283
H  H240  1  0.17880000  0.89380000  0.37440000  1.0 0.0597909283
H  H241  1  0.76130000  0.98590000  0.93540000  1.0 0.0597909283
H  H242  1  0.22460000  0.23870000  0.93540000  1.0 0.0597909283
H  H243  1  0.01410000  0.77540000  0.93540000  1.0 0.0597909283
H  H244  1  0.01410000  0.23870000  0.06460000  1.0 0.0597909283
H  H245  1  0.76130000  0.77540000  0.06460000  1.0 0.0597909283
H  H246  1  0.22460000  0.98590000  0.06460000  1.0 0.0597909283
H  H247  1  0.76130000  0.98590000  0.56460000  1.0 0.0597909283
H  H248  1  0.22460000  0.23870000  0.56460000  1.0 0.0597909283
H  H249  1  0.01410000  0.77540000  0.56460000  1.0 0.0597909283
H  H250  1  0.01410000  0.23870000  0.43540000  1.0 0.0597909283
H  H251  1  0.76130000  0.77540000  0.43540000  1.0 0.0597909283
H  H252  1  0.22460000  0.98590000  0.43540000  1.0 0.0597909283
H  H253  1  0.75420000  0.94260000  0.93970000  1.0 0.0597909283
H  H254  1  0.18840000  0.24580000  0.93970000  1.0 0.0597909283
H  H255  1  0.05740000  0.81160000  0.93970000  1.0 0.0597909283
H  H256  1  0.05740000  0.24580000  0.06030000  1.0 0.0597909283
H  H257  1  0.75420000  0.81160000  0.06030000  1.0 0.0597909283
H  H258  1  0.18840000  0.94260000  0.06030000  1.0 0.0597909283
H  H259  1  0.75420000  0.94260000  0.56030000  1.0 0.0597909283
H  H260  1  0.18840000  0.24580000  0.56030000  1.0 0.0597909283
H  H261  1  0.05740000  0.81160000  0.56030000  1.0 0.0597909283
H  H262  1  0.05740000  0.24580000  0.43970000  1.0 0.0597909283
H  H263  1  0.75420000  0.81160000  0.43970000  1.0 0.0597909283
H  H264  1  0.18840000  0.94260000  0.43970000  1.0 0.0597909283
H  H265  1  0.78040000  0.97050000  0.89290000  1.0 0.0997663971
H  H266  1  0.19010000  0.21960000  0.89290000  1.0 0.0997663971
H  H267  1  0.02950000  0.80990000  0.89290000  1.0 0.0997663971
H  H268  1  0.02950000  0.21960000  0.10710000  1.0 0.0997663971
H  H269  1  0.78040000  0.80990000  0.10710000  1.0 0.0997663971
H  H270  1  0.19010000  0.97050000  0.10710000  1.0 0.0997663971
H  H271  1  0.78040000  0.97050000  0.60710000  1.0 0.0997663971
H  H272  1  0.19010000  0.21960000  0.60710000  1.0 0.0997663971
H  H273  1  0.02950000  0.80990000  0.60710000  1.0 0.0997663971
H  H274  1  0.02950000  0.21960000  0.39290000  1.0 0.0997663971
H  H275  1  0.78040000  0.80990000  0.39290000  1.0 0.0997663971
H  H276  1  0.19010000  0.97050000  0.39290000  1.0 0.0997663971
H  H277  1  0.66310000  0.92490000  0.89670000  1.0 0.0688374409
H  H278  1  0.26180000  0.33690000  0.89670000  1.0 0.0688374409
H  H279  1  0.07510000  0.73820000  0.89670000  1.0 0.0688374409
H  H280  1  0.07510000  0.33690000  0.10330000  1.0 0.0688374409
H  H281  1  0.66310000  0.73820000  0.10330000  1.0 0.0688374409
H  H282  1  0.26180000  0.92490000  0.10330000  1.0 0.0688374409
H  H283  1  0.66310000  0.92490000  0.60330000  1.0 0.0688374409
H  H284  1  0.26180000  0.33690000  0.60330000  1.0 0.0688374409
H  H285  1  0.07510000  0.73820000  0.60330000  1.0 0.0688374409
H  H286  1  0.07510000  0.33690000  0.39670000  1.0 0.0688374409
H  H287  1  0.66310000  0.73820000  0.39670000  1.0 0.0688374409
H  H288  1  0.26180000  0.92490000  0.39670000  1.0 0.0688374409
H  H289  1  0.68460000  0.91300000  0.94010000  1.0 0.0597909283
H  H290  1  0.22840000  0.31540000  0.94010000  1.0 0.0597909283
H  H291  1  0.08700000  0.77160000  0.94010000  1.0 0.0597909283
H  H292  1  0.08700000  0.31540000  0.05990000  1.0 0.0597909283
H  H293  1  0.68460000  0.77160000  0.05990000  1.0 0.0597909283
H  H294  1  0.22840000  0.91300000  0.05990000  1.0 0.0597909283
H  H295  1  0.68460000  0.91300000  0.55990000  1.0 0.0597909283
H  H296  1  0.22840000  0.31540000  0.55990000  1.0 0.0597909283
H  H297  1  0.08700000  0.77160000  0.55990000  1.0 0.0597909283
H  H298  1  0.08700000  0.31540000  0.44010000  1.0 0.0597909283
H  H299  1  0.68460000  0.77160000  0.44010000  1.0 0.0597909283
H  H300  1  0.22840000  0.91300000  0.44010000  1.0 0.0597909283
H  H301  1  0.68980000  0.95580000  0.94060000  1.0 0.1096623484
H  H302  1  0.26600000  0.31020000  0.94060000  1.0 0.1096623484
H  H303  1  0.04420000  0.73400000  0.94060000  1.0 0.1096623484
H  H304  1  0.04420000  0.31020000  0.05940000  1.0 0.1096623484
H  H305  1  0.68980000  0.73400000  0.05940000  1.0 0.1096623484
H  H306  1  0.26600000  0.95580000  0.05940000  1.0 0.1096623484
H  H307  1  0.68980000  0.95580000  0.55940000  1.0 0.1096623484
H  H308  1  0.26600000  0.31020000  0.55940000  1.0 0.1096623484
H  H309  1  0.04420000  0.73400000  0.55940000  1.0 0.1096623484
H  H310  1  0.04420000  0.31020000  0.44060000  1.0 0.1096623484
H  H311  1  0.68980000  0.73400000  0.44060000  1.0 0.1096623484
H  H312  1  0.26600000  0.95580000  0.44060000  1.0 0.1096623484
H  H313  1  0.90050000  0.11930000  0.71730000  1.0 0.0597909283
H  H314  1  0.21880000  0.09950000  0.71730000  1.0 0.0597909283
H  H315  1  0.88070000  0.78120000  0.71730000  1.0 0.0597909283
H  H316  1  0.88070000  0.09950000  0.28270000  1.0 0.0597909283
H  H317  1  0.90050000  0.78120000  0.28270000  1.0 0.0597909283
H  H318  1  0.21880000  0.11930000  0.28270000  1.0 0.0597909283
H  H319  1  0.90050000  0.11930000  0.78270000  1.0 0.0597909283
H  H320  1  0.21880000  0.09950000  0.78270000  1.0 0.0597909283
H  H321  1  0.88070000  0.78120000  0.78270000  1.0 0.0597909283
H  H322  1  0.88070000  0.09950000  0.21730000  1.0 0.0597909283
H  H323  1  0.90050000  0.78120000  0.21730000  1.0 0.0597909283
H  H324  1  0.21880000  0.11930000  0.21730000  1.0 0.0597909283
H  H325  1  0.89870000  0.12070000  0.78030000  1.0 0.0597909283
H  H326  1  0.22200000  0.10130000  0.78030000  1.0 0.0597909283
H  H327  1  0.87930000  0.77800000  0.78030000  1.0 0.0597909283
H  H328  1  0.87930000  0.10130000  0.21970000  1.0 0.0597909283
H  H329  1  0.89870000  0.77800000  0.21970000  1.0 0.0597909283
H  H330  1  0.22200000  0.12070000  0.21970000  1.0 0.0597909283
H  H331  1  0.89870000  0.12070000  0.71970000  1.0 0.0597909283
H  H332  1  0.22200000  0.10130000  0.71970000  1.0 0.0597909283
H  H333  1  0.87930000  0.77800000  0.71970000  1.0 0.0597909283
H  H334  1  0.87930000  0.10130000  0.28030000  1.0 0.0597909283
H  H335  1  0.89870000  0.77800000  0.28030000  1.0 0.0597909283
H  H336  1  0.22200000  0.12070000  0.28030000  1.0 0.0597909283
H  H337  1  0.92240000  0.10260000  0.75250000  1.0 0.0785004839
H  H338  1  0.18020000  0.07760000  0.75250000  1.0 0.0785004839
H  H339  1  0.89740000  0.81980000  0.75250000  1.0 0.0785004839
H  H340  1  0.89740000  0.07760000  0.24750000  1.0 0.0785004839
H  H341  1  0.92240000  0.81980000  0.24750000  1.0 0.0785004839
H  H342  1  0.18020000  0.10260000  0.24750000  1.0 0.0785004839
H  H343  1  0.92240000  0.10260000  0.74750000  1.0 0.0785004839
H  H344  1  0.18020000  0.07760000  0.74750000  1.0 0.0785004839
H  H345  1  0.89740000  0.81980000  0.74750000  1.0 0.0785004839
H  H346  1  0.89740000  0.07760000  0.25250000  1.0 0.0785004839
H  H347  1  0.92240000  0.81980000  0.25250000  1.0 0.0785004839
H  H348  1  0.18020000  0.10260000  0.25250000  1.0 0.0785004839
H  H349  1  0.84120000  0.01790000  0.79910000  1.0 -0.0069906967
H  H350  1  0.17670000  0.15880000  0.79910000  1.0 -0.0069906967
H  H351  1  0.98210000  0.82330000  0.79910000  1.0 -0.0069906967
H  H352  1  0.98210000  0.15880000  0.20090000  1.0 -0.0069906967
H  H353  1  0.84120000  0.82330000  0.20090000  1.0 -0.0069906967
H  H354  1  0.17670000  0.01790000  0.20090000  1.0 -0.0069906967
H  H355  1  0.84120000  0.01790000  0.70090000  1.0 -0.0069906967
H  H356  1  0.17670000  0.15880000  0.70090000  1.0 -0.0069906967
H  H357  1  0.98210000  0.82330000  0.70090000  1.0 -0.0069906967
H  H358  1  0.98210000  0.15880000  0.29910000  1.0 -0.0069906967
H  H359  1  0.84120000  0.82330000  0.29910000  1.0 -0.0069906967
H  H360  1  0.17670000  0.01790000  0.29910000  1.0 -0.0069906967
H  H361  1  0.88770000  0.04320000  0.79980000  1.0 0.0525383516
H  H362  1  0.15550000  0.11230000  0.79980000  1.0 0.0525383516
H  H363  1  0.95680000  0.84450000  0.79980000  1.0 0.0525383516
H  H364  1  0.95680000  0.11230000  0.20020000  1.0 0.0525383516
H  H365  1  0.88770000  0.84450000  0.20020000  1.0 0.0525383516
H  H366  1  0.15550000  0.04320000  0.20020000  1.0 0.0525383516
H  H367  1  0.88770000  0.04320000  0.70020000  1.0 0.0525383516
H  H368  1  0.15550000  0.11230000  0.70020000  1.0 0.0525383516
H  H369  1  0.95680000  0.84450000  0.70020000  1.0 0.0525383516
H  H370  1  0.95680000  0.11230000  0.29980000  1.0 0.0525383516
H  H371  1  0.88770000  0.84450000  0.29980000  1.0 0.0525383516
H  H372  1  0.15550000  0.04320000  0.29980000  1.0 0.0525383516
H  H373  1  0.86260000  0.05830000  0.83050000  1.0 0.0688374409
H  H374  1  0.19570000  0.13740000  0.83050000  1.0 0.0688374409
H  H375  1  0.94170000  0.80430000  0.83050000  1.0 0.0688374409
H  H376  1  0.94170000  0.13740000  0.16950000  1.0 0.0688374409
H  H377  1  0.86260000  0.80430000  0.16950000  1.0 0.0688374409
H  H378  1  0.19570000  0.05830000  0.16950000  1.0 0.0688374409
H  H379  1  0.86260000  0.05830000  0.66950000  1.0 0.0688374409
H  H380  1  0.19570000  0.13740000  0.66950000  1.0 0.0688374409
H  H381  1  0.94170000  0.80430000  0.66950000  1.0 0.0688374409
H  H382  1  0.94170000  0.13740000  0.33050000  1.0 0.0688374409
H  H383  1  0.86260000  0.80430000  0.33050000  1.0 0.0688374409
H  H384  1  0.19570000  0.05830000  0.33050000  1.0 0.0688374409
H  H385  1  0.84170000  0.20440000  0.78210000  1.0 0.0597909283
H  H386  1  0.36270000  0.15830000  0.78210000  1.0 0.0597909283
H  H387  1  0.79560000  0.63730000  0.78210000  1.0 0.0597909283
H  H388  1  0.79560000  0.15830000  0.21790000  1.0 0.0597909283
H  H389  1  0.84170000  0.63730000  0.21790000  1.0 0.0597909283
H  H390  1  0.36270000  0.20440000  0.21790000  1.0 0.0597909283
H  H391  1  0.84170000  0.20440000  0.71790000  1.0 0.0597909283
H  H392  1  0.36270000  0.15830000  0.71790000  1.0 0.0597909283
H  H393  1  0.79560000  0.63730000  0.71790000  1.0 0.0597909283
H  H394  1  0.79560000  0.15830000  0.28210000  1.0 0.0597909283
H  H395  1  0.84170000  0.63730000  0.28210000  1.0 0.0597909283
H  H396  1  0.36270000  0.20440000  0.28210000  1.0 0.0597909283
H  H397  1  0.83570000  0.23540000  0.74890000  1.0 0.0785004839
H  H398  1  0.39970000  0.16430000  0.74890000  1.0 0.0785004839
H  H399  1  0.76460000  0.60030000  0.74890000  1.0 0.0785004839
H  H400  1  0.76460000  0.16430000  0.25110000  1.0 0.0785004839
H  H401  1  0.83570000  0.60030000  0.25110000  1.0 0.0785004839
H  H402  1  0.39970000  0.23540000  0.25110000  1.0 0.0785004839
H  H403  1  0.83570000  0.23540000  0.75110000  1.0 0.0785004839
H  H404  1  0.39970000  0.16430000  0.75110000  1.0 0.0785004839
H  H405  1  0.76460000  0.60030000  0.75110000  1.0 0.0785004839
H  H406  1  0.76460000  0.16430000  0.24890000  1.0 0.0785004839
H  H407  1  0.83570000  0.60030000  0.24890000  1.0 0.0785004839
H  H408  1  0.39970000  0.23540000  0.24890000  1.0 0.0785004839
H  H409  1  0.78060000  0.18480000  0.67060000  1.0 0.0597909283
H  H410  1  0.40420000  0.21940000  0.67060000  1.0 0.0597909283
H  H411  1  0.81520000  0.59580000  0.67060000  1.0 0.0597909283
H  H412  1  0.81520000  0.21940000  0.32940000  1.0 0.0597909283
H  H413  1  0.78060000  0.59580000  0.32940000  1.0 0.0597909283
H  H414  1  0.40420000  0.18480000  0.32940000  1.0 0.0597909283
H  H415  1  0.78060000  0.18480000  0.82940000  1.0 0.0597909283
H  H416  1  0.40420000  0.21940000  0.82940000  1.0 0.0597909283
H  H417  1  0.81520000  0.59580000  0.82940000  1.0 0.0597909283
H  H418  1  0.81520000  0.21940000  0.17060000  1.0 0.0597909283
H  H419  1  0.78060000  0.59580000  0.17060000  1.0 0.0597909283
H  H420  1  0.40420000  0.18480000  0.17060000  1.0 0.0597909283
H  H421  1  0.74110000  0.17100000  0.70280000  1.0 0.0597909283
H  H422  1  0.42990000  0.25890000  0.70280000  1.0 0.0597909283
H  H423  1  0.82900000  0.57010000  0.70280000  1.0 0.0597909283
H  H424  1  0.82900000  0.25890000  0.29720000  1.0 0.0597909283
H  H425  1  0.74110000  0.57010000  0.29720000  1.0 0.0597909283
H  H426  1  0.42990000  0.17100000  0.29720000  1.0 0.0597909283
H  H427  1  0.74110000  0.17100000  0.79720000  1.0 0.0597909283
H  H428  1  0.42990000  0.25890000  0.79720000  1.0 0.0597909283
H  H429  1  0.82900000  0.57010000  0.79720000  1.0 0.0597909283
H  H430  1  0.82900000  0.25890000  0.20280000  1.0 0.0597909283
H  H431  1  0.74110000  0.57010000  0.20280000  1.0 0.0597909283
H  H432  1  0.42990000  0.17100000  0.20280000  1.0 0.0597909283
H  H433  1  0.77470000  0.21570000  0.70390000  1.0 0.0404692075
H  H434  1  0.44100000  0.22530000  0.70390000  1.0 0.0404692075
H  H435  1  0.78430000  0.55900000  0.70390000  1.0 0.0404692075
H  H436  1  0.78430000  0.22530000  0.29610000  1.0 0.0404692075
H  H437  1  0.77470000  0.55900000  0.29610000  1.0 0.0404692075
H  H438  1  0.44100000  0.21570000  0.29610000  1.0 0.0404692075
H  H439  1  0.77470000  0.21570000  0.79610000  1.0 0.0404692075
H  H440  1  0.44100000  0.22530000  0.79610000  1.0 0.0404692075
H  H441  1  0.78430000  0.55900000  0.79610000  1.0 0.0404692075
H  H442  1  0.78430000  0.22530000  0.20390000  1.0 0.0404692075
H  H443  1  0.77470000  0.55900000  0.20390000  1.0 0.0404692075
H  H444  1  0.44100000  0.21570000  0.20390000  1.0 0.0404692075
H  H445  1  0.83400000  0.01000000  0.78230000  1.0 0.0597909283
H  H446  1  0.17600000  0.16600000  0.78230000  1.0 0.0597909283
H  H447  1  0.99000000  0.82400000  0.78230000  1.0 0.0688374409
H  H448  1  0.99000000  0.16600000  0.21770000  1.0 0.0597909283
H  H449  1  0.83400000  0.82400000  0.21770000  1.0 0.0688374409
H  H450  1  0.17600000  0.01000000  0.21770000  1.0 0.0688374409
H  H451  1  0.83400000  0.01000000  0.71770000  1.0 0.0597909283
H  H452  1  0.17600000  0.16600000  0.71770000  1.0 0.0597909283
H  H453  1  0.99000000  0.82400000  0.71770000  1.0 0.0688374409
H  H454  1  0.99000000  0.16600000  0.28230000  1.0 0.0597909283
H  H455  1  0.83400000  0.82400000  0.28230000  1.0 0.0688374409
H  H456  1  0.17600000  0.01000000  0.28230000  1.0 0.0688374409
H  H457  1  0.83230000  0.00970000  0.71920000  1.0 0.0597909283
H  H458  1  0.17740000  0.16770000  0.71920000  1.0 0.0597909283
H  H459  1  0.99030000  0.82260000  0.71920000  1.0 0.0597909283
H  H460  1  0.99030000  0.16770000  0.28080000  1.0 0.0597909283
H  H461  1  0.83230000  0.82260000  0.28080000  1.0 0.0597909283
H  H462  1  0.17740000  0.00970000  0.28080000  1.0 0.0597909283
H  H463  1  0.83230000  0.00970000  0.78080000  1.0 0.0597909283
H  H464  1  0.17740000  0.16770000  0.78080000  1.0 0.0597909283
H  H465  1  0.99030000  0.82260000  0.78080000  1.0 0.0597909283
H  H466  1  0.99030000  0.16770000  0.21920000  1.0 0.0597909283
H  H467  1  0.83230000  0.82260000  0.21920000  1.0 0.0597909283
H  H468  1  0.17740000  0.00970000  0.21920000  1.0 0.0597909283
H  H469  1  0.87140000  0.01810000  0.74860000  1.0 0.0997663971
H  H470  1  0.14670000  0.12860000  0.74860000  1.0 0.0997663971
H  H471  1  0.98190000  0.85330000  0.74860000  1.0 0.0997663971
H  H472  1  0.98190000  0.12860000  0.25140000  1.0 0.0997663971
H  H473  1  0.87140000  0.85330000  0.25140000  1.0 0.0997663971
H  H474  1  0.14670000  0.01810000  0.25140000  1.0 0.0997663971
H  H475  1  0.87140000  0.01810000  0.75140000  1.0 0.0997663971
H  H476  1  0.14670000  0.12860000  0.75140000  1.0 0.0997663971
H  H477  1  0.98190000  0.85330000  0.75140000  1.0 0.0997663971
H  H478  1  0.98190000  0.12860000  0.24860000  1.0 0.0997663971
H  H479  1  0.87140000  0.85330000  0.24860000  1.0 0.0997663971
H  H480  1  0.14670000  0.01810000  0.24860000  1.0 0.0997663971
H  H481  1  0.73430000  0.16890000  0.78220000  1.0 0.0785004839
H  H482  1  0.43460000  0.26570000  0.78220000  1.0 0.0785004839
H  H483  1  0.83110000  0.56540000  0.78220000  1.0 0.0785004839
H  H484  1  0.83110000  0.26570000  0.21780000  1.0 0.0785004839
H  H485  1  0.73430000  0.56540000  0.21780000  1.0 0.0785004839
H  H486  1  0.43460000  0.16890000  0.21780000  1.0 0.0785004839
H  H487  1  0.73430000  0.16890000  0.71780000  1.0 0.0785004839
H  H488  1  0.43460000  0.26570000  0.71780000  1.0 0.0785004839
H  H489  1  0.83110000  0.56540000  0.71780000  1.0 0.0785004839
H  H490  1  0.83110000  0.26570000  0.28220000  1.0 0.0785004839
H  H491  1  0.73430000  0.56540000  0.28220000  1.0 0.0785004839
H  H492  1  0.43460000  0.16890000  0.28220000  1.0 0.0785004839
H  H493  1  0.73350000  0.16730000  0.71910000  1.0 0.0688374409
H  H494  1  0.43380000  0.26650000  0.71910000  1.0 0.0688374409
H  H495  1  0.83270000  0.56620000  0.71910000  1.0 0.0688374409
H  H496  1  0.83270000  0.26650000  0.28090000  1.0 0.0688374409
H  H497  1  0.73350000  0.56620000  0.28090000  1.0 0.0688374409
H  H498  1  0.43380000  0.16730000  0.28090000  1.0 0.0688374409
H  H499  1  0.73350000  0.16730000  0.78090000  1.0 0.0688374409
H  H500  1  0.43380000  0.26650000  0.78090000  1.0 0.0688374409
H  H501  1  0.83270000  0.56620000  0.78090000  1.0 0.0688374409
H  H502  1  0.83270000  0.26650000  0.21910000  1.0 0.0688374409
H  H503  1  0.73350000  0.56620000  0.21910000  1.0 0.0688374409
H  H504  1  0.43380000  0.16730000  0.21910000  1.0 0.0688374409
H  H505  1  0.75440000  0.20840000  0.74870000  1.0 0.0688374409
H  H506  1  0.45400000  0.24560000  0.74870000  1.0 0.0688374409
H  H507  1  0.79160000  0.54600000  0.74870000  1.0 0.0688374409
H  H508  1  0.79160000  0.24560000  0.25130000  1.0 0.0688374409
H  H509  1  0.75440000  0.54600000  0.25130000  1.0 0.0688374409
H  H510  1  0.45400000  0.20840000  0.25130000  1.0 0.0688374409
H  H511  1  0.75440000  0.20840000  0.75130000  1.0 0.0688374409
H  H512  1  0.45400000  0.24560000  0.75130000  1.0 0.0688374409
H  H513  1  0.79160000  0.54600000  0.75130000  1.0 0.0688374409
H  H514  1  0.79160000  0.24560000  0.24870000  1.0 0.0688374409
H  H515  1  0.75440000  0.54600000  0.24870000  1.0 0.0688374409
H  H516  1  0.45400000  0.20840000  0.24870000  1.0 0.0688374409
H  H517  1  0.68910000  0.10310000  0.89800000  1.0 0.0597909283
H  H518  1  0.41400000  0.31090000  0.89800000  1.0 0.0597909283
H  H519  1  0.89690000  0.58600000  0.89800000  1.0 0.0597909283
H  H520  1  0.89690000  0.31090000  0.10200000  1.0 0.0597909283
H  H521  1  0.68910000  0.58600000  0.10200000  1.0 0.0597909283
H  H522  1  0.41400000  0.10310000  0.10200000  1.0 0.0597909283
H  H523  1  0.68910000  0.10310000  0.60200000  1.0 0.0597909283
H  H524  1  0.41400000  0.31090000  0.60200000  1.0 0.0597909283
H  H525  1  0.89690000  0.58600000  0.60200000  1.0 0.0597909283
H  H526  1  0.89690000  0.31090000  0.39800000  1.0 0.0597909283
H  H527  1  0.68910000  0.58600000  0.39800000  1.0 0.0597909283
H  H528  1  0.41400000  0.10310000  0.39800000  1.0 0.0597909283
H  H529  1  0.79380000  0.18790000  0.83030000  1.0 0.0688374409
H  H530  1  0.39410000  0.20620000  0.83030000  1.0 0.0688374409
H  H531  1  0.81210000  0.60590000  0.83030000  1.0 0.0688374409
H  H532  1  0.81210000  0.20620000  0.16970000  1.0 0.0688374409
H  H533  1  0.79380000  0.60590000  0.16970000  1.0 0.0688374409
H  H534  1  0.39410000  0.18790000  0.16970000  1.0 0.0688374409
H  H535  1  0.79380000  0.18790000  0.66970000  1.0 0.0688374409
H  H536  1  0.39410000  0.20620000  0.66970000  1.0 0.0688374409
H  H537  1  0.81210000  0.60590000  0.66970000  1.0 0.0688374409
H  H538  1  0.81210000  0.20620000  0.33030000  1.0 0.0688374409
H  H539  1  0.79380000  0.60590000  0.33030000  1.0 0.0688374409
H  H540  1  0.39410000  0.18790000  0.33030000  1.0 0.0688374409
H  H541  1  0.83410000  0.20270000  0.79970000  1.0 0.0597909283
H  H542  1  0.36860000  0.16590000  0.79970000  1.0 0.0597909283
H  H543  1  0.79730000  0.63140000  0.79970000  1.0 0.0597909283
H  H544  1  0.79730000  0.16590000  0.20030000  1.0 0.0597909283
H  H545  1  0.83410000  0.63140000  0.20030000  1.0 0.0597909283
H  H546  1  0.36860000  0.20270000  0.20030000  1.0 0.0597909283
H  H547  1  0.83410000  0.20270000  0.70030000  1.0 0.0597909283
H  H548  1  0.36860000  0.16590000  0.70030000  1.0 0.0597909283
H  H549  1  0.79730000  0.63140000  0.70030000  1.0 0.0597909283
H  H550  1  0.79730000  0.16590000  0.29970000  1.0 0.0597909283
H  H551  1  0.83410000  0.63140000  0.29970000  1.0 0.0597909283
H  H552  1  0.36860000  0.20270000  0.29970000  1.0 0.0597909283
H  H553  1  0.81330000  0.22840000  0.79910000  1.0 0.0404692075
H  H554  1  0.41510000  0.18670000  0.79910000  1.0 0.0404692075
H  H555  1  0.77160000  0.58490000  0.79910000  1.0 0.0404692075
H  H556  1  0.77160000  0.18670000  0.20090000  1.0 0.0404692075
H  H557  1  0.81330000  0.58490000  0.20090000  1.0 0.0404692075
H  H558  1  0.41510000  0.22840000  0.20090000  1.0 0.0404692075
H  H559  1  0.81330000  0.22840000  0.70090000  1.0 0.0404692075
H  H560  1  0.41510000  0.18670000  0.70090000  1.0 0.0404692075
H  H561  1  0.77160000  0.58490000  0.70090000  1.0 0.0404692075
H  H562  1  0.77160000  0.18670000  0.29910000  1.0 0.0404692075
H  H563  1  0.81330000  0.58490000  0.29910000  1.0 0.0404692075
H  H564  1  0.41510000  0.22840000  0.29910000  1.0 0.0404692075
H  H565  1  0.66320000  0.10200000  0.84880000  1.0 0.0997663971
H  H566  1  0.43880000  0.33680000  0.84880000  1.0 0.0997663971
H  H567  1  0.89800000  0.56120000  0.84880000  1.0 0.0997663971
H  H568  1  0.89800000  0.33680000  0.15120000  1.0 0.0997663971
H  H569  1  0.66320000  0.56120000  0.15120000  1.0 0.0997663971
H  H570  1  0.43880000  0.10200000  0.15120000  1.0 0.0997663971
H  H571  1  0.66320000  0.10200000  0.65120000  1.0 0.0997663971
H  H572  1  0.43880000  0.33680000  0.65120000  1.0 0.0997663971
H  H573  1  0.89800000  0.56120000  0.65120000  1.0 0.0997663971
H  H574  1  0.89800000  0.33680000  0.34880000  1.0 0.0997663971
H  H575  1  0.66320000  0.56120000  0.34880000  1.0 0.0997663971
H  H576  1  0.43880000  0.10200000  0.34880000  1.0 0.0997663971
H  H577  1  0.64540000  0.09400000  0.90720000  1.0 0.0597909283
H  H578  1  0.44860000  0.35460000  0.90720000  1.0 0.0597909283
H  H579  1  0.90600000  0.55140000  0.90720000  1.0 0.0597909283
H  H580  1  0.90600000  0.35460000  0.09280000  1.0 0.0597909283
H  H581  1  0.64540000  0.55140000  0.09280000  1.0 0.0525383516
H  H582  1  0.44860000  0.09400000  0.09280000  1.0 0.0597909283
H  H583  1  0.64540000  0.09400000  0.59280000  1.0 0.0597909283
H  H584  1  0.44860000  0.35460000  0.59280000  1.0 0.0597909283
H  H585  1  0.90600000  0.55140000  0.59280000  1.0 0.0597909283
H  H586  1  0.90600000  0.35460000  0.40720000  1.0 0.0597909283
H  H587  1  0.64540000  0.55140000  0.40720000  1.0 0.0525383516
H  H588  1  0.44860000  0.09400000  0.40720000  1.0 0.0597909283
H  H589  1  0.59030000  0.03090000  0.88170000  1.0 0.0404692075
H  H590  1  0.44060000  0.40970000  0.88170000  1.0 0.0404692075
H  H591  1  0.96910000  0.55940000  0.88170000  1.0 0.0404692075
H  H592  1  0.96910000  0.40970000  0.11830000  1.0 0.0404692075
H  H593  1  0.59030000  0.55940000  0.11830000  1.0 0.0404692075
H  H594  1  0.44060000  0.03090000  0.11830000  1.0 0.0404692075
H  H595  1  0.59030000  0.03090000  0.61830000  1.0 0.0404692075
H  H596  1  0.44060000  0.40970000  0.61830000  1.0 0.0404692075
H  H597  1  0.96910000  0.55940000  0.61830000  1.0 0.0404692075
H  H598  1  0.96910000  0.40970000  0.38170000  1.0 0.0404692075
H  H599  1  0.59030000  0.55940000  0.38170000  1.0 0.0404692075
H  H600  1  0.44060000  0.03090000  0.38170000  1.0 0.0404692075
H  H601  1  0.60640000  0.04020000  0.82250000  1.0 0.0688374409
H  H602  1  0.43380000  0.39360000  0.82250000  1.0 0.0688374409
H  H603  1  0.95980000  0.56620000  0.82250000  1.0 0.0688374409
H  H604  1  0.95980000  0.39360000  0.17750000  1.0 0.0688374409
H  H605  1  0.60640000  0.56620000  0.17750000  1.0 0.0688374409
H  H606  1  0.43380000  0.04020000  0.17750000  1.0 0.0688374409
H  H607  1  0.60640000  0.04020000  0.67750000  1.0 0.0688374409
H  H608  1  0.43380000  0.39360000  0.67750000  1.0 0.0688374409
H  H609  1  0.95980000  0.56620000  0.67750000  1.0 0.0688374409
H  H610  1  0.95980000  0.39360000  0.32250000  1.0 0.0688374409
H  H611  1  0.60640000  0.56620000  0.32250000  1.0 0.0688374409
H  H612  1  0.43380000  0.04020000  0.32250000  1.0 0.0688374409
H  H613  1  0.63680000  0.00220000  0.92710000  1.0 0.0688374409
H  H614  1  0.36540000  0.36320000  0.92710000  1.0 0.0688374409
H  H615  1  0.99780000  0.63460000  0.92710000  1.0 0.0597909283
H  H616  1  0.99780000  0.36320000  0.07290000  1.0 0.0597909283
H  H617  1  0.63680000  0.63460000  0.07290000  1.0 0.0688374409
H  H618  1  0.36540000  0.00220000  0.07290000  1.0 0.0688374409
H  H619  1  0.63680000  0.00220000  0.57290000  1.0 0.0688374409
H  H620  1  0.36540000  0.36320000  0.57290000  1.0 0.0688374409
H  H621  1  0.99780000  0.63460000  0.57290000  1.0 0.0597909283
H  H622  1  0.99780000  0.36320000  0.42710000  1.0 0.0597909283
H  H623  1  0.63680000  0.63460000  0.42710000  1.0 0.0688374409
H  H624  1  0.36540000  0.00220000  0.42710000  1.0 0.0688374409
H  H625  1  0.95730000  0.63020000  0.94590000  1.0 0.0997663971
H  H626  1  0.95730000  0.32710000  0.05410000  1.0 0.0997663971
H  H627  1  0.95730000  0.63020000  0.55410000  1.0 0.0997663971
H  H628  1  0.95730000  0.32710000  0.44590000  1.0 0.0997663971
H  H629  1  0.62950000  0.03460000  0.95390000  1.0 0.0597909283
H  H630  1  0.40510000  0.37050000  0.95390000  1.0 0.0597909283
H  H631  1  0.96540000  0.59490000  0.95390000  1.0 0.0597909283
H  H632  1  0.96540000  0.37050000  0.04610000  1.0 0.0597909283
H  H633  1  0.62950000  0.59490000  0.04610000  1.0 0.0597909283
H  H634  1  0.40510000  0.03460000  0.04610000  1.0 0.0597909283
H  H635  1  0.62950000  0.03460000  0.54610000  1.0 0.0597909283
H  H636  1  0.40510000  0.37050000  0.54610000  1.0 0.0597909283
H  H637  1  0.96540000  0.59490000  0.54610000  1.0 0.0597909283
H  H638  1  0.96540000  0.37050000  0.45390000  1.0 0.0597909283
H  H639  1  0.62950000  0.59490000  0.45390000  1.0 0.0597909283
H  H640  1  0.40510000  0.03460000  0.45390000  1.0 0.0597909283
H  H641  1  0.87110000  0.07060000  0.83040000  1.0 0.0785004839
H  H642  1  0.19950000  0.12890000  0.83040000  1.0 0.0785004839
H  H643  1  0.92940000  0.80050000  0.83040000  1.0 0.0785004839
H  H644  1  0.92940000  0.12890000  0.16960000  1.0 0.0785004839
H  H645  1  0.87110000  0.80050000  0.16960000  1.0 0.0785004839
H  H646  1  0.19950000  0.07060000  0.16960000  1.0 0.0785004839
H  H647  1  0.87110000  0.07060000  0.66960000  1.0 0.0785004839
H  H648  1  0.19950000  0.12890000  0.66960000  1.0 0.0785004839
H  H649  1  0.92940000  0.80050000  0.66960000  1.0 0.0785004839
H  H650  1  0.92940000  0.12890000  0.33040000  1.0 0.0785004839
H  H651  1  0.87110000  0.80050000  0.33040000  1.0 0.0785004839
H  H652  1  0.19950000  0.07060000  0.33040000  1.0 0.0785004839
H  H653  1  0.90920000  0.07820000  0.79860000  1.0 0.0404692075
H  H654  1  0.16900000  0.09080000  0.79860000  1.0 0.0404692075
H  H655  1  0.92180000  0.83100000  0.79860000  1.0 0.0404692075
H  H656  1  0.92180000  0.09080000  0.20140000  1.0 0.0404692075
H  H657  1  0.90920000  0.83100000  0.20140000  1.0 0.0404692075
H  H658  1  0.16900000  0.07820000  0.20140000  1.0 0.0404692075
H  H659  1  0.90920000  0.07820000  0.70140000  1.0 0.0404692075
H  H660  1  0.16900000  0.09080000  0.70140000  1.0 0.0404692075
H  H661  1  0.92180000  0.83100000  0.70140000  1.0 0.0404692075
H  H662  1  0.92180000  0.09080000  0.29860000  1.0 0.0404692075
H  H663  1  0.90920000  0.83100000  0.29860000  1.0 0.0404692075
H  H664  1  0.16900000  0.07820000  0.29860000  1.0 0.0404692075
H  H665  1  0.89690000  0.11090000  0.80020000  1.0 0.0037468505
H  H666  1  0.21400000  0.10310000  0.80020000  1.0 0.0037468505
H  H667  1  0.88910000  0.78600000  0.80020000  1.0 0.0037468505
H  H668  1  0.88910000  0.10310000  0.19980000  1.0 0.0037468505
H  H669  1  0.89690000  0.78600000  0.19980000  1.0 0.0037468505
H  H670  1  0.21400000  0.11090000  0.19980000  1.0 0.0037468505
H  H671  1  0.89690000  0.11090000  0.69980000  1.0 0.0037468505
H  H672  1  0.21400000  0.10310000  0.69980000  1.0 0.0037468505
H  H673  1  0.88910000  0.78600000  0.69980000  1.0 0.0037468505
H  H674  1  0.88910000  0.10310000  0.30020000  1.0 0.0037468505
H  H675  1  0.89690000  0.78600000  0.30020000  1.0 0.0037468505
H  H676  1  0.21400000  0.11090000  0.30020000  1.0 0.0037468505
H  H677  1  0.59790000  0.00040000  0.85010000  1.0 0.0997663971
H  H678  1  0.40250000  0.40210000  0.85010000  1.0 0.0997663971
H  H679  1  0.99960000  0.59750000  0.85010000  1.0 0.0997663971
H  H680  1  0.99960000  0.40210000  0.14990000  1.0 0.0997663971
H  H681  1  0.59790000  0.59750000  0.14990000  1.0 0.0997663971
H  H682  1  0.40250000  0.00040000  0.14990000  1.0 0.0997663971
H  H683  1  0.59790000  0.00040000  0.64990000  1.0 0.0997663971
H  H684  1  0.40250000  0.40210000  0.64990000  1.0 0.0997663971
H  H685  1  0.99960000  0.59750000  0.64990000  1.0 0.0997663971
H  H686  1  0.99960000  0.40210000  0.35010000  1.0 0.0997663971
H  H687  1  0.59790000  0.59750000  0.35010000  1.0 0.0997663971
H  H688  1  0.40250000  0.00040000  0.35010000  1.0 0.0997663971
H  H689  1  0.39530000  0.80550000  0.63410000  1.0 0.1204657287
H  H690  1  0.41020000  0.60470000  0.63410000  1.0 0.1204657287
H  H691  1  0.19450000  0.58980000  0.63410000  1.0 0.1204657287
H  H692  1  0.19450000  0.60470000  0.36590000  1.0 0.1204657287
H  H693  1  0.39530000  0.58980000  0.36590000  1.0 0.1204657287
H  H694  1  0.41020000  0.80550000  0.36590000  1.0 0.1204657287
H  H695  1  0.39530000  0.80550000  0.86590000  1.0 0.1204657287
H  H696  1  0.41020000  0.60470000  0.86590000  1.0 0.1204657287
H  H697  1  0.19450000  0.58980000  0.86590000  1.0 0.1204657287
H  H698  1  0.19450000  0.60470000  0.13410000  1.0 0.1204657287
H  H699  1  0.39530000  0.58980000  0.13410000  1.0 0.1204657287
H  H700  1  0.41020000  0.80550000  0.13410000  1.0 0.1204657287
H  H701  1  0.39070000  0.76950000  0.60000000  1.0 0.1096623484
H  H702  1  0.37880000  0.60930000  0.60000000  1.0 0.1096623484
H  H703  1  0.23050000  0.62120000  0.60000000  1.0 0.1096623484
H  H704  1  0.23050000  0.60930000  0.40000000  1.0 0.1096623484
H  H705  1  0.39070000  0.62120000  0.40000000  1.0 0.1096623484
H  H706  1  0.37880000  0.76950000  0.40000000  1.0 0.1096623484
H  H707  1  0.39070000  0.76950000  0.90000000  1.0 0.1096623484
H  H708  1  0.37880000  0.60930000  0.90000000  1.0 0.1096623484
H  H709  1  0.23050000  0.62120000  0.90000000  1.0 0.1096623484
H  H710  1  0.23050000  0.60930000  0.10000000  1.0 0.1096623484
H  H711  1  0.39070000  0.62120000  0.10000000  1.0 0.1096623484
H  H712  1  0.37880000  0.76950000  0.10000000  1.0 0.1096623484
H  H713  1  0.37810000  0.79880000  0.57550000  1.0 0.1204657287
H  H714  1  0.42070000  0.62190000  0.57550000  1.0 0.1204657287
H  H715  1  0.20120000  0.57930000  0.57550000  1.0 0.1204657287
H  H716  1  0.20120000  0.62190000  0.42450000  1.0 0.1204657287
H  H717  1  0.37810000  0.57930000  0.42450000  1.0 0.1204657287
H  H718  1  0.42070000  0.79880000  0.42450000  1.0 0.1204657287
H  H719  1  0.37810000  0.79880000  0.92450000  1.0 0.1204657287
H  H720  1  0.42070000  0.62190000  0.92450000  1.0 0.1204657287
H  H721  1  0.20120000  0.57930000  0.92450000  1.0 0.1204657287
H  H722  1  0.20120000  0.62190000  0.07550000  1.0 0.1204657287
H  H723  1  0.37810000  0.57930000  0.07550000  1.0 0.1204657287
H  H724  1  0.42070000  0.79880000  0.07550000  1.0 0.1204657287
H  H725  1  0.29660000  0.77220000  0.65750000  1.0 0.1294397733
H  H726  1  0.47560000  0.70340000  0.65750000  1.0 0.1294397733
H  H727  1  0.22780000  0.52440000  0.65750000  1.0 0.1294397733
H  H728  1  0.22780000  0.70340000  0.34250000  1.0 0.1294397733
H  H729  1  0.29660000  0.52440000  0.34250000  1.0 0.1294397733
H  H730  1  0.47560000  0.77220000  0.34250000  1.0 0.1294397733
H  H731  1  0.29660000  0.77220000  0.84250000  1.0 0.1294397733
H  H732  1  0.47560000  0.70340000  0.84250000  1.0 0.1294397733
H  H733  1  0.22780000  0.52440000  0.84250000  1.0 0.1294397733
H  H734  1  0.22780000  0.70340000  0.15750000  1.0 0.1294397733
H  H735  1  0.29660000  0.52440000  0.15750000  1.0 0.1294397733
H  H736  1  0.47560000  0.77220000  0.15750000  1.0 0.1294397733
H  H737  1  0.33890000  0.80100000  0.68120000  1.0 0.1294397733
H  H738  1  0.46210000  0.66110000  0.68120000  1.0 0.1294397733
H  H739  1  0.19900000  0.53790000  0.68120000  1.0 0.1294397733
H  H740  1  0.19900000  0.66110000  0.31880000  1.0 0.1294397733
H  H741  1  0.33890000  0.53790000  0.31880000  1.0 0.1294397733
H  H742  1  0.46210000  0.80100000  0.31880000  1.0 0.1294397733
H  H743  1  0.33890000  0.80100000  0.81880000  1.0 0.1294397733
H  H744  1  0.46210000  0.66110000  0.81880000  1.0 0.1294397733
H  H745  1  0.19900000  0.53790000  0.81880000  1.0 0.1294397733
H  H746  1  0.19900000  0.66110000  0.18120000  1.0 0.1294397733
H  H747  1  0.33890000  0.53790000  0.18120000  1.0 0.1294397733
H  H748  1  0.46210000  0.80100000  0.18120000  1.0 0.1294397733
H  H749  1  0.32850000  0.80690000  0.62210000  1.0 0.1294397733
H  H750  1  0.47840000  0.67150000  0.62210000  1.0 0.1294397733
H  H751  1  0.19310000  0.52160000  0.62210000  1.0 0.1204657287
H  H752  1  0.19310000  0.67150000  0.37790000  1.0 0.1294397733
H  H753  1  0.32850000  0.52160000  0.37790000  1.0 0.1294397733
H  H754  1  0.47840000  0.80690000  0.37790000  1.0 0.1294397733
H  H755  1  0.32850000  0.80690000  0.87790000  1.0 0.1294397733
H  H756  1  0.47840000  0.67150000  0.87790000  1.0 0.1204657287
H  H757  1  0.19310000  0.52160000  0.87790000  1.0 0.1204657287
H  H758  1  0.19310000  0.67150000  0.12210000  1.0 0.1294397733
H  H759  1  0.32850000  0.52160000  0.12210000  1.0 0.1294397733
H  H760  1  0.47840000  0.80690000  0.12210000  1.0 0.1294397733
H  H761  1  0.28720000  0.71740000  0.59940000  1.0 0.1204657287
H  H762  1  0.43020000  0.71280000  0.59940000  1.0 0.1204657287
H  H763  1  0.28260000  0.56980000  0.59940000  1.0 0.1204657287
H  H764  1  0.28260000  0.71280000  0.40060000  1.0 0.1204657287
H  H765  1  0.28720000  0.56980000  0.40060000  1.0 0.1204657287
H  H766  1  0.43020000  0.71740000  0.40060000  1.0 0.1204657287
H  H767  1  0.28720000  0.71740000  0.90060000  1.0 0.1204657287
H  H768  1  0.43020000  0.71280000  0.90060000  1.0 0.1204657287
H  H769  1  0.28260000  0.56980000  0.90060000  1.0 0.1204657287
H  H770  1  0.28260000  0.71280000  0.09940000  1.0 0.1204657287
H  H771  1  0.28720000  0.56980000  0.09940000  1.0 0.1204657287
H  H772  1  0.43020000  0.71740000  0.09940000  1.0 0.1204657287
H  H773  1  0.30910000  0.75370000  0.56020000  1.0 0.1294397733
H  H774  1  0.44460000  0.69090000  0.56020000  1.0 0.1294397733
H  H775  1  0.24630000  0.55540000  0.56020000  1.0 0.1294397733
H  H776  1  0.24630000  0.69090000  0.43980000  1.0 0.1294397733
H  H777  1  0.30910000  0.55540000  0.43980000  1.0 0.1294397733
H  H778  1  0.44460000  0.75370000  0.43980000  1.0 0.1294397733
H  H779  1  0.30910000  0.75370000  0.93980000  1.0 0.1294397733
H  H780  1  0.44460000  0.69090000  0.93980000  1.0 0.1294397733
H  H781  1  0.24630000  0.55540000  0.93980000  1.0 0.1294397733
H  H782  1  0.24630000  0.69090000  0.06020000  1.0 0.1294397733
H  H783  1  0.30910000  0.55540000  0.06020000  1.0 0.1294397733
H  H784  1  0.44460000  0.75370000  0.06020000  1.0 0.1294397733
H  H785  1  0.32430000  0.72340000  0.56670000  1.0 0.1204657287
H  H786  1  0.39910000  0.67570000  0.56670000  1.0 0.1204657287
H  H787  1  0.27660000  0.60090000  0.56670000  1.0 0.1204657287
H  H788  1  0.27660000  0.67570000  0.43330000  1.0 0.1204657287
H  H789  1  0.32430000  0.60090000  0.43330000  1.0 0.1204657287
H  H790  1  0.39910000  0.72340000  0.43330000  1.0 0.1204657287
H  H791  1  0.32430000  0.72340000  0.93330000  1.0 0.1204657287
H  H792  1  0.39910000  0.67570000  0.93330000  1.0 0.1204657287
H  H793  1  0.27660000  0.60090000  0.93330000  1.0 0.1204657287
H  H794  1  0.27660000  0.67570000  0.06670000  1.0 0.1204657287
H  H795  1  0.32430000  0.60090000  0.06670000  1.0 0.1204657287
H  H796  1  0.39910000  0.72340000  0.06670000  1.0 0.1204657287
H  H797  1  0.73930000  0.98410000  0.94770000  1.0 0.0688374409
H  H798  1  0.24480000  0.26070000  0.94770000  1.0 0.0688374409
H  H799  1  0.01590000  0.75520000  0.94770000  1.0 0.0688374409
H  H800  1  0.01590000  0.26070000  0.05230000  1.0 0.0688374409
H  H801  1  0.73930000  0.75520000  0.05230000  1.0 0.0688374409
H  H802  1  0.24480000  0.98410000  0.05230000  1.0 0.0688374409
H  H803  1  0.73930000  0.98410000  0.55230000  1.0 0.0688374409
H  H804  1  0.24480000  0.26070000  0.55230000  1.0 0.0688374409
H  H805  1  0.01590000  0.75520000  0.55230000  1.0 0.0688374409
H  H806  1  0.01590000  0.26070000  0.44770000  1.0 0.0688374409
H  H807  1  0.73930000  0.75520000  0.44770000  1.0 0.0688374409
H  H808  1  0.24480000  0.98410000  0.44770000  1.0 0.0688374409
H  H809  1  0.69300000  0.95820000  0.94230000  1.0 0.1096623484
H  H810  1  0.26520000  0.30700000  0.94230000  1.0 0.1096623484
H  H811  1  0.04180000  0.73480000  0.94230000  1.0 0.1096623484
H  H812  1  0.04180000  0.30700000  0.05770000  1.0 0.1096623484
H  H813  1  0.69300000  0.73480000  0.05770000  1.0 0.1096623484
H  H814  1  0.26520000  0.95820000  0.05770000  1.0 0.1096623484
H  H815  1  0.69300000  0.95820000  0.55770000  1.0 0.1096623484
H  H816  1  0.26520000  0.30700000  0.55770000  1.0 0.1096623484
H  H817  1  0.04180000  0.73480000  0.55770000  1.0 0.1096623484
H  H818  1  0.04180000  0.30700000  0.44230000  1.0 0.1096623484
H  H819  1  0.69300000  0.73480000  0.44230000  1.0 0.1096623484
H  H820  1  0.26520000  0.95820000  0.44230000  1.0 0.1096623484
H  H821  1  0.71770000  0.93880000  0.96220000  1.0 0.0597909283
H  H822  1  0.22110000  0.28230000  0.96220000  1.0 0.0597909283
H  H823  1  0.06120000  0.77890000  0.96220000  1.0 0.0597909283
H  H824  1  0.06120000  0.28230000  0.03780000  1.0 0.0597909283
H  H825  1  0.71770000  0.77890000  0.03780000  1.0 0.0597909283
H  H826  1  0.22110000  0.93880000  0.03780000  1.0 0.0597909283
H  H827  1  0.71770000  0.93880000  0.53780000  1.0 0.0597909283
H  H828  1  0.22110000  0.28230000  0.53780000  1.0 0.0597909283
H  H829  1  0.06120000  0.77890000  0.53780000  1.0 0.0597909283
H  H830  1  0.06120000  0.28230000  0.46220000  1.0 0.0597909283
H  H831  1  0.71770000  0.77890000  0.46220000  1.0 0.0597909283
H  H832  1  0.22110000  0.93880000  0.46220000  1.0 0.0597909283
H  H833  1  0.66340000  0.91010000  0.87450000  1.0 0.0525383516
H  H834  1  0.24670000  0.33660000  0.87450000  1.0 0.0525383516
H  H835  1  0.08990000  0.75330000  0.87450000  1.0 0.0525383516
H  H836  1  0.08990000  0.33660000  0.12550000  1.0 0.0525383516
H  H837  1  0.66340000  0.75330000  0.12550000  1.0 0.0525383516
H  H838  1  0.24670000  0.91010000  0.12550000  1.0 0.0525383516
H  H839  1  0.66340000  0.91010000  0.62550000  1.0 0.0525383516
H  H840  1  0.24670000  0.33660000  0.62550000  1.0 0.0525383516
H  H841  1  0.08990000  0.75330000  0.62550000  1.0 0.0525383516
H  H842  1  0.08990000  0.33660000  0.37450000  1.0 0.0525383516
H  H843  1  0.66340000  0.75330000  0.37450000  1.0 0.0525383516
H  H844  1  0.24670000  0.91010000  0.37450000  1.0 0.0525383516
H  H845  1  0.68890000  0.90190000  0.83310000  1.0 0.1204657287
H  H846  1  0.21300000  0.31110000  0.83310000  1.0 0.1204657287
H  H847  1  0.09810000  0.78700000  0.83310000  1.0 0.1204657287
H  H848  1  0.09810000  0.31110000  0.16690000  1.0 0.1204657287
H  H849  1  0.68890000  0.78700000  0.16690000  1.0 0.1204657287
H  H850  1  0.21300000  0.90190000  0.16690000  1.0 0.1204657287
H  H851  1  0.68890000  0.90190000  0.66690000  1.0 0.1204657287
H  H852  1  0.21300000  0.31110000  0.66690000  1.0 0.1204657287
H  H853  1  0.09810000  0.78700000  0.66690000  1.0 0.1204657287
H  H854  1  0.09810000  0.31110000  0.33310000  1.0 0.1204657287
H  H855  1  0.68890000  0.78700000  0.33310000  1.0 0.1204657287
H  H856  1  0.21300000  0.90190000  0.33310000  1.0 0.1204657287
H  H857  1  0.68730000  0.88970000  0.89370000  1.0 0.0597909283
H  H858  1  0.20240000  0.31270000  0.89370000  1.0 0.0597909283
H  H859  1  0.11030000  0.79760000  0.89370000  1.0 0.0597909283
H  H860  1  0.11030000  0.31270000  0.10630000  1.0 0.0597909283
H  H861  1  0.68730000  0.79760000  0.10630000  1.0 0.0597909283
H  H862  1  0.20240000  0.88970000  0.10630000  1.0 0.0597909283
H  H863  1  0.68730000  0.88970000  0.60630000  1.0 0.0597909283
H  H864  1  0.20240000  0.31270000  0.60630000  1.0 0.0597909283
H  H865  1  0.11030000  0.79760000  0.60630000  1.0 0.0597909283
H  H866  1  0.11030000  0.31270000  0.39370000  1.0 0.0597909283
H  H867  1  0.68730000  0.79760000  0.39370000  1.0 0.0597909283
H  H868  1  0.20240000  0.88970000  0.39370000  1.0 0.0597909283
H  H869  1  0.78190000  0.97490000  0.88630000  1.0 0.1096623484
H  H870  1  0.19300000  0.21810000  0.88630000  1.0 0.1096623484
H  H871  1  0.02510000  0.80700000  0.88630000  1.0 0.1096623484
H  H872  1  0.02510000  0.21810000  0.11370000  1.0 0.1096623484
H  H873  1  0.78190000  0.80700000  0.11370000  1.0 0.1096623484
H  H874  1  0.19300000  0.97490000  0.11370000  1.0 0.1096623484
H  H875  1  0.78190000  0.97490000  0.61370000  1.0 0.1096623484
H  H876  1  0.19300000  0.21810000  0.61370000  1.0 0.1096623484
H  H877  1  0.02510000  0.80700000  0.61370000  1.0 0.1096623484
H  H878  1  0.02510000  0.21810000  0.38630000  1.0 0.1096623484
H  H879  1  0.78190000  0.80700000  0.38630000  1.0 0.1096623484
H  H880  1  0.19300000  0.97490000  0.38630000  1.0 0.1096623484
H  H881  1  0.76020000  0.92990000  0.90290000  1.0 0.0404692075
H  H882  1  0.16970000  0.23980000  0.90290000  1.0 0.0404692075
H  H883  1  0.07010000  0.83030000  0.90290000  1.0 0.0404692075
H  H884  1  0.07010000  0.23980000  0.09710000  1.0 0.0404692075
H  H885  1  0.76020000  0.83030000  0.09710000  1.0 0.0404692075
H  H886  1  0.16970000  0.92990000  0.09710000  1.0 0.0404692075
H  H887  1  0.76020000  0.92990000  0.59710000  1.0 0.0404692075
H  H888  1  0.16970000  0.23980000  0.59710000  1.0 0.0404692075
H  H889  1  0.07010000  0.83030000  0.59710000  1.0 0.0404692075
H  H890  1  0.07010000  0.23980000  0.40290000  1.0 0.0404692075
H  H891  1  0.76020000  0.83030000  0.40290000  1.0 0.0404692075
H  H892  1  0.16970000  0.92990000  0.40290000  1.0 0.0404692075
H  H893  1  0.76370000  0.94170000  0.84190000  1.0 0.0688374409
H  H894  1  0.17800000  0.23630000  0.84190000  1.0 0.0688374409
H  H895  1  0.05830000  0.82200000  0.84190000  1.0 0.0688374409
H  H896  1  0.05830000  0.23630000  0.15810000  1.0 0.0688374409
H  H897  1  0.76370000  0.82200000  0.15810000  1.0 0.0688374409
H  H898  1  0.17800000  0.94170000  0.15810000  1.0 0.0688374409
H  H899  1  0.76370000  0.94170000  0.65810000  1.0 0.0688374409
H  H900  1  0.17800000  0.23630000  0.65810000  1.0 0.0688374409
H  H901  1  0.05830000  0.82200000  0.65810000  1.0 0.0688374409
H  H902  1  0.05830000  0.23630000  0.34190000  1.0 0.0688374409
H  H903  1  0.76370000  0.82200000  0.34190000  1.0 0.0688374409
H  H904  1  0.17800000  0.94170000  0.34190000  1.0 0.0688374409
H  H905  1  0.23460000  0.87390000  0.89540000  1.0 0.1501157755
H  H906  1  0.63930000  0.76540000  0.89540000  1.0 0.142353546
H  H907  1  0.12610000  0.36070000  0.89540000  1.0 0.142353546
H  H908  1  0.12610000  0.76540000  0.10460000  1.0 0.142353546
H  H909  1  0.23460000  0.36070000  0.10460000  1.0 0.142353546
H  H910  1  0.63930000  0.87390000  0.10460000  1.0 0.1501157755
H  H911  1  0.23460000  0.87390000  0.60460000  1.0 0.1501157755
H  H912  1  0.63930000  0.76540000  0.60460000  1.0 0.142353546
H  H913  1  0.12610000  0.36070000  0.60460000  1.0 0.142353546
H  H914  1  0.12610000  0.76540000  0.39540000  1.0 0.142353546
H  H915  1  0.23460000  0.36070000  0.39540000  1.0 0.142353546
H  H916  1  0.63930000  0.87390000  0.39540000  1.0 0.1501157755
H  H917  1  0.17840000  0.93290000  0.89850000  1.0 0.1568000057
H  H918  1  0.75450000  0.82160000  0.89850000  1.0 0.1568000057
H  H919  1  0.06710000  0.24550000  0.89850000  1.0 0.1568000057
H  H920  1  0.06710000  0.82160000  0.10150000  1.0 0.1568000057
H  H921  1  0.17840000  0.24550000  0.10150000  1.0 0.1568000057
H  H922  1  0.75450000  0.93290000  0.10150000  1.0 0.1568000057
H  H923  1  0.17840000  0.93290000  0.60150000  1.0 0.1568000057
H  H924  1  0.75450000  0.82160000  0.60150000  1.0 0.1568000057
H  H925  1  0.06710000  0.24550000  0.60150000  1.0 0.1568000057
H  H926  1  0.06710000  0.82160000  0.39850000  1.0 0.1568000057
H  H927  1  0.17840000  0.24550000  0.39850000  1.0 0.1568000057
H  H928  1  0.75450000  0.93290000  0.39850000  1.0 0.1568000057
H  H929  1  0.19890000  0.83660000  0.96940000  1.0 0.1204657287
H  H930  1  0.63770000  0.80110000  0.96940000  1.0 0.1204657287
H  H931  1  0.16340000  0.36230000  0.96940000  1.0 0.1204657287
H  H932  1  0.16340000  0.80110000  0.03060000  1.0 0.1204657287
H  H933  1  0.19890000  0.36230000  0.03060000  1.0 0.1204657287
H  H934  1  0.63770000  0.83660000  0.03060000  1.0 0.1204657287
H  H935  1  0.19890000  0.83660000  0.53060000  1.0 0.1204657287
H  H936  1  0.63770000  0.80110000  0.53060000  1.0 0.1204657287
H  H937  1  0.16340000  0.36230000  0.53060000  1.0 0.1204657287
H  H938  1  0.16340000  0.80110000  0.46940000  1.0 0.1204657287
H  H939  1  0.19890000  0.36230000  0.46940000  1.0 0.1204657287
H  H940  1  0.63770000  0.83660000  0.46940000  1.0 0.1204657287
H  H941  1  0.14170000  0.89810000  0.97020000  1.0 0.1294397733
H  H942  1  0.75640000  0.85830000  0.97020000  1.0 0.1294397733
H  H943  1  0.10190000  0.24360000  0.97020000  1.0 0.1294397733
H  H944  1  0.10190000  0.85830000  0.02980000  1.0 0.1294397733
H  H945  1  0.14170000  0.24360000  0.02980000  1.0 0.1294397733
H  H946  1  0.75640000  0.89810000  0.02980000  1.0 0.1294397733
H  H947  1  0.14170000  0.89810000  0.52980000  1.0 0.1294397733
H  H948  1  0.75640000  0.85830000  0.52980000  1.0 0.1294397733
H  H949  1  0.10190000  0.24360000  0.52980000  1.0 0.1294397733
H  H950  1  0.10190000  0.85830000  0.47020000  1.0 0.1294397733
H  H951  1  0.14170000  0.24360000  0.47020000  1.0 0.1294397733
H  H952  1  0.75640000  0.89810000  0.47020000  1.0 0.1294397733
H  H953  1  0.37830000  0.06460000  0.82800000  1.0 0.1294397733
H  H954  1  0.68630000  0.62170000  0.82800000  1.0 0.1294397733
H  H955  1  0.93540000  0.31370000  0.82800000  1.0 0.1294397733
H  H956  1  0.93540000  0.62170000  0.17200000  1.0 0.1294397733
H  H957  1  0.37830000  0.31370000  0.17200000  1.0 0.1294397733
H  H958  1  0.68630000  0.06460000  0.17200000  1.0 0.1294397733
H  H959  1  0.37830000  0.06460000  0.67200000  1.0 0.1294397733
H  H960  1  0.68630000  0.62170000  0.67200000  1.0 0.1294397733
H  H961  1  0.93540000  0.31370000  0.67200000  1.0 0.1294397733
H  H962  1  0.93540000  0.62170000  0.32800000  1.0 0.1294397733
H  H963  1  0.37830000  0.31370000  0.32800000  1.0 0.1294397733
H  H964  1  0.68630000  0.06460000  0.32800000  1.0 0.1294397733
H  H965  1  0.43940000  0.12080000  0.83030000  1.0 0.1294397733
H  H966  1  0.68140000  0.56060000  0.83030000  1.0 0.1294397733
H  H967  1  0.87920000  0.31860000  0.83030000  1.0 0.1294397733
H  H968  1  0.87920000  0.56060000  0.16970000  1.0 0.1294397733
H  H969  1  0.43940000  0.31860000  0.16970000  1.0 0.1294397733
H  H970  1  0.68140000  0.12080000  0.16970000  1.0 0.1294397733
H  H971  1  0.43940000  0.12080000  0.66970000  1.0 0.1294397733
H  H972  1  0.68140000  0.56060000  0.66970000  1.0 0.1294397733
H  H973  1  0.87920000  0.31860000  0.66970000  1.0 0.1294397733
H  H974  1  0.87920000  0.56060000  0.33030000  1.0 0.1294397733
H  H975  1  0.43940000  0.31860000  0.33030000  1.0 0.1294397733
H  H976  1  0.68140000  0.12080000  0.33030000  1.0 0.1294397733
H  H977  1  0.49370000  0.17300000  0.83060000  1.0 0.1294397733
H  H978  1  0.67930000  0.50630000  0.83060000  1.0 0.1294397733
H  H979  1  0.82700000  0.32070000  0.83060000  1.0 0.1294397733
H  H980  1  0.82700000  0.50630000  0.16940000  1.0 0.1294397733
H  H981  1  0.49370000  0.32070000  0.16940000  1.0 0.1294397733
H  H982  1  0.67930000  0.17300000  0.16940000  1.0 0.1294397733
H  H983  1  0.49370000  0.17300000  0.66940000  1.0 0.1294397733
H  H984  1  0.67930000  0.50630000  0.66940000  1.0 0.1294397733
H  H985  1  0.82700000  0.32070000  0.66940000  1.0 0.1294397733
H  H986  1  0.82700000  0.50630000  0.33060000  1.0 0.1294397733
H  H987  1  0.49370000  0.32070000  0.33060000  1.0 0.1294397733
H  H988  1  0.67930000  0.17300000  0.33060000  1.0 0.1294397733
H  H989  1  0.55330000  0.22960000  0.82730000  1.0 0.1096623484
H  H990  1  0.67630000  0.44670000  0.82730000  1.0 0.1096623484
H  H991  1  0.77040000  0.32370000  0.82730000  1.0 0.1096623484
H  H992  1  0.77040000  0.44670000  0.17270000  1.0 0.1096623484
H  H993  1  0.55330000  0.32370000  0.17270000  1.0 0.1096623484
H  H994  1  0.67630000  0.22960000  0.17270000  1.0 0.1096623484
H  H995  1  0.55330000  0.22960000  0.67270000  1.0 0.1096623484
H  H996  1  0.67630000  0.44670000  0.67270000  1.0 0.1096623484
H  H997  1  0.77040000  0.32370000  0.67270000  1.0 0.1096623484
H  H998  1  0.77040000  0.44670000  0.32730000  1.0 0.1096623484
H  H999  1  0.55330000  0.32370000  0.32730000  1.0 0.1096623484
H  H1000  1  0.67630000  0.22960000  0.32730000  1.0 0.1096623484
H  H1001  1  0.40290000  0.99830000  0.85050000  1.0 0.0997663971
H  H1002  1  0.59540000  0.59710000  0.85050000  1.0 0.0997663971
H  H1003  1  0.00170000  0.40460000  0.85050000  1.0 0.0997663971
H  H1004  1  0.00170000  0.59710000  0.14950000  1.0 0.0997663971
H  H1005  1  0.40290000  0.40460000  0.14950000  1.0 0.0997663971
H  H1006  1  0.59540000  0.99830000  0.14950000  1.0 0.0997663971
H  H1007  1  0.40290000  0.99830000  0.64950000  1.0 0.0997663971
H  H1008  1  0.59540000  0.59710000  0.64950000  1.0 0.0997663971
H  H1009  1  0.00170000  0.40460000  0.64950000  1.0 0.0997663971
H  H1010  1  0.00170000  0.59710000  0.35050000  1.0 0.0997663971
H  H1011  1  0.40290000  0.40460000  0.35050000  1.0 0.0997663971
H  H1012  1  0.59540000  0.99830000  0.35050000  1.0 0.0997663971
H  H1013  1  0.38670000  0.00790000  0.90270000  1.0 0.0597909283
H  H1014  1  0.62120000  0.61330000  0.90270000  1.0 0.0597909283
H  H1015  1  0.99210000  0.37880000  0.90270000  1.0 0.0597909283
H  H1016  1  0.99210000  0.61330000  0.09730000  1.0 0.0597909283
H  H1017  1  0.38670000  0.37880000  0.09730000  1.0 0.0597909283
H  H1018  1  0.62120000  0.00790000  0.09730000  1.0 0.0597909283
H  H1019  1  0.38670000  0.00790000  0.59730000  1.0 0.0597909283
H  H1020  1  0.62120000  0.61330000  0.59730000  1.0 0.0597909283
H  H1021  1  0.99210000  0.37880000  0.59730000  1.0 0.0597909283
H  H1022  1  0.99210000  0.61330000  0.40270000  1.0 0.0597909283
H  H1023  1  0.38670000  0.37880000  0.40270000  1.0 0.0597909283
H  H1024  1  0.62120000  0.00790000  0.40270000  1.0 0.0597909283
H  H1025  1  0.40700000  0.98180000  0.90630000  1.0 0.0688374409
H  H1026  1  0.57480000  0.59300000  0.90630000  1.0 0.0597909283
H  H1027  1  0.01820000  0.42520000  0.90630000  1.0 0.0688374409
H  H1028  1  0.01820000  0.59300000  0.09370000  1.0 0.0597909283
H  H1029  1  0.40700000  0.42520000  0.09370000  1.0 0.0597909283
H  H1030  1  0.57480000  0.98180000  0.09370000  1.0 0.0597909283
H  H1031  1  0.40700000  0.98180000  0.59370000  1.0 0.0688374409
H  H1032  1  0.57480000  0.59300000  0.59370000  1.0 0.0597909283
H  H1033  1  0.01820000  0.42520000  0.59370000  1.0 0.0688374409
H  H1034  1  0.01820000  0.59300000  0.40630000  1.0 0.0597909283
H  H1035  1  0.40700000  0.42520000  0.40630000  1.0 0.0597909283
H  H1036  1  0.57480000  0.98180000  0.40630000  1.0 0.0688374409
H  H1037  1  0.30870000  0.91240000  0.92510000  1.0 0.0525383516
H  H1038  1  0.60370000  0.69130000  0.92510000  1.0 0.0688374409
H  H1039  1  0.08760000  0.39630000  0.92510000  1.0 0.0688374409
H  H1040  1  0.08760000  0.69130000  0.07490000  1.0 0.0688374409
H  H1041  1  0.30870000  0.39630000  0.07490000  1.0 0.0688374409
H  H1042  1  0.60370000  0.91240000  0.07490000  1.0 0.0597909283
H  H1043  1  0.30870000  0.91240000  0.57490000  1.0 0.0525383516
H  H1044  1  0.60370000  0.69130000  0.57490000  1.0 0.0688374409
H  H1045  1  0.08760000  0.39630000  0.57490000  1.0 0.0688374409
H  H1046  1  0.08760000  0.69130000  0.42510000  1.0 0.0688374409
H  H1047  1  0.30870000  0.39630000  0.42510000  1.0 0.0688374409
H  H1048  1  0.60370000  0.91240000  0.42510000  1.0 0.0597909283
H  H1049  1  0.35060000  0.93370000  0.95260000  1.0 0.0525383516
H  H1050  1  0.58310000  0.64940000  0.95260000  1.0 0.0525383516
H  H1051  1  0.06630000  0.41690000  0.95260000  1.0 0.0525383516
H  H1052  1  0.06630000  0.64940000  0.04740000  1.0 0.0597909283
H  H1053  1  0.35060000  0.41690000  0.04740000  1.0 0.0525383516
H  H1054  1  0.58310000  0.93370000  0.04740000  1.0 0.0525383516
H  H1055  1  0.35060000  0.93370000  0.54740000  1.0 0.0525383516
H  H1056  1  0.58310000  0.64940000  0.54740000  1.0 0.0525383516
H  H1057  1  0.06630000  0.41690000  0.54740000  1.0 0.0525383516
H  H1058  1  0.06630000  0.64940000  0.45260000  1.0 0.0597909283
H  H1059  1  0.35060000  0.41690000  0.45260000  1.0 0.0525383516
H  H1060  1  0.58310000  0.93370000  0.45260000  1.0 0.0525383516
H  H1061  1  0.32680000  0.95630000  0.94560000  1.0 0.1096623484
H  H1062  1  0.62950000  0.67320000  0.94560000  1.0 0.0863695304
H  H1063  1  0.04370000  0.37050000  0.94560000  1.0 0.0863695304
H  H1064  1  0.04370000  0.67320000  0.05440000  1.0 0.0863695304
H  H1065  1  0.32680000  0.37050000  0.05440000  1.0 0.0863695304
H  H1066  1  0.62950000  0.95630000  0.05440000  1.0 0.1096623484
H  H1067  1  0.32680000  0.95630000  0.55440000  1.0 0.1096623484
H  H1068  1  0.62950000  0.67320000  0.55440000  1.0 0.0863695304
H  H1069  1  0.04370000  0.37050000  0.55440000  1.0 0.0863695304
H  H1070  1  0.04370000  0.67320000  0.44560000  1.0 0.0863695304
H  H1071  1  0.32680000  0.37050000  0.44560000  1.0 0.0863695304
H  H1072  1  0.62950000  0.95630000  0.44560000  1.0 0.1096623484
H  H1073  1  0.37120000  0.93020000  0.81750000  1.0 0.0688374409
H  H1074  1  0.55900000  0.62880000  0.81750000  1.0 0.0688374409
H  H1075  1  0.06980000  0.44100000  0.81750000  1.0 0.0688374409
H  H1076  1  0.06980000  0.62880000  0.18250000  1.0 0.0688374409
H  H1077  1  0.37120000  0.44100000  0.18250000  1.0 0.0688374409
H  H1078  1  0.55900000  0.93020000  0.18250000  1.0 0.0688374409
H  H1079  1  0.37120000  0.93020000  0.68250000  1.0 0.0688374409
H  H1080  1  0.55900000  0.62880000  0.68250000  1.0 0.0688374409
H  H1081  1  0.06980000  0.44100000  0.68250000  1.0 0.0688374409
H  H1082  1  0.06980000  0.62880000  0.31750000  1.0 0.0688374409
H  H1083  1  0.37120000  0.44100000  0.31750000  1.0 0.0688374409
H  H1084  1  0.55900000  0.93020000  0.31750000  1.0 0.0688374409
H  H1085  1  0.37440000  0.91530000  0.87500000  1.0 0.0404692075
H  H1086  1  0.54090000  0.62560000  0.87500000  1.0 0.0404692075
H  H1087  1  0.08470000  0.45910000  0.87500000  1.0 0.0404692075
H  H1088  1  0.08470000  0.62560000  0.12500000  1.0 0.0404692075
H  H1089  1  0.37440000  0.45910000  0.12500000  1.0 0.0404692075
H  H1090  1  0.54090000  0.91530000  0.12500000  1.0 0.0404692075
H  H1091  1  0.37440000  0.91530000  0.62500000  1.0 0.0404692075
H  H1092  1  0.54090000  0.62560000  0.62500000  1.0 0.0404692075
H  H1093  1  0.08470000  0.45910000  0.62500000  1.0 0.0404692075
H  H1094  1  0.08470000  0.62560000  0.37500000  1.0 0.0404692075
H  H1095  1  0.37440000  0.45910000  0.37500000  1.0 0.0404692075
H  H1096  1  0.54090000  0.91530000  0.37500000  1.0 0.0404692075
H  H1097  1  0.33300000  0.89730000  0.84630000  1.0 0.0997663971
H  H1098  1  0.56430000  0.66700000  0.84630000  1.0 0.1096623484
H  H1099  1  0.10270000  0.43570000  0.84630000  1.0 0.1096623484
H  H1100  1  0.10270000  0.66700000  0.15370000  1.0 0.1096623484
H  H1101  1  0.33300000  0.43570000  0.15370000  1.0 0.1096623484
H  H1102  1  0.56430000  0.89730000  0.15370000  1.0 0.1096623484
H  H1103  1  0.33300000  0.89730000  0.65370000  1.0 0.1096623484
H  H1104  1  0.56430000  0.66700000  0.65370000  1.0 0.1096623484
H  H1105  1  0.10270000  0.43570000  0.65370000  1.0 0.1096623484
H  H1106  1  0.10270000  0.66700000  0.34630000  1.0 0.1096623484
H  H1107  1  0.33300000  0.43570000  0.34630000  1.0 0.1096623484
H  H1108  1  0.56430000  0.89730000  0.34630000  1.0 0.1096623484
H  H1109  1  0.30700000  0.09640000  0.82920000  1.0 0.1204657287
H  H1110  1  0.78940000  0.69300000  0.82920000  1.0 0.1204657287
H  H1111  1  0.90360000  0.21060000  0.82920000  1.0 0.1204657287
H  H1112  1  0.90360000  0.69300000  0.17080000  1.0 0.1204657287
H  H1113  1  0.30700000  0.21060000  0.17080000  1.0 0.1204657287
H  H1114  1  0.78940000  0.09640000  0.17080000  1.0 0.1204657287
H  H1115  1  0.30700000  0.09640000  0.67080000  1.0 0.1204657287
H  H1116  1  0.78940000  0.69300000  0.67080000  1.0 0.1204657287
H  H1117  1  0.90360000  0.21060000  0.67080000  1.0 0.1204657287
H  H1118  1  0.90360000  0.69300000  0.32920000  1.0 0.1204657287
H  H1119  1  0.30700000  0.21060000  0.32920000  1.0 0.1204657287
H  H1120  1  0.78940000  0.09640000  0.32920000  1.0 0.1204657287
H  H1121  1  0.26070000  0.07800000  0.82670000  1.0 0.0785004839
H  H1122  1  0.81730000  0.73930000  0.82670000  1.0 0.0785004839
H  H1123  1  0.92200000  0.18270000  0.82670000  1.0 0.0785004839
H  H1124  1  0.92200000  0.73930000  0.17330000  1.0 0.0785004839
H  H1125  1  0.26070000  0.18270000  0.17330000  1.0 0.0785004839
H  H1126  1  0.81730000  0.07800000  0.17330000  1.0 0.0785004839
H  H1127  1  0.26070000  0.07800000  0.67330000  1.0 0.0785004839
H  H1128  1  0.81730000  0.73930000  0.67330000  1.0 0.0785004839
H  H1129  1  0.92200000  0.18270000  0.67330000  1.0 0.0785004839
H  H1130  1  0.92200000  0.73930000  0.32670000  1.0 0.0785004839
H  H1131  1  0.26070000  0.18270000  0.32670000  1.0 0.0785004839
H  H1132  1  0.81730000  0.07800000  0.32670000  1.0 0.0785004839
H  H1133  1  0.28500000  0.10620000  0.87440000  1.0 0.0597909283
H  H1134  1  0.82120000  0.71500000  0.87440000  1.0 0.0597909283
H  H1135  1  0.89380000  0.17880000  0.87440000  1.0 0.0597909283
H  H1136  1  0.89380000  0.71500000  0.12560000  1.0 0.0597909283
H  H1137  1  0.28500000  0.17880000  0.12560000  1.0 0.0597909283
H  H1138  1  0.82120000  0.10620000  0.12560000  1.0 0.0597909283
H  H1139  1  0.28500000  0.10620000  0.62560000  1.0 0.0597909283
H  H1140  1  0.82120000  0.71500000  0.62560000  1.0 0.0597909283
H  H1141  1  0.89380000  0.17880000  0.62560000  1.0 0.0597909283
H  H1142  1  0.89380000  0.71500000  0.37440000  1.0 0.0597909283
H  H1143  1  0.28500000  0.17880000  0.37440000  1.0 0.0597909283
H  H1144  1  0.82120000  0.10620000  0.37440000  1.0 0.0597909283
H  H1145  1  0.23870000  0.01410000  0.93540000  1.0 0.0597909283
H  H1146  1  0.77540000  0.76130000  0.93540000  1.0 0.0597909283
H  H1147  1  0.98590000  0.22460000  0.93540000  1.0 0.0597909283
H  H1148  1  0.98590000  0.76130000  0.06460000  1.0 0.0597909283
H  H1149  1  0.23870000  0.22460000  0.06460000  1.0 0.0597909283
H  H1150  1  0.77540000  0.01410000  0.06460000  1.0 0.0597909283
H  H1151  1  0.23870000  0.01410000  0.56460000  1.0 0.0597909283
H  H1152  1  0.77540000  0.76130000  0.56460000  1.0 0.0597909283
H  H1153  1  0.98590000  0.22460000  0.56460000  1.0 0.0597909283
H  H1154  1  0.98590000  0.76130000  0.43540000  1.0 0.0597909283
H  H1155  1  0.23870000  0.22460000  0.43540000  1.0 0.0597909283
H  H1156  1  0.77540000  0.01410000  0.43540000  1.0 0.0597909283
H  H1157  1  0.24580000  0.05740000  0.93970000  1.0 0.0597909283
H  H1158  1  0.81160000  0.75420000  0.93970000  1.0 0.0597909283
H  H1159  1  0.94260000  0.18840000  0.93970000  1.0 0.0597909283
H  H1160  1  0.94260000  0.75420000  0.06030000  1.0 0.0597909283
H  H1161  1  0.24580000  0.18840000  0.06030000  1.0 0.0597909283
H  H1162  1  0.81160000  0.05740000  0.06030000  1.0 0.0597909283
H  H1163  1  0.24580000  0.05740000  0.56030000  1.0 0.0597909283
H  H1164  1  0.81160000  0.75420000  0.56030000  1.0 0.0597909283
H  H1165  1  0.94260000  0.18840000  0.56030000  1.0 0.0597909283
H  H1166  1  0.94260000  0.75420000  0.43970000  1.0 0.0597909283
H  H1167  1  0.24580000  0.18840000  0.43970000  1.0 0.0597909283
H  H1168  1  0.81160000  0.05740000  0.43970000  1.0 0.0597909283
H  H1169  1  0.21960000  0.02950000  0.89290000  1.0 0.0997663971
H  H1170  1  0.80990000  0.78040000  0.89290000  1.0 0.0997663971
H  H1171  1  0.97050000  0.19010000  0.89290000  1.0 0.0997663971
H  H1172  1  0.97050000  0.78040000  0.10710000  1.0 0.0997663971
H  H1173  1  0.21960000  0.19010000  0.10710000  1.0 0.0997663971
H  H1174  1  0.80990000  0.02950000  0.10710000  1.0 0.0997663971
H  H1175  1  0.21960000  0.02950000  0.60710000  1.0 0.0997663971
H  H1176  1  0.80990000  0.78040000  0.60710000  1.0 0.0997663971
H  H1177  1  0.97050000  0.19010000  0.60710000  1.0 0.0997663971
H  H1178  1  0.97050000  0.78040000  0.39290000  1.0 0.0997663971
H  H1179  1  0.21960000  0.19010000  0.39290000  1.0 0.0997663971
H  H1180  1  0.80990000  0.02950000  0.39290000  1.0 0.0997663971
H  H1181  1  0.33690000  0.07510000  0.89670000  1.0 0.0688374409
H  H1182  1  0.73820000  0.66310000  0.89670000  1.0 0.0688374409
H  H1183  1  0.92490000  0.26180000  0.89670000  1.0 0.0688374409
H  H1184  1  0.92490000  0.66310000  0.10330000  1.0 0.0688374409
H  H1185  1  0.33690000  0.26180000  0.10330000  1.0 0.0688374409
H  H1186  1  0.73820000  0.07510000  0.10330000  1.0 0.0688374409
H  H1187  1  0.33690000  0.07510000  0.60330000  1.0 0.0688374409
H  H1188  1  0.73820000  0.66310000  0.60330000  1.0 0.0688374409
H  H1189  1  0.92490000  0.26180000  0.60330000  1.0 0.0688374409
H  H1190  1  0.92490000  0.66310000  0.39670000  1.0 0.0688374409
H  H1191  1  0.33690000  0.26180000  0.39670000  1.0 0.0688374409
H  H1192  1  0.73820000  0.07510000  0.39670000  1.0 0.0688374409
H  H1193  1  0.31540000  0.08700000  0.94010000  1.0 0.0597909283
H  H1194  1  0.77160000  0.68460000  0.94010000  1.0 0.0597909283
H  H1195  1  0.91300000  0.22840000  0.94010000  1.0 0.0597909283
H  H1196  1  0.91300000  0.68460000  0.05990000  1.0 0.0597909283
H  H1197  1  0.31540000  0.22840000  0.05990000  1.0 0.0597909283
H  H1198  1  0.77160000  0.08700000  0.05990000  1.0 0.0597909283
H  H1199  1  0.31540000  0.08700000  0.55990000  1.0 0.0597909283
H  H1200  1  0.77160000  0.68460000  0.55990000  1.0 0.0597909283
H  H1201  1  0.91300000  0.22840000  0.55990000  1.0 0.0597909283
H  H1202  1  0.91300000  0.68460000  0.44010000  1.0 0.0597909283
H  H1203  1  0.31540000  0.22840000  0.44010000  1.0 0.0597909283
H  H1204  1  0.77160000  0.08700000  0.44010000  1.0 0.0597909283
H  H1205  1  0.31020000  0.04420000  0.94060000  1.0 0.1096623484
H  H1206  1  0.73400000  0.68980000  0.94060000  1.0 0.1096623484
H  H1207  1  0.95580000  0.26600000  0.94060000  1.0 0.1096623484
H  H1208  1  0.95580000  0.68980000  0.05940000  1.0 0.1096623484
H  H1209  1  0.31020000  0.26600000  0.05940000  1.0 0.1096623484
H  H1210  1  0.73400000  0.04420000  0.05940000  1.0 0.1096623484
H  H1211  1  0.31020000  0.04420000  0.55940000  1.0 0.1096623484
H  H1212  1  0.73400000  0.68980000  0.55940000  1.0 0.1096623484
H  H1213  1  0.95580000  0.26600000  0.55940000  1.0 0.1096623484
H  H1214  1  0.95580000  0.68980000  0.44060000  1.0 0.1096623484
H  H1215  1  0.31020000  0.26600000  0.44060000  1.0 0.1096623484
H  H1216  1  0.73400000  0.04420000  0.44060000  1.0 0.1096623484
H  H1217  1  0.09950000  0.88070000  0.71730000  1.0 0.0597909283
H  H1218  1  0.78120000  0.90050000  0.71730000  1.0 0.0597909283
H  H1219  1  0.11930000  0.21880000  0.71730000  1.0 0.0597909283
H  H1220  1  0.11930000  0.90050000  0.28270000  1.0 0.0597909283
H  H1221  1  0.09950000  0.21880000  0.28270000  1.0 0.0597909283
H  H1222  1  0.78120000  0.88070000  0.28270000  1.0 0.0597909283
H  H1223  1  0.09950000  0.88070000  0.78270000  1.0 0.0597909283
H  H1224  1  0.78120000  0.90050000  0.78270000  1.0 0.0597909283
H  H1225  1  0.11930000  0.21880000  0.78270000  1.0 0.0597909283
H  H1226  1  0.11930000  0.90050000  0.21730000  1.0 0.0597909283
H  H1227  1  0.09950000  0.21880000  0.21730000  1.0 0.0597909283
H  H1228  1  0.78120000  0.88070000  0.21730000  1.0 0.0597909283
H  H1229  1  0.10130000  0.87930000  0.78030000  1.0 0.0597909283
H  H1230  1  0.77800000  0.89870000  0.78030000  1.0 0.0597909283
H  H1231  1  0.12070000  0.22200000  0.78030000  1.0 0.0597909283
H  H1232  1  0.12070000  0.89870000  0.21970000  1.0 0.0597909283
H  H1233  1  0.10130000  0.22200000  0.21970000  1.0 0.0597909283
H  H1234  1  0.77800000  0.87930000  0.21970000  1.0 0.0597909283
H  H1235  1  0.10130000  0.87930000  0.71970000  1.0 0.0597909283
H  H1236  1  0.77800000  0.89870000  0.71970000  1.0 0.0597909283
H  H1237  1  0.12070000  0.22200000  0.71970000  1.0 0.0597909283
H  H1238  1  0.12070000  0.89870000  0.28030000  1.0 0.0597909283
H  H1239  1  0.10130000  0.22200000  0.28030000  1.0 0.0597909283
H  H1240  1  0.77800000  0.87930000  0.28030000  1.0 0.0597909283
H  H1241  1  0.07760000  0.89740000  0.75250000  1.0 0.0785004839
H  H1242  1  0.81980000  0.92240000  0.75250000  1.0 0.0785004839
H  H1243  1  0.10260000  0.18020000  0.75250000  1.0 0.0785004839
H  H1244  1  0.10260000  0.92240000  0.24750000  1.0 0.0785004839
H  H1245  1  0.07760000  0.18020000  0.24750000  1.0 0.0785004839
H  H1246  1  0.81980000  0.89740000  0.24750000  1.0 0.0785004839
H  H1247  1  0.07760000  0.89740000  0.74750000  1.0 0.0785004839
H  H1248  1  0.81980000  0.92240000  0.74750000  1.0 0.0785004839
H  H1249  1  0.10260000  0.18020000  0.74750000  1.0 0.0785004839
H  H1250  1  0.10260000  0.92240000  0.25250000  1.0 0.0785004839
H  H1251  1  0.07760000  0.18020000  0.25250000  1.0 0.0785004839
H  H1252  1  0.81980000  0.89740000  0.25250000  1.0 0.0785004839
H  H1253  1  0.15880000  0.98210000  0.79910000  1.0 -0.0069906967
H  H1254  1  0.82330000  0.84120000  0.79910000  1.0 -0.0069906967
H  H1255  1  0.01790000  0.17670000  0.79910000  1.0 -0.0069906967
H  H1256  1  0.01790000  0.84120000  0.20090000  1.0 -0.0069906967
H  H1257  1  0.15880000  0.17670000  0.20090000  1.0 -0.0069906967
H  H1258  1  0.82330000  0.98210000  0.20090000  1.0 -0.0069906967
H  H1259  1  0.15880000  0.98210000  0.70090000  1.0 -0.0069906967
H  H1260  1  0.82330000  0.84120000  0.70090000  1.0 -0.0069906967
H  H1261  1  0.01790000  0.17670000  0.70090000  1.0 -0.0069906967
H  H1262  1  0.01790000  0.84120000  0.29910000  1.0 -0.0069906967
H  H1263  1  0.15880000  0.17670000  0.29910000  1.0 -0.0069906967
H  H1264  1  0.82330000  0.98210000  0.29910000  1.0 -0.0069906967
H  H1265  1  0.11230000  0.95680000  0.79980000  1.0 0.0525383516
H  H1266  1  0.84450000  0.88770000  0.79980000  1.0 0.0525383516
H  H1267  1  0.04320000  0.15550000  0.79980000  1.0 0.0525383516
H  H1268  1  0.04320000  0.88770000  0.20020000  1.0 0.0525383516
H  H1269  1  0.11230000  0.15550000  0.20020000  1.0 0.0525383516
H  H1270  1  0.84450000  0.95680000  0.20020000  1.0 0.0525383516
H  H1271  1  0.11230000  0.95680000  0.70020000  1.0 0.0525383516
H  H1272  1  0.84450000  0.88770000  0.70020000  1.0 0.0525383516
H  H1273  1  0.04320000  0.15550000  0.70020000  1.0 0.0525383516
H  H1274  1  0.04320000  0.88770000  0.29980000  1.0 0.0525383516
H  H1275  1  0.11230000  0.15550000  0.29980000  1.0 0.0525383516
H  H1276  1  0.84450000  0.95680000  0.29980000  1.0 0.0525383516
H  H1277  1  0.13740000  0.94170000  0.83050000  1.0 0.0785004839
H  H1278  1  0.80430000  0.86260000  0.83050000  1.0 0.0688374409
H  H1279  1  0.05830000  0.19570000  0.83050000  1.0 0.0785004839
H  H1280  1  0.05830000  0.86260000  0.16950000  1.0 0.0785004839
H  H1281  1  0.13740000  0.19570000  0.16950000  1.0 0.0785004839
H  H1282  1  0.80430000  0.94170000  0.16950000  1.0 0.0688374409
H  H1283  1  0.13740000  0.94170000  0.66950000  1.0 0.0688374409
H  H1284  1  0.80430000  0.86260000  0.66950000  1.0 0.0688374409
H  H1285  1  0.05830000  0.19570000  0.66950000  1.0 0.0785004839
H  H1286  1  0.05830000  0.86260000  0.33050000  1.0 0.0785004839
H  H1287  1  0.13740000  0.19570000  0.33050000  1.0 0.0785004839
H  H1288  1  0.80430000  0.94170000  0.33050000  1.0 0.0688374409
H  H1289  1  0.15830000  0.79560000  0.78210000  1.0 0.0597909283
H  H1290  1  0.63730000  0.84170000  0.78210000  1.0 0.0597909283
H  H1291  1  0.20440000  0.36270000  0.78210000  1.0 0.0597909283
H  H1292  1  0.20440000  0.84170000  0.21790000  1.0 0.0597909283
H  H1293  1  0.15830000  0.36270000  0.21790000  1.0 0.0597909283
H  H1294  1  0.63730000  0.79560000  0.21790000  1.0 0.0597909283
H  H1295  1  0.15830000  0.79560000  0.71790000  1.0 0.0597909283
H  H1296  1  0.63730000  0.84170000  0.71790000  1.0 0.0597909283
H  H1297  1  0.20440000  0.36270000  0.71790000  1.0 0.0597909283
H  H1298  1  0.20440000  0.84170000  0.28210000  1.0 0.0597909283
H  H1299  1  0.15830000  0.36270000  0.28210000  1.0 0.0597909283
H  H1300  1  0.63730000  0.79560000  0.28210000  1.0 0.0597909283
H  H1301  1  0.16430000  0.76460000  0.74890000  1.0 0.0785004839
H  H1302  1  0.60030000  0.83570000  0.74890000  1.0 0.0785004839
H  H1303  1  0.23540000  0.39970000  0.74890000  1.0 0.0785004839
H  H1304  1  0.23540000  0.83570000  0.25110000  1.0 0.0785004839
H  H1305  1  0.16430000  0.39970000  0.25110000  1.0 0.0785004839
H  H1306  1  0.60030000  0.76460000  0.25110000  1.0 0.0785004839
H  H1307  1  0.16430000  0.76460000  0.75110000  1.0 0.0785004839
H  H1308  1  0.60030000  0.83570000  0.75110000  1.0 0.0785004839
H  H1309  1  0.23540000  0.39970000  0.75110000  1.0 0.0785004839
H  H1310  1  0.23540000  0.83570000  0.24890000  1.0 0.0785004839
H  H1311  1  0.16430000  0.39970000  0.24890000  1.0 0.0785004839
H  H1312  1  0.60030000  0.76460000  0.24890000  1.0 0.0785004839
H  H1313  1  0.21940000  0.81520000  0.67060000  1.0 0.0597909283
H  H1314  1  0.59580000  0.78060000  0.67060000  1.0 0.0597909283
H  H1315  1  0.18480000  0.40420000  0.67060000  1.0 0.0597909283
H  H1316  1  0.18480000  0.78060000  0.32940000  1.0 0.0597909283
H  H1317  1  0.21940000  0.40420000  0.32940000  1.0 0.0597909283
H  H1318  1  0.59580000  0.81520000  0.32940000  1.0 0.0597909283
H  H1319  1  0.21940000  0.81520000  0.82940000  1.0 0.0597909283
H  H1320  1  0.59580000  0.78060000  0.82940000  1.0 0.0597909283
H  H1321  1  0.18480000  0.40420000  0.82940000  1.0 0.0597909283
H  H1322  1  0.18480000  0.78060000  0.17060000  1.0 0.0597909283
H  H1323  1  0.21940000  0.40420000  0.17060000  1.0 0.0597909283
H  H1324  1  0.59580000  0.81520000  0.17060000  1.0 0.0597909283
H  H1325  1  0.25890000  0.82900000  0.70280000  1.0 0.0597909283
H  H1326  1  0.57010000  0.74110000  0.70280000  1.0 0.0597909283
H  H1327  1  0.17100000  0.42990000  0.70280000  1.0 0.0597909283
H  H1328  1  0.17100000  0.74110000  0.29720000  1.0 0.0597909283
H  H1329  1  0.25890000  0.42990000  0.29720000  1.0 0.0597909283
H  H1330  1  0.57010000  0.82900000  0.29720000  1.0 0.0597909283
H  H1331  1  0.25890000  0.82900000  0.79720000  1.0 0.0597909283
H  H1332  1  0.57010000  0.74110000  0.79720000  1.0 0.0597909283
H  H1333  1  0.17100000  0.42990000  0.79720000  1.0 0.0597909283
H  H1334  1  0.17100000  0.74110000  0.20280000  1.0 0.0597909283
H  H1335  1  0.25890000  0.42990000  0.20280000  1.0 0.0597909283
H  H1336  1  0.57010000  0.82900000  0.20280000  1.0 0.0597909283
H  H1337  1  0.22530000  0.78430000  0.70390000  1.0 0.0404692075
H  H1338  1  0.55900000  0.77470000  0.70390000  1.0 0.0404692075
H  H1339  1  0.21570000  0.44100000  0.70390000  1.0 0.0404692075
H  H1340  1  0.21570000  0.77470000  0.29610000  1.0 0.0404692075
H  H1341  1  0.22530000  0.44100000  0.29610000  1.0 0.0404692075
H  H1342  1  0.55900000  0.78430000  0.29610000  1.0 0.0404692075
H  H1343  1  0.22530000  0.78430000  0.79610000  1.0 0.0404692075
H  H1344  1  0.55900000  0.77470000  0.79610000  1.0 0.0404692075
H  H1345  1  0.21570000  0.44100000  0.79610000  1.0 0.0404692075
H  H1346  1  0.21570000  0.77470000  0.20390000  1.0 0.0404692075
H  H1347  1  0.22530000  0.44100000  0.20390000  1.0 0.0404692075
H  H1348  1  0.55900000  0.78430000  0.20390000  1.0 0.0404692075
H  H1349  1  0.16600000  0.99000000  0.78230000  1.0 0.0688374409
H  H1350  1  0.82400000  0.83400000  0.78230000  1.0 0.0688374409
H  H1351  1  0.01000000  0.17600000  0.78230000  1.0 0.0688374409
H  H1352  1  0.01000000  0.83400000  0.21770000  1.0 0.0688374409
H  H1353  1  0.16600000  0.17600000  0.21770000  1.0 0.0688374409
H  H1354  1  0.82400000  0.99000000  0.21770000  1.0 0.0688374409
H  H1355  1  0.16600000  0.99000000  0.71770000  1.0 0.0688374409
H  H1356  1  0.82400000  0.83400000  0.71770000  1.0 0.0688374409
H  H1357  1  0.01000000  0.17600000  0.71770000  1.0 0.0688374409
H  H1358  1  0.01000000  0.83400000  0.28230000  1.0 0.0688374409
H  H1359  1  0.16600000  0.17600000  0.28230000  1.0 0.0688374409
H  H1360  1  0.82400000  0.99000000  0.28230000  1.0 0.0688374409
H  H1361  1  0.16770000  0.99030000  0.71920000  1.0 0.0597909283
H  H1362  1  0.82260000  0.83230000  0.71920000  1.0 0.0597909283
H  H1363  1  0.00970000  0.17740000  0.71920000  1.0 0.0597909283
H  H1364  1  0.00970000  0.83230000  0.28080000  1.0 0.0597909283
H  H1365  1  0.16770000  0.17740000  0.28080000  1.0 0.0597909283
H  H1366  1  0.82260000  0.99030000  0.28080000  1.0 0.0597909283
H  H1367  1  0.16770000  0.99030000  0.78080000  1.0 0.0597909283
H  H1368  1  0.82260000  0.83230000  0.78080000  1.0 0.0597909283
H  H1369  1  0.00970000  0.17740000  0.78080000  1.0 0.0597909283
H  H1370  1  0.00970000  0.83230000  0.21920000  1.0 0.0597909283
H  H1371  1  0.16770000  0.17740000  0.21920000  1.0 0.0597909283
H  H1372  1  0.82260000  0.99030000  0.21920000  1.0 0.0597909283
H  H1373  1  0.12860000  0.98190000  0.74860000  1.0 0.0997663971
H  H1374  1  0.85330000  0.87140000  0.74860000  1.0 0.0997663971
H  H1375  1  0.01810000  0.14670000  0.74860000  1.0 0.0997663971
H  H1376  1  0.01810000  0.87140000  0.25140000  1.0 0.0997663971
H  H1377  1  0.12860000  0.14670000  0.25140000  1.0 0.0997663971
H  H1378  1  0.85330000  0.98190000  0.25140000  1.0 0.0997663971
H  H1379  1  0.12860000  0.98190000  0.75140000  1.0 0.0997663971
H  H1380  1  0.85330000  0.87140000  0.75140000  1.0 0.0997663971
H  H1381  1  0.01810000  0.14670000  0.75140000  1.0 0.0997663971
H  H1382  1  0.01810000  0.87140000  0.24860000  1.0 0.0997663971
H  H1383  1  0.12860000  0.14670000  0.24860000  1.0 0.0997663971
H  H1384  1  0.85330000  0.98190000  0.24860000  1.0 0.0997663971
H  H1385  1  0.26570000  0.83110000  0.78220000  1.0 0.0785004839
H  H1386  1  0.56540000  0.73430000  0.78220000  1.0 0.0785004839
H  H1387  1  0.16890000  0.43460000  0.78220000  1.0 0.0785004839
H  H1388  1  0.16890000  0.73430000  0.21780000  1.0 0.0785004839
H  H1389  1  0.26570000  0.43460000  0.21780000  1.0 0.0785004839
H  H1390  1  0.56540000  0.83110000  0.21780000  1.0 0.0785004839
H  H1391  1  0.26570000  0.83110000  0.71780000  1.0 0.0785004839
H  H1392  1  0.56540000  0.73430000  0.71780000  1.0 0.0785004839
H  H1393  1  0.16890000  0.43460000  0.71780000  1.0 0.0785004839
H  H1394  1  0.16890000  0.73430000  0.28220000  1.0 0.0785004839
H  H1395  1  0.26570000  0.43460000  0.28220000  1.0 0.0785004839
H  H1396  1  0.56540000  0.83110000  0.28220000  1.0 0.0785004839
H  H1397  1  0.26650000  0.83270000  0.71910000  1.0 0.0688374409
H  H1398  1  0.56620000  0.73350000  0.71910000  1.0 0.0688374409
H  H1399  1  0.16730000  0.43380000  0.71910000  1.0 0.0688374409
H  H1400  1  0.16730000  0.73350000  0.28090000  1.0 0.0688374409
H  H1401  1  0.26650000  0.43380000  0.28090000  1.0 0.0688374409
H  H1402  1  0.56620000  0.83270000  0.28090000  1.0 0.0688374409
H  H1403  1  0.26650000  0.83270000  0.78090000  1.0 0.0688374409
H  H1404  1  0.56620000  0.73350000  0.78090000  1.0 0.0688374409
H  H1405  1  0.16730000  0.43380000  0.78090000  1.0 0.0688374409
H  H1406  1  0.16730000  0.73350000  0.21910000  1.0 0.0688374409
H  H1407  1  0.26650000  0.43380000  0.21910000  1.0 0.0688374409
H  H1408  1  0.56620000  0.83270000  0.21910000  1.0 0.0688374409
H  H1409  1  0.24560000  0.79160000  0.74870000  1.0 0.0688374409
H  H1410  1  0.54600000  0.75440000  0.74870000  1.0 0.0688374409
H  H1411  1  0.20840000  0.45400000  0.74870000  1.0 0.0688374409
H  H1412  1  0.20840000  0.75440000  0.25130000  1.0 0.0688374409
H  H1413  1  0.24560000  0.45400000  0.25130000  1.0 0.0688374409
H  H1414  1  0.54600000  0.79160000  0.25130000  1.0 0.0688374409
H  H1415  1  0.24560000  0.79160000  0.75130000  1.0 0.0688374409
H  H1416  1  0.54600000  0.75440000  0.75130000  1.0 0.0688374409
H  H1417  1  0.20840000  0.45400000  0.75130000  1.0 0.0688374409
H  H1418  1  0.20840000  0.75440000  0.24870000  1.0 0.0688374409
H  H1419  1  0.24560000  0.45400000  0.24870000  1.0 0.0688374409
H  H1420  1  0.54600000  0.79160000  0.24870000  1.0 0.0688374409
H  H1421  1  0.31090000  0.89690000  0.89800000  1.0 0.0597909283
H  H1422  1  0.58600000  0.68910000  0.89800000  1.0 0.0597909283
H  H1423  1  0.10310000  0.41400000  0.89800000  1.0 0.0597909283
H  H1424  1  0.10310000  0.68910000  0.10200000  1.0 0.0597909283
H  H1425  1  0.31090000  0.41400000  0.10200000  1.0 0.0597909283
H  H1426  1  0.58600000  0.89690000  0.10200000  1.0 0.0597909283
H  H1427  1  0.31090000  0.89690000  0.60200000  1.0 0.0597909283
H  H1428  1  0.58600000  0.68910000  0.60200000  1.0 0.0597909283
H  H1429  1  0.10310000  0.41400000  0.60200000  1.0 0.0597909283
H  H1430  1  0.10310000  0.68910000  0.39800000  1.0 0.0597909283
H  H1431  1  0.31090000  0.41400000  0.39800000  1.0 0.0597909283
H  H1432  1  0.58600000  0.89690000  0.39800000  1.0 0.0597909283
H  H1433  1  0.20620000  0.81210000  0.83030000  1.0 0.0688374409
H  H1434  1  0.60590000  0.79380000  0.83030000  1.0 0.0688374409
H  H1435  1  0.18790000  0.39410000  0.83030000  1.0 0.0688374409
H  H1436  1  0.18790000  0.79380000  0.16970000  1.0 0.0688374409
H  H1437  1  0.20620000  0.39410000  0.16970000  1.0 0.0688374409
H  H1438  1  0.60590000  0.81210000  0.16970000  1.0 0.0688374409
H  H1439  1  0.20620000  0.81210000  0.66970000  1.0 0.0688374409
H  H1440  1  0.60590000  0.79380000  0.66970000  1.0 0.0688374409
H  H1441  1  0.18790000  0.39410000  0.66970000  1.0 0.0688374409
H  H1442  1  0.18790000  0.79380000  0.33030000  1.0 0.0688374409
H  H1443  1  0.20620000  0.39410000  0.33030000  1.0 0.0688374409
H  H1444  1  0.60590000  0.81210000  0.33030000  1.0 0.0688374409
H  H1445  1  0.16590000  0.79730000  0.79970000  1.0 0.0597909283
H  H1446  1  0.63140000  0.83410000  0.79970000  1.0 0.0597909283
H  H1447  1  0.20270000  0.36860000  0.79970000  1.0 0.0597909283
H  H1448  1  0.20270000  0.83410000  0.20030000  1.0 0.0597909283
H  H1449  1  0.16590000  0.36860000  0.20030000  1.0 0.0597909283
H  H1450  1  0.63140000  0.79730000  0.20030000  1.0 0.0597909283
H  H1451  1  0.16590000  0.79730000  0.70030000  1.0 0.0597909283
H  H1452  1  0.63140000  0.83410000  0.70030000  1.0 0.0597909283
H  H1453  1  0.20270000  0.36860000  0.70030000  1.0 0.0597909283
H  H1454  1  0.20270000  0.83410000  0.29970000  1.0 0.0597909283
H  H1455  1  0.16590000  0.36860000  0.29970000  1.0 0.0597909283
H  H1456  1  0.63140000  0.79730000  0.29970000  1.0 0.0597909283
H  H1457  1  0.18670000  0.77160000  0.79910000  1.0 0.0404692075
H  H1458  1  0.58490000  0.81330000  0.79910000  1.0 0.0404692075
H  H1459  1  0.22840000  0.41510000  0.79910000  1.0 0.0404692075
H  H1460  1  0.22840000  0.81330000  0.20090000  1.0 0.0404692075
H  H1461  1  0.18670000  0.41510000  0.20090000  1.0 0.0404692075
H  H1462  1  0.58490000  0.77160000  0.20090000  1.0 0.0404692075
H  H1463  1  0.18670000  0.77160000  0.70090000  1.0 0.0404692075
H  H1464  1  0.58490000  0.81330000  0.70090000  1.0 0.0404692075
H  H1465  1  0.22840000  0.41510000  0.70090000  1.0 0.0404692075
H  H1466  1  0.22840000  0.81330000  0.29910000  1.0 0.0404692075
H  H1467  1  0.18670000  0.41510000  0.29910000  1.0 0.0404692075
H  H1468  1  0.58490000  0.77160000  0.29910000  1.0 0.0404692075
H  H1469  1  0.33680000  0.89800000  0.84880000  1.0 0.0997663971
H  H1470  1  0.56120000  0.66320000  0.84880000  1.0 0.0997663971
H  H1471  1  0.10200000  0.43880000  0.84880000  1.0 0.0997663971
H  H1472  1  0.10200000  0.66320000  0.15120000  1.0 0.0997663971
H  H1473  1  0.33680000  0.43880000  0.15120000  1.0 0.0997663971
H  H1474  1  0.56120000  0.89800000  0.15120000  1.0 0.0997663971
H  H1475  1  0.33680000  0.89800000  0.65120000  1.0 0.0997663971
H  H1476  1  0.56120000  0.66320000  0.65120000  1.0 0.0997663971
H  H1477  1  0.10200000  0.43880000  0.65120000  1.0 0.0997663971
H  H1478  1  0.10200000  0.66320000  0.34880000  1.0 0.0997663971
H  H1479  1  0.33680000  0.43880000  0.34880000  1.0 0.0997663971
H  H1480  1  0.56120000  0.89800000  0.34880000  1.0 0.0997663971
H  H1481  1  0.35460000  0.90600000  0.90720000  1.0 0.0597909283
H  H1482  1  0.55140000  0.64540000  0.90720000  1.0 0.0525383516
H  H1483  1  0.09400000  0.44860000  0.90720000  1.0 0.0525383516
H  H1484  1  0.09400000  0.64540000  0.09280000  1.0 0.0525383516
H  H1485  1  0.35460000  0.44860000  0.09280000  1.0 0.0525383516
H  H1486  1  0.55140000  0.90600000  0.09280000  1.0 0.0597909283
H  H1487  1  0.35460000  0.90600000  0.59280000  1.0 0.0597909283
H  H1488  1  0.55140000  0.64540000  0.59280000  1.0 0.0525383516
H  H1489  1  0.09400000  0.44860000  0.59280000  1.0 0.0525383516
H  H1490  1  0.09400000  0.64540000  0.40720000  1.0 0.0525383516
H  H1491  1  0.35460000  0.44860000  0.40720000  1.0 0.0525383516
H  H1492  1  0.55140000  0.90600000  0.40720000  1.0 0.0597909283
H  H1493  1  0.40970000  0.96910000  0.88170000  1.0 0.0404692075
H  H1494  1  0.55940000  0.59030000  0.88170000  1.0 0.0404692075
H  H1495  1  0.03090000  0.44060000  0.88170000  1.0 0.0404692075
H  H1496  1  0.03090000  0.59030000  0.11830000  1.0 0.0404692075
H  H1497  1  0.40970000  0.44060000  0.11830000  1.0 0.0404692075
H  H1498  1  0.55940000  0.96910000  0.11830000  1.0 0.0404692075
H  H1499  1  0.40970000  0.96910000  0.61830000  1.0 0.0404692075
H  H1500  1  0.55940000  0.59030000  0.61830000  1.0 0.0404692075
H  H1501  1  0.03090000  0.44060000  0.61830000  1.0 0.0404692075
H  H1502  1  0.03090000  0.59030000  0.38170000  1.0 0.0404692075
H  H1503  1  0.40970000  0.44060000  0.38170000  1.0 0.0404692075
H  H1504  1  0.55940000  0.96910000  0.38170000  1.0 0.0404692075
H  H1505  1  0.39360000  0.95980000  0.82250000  1.0 0.0597909283
H  H1506  1  0.56620000  0.60640000  0.82250000  1.0 0.0688374409
H  H1507  1  0.04020000  0.43380000  0.82250000  1.0 0.0688374409
H  H1508  1  0.04020000  0.60640000  0.17750000  1.0 0.0688374409
H  H1509  1  0.39360000  0.43380000  0.17750000  1.0 0.0688374409
H  H1510  1  0.56620000  0.95980000  0.17750000  1.0 0.0688374409
H  H1511  1  0.39360000  0.95980000  0.67750000  1.0 0.0597909283
H  H1512  1  0.56620000  0.60640000  0.67750000  1.0 0.0688374409
H  H1513  1  0.04020000  0.43380000  0.67750000  1.0 0.0688374409
H  H1514  1  0.04020000  0.60640000  0.32250000  1.0 0.0688374409
H  H1515  1  0.39360000  0.43380000  0.32250000  1.0 0.0688374409
H  H1516  1  0.56620000  0.95980000  0.32250000  1.0 0.0597909283
H  H1517  1  0.36320000  0.99780000  0.92710000  1.0 0.0597909283
H  H1518  1  0.63460000  0.63680000  0.92710000  1.0 0.0688374409
H  H1519  1  0.00220000  0.36540000  0.92710000  1.0 0.0688374409
H  H1520  1  0.00220000  0.63680000  0.07290000  1.0 0.0688374409
H  H1521  1  0.36320000  0.36540000  0.07290000  1.0 0.0688374409
H  H1522  1  0.63460000  0.99780000  0.07290000  1.0 0.0597909283
H  H1523  1  0.36320000  0.99780000  0.57290000  1.0 0.0597909283
H  H1524  1  0.63460000  0.63680000  0.57290000  1.0 0.0688374409
H  H1525  1  0.00220000  0.36540000  0.57290000  1.0 0.0688374409
H  H1526  1  0.00220000  0.63680000  0.42710000  1.0 0.0688374409
H  H1527  1  0.36320000  0.36540000  0.42710000  1.0 0.0688374409
H  H1528  1  0.63460000  0.99780000  0.42710000  1.0 0.0597909283
H  H1529  1  0.32710000  0.95730000  0.94590000  1.0 0.0997663971
H  H1530  1  0.63020000  0.95730000  0.05410000  1.0 0.0997663971
H  H1531  1  0.32710000  0.95730000  0.55410000  1.0 0.0997663971
H  H1532  1  0.63020000  0.95730000  0.44590000  1.0 0.0997663971
H  H1533  1  0.37050000  0.96540000  0.95390000  1.0 0.0597909283
H  H1534  1  0.59490000  0.62950000  0.95390000  1.0 0.0597909283
H  H1535  1  0.03460000  0.40510000  0.95390000  1.0 0.0597909283
H  H1536  1  0.03460000  0.62950000  0.04610000  1.0 0.0597909283
H  H1537  1  0.37050000  0.40510000  0.04610000  1.0 0.0597909283
H  H1538  1  0.59490000  0.96540000  0.04610000  1.0 0.0597909283
H  H1539  1  0.37050000  0.96540000  0.54610000  1.0 0.0597909283
H  H1540  1  0.59490000  0.62950000  0.54610000  1.0 0.0597909283
H  H1541  1  0.03460000  0.40510000  0.54610000  1.0 0.0597909283
H  H1542  1  0.03460000  0.62950000  0.45390000  1.0 0.0597909283
H  H1543  1  0.37050000  0.40510000  0.45390000  1.0 0.0597909283
H  H1544  1  0.59490000  0.96540000  0.45390000  1.0 0.0597909283
H  H1545  1  0.12890000  0.92940000  0.83040000  1.0 0.0785004839
H  H1546  1  0.80050000  0.87110000  0.83040000  1.0 0.0785004839
H  H1547  1  0.07060000  0.19950000  0.83040000  1.0 0.0785004839
H  H1548  1  0.07060000  0.87110000  0.16960000  1.0 0.0785004839
H  H1549  1  0.12890000  0.19950000  0.16960000  1.0 0.0785004839
H  H1550  1  0.80050000  0.92940000  0.16960000  1.0 0.0785004839
H  H1551  1  0.12890000  0.92940000  0.66960000  1.0 0.0785004839
H  H1552  1  0.80050000  0.87110000  0.66960000  1.0 0.0785004839
H  H1553  1  0.07060000  0.19950000  0.66960000  1.0 0.0785004839
H  H1554  1  0.07060000  0.87110000  0.33040000  1.0 0.0785004839
H  H1555  1  0.12890000  0.19950000  0.33040000  1.0 0.0785004839
H  H1556  1  0.80050000  0.92940000  0.33040000  1.0 0.0785004839
H  H1557  1  0.09080000  0.92180000  0.79860000  1.0 0.0404692075
H  H1558  1  0.83100000  0.90920000  0.79860000  1.0 0.0404692075
H  H1559  1  0.07820000  0.16900000  0.79860000  1.0 0.0404692075
H  H1560  1  0.07820000  0.90920000  0.20140000  1.0 0.0404692075
H  H1561  1  0.09080000  0.16900000  0.20140000  1.0 0.0404692075
H  H1562  1  0.83100000  0.92180000  0.20140000  1.0 0.0404692075
H  H1563  1  0.09080000  0.92180000  0.70140000  1.0 0.0404692075
H  H1564  1  0.83100000  0.90920000  0.70140000  1.0 0.0404692075
H  H1565  1  0.07820000  0.16900000  0.70140000  1.0 0.0404692075
H  H1566  1  0.07820000  0.90920000  0.29860000  1.0 0.0404692075
H  H1567  1  0.09080000  0.16900000  0.29860000  1.0 0.0404692075
H  H1568  1  0.83100000  0.92180000  0.29860000  1.0 0.0404692075
H  H1569  1  0.10310000  0.88910000  0.80020000  1.0 0.0037468505
H  H1570  1  0.78600000  0.89690000  0.80020000  1.0 0.0037468505
H  H1571  1  0.11090000  0.21400000  0.80020000  1.0 0.0037468505
H  H1572  1  0.11090000  0.89690000  0.19980000  1.0 0.0037468505
H  H1573  1  0.10310000  0.21400000  0.19980000  1.0 0.0037468505
H  H1574  1  0.78600000  0.88910000  0.19980000  1.0 0.0037468505
H  H1575  1  0.10310000  0.88910000  0.69980000  1.0 0.0037468505
H  H1576  1  0.78600000  0.89690000  0.69980000  1.0 0.0037468505
H  H1577  1  0.11090000  0.21400000  0.69980000  1.0 0.0037468505
H  H1578  1  0.11090000  0.89690000  0.30020000  1.0 0.0037468505
H  H1579  1  0.10310000  0.21400000  0.30020000  1.0 0.0037468505
H  H1580  1  0.78600000  0.88910000  0.30020000  1.0 0.0037468505
H  H1581  1  0.40210000  0.99960000  0.85010000  1.0 0.0997663971
H  H1582  1  0.59750000  0.59790000  0.85010000  1.0 0.0997663971
H  H1583  1  0.00040000  0.40250000  0.85010000  1.0 0.0997663971
H  H1584  1  0.00040000  0.59790000  0.14990000  1.0 0.0997663971
H  H1585  1  0.40210000  0.40250000  0.14990000  1.0 0.0997663971
H  H1586  1  0.59750000  0.99960000  0.14990000  1.0 0.0997663971
H  H1587  1  0.40210000  0.99960000  0.64990000  1.0 0.0997663971
H  H1588  1  0.59750000  0.59790000  0.64990000  1.0 0.0997663971
H  H1589  1  0.00040000  0.40250000  0.64990000  1.0 0.0997663971
H  H1590  1  0.00040000  0.59790000  0.35010000  1.0 0.0997663971
H  H1591  1  0.40210000  0.40250000  0.35010000  1.0 0.0997663971
H  H1592  1  0.59750000  0.99960000  0.35010000  1.0 0.0997663971
H  H1593  1  0.60470000  0.19450000  0.63410000  1.0 0.1204657287
H  H1594  1  0.58980000  0.39530000  0.63410000  1.0 0.1204657287
H  H1595  1  0.80550000  0.41020000  0.63410000  1.0 0.1204657287
H  H1596  1  0.80550000  0.39530000  0.36590000  1.0 0.1204657287
H  H1597  1  0.60470000  0.41020000  0.36590000  1.0 0.1204657287
H  H1598  1  0.58980000  0.19450000  0.36590000  1.0 0.1204657287
H  H1599  1  0.60470000  0.19450000  0.86590000  1.0 0.1204657287
H  H1600  1  0.58980000  0.39530000  0.86590000  1.0 0.1204657287
H  H1601  1  0.80550000  0.41020000  0.86590000  1.0 0.1204657287
H  H1602  1  0.80550000  0.39530000  0.13410000  1.0 0.1204657287
H  H1603  1  0.60470000  0.41020000  0.13410000  1.0 0.1204657287
H  H1604  1  0.58980000  0.19450000  0.13410000  1.0 0.1204657287
H  H1605  1  0.60930000  0.23050000  0.60000000  1.0 0.1096623484
H  H1606  1  0.62120000  0.39070000  0.60000000  1.0 0.1096623484
H  H1607  1  0.76950000  0.37880000  0.60000000  1.0 0.1096623484
H  H1608  1  0.76950000  0.39070000  0.40000000  1.0 0.1096623484
H  H1609  1  0.60930000  0.37880000  0.40000000  1.0 0.1096623484
H  H1610  1  0.62120000  0.23050000  0.40000000  1.0 0.1096623484
H  H1611  1  0.60930000  0.23050000  0.90000000  1.0 0.1096623484
H  H1612  1  0.62120000  0.39070000  0.90000000  1.0 0.1096623484
H  H1613  1  0.76950000  0.37880000  0.90000000  1.0 0.1096623484
H  H1614  1  0.76950000  0.39070000  0.10000000  1.0 0.1096623484
H  H1615  1  0.60930000  0.37880000  0.10000000  1.0 0.1096623484
H  H1616  1  0.62120000  0.23050000  0.10000000  1.0 0.1096623484
H  H1617  1  0.62190000  0.20120000  0.57550000  1.0 0.1204657287
H  H1618  1  0.57930000  0.37810000  0.57550000  1.0 0.1204657287
H  H1619  1  0.79880000  0.42070000  0.57550000  1.0 0.1204657287
H  H1620  1  0.79880000  0.37810000  0.42450000  1.0 0.1204657287
H  H1621  1  0.62190000  0.42070000  0.42450000  1.0 0.1204657287
H  H1622  1  0.57930000  0.20120000  0.42450000  1.0 0.1204657287
H  H1623  1  0.62190000  0.20120000  0.92450000  1.0 0.1204657287
H  H1624  1  0.57930000  0.37810000  0.92450000  1.0 0.1204657287
H  H1625  1  0.79880000  0.42070000  0.92450000  1.0 0.1204657287
H  H1626  1  0.79880000  0.37810000  0.07550000  1.0 0.1204657287
H  H1627  1  0.62190000  0.42070000  0.07550000  1.0 0.1204657287
H  H1628  1  0.57930000  0.20120000  0.07550000  1.0 0.1204657287
H  H1629  1  0.70340000  0.22780000  0.65750000  1.0 0.1294397733
H  H1630  1  0.52440000  0.29660000  0.65750000  1.0 0.1294397733
H  H1631  1  0.77220000  0.47560000  0.65750000  1.0 0.1294397733
H  H1632  1  0.77220000  0.29660000  0.34250000  1.0 0.1294397733
H  H1633  1  0.70340000  0.47560000  0.34250000  1.0 0.1294397733
H  H1634  1  0.52440000  0.22780000  0.34250000  1.0 0.1294397733
H  H1635  1  0.70340000  0.22780000  0.84250000  1.0 0.1294397733
H  H1636  1  0.52440000  0.29660000  0.84250000  1.0 0.1294397733
H  H1637  1  0.77220000  0.47560000  0.84250000  1.0 0.1294397733
H  H1638  1  0.77220000  0.29660000  0.15750000  1.0 0.1294397733
H  H1639  1  0.70340000  0.47560000  0.15750000  1.0 0.1294397733
H  H1640  1  0.52440000  0.22780000  0.15750000  1.0 0.1294397733
H  H1641  1  0.66110000  0.19900000  0.68120000  1.0 0.1294397733
H  H1642  1  0.53790000  0.33890000  0.68120000  1.0 0.1294397733
H  H1643  1  0.80100000  0.46210000  0.68120000  1.0 0.1294397733
H  H1644  1  0.80100000  0.33890000  0.31880000  1.0 0.1294397733
H  H1645  1  0.66110000  0.46210000  0.31880000  1.0 0.1294397733
H  H1646  1  0.53790000  0.19900000  0.31880000  1.0 0.1294397733
H  H1647  1  0.66110000  0.19900000  0.81880000  1.0 0.1294397733
H  H1648  1  0.53790000  0.33890000  0.81880000  1.0 0.1294397733
H  H1649  1  0.80100000  0.46210000  0.81880000  1.0 0.1294397733
H  H1650  1  0.80100000  0.33890000  0.18120000  1.0 0.1294397733
H  H1651  1  0.66110000  0.46210000  0.18120000  1.0 0.1294397733
H  H1652  1  0.53790000  0.19900000  0.18120000  1.0 0.1294397733
H  H1653  1  0.67150000  0.19310000  0.62210000  1.0 0.1294397733
H  H1654  1  0.52160000  0.32850000  0.62210000  1.0 0.1294397733
H  H1655  1  0.80690000  0.47840000  0.62210000  1.0 0.1294397733
H  H1656  1  0.80690000  0.32850000  0.37790000  1.0 0.1294397733
H  H1657  1  0.67150000  0.47840000  0.37790000  1.0 0.1294397733
H  H1658  1  0.52160000  0.19310000  0.37790000  1.0 0.1294397733
H  H1659  1  0.67150000  0.19310000  0.87790000  1.0 0.1294397733
H  H1660  1  0.52160000  0.32850000  0.87790000  1.0 0.1294397733
H  H1661  1  0.80690000  0.47840000  0.87790000  1.0 0.1294397733
H  H1662  1  0.80690000  0.32850000  0.12210000  1.0 0.1294397733
H  H1663  1  0.67150000  0.47840000  0.12210000  1.0 0.1294397733
H  H1664  1  0.52160000  0.19310000  0.12210000  1.0 0.1294397733
H  H1665  1  0.71280000  0.28260000  0.59940000  1.0 0.1204657287
H  H1666  1  0.56980000  0.28720000  0.59940000  1.0 0.1204657287
H  H1667  1  0.71740000  0.43020000  0.59940000  1.0 0.1204657287
H  H1668  1  0.71740000  0.28720000  0.40060000  1.0 0.1204657287
H  H1669  1  0.71280000  0.43020000  0.40060000  1.0 0.1204657287
H  H1670  1  0.56980000  0.28260000  0.40060000  1.0 0.1204657287
H  H1671  1  0.71280000  0.28260000  0.90060000  1.0 0.1204657287
H  H1672  1  0.56980000  0.28720000  0.90060000  1.0 0.1204657287
H  H1673  1  0.71740000  0.43020000  0.90060000  1.0 0.1204657287
H  H1674  1  0.71740000  0.28720000  0.09940000  1.0 0.1204657287
H  H1675  1  0.71280000  0.43020000  0.09940000  1.0 0.1204657287
H  H1676  1  0.56980000  0.28260000  0.09940000  1.0 0.1204657287
H  H1677  1  0.69090000  0.24630000  0.56020000  1.0 0.1294397733
H  H1678  1  0.55540000  0.30910000  0.56020000  1.0 0.1294397733
H  H1679  1  0.75370000  0.44460000  0.56020000  1.0 0.1294397733
H  H1680  1  0.75370000  0.30910000  0.43980000  1.0 0.1294397733
H  H1681  1  0.69090000  0.44460000  0.43980000  1.0 0.1294397733
H  H1682  1  0.55540000  0.24630000  0.43980000  1.0 0.1294397733
H  H1683  1  0.69090000  0.24630000  0.93980000  1.0 0.1294397733
H  H1684  1  0.55540000  0.30910000  0.93980000  1.0 0.1294397733
H  H1685  1  0.75370000  0.44460000  0.93980000  1.0 0.1294397733
H  H1686  1  0.75370000  0.30910000  0.06020000  1.0 0.1294397733
H  H1687  1  0.69090000  0.44460000  0.06020000  1.0 0.1294397733
H  H1688  1  0.55540000  0.24630000  0.06020000  1.0 0.1294397733
H  H1689  1  0.67570000  0.27660000  0.56670000  1.0 0.1204657287
H  H1690  1  0.60090000  0.32430000  0.56670000  1.0 0.1204657287
H  H1691  1  0.72340000  0.39910000  0.56670000  1.0 0.1204657287
H  H1692  1  0.72340000  0.32430000  0.43330000  1.0 0.1204657287
H  H1693  1  0.67570000  0.39910000  0.43330000  1.0 0.1204657287
H  H1694  1  0.60090000  0.27660000  0.43330000  1.0 0.1204657287
H  H1695  1  0.67570000  0.27660000  0.93330000  1.0 0.1204657287
H  H1696  1  0.60090000  0.32430000  0.93330000  1.0 0.1204657287
H  H1697  1  0.72340000  0.39910000  0.93330000  1.0 0.1204657287
H  H1698  1  0.72340000  0.32430000  0.06670000  1.0 0.1204657287
H  H1699  1  0.67570000  0.39910000  0.06670000  1.0 0.1204657287
H  H1700  1  0.60090000  0.27660000  0.06670000  1.0 0.1204657287
H  H1701  1  0.26070000  0.01590000  0.94770000  1.0 0.0688374409
H  H1702  1  0.75520000  0.73930000  0.94770000  1.0 0.0688374409
H  H1703  1  0.98410000  0.24480000  0.94770000  1.0 0.0688374409
H  H1704  1  0.98410000  0.73930000  0.05230000  1.0 0.0688374409
H  H1705  1  0.26070000  0.24480000  0.05230000  1.0 0.0688374409
H  H1706  1  0.75520000  0.01590000  0.05230000  1.0 0.0688374409
H  H1707  1  0.26070000  0.01590000  0.55230000  1.0 0.0688374409
H  H1708  1  0.75520000  0.73930000  0.55230000  1.0 0.0688374409
H  H1709  1  0.98410000  0.24480000  0.55230000  1.0 0.0688374409
H  H1710  1  0.98410000  0.73930000  0.44770000  1.0 0.0688374409
H  H1711  1  0.26070000  0.24480000  0.44770000  1.0 0.0688374409
H  H1712  1  0.75520000  0.01590000  0.44770000  1.0 0.0688374409
H  H1713  1  0.30700000  0.04180000  0.94230000  1.0 0.1096623484
H  H1714  1  0.73480000  0.69300000  0.94230000  1.0 0.1096623484
H  H1715  1  0.95820000  0.26520000  0.94230000  1.0 0.1096623484
H  H1716  1  0.95820000  0.69300000  0.05770000  1.0 0.1096623484
H  H1717  1  0.30700000  0.26520000  0.05770000  1.0 0.1096623484
H  H1718  1  0.73480000  0.04180000  0.05770000  1.0 0.1096623484
H  H1719  1  0.30700000  0.04180000  0.55770000  1.0 0.1096623484
H  H1720  1  0.73480000  0.69300000  0.55770000  1.0 0.1096623484
H  H1721  1  0.95820000  0.26520000  0.55770000  1.0 0.1096623484
H  H1722  1  0.95820000  0.69300000  0.44230000  1.0 0.1096623484
H  H1723  1  0.30700000  0.26520000  0.44230000  1.0 0.1096623484
H  H1724  1  0.73480000  0.04180000  0.44230000  1.0 0.1096623484
H  H1725  1  0.28230000  0.06120000  0.96220000  1.0 0.0597909283
H  H1726  1  0.77890000  0.71770000  0.96220000  1.0 0.0597909283
H  H1727  1  0.93880000  0.22110000  0.96220000  1.0 0.0597909283
H  H1728  1  0.93880000  0.71770000  0.03780000  1.0 0.0597909283
H  H1729  1  0.28230000  0.22110000  0.03780000  1.0 0.0597909283
H  H1730  1  0.77890000  0.06120000  0.03780000  1.0 0.0597909283
H  H1731  1  0.28230000  0.06120000  0.53780000  1.0 0.0597909283
H  H1732  1  0.77890000  0.71770000  0.53780000  1.0 0.0597909283
H  H1733  1  0.93880000  0.22110000  0.53780000  1.0 0.0597909283
H  H1734  1  0.93880000  0.71770000  0.46220000  1.0 0.0597909283
H  H1735  1  0.28230000  0.22110000  0.46220000  1.0 0.0597909283
H  H1736  1  0.77890000  0.06120000  0.46220000  1.0 0.0597909283
H  H1737  1  0.33660000  0.08990000  0.87450000  1.0 0.0525383516
H  H1738  1  0.75330000  0.66340000  0.87450000  1.0 0.0525383516
H  H1739  1  0.91010000  0.24670000  0.87450000  1.0 0.0525383516
H  H1740  1  0.91010000  0.66340000  0.12550000  1.0 0.0525383516
H  H1741  1  0.33660000  0.24670000  0.12550000  1.0 0.0525383516
H  H1742  1  0.75330000  0.08990000  0.12550000  1.0 0.0525383516
H  H1743  1  0.33660000  0.08990000  0.62550000  1.0 0.0525383516
H  H1744  1  0.75330000  0.66340000  0.62550000  1.0 0.0525383516
H  H1745  1  0.91010000  0.24670000  0.62550000  1.0 0.0525383516
H  H1746  1  0.91010000  0.66340000  0.37450000  1.0 0.0525383516
H  H1747  1  0.33660000  0.24670000  0.37450000  1.0 0.0525383516
H  H1748  1  0.75330000  0.08990000  0.37450000  1.0 0.0525383516
H  H1749  1  0.31110000  0.09810000  0.83310000  1.0 0.1204657287
H  H1750  1  0.78700000  0.68890000  0.83310000  1.0 0.1204657287
H  H1751  1  0.90190000  0.21300000  0.83310000  1.0 0.1204657287
H  H1752  1  0.90190000  0.68890000  0.16690000  1.0 0.1204657287
H  H1753  1  0.31110000  0.21300000  0.16690000  1.0 0.1204657287
H  H1754  1  0.78700000  0.09810000  0.16690000  1.0 0.1204657287
H  H1755  1  0.31110000  0.09810000  0.66690000  1.0 0.1204657287
H  H1756  1  0.78700000  0.68890000  0.66690000  1.0 0.1204657287
H  H1757  1  0.90190000  0.21300000  0.66690000  1.0 0.1204657287
H  H1758  1  0.90190000  0.68890000  0.33310000  1.0 0.1204657287
H  H1759  1  0.31110000  0.21300000  0.33310000  1.0 0.1204657287
H  H1760  1  0.78700000  0.09810000  0.33310000  1.0 0.1204657287
H  H1761  1  0.31270000  0.11030000  0.89370000  1.0 0.0597909283
H  H1762  1  0.79760000  0.68730000  0.89370000  1.0 0.0597909283
H  H1763  1  0.88970000  0.20240000  0.89370000  1.0 0.0597909283
H  H1764  1  0.88970000  0.68730000  0.10630000  1.0 0.0597909283
H  H1765  1  0.31270000  0.20240000  0.10630000  1.0 0.0597909283
H  H1766  1  0.79760000  0.11030000  0.10630000  1.0 0.0597909283
H  H1767  1  0.31270000  0.11030000  0.60630000  1.0 0.0597909283
H  H1768  1  0.79760000  0.68730000  0.60630000  1.0 0.0597909283
H  H1769  1  0.88970000  0.20240000  0.60630000  1.0 0.0597909283
H  H1770  1  0.88970000  0.68730000  0.39370000  1.0 0.0597909283
H  H1771  1  0.31270000  0.20240000  0.39370000  1.0 0.0597909283
H  H1772  1  0.79760000  0.11030000  0.39370000  1.0 0.0597909283
H  H1773  1  0.21810000  0.02510000  0.88630000  1.0 0.1096623484
H  H1774  1  0.80700000  0.78190000  0.88630000  1.0 0.1096623484
H  H1775  1  0.97490000  0.19300000  0.88630000  1.0 0.1096623484
H  H1776  1  0.97490000  0.78190000  0.11370000  1.0 0.1096623484
H  H1777  1  0.21810000  0.19300000  0.11370000  1.0 0.1096623484
H  H1778  1  0.80700000  0.02510000  0.11370000  1.0 0.1096623484
H  H1779  1  0.21810000  0.02510000  0.61370000  1.0 0.1096623484
H  H1780  1  0.80700000  0.78190000  0.61370000  1.0 0.1096623484
H  H1781  1  0.97490000  0.19300000  0.61370000  1.0 0.1096623484
H  H1782  1  0.97490000  0.78190000  0.38630000  1.0 0.1096623484
H  H1783  1  0.21810000  0.19300000  0.38630000  1.0 0.1096623484
H  H1784  1  0.80700000  0.02510000  0.38630000  1.0 0.1096623484
H  H1785  1  0.23980000  0.07010000  0.90290000  1.0 0.0404692075
H  H1786  1  0.83030000  0.76020000  0.90290000  1.0 0.0404692075
H  H1787  1  0.92990000  0.16970000  0.90290000  1.0 0.0404692075
H  H1788  1  0.92990000  0.76020000  0.09710000  1.0 0.0404692075
H  H1789  1  0.23980000  0.16970000  0.09710000  1.0 0.0404692075
H  H1790  1  0.83030000  0.07010000  0.09710000  1.0 0.0404692075
H  H1791  1  0.23980000  0.07010000  0.59710000  1.0 0.0404692075
H  H1792  1  0.83030000  0.76020000  0.59710000  1.0 0.0404692075
H  H1793  1  0.92990000  0.16970000  0.59710000  1.0 0.0404692075
H  H1794  1  0.92990000  0.76020000  0.40290000  1.0 0.0404692075
H  H1795  1  0.23980000  0.16970000  0.40290000  1.0 0.0404692075
H  H1796  1  0.83030000  0.07010000  0.40290000  1.0 0.0404692075
H  H1797  1  0.23630000  0.05830000  0.84190000  1.0 0.0688374409
H  H1798  1  0.82200000  0.76370000  0.84190000  1.0 0.0688374409
H  H1799  1  0.94170000  0.17800000  0.84190000  1.0 0.0688374409
H  H1800  1  0.94170000  0.76370000  0.15810000  1.0 0.0688374409
H  H1801  1  0.23630000  0.17800000  0.15810000  1.0 0.0688374409
H  H1802  1  0.82200000  0.05830000  0.15810000  1.0 0.0688374409
H  H1803  1  0.23630000  0.05830000  0.65810000  1.0 0.0688374409
H  H1804  1  0.82200000  0.76370000  0.65810000  1.0 0.0688374409
H  H1805  1  0.94170000  0.17800000  0.65810000  1.0 0.0688374409
H  H1806  1  0.94170000  0.76370000  0.34190000  1.0 0.0688374409
H  H1807  1  0.23630000  0.17800000  0.34190000  1.0 0.0688374409
H  H1808  1  0.82200000  0.05830000  0.34190000  1.0 0.0688374409
C  C1  1  0.67570000  0.04040000  0.83980000  1.0 0.4600821356
C  C2  1  0.36470000  0.32430000  0.83980000  1.0 0.4600821356
C  C3  1  0.95960000  0.63530000  0.83980000  1.0 0.4600821356
C  C4  1  0.95960000  0.32430000  0.16020000  1.0 0.4600821356
C  C5  1  0.67570000  0.63530000  0.16020000  1.0 0.4600821356
C  C6  1  0.36470000  0.04040000  0.16020000  1.0 0.4600821356
C  C7  1  0.67570000  0.04040000  0.66020000  1.0 0.4600821356
C  C8  1  0.36470000  0.32430000  0.66020000  1.0 0.4600821356
C  C9  1  0.95960000  0.63530000  0.66020000  1.0 0.4600821356
C  C10  1  0.95960000  0.32430000  0.33980000  1.0 0.4600821356
C  C11  1  0.67570000  0.63530000  0.33980000  1.0 0.4600821356
C  C12  1  0.36470000  0.04040000  0.33980000  1.0 0.4600821356
C  C13  1  0.72350000  0.98060000  0.84410000  1.0 0.4497101591
C  C14  1  0.25710000  0.27650000  0.84410000  1.0 0.4497101591
C  C15  1  0.01940000  0.74290000  0.84410000  1.0 0.4497101591
C  C16  1  0.01940000  0.27650000  0.15590000  1.0 0.4497101591
C  C17  1  0.72350000  0.74290000  0.15590000  1.0 0.4497101591
C  C18  1  0.25710000  0.98060000  0.15590000  1.0 0.4497101591
C  C19  1  0.72350000  0.98060000  0.65590000  1.0 0.4497101591
C  C20  1  0.25710000  0.27650000  0.65590000  1.0 0.4497101591
C  C21  1  0.01940000  0.74290000  0.65590000  1.0 0.4497101591
C  C22  1  0.01940000  0.27650000  0.34410000  1.0 0.4497101591
C  C23  1  0.72350000  0.74290000  0.34410000  1.0 0.4497101591
C  C24  1  0.25710000  0.98060000  0.34410000  1.0 0.4497101591
C  C25  1  0.82620000  0.07060000  0.75000000  1.0 0.4497101591
C  C26  1  0.24440000  0.17380000  0.75000000  1.0 0.4497101591
C  C27  1  0.92940000  0.75560000  0.75000000  1.0 0.4497101591
C  C28  1  0.92940000  0.17380000  0.25000000  1.0 0.4497101591
C  C29  1  0.82620000  0.75560000  0.25000000  1.0 0.4497101591
C  C30  1  0.24440000  0.07060000  0.25000000  1.0 0.4497101591
C  C31  1  0.77810000  0.13760000  0.75000000  1.0 0.4600821356
C  C32  1  0.35950000  0.22190000  0.75000000  1.0 0.4600821356
C  C33  1  0.86240000  0.64050000  0.75000000  1.0 0.4600821356
C  C34  1  0.86240000  0.22190000  0.25000000  1.0 0.4600821356
C  C35  1  0.77810000  0.64050000  0.25000000  1.0 0.4600821356
C  C36  1  0.35950000  0.13760000  0.25000000  1.0 0.4600821356
C  C37  1  0.78470000  0.12160000  0.91050000  1.0 0.0404692075
C  C38  1  0.33690000  0.21530000  0.91050000  1.0 0.0404692075
C  C39  1  0.87840000  0.66310000  0.91050000  1.0 0.0404692075
C  C40  1  0.87840000  0.21530000  0.08950000  1.0 0.0404692075
C  C41  1  0.78470000  0.66310000  0.08950000  1.0 0.0404692075
C  C42  1  0.33690000  0.12160000  0.08950000  1.0 0.0404692075
C  C43  1  0.78470000  0.12160000  0.58950000  1.0 0.0404692075
C  C44  1  0.33690000  0.21530000  0.58950000  1.0 0.0404692075
C  C45  1  0.87840000  0.66310000  0.58950000  1.0 0.0404692075
C  C46  1  0.87840000  0.21530000  0.41050000  1.0 0.0404692075
C  C47  1  0.78470000  0.66310000  0.41050000  1.0 0.0404692075
C  C48  1  0.33690000  0.12160000  0.41050000  1.0 0.0404692075
C  C49  1  0.81770000  0.08720000  0.91240000  1.0 0.0215643683
C  C50  1  0.26950000  0.18230000  0.91240000  1.0 0.0215643683
C  C51  1  0.91280000  0.73050000  0.91240000  1.0 0.0215643683
C  C52  1  0.91280000  0.18230000  0.08760000  1.0 0.0215643683
C  C53  1  0.81770000  0.73050000  0.08760000  1.0 0.0215643683
C  C54  1  0.26950000  0.08720000  0.08760000  1.0 0.0215643683
C  C55  1  0.81770000  0.08720000  0.58760000  1.0 0.0215643683
C  C56  1  0.26950000  0.18230000  0.58760000  1.0 0.0215643683
C  C57  1  0.91280000  0.73050000  0.58760000  1.0 0.0215643683
C  C58  1  0.91280000  0.18230000  0.41240000  1.0 0.0215643683
C  C59  1  0.81770000  0.73050000  0.41240000  1.0 0.0215643683
C  C60  1  0.26950000  0.08720000  0.41240000  1.0 0.0215643683
C  C61  1  0.64830000  0.04780000  0.87650000  1.0 0.0997663971
C  C62  1  0.39950000  0.35170000  0.87650000  1.0 0.0997663971
C  C63  1  0.95220000  0.60050000  0.87650000  1.0 0.0997663971
C  C64  1  0.95220000  0.35170000  0.12350000  1.0 0.0997663971
C  C65  1  0.64830000  0.60050000  0.12350000  1.0 0.0997663971
C  C66  1  0.39950000  0.04780000  0.12350000  1.0 0.0997663971
C  C67  1  0.64830000  0.04780000  0.62350000  1.0 0.0997663971
C  C68  1  0.39950000  0.35170000  0.62350000  1.0 0.0997663971
C  C69  1  0.95220000  0.60050000  0.62350000  1.0 0.0997663971
C  C70  1  0.95220000  0.35170000  0.37650000  1.0 0.0997663971
C  C71  1  0.64830000  0.60050000  0.37650000  1.0 0.0997663971
C  C72  1  0.39950000  0.04780000  0.37650000  1.0 0.0997663971
C  C73  1  0.72220000  0.94870000  0.88160000  1.0 0.1096623484
C  C74  1  0.22650000  0.27780000  0.88160000  1.0 0.1096623484
C  C75  1  0.05130000  0.77350000  0.88160000  1.0 0.1096623484
C  C76  1  0.05130000  0.27780000  0.11840000  1.0 0.1096623484
C  C77  1  0.72220000  0.77350000  0.11840000  1.0 0.1096623484
C  C78  1  0.22650000  0.94870000  0.11840000  1.0 0.1096623484
C  C79  1  0.72220000  0.94870000  0.61840000  1.0 0.1096623484
C  C80  1  0.22650000  0.27780000  0.61840000  1.0 0.1096623484
C  C81  1  0.05130000  0.77350000  0.61840000  1.0 0.1096623484
C  C82  1  0.05130000  0.27780000  0.38160000  1.0 0.1096623484
C  C83  1  0.72220000  0.77350000  0.38160000  1.0 0.1096623484
C  C84  1  0.22650000  0.94870000  0.38160000  1.0 0.1096623484
C  C85  1  0.86280000  0.06570000  0.75000000  1.0 0.1501157755
C  C86  1  0.20290000  0.13720000  0.75000000  1.0 0.1501157755
C  C87  1  0.93430000  0.79710000  0.75000000  1.0 0.1501157755
C  C88  1  0.93430000  0.13720000  0.25000000  1.0 0.1501157755
C  C89  1  0.86280000  0.79710000  0.25000000  1.0 0.1501157755
C  C90  1  0.20290000  0.06570000  0.25000000  1.0 0.1568000057
C  C91  1  0.78700000  0.18100000  0.75000000  1.0 0.1294397733
C  C92  1  0.39400000  0.21300000  0.75000000  1.0 0.1294397733
C  C93  1  0.81900000  0.60600000  0.75000000  1.0 0.1294397733
C  C94  1  0.81900000  0.21300000  0.25000000  1.0 0.1294397733
C  C95  1  0.78700000  0.60600000  0.25000000  1.0 0.1294397733
C  C96  1  0.39400000  0.18100000  0.25000000  1.0 0.1294397733
C  C97  1  0.80660000  0.14460000  0.95500000  1.0 -0.1982552838
C  C98  1  0.33800000  0.19340000  0.95500000  1.0 -0.1982552838
C  C99  1  0.85540000  0.66200000  0.95500000  1.0 -0.1982552838
C  C100  1  0.85540000  0.19340000  0.04500000  1.0 -0.1982552838
C  C101  1  0.80660000  0.66200000  0.04500000  1.0 -0.1982552838
C  C102  1  0.33800000  0.14460000  0.04500000  1.0 -0.1982552838
C  C103  1  0.80660000  0.14460000  0.54500000  1.0 -0.1982552838
C  C104  1  0.33800000  0.19340000  0.54500000  1.0 -0.1982552838
C  C105  1  0.85540000  0.66200000  0.54500000  1.0 -0.1982552838
C  C106  1  0.85540000  0.19340000  0.45500000  1.0 -0.1982552838
C  C107  1  0.80660000  0.66200000  0.45500000  1.0 -0.1982552838
C  C108  1  0.33800000  0.14460000  0.45500000  1.0 -0.1982552838
C  C109  1  0.84020000  0.10830000  0.95540000  1.0 -0.2440680258
C  C110  1  0.26810000  0.15980000  0.95540000  1.0 -0.2488804107
C  C111  1  0.89170000  0.73190000  0.95540000  1.0 -0.2440680258
C  C112  1  0.89170000  0.15980000  0.04460000  1.0 -0.2440680258
C  C113  1  0.84020000  0.73190000  0.04460000  1.0 -0.2440680258
C  C114  1  0.26810000  0.10830000  0.04460000  1.0 -0.2488804107
C  C115  1  0.84020000  0.10830000  0.54460000  1.0 -0.2440680258
C  C116  1  0.26810000  0.15980000  0.54460000  1.0 -0.2488804107
C  C117  1  0.89170000  0.73190000  0.54460000  1.0 -0.2440680258
C  C118  1  0.89170000  0.15980000  0.45540000  1.0 -0.2440680258
C  C119  1  0.84020000  0.73190000  0.45540000  1.0 -0.2440680258
C  C120  1  0.26810000  0.10830000  0.45540000  1.0 -0.2488804107
C  C121  1  0.60910000  0.92410000  0.79560000  1.0 0.0404692075
C  C122  1  0.31500000  0.39090000  0.79560000  1.0 0.0404692075
C  C123  1  0.07590000  0.68500000  0.79560000  1.0 0.0404692075
C  C124  1  0.07590000  0.39090000  0.20440000  1.0 0.0404692075
C  C125  1  0.60910000  0.68500000  0.20440000  1.0 0.0404692075
C  C126  1  0.31500000  0.92410000  0.20440000  1.0 0.0404692075
C  C127  1  0.60910000  0.92410000  0.70440000  1.0 0.0404692075
C  C128  1  0.31500000  0.39090000  0.70440000  1.0 0.0404692075
C  C129  1  0.07590000  0.68500000  0.70440000  1.0 0.0404692075
C  C130  1  0.07590000  0.39090000  0.29560000  1.0 0.0404692075
C  C131  1  0.60910000  0.68500000  0.29560000  1.0 0.0404692075
C  C132  1  0.31500000  0.92410000  0.29560000  1.0 0.0404692075
C  C133  1  0.66280000  0.09040000  0.88300000  1.0 -0.1982552838
C  C134  1  0.42760000  0.33720000  0.88300000  1.0 -0.1982552838
C  C135  1  0.90960000  0.57240000  0.88300000  1.0 -0.1982552838
C  C136  1  0.90960000  0.33720000  0.11700000  1.0 -0.1982552838
C  C137  1  0.66280000  0.57240000  0.11700000  1.0 -0.1982552838
C  C138  1  0.42760000  0.09040000  0.11700000  1.0 -0.1982552838
C  C139  1  0.66280000  0.09040000  0.61700000  1.0 -0.1982552838
C  C140  1  0.42760000  0.33720000  0.61700000  1.0 -0.1982552838
C  C141  1  0.90960000  0.57240000  0.61700000  1.0 -0.1982552838
C  C142  1  0.90960000  0.33720000  0.38300000  1.0 -0.1982552838
C  C143  1  0.66280000  0.57240000  0.38300000  1.0 -0.1982552838
C  C144  1  0.42760000  0.09040000  0.38300000  1.0 -0.1982552838
C  C145  1  0.60710000  0.02810000  0.85590000  1.0 -0.1819370717
C  C146  1  0.42100000  0.39290000  0.85590000  1.0 -0.1819370717
C  C147  1  0.97190000  0.57900000  0.85590000  1.0 -0.1819370717
C  C148  1  0.97190000  0.39290000  0.14410000  1.0 -0.1819370717
C  C149  1  0.60710000  0.57900000  0.14410000  1.0 -0.1819370717
C  C150  1  0.42100000  0.02810000  0.14410000  1.0 -0.1819370717
C  C151  1  0.60710000  0.02810000  0.64410000  1.0 -0.1819370717
C  C152  1  0.42100000  0.39290000  0.64410000  1.0 -0.1819370717
C  C153  1  0.97190000  0.57900000  0.64410000  1.0 -0.1819370717
C  C154  1  0.97190000  0.39290000  0.35590000  1.0 -0.1819370717
C  C155  1  0.60710000  0.57900000  0.35590000  1.0 -0.1819370717
C  C156  1  0.42100000  0.02810000  0.35590000  1.0 -0.1819370717
C  C157  1  0.64670000  0.03020000  0.93070000  1.0 -0.1501836994
C  C158  1  0.38350000  0.35330000  0.93070000  1.0 -0.1557042385
C  C159  1  0.96980000  0.61650000  0.93070000  1.0 -0.1910065336
C  C160  1  0.96980000  0.35330000  0.06930000  1.0 -0.1910065336
C  C161  1  0.64670000  0.61650000  0.06930000  1.0 -0.1501836994
C  C162  1  0.38350000  0.03020000  0.06930000  1.0 -0.1501836994
C  C163  1  0.64670000  0.03020000  0.56930000  1.0 -0.1501836994
C  C164  1  0.38350000  0.35330000  0.56930000  1.0 -0.1557042385
C  C165  1  0.96980000  0.61650000  0.56930000  1.0 -0.1910065336
C  C166  1  0.96980000  0.35330000  0.43070000  1.0 -0.1910065336
C  C167  1  0.64670000  0.61650000  0.43070000  1.0 -0.1501836994
C  C168  1  0.38350000  0.03020000  0.43070000  1.0 -0.1501836994
C  C169  1  0.71760000  0.95830000  0.93850000  1.0 -0.1982552838
C  C170  1  0.24070000  0.28240000  0.93850000  1.0 -0.1982552838
C  C171  1  0.04170000  0.75930000  0.93850000  1.0 -0.1982552838
C  C172  1  0.04170000  0.28240000  0.06150000  1.0 -0.1982552838
C  C173  1  0.71760000  0.75930000  0.06150000  1.0 -0.1982552838
C  C174  1  0.24070000  0.95830000  0.06150000  1.0 -0.1982552838
C  C175  1  0.71760000  0.95830000  0.56150000  1.0 -0.1982552838
C  C176  1  0.24070000  0.28240000  0.56150000  1.0 -0.1982552838
C  C177  1  0.04170000  0.75930000  0.56150000  1.0 -0.1982552838
C  C178  1  0.04170000  0.28240000  0.43850000  1.0 -0.1982552838
C  C179  1  0.71760000  0.75930000  0.43850000  1.0 -0.1982552838
C  C180  1  0.24070000  0.95830000  0.43850000  1.0 -0.1982552838
C  C181  1  0.68740000  0.90910000  0.86970000  1.0 -0.1982552838
C  C182  1  0.22170000  0.31260000  0.86970000  1.0 -0.1982552838
C  C183  1  0.09090000  0.77830000  0.86970000  1.0 -0.1982552838
C  C184  1  0.09090000  0.31260000  0.13030000  1.0 -0.1982552838
C  C185  1  0.68740000  0.77830000  0.13030000  1.0 -0.1982552838
C  C186  1  0.22170000  0.90910000  0.13030000  1.0 -0.1982552838
C  C187  1  0.68740000  0.90910000  0.63030000  1.0 -0.1982552838
C  C188  1  0.22170000  0.31260000  0.63030000  1.0 -0.1982552838
C  C189  1  0.09090000  0.77830000  0.63030000  1.0 -0.1982552838
C  C190  1  0.09090000  0.31260000  0.36970000  1.0 -0.1982552838
C  C191  1  0.68740000  0.77830000  0.36970000  1.0 -0.1982552838
C  C192  1  0.22170000  0.90910000  0.36970000  1.0 -0.1982552838
C  C193  1  0.76040000  0.94880000  0.87780000  1.0 -0.1741671412
C  C194  1  0.18840000  0.23960000  0.87780000  1.0 -0.1741671412
C  C195  1  0.05120000  0.81160000  0.87780000  1.0 -0.1741671412
C  C196  1  0.05120000  0.23960000  0.12220000  1.0 -0.1741671412
C  C197  1  0.76040000  0.81160000  0.12220000  1.0 -0.1741671412
C  C198  1  0.18840000  0.94880000  0.12220000  1.0 -0.1741671412
C  C199  1  0.76040000  0.94880000  0.62220000  1.0 -0.1741671412
C  C200  1  0.18840000  0.23960000  0.62220000  1.0 -0.1741671412
C  C201  1  0.05120000  0.81160000  0.62220000  1.0 -0.1741671412
C  C202  1  0.05120000  0.23960000  0.37780000  1.0 -0.1741671412
C  C203  1  0.76040000  0.81160000  0.37780000  1.0 -0.1741671412
C  C204  1  0.18840000  0.94880000  0.37780000  1.0 -0.1741671412
C  C205  1  0.84880000  0.02190000  0.75000000  1.0 -0.3073786031
C  C206  1  0.17310000  0.15120000  0.75000000  1.0 -0.3073786031
C  C207  1  0.97810000  0.82690000  0.75000000  1.0 -0.3073786031
C  C208  1  0.97810000  0.15120000  0.25000000  1.0 -0.3073786031
C  C209  1  0.84880000  0.82690000  0.25000000  1.0 -0.3073786031
C  C210  1  0.17310000  0.02190000  0.25000000  1.0 -0.3073786031
C  C211  1  0.88720000  0.08290000  0.79910000  1.0 -0.2102377163
C  C212  1  0.19570000  0.11280000  0.79910000  1.0 -0.2102377163
C  C213  1  0.91710000  0.80430000  0.79910000  1.0 -0.2102377163
C  C214  1  0.91710000  0.11280000  0.20090000  1.0 -0.2102377163
C  C215  1  0.88720000  0.80430000  0.20090000  1.0 -0.2102377163
C  C216  1  0.19570000  0.08290000  0.20090000  1.0 -0.2102377163
C  C217  1  0.88720000  0.08290000  0.70090000  1.0 -0.2102377163
C  C218  1  0.19570000  0.11280000  0.70090000  1.0 -0.2102377163
C  C219  1  0.91710000  0.80430000  0.70090000  1.0 -0.2102377163
C  C220  1  0.91710000  0.11280000  0.29910000  1.0 -0.2102377163
C  C221  1  0.88720000  0.80430000  0.29910000  1.0 -0.2102377163
C  C222  1  0.19570000  0.08290000  0.29910000  1.0 -0.2102377163
C  C223  1  0.74890000  0.18150000  0.75000000  1.0 -0.2855608369
C  C224  1  0.43260000  0.25110000  0.75000000  1.0 -0.2847033943
C  C225  1  0.81850000  0.56740000  0.75000000  1.0 -0.2847033943
C  C226  1  0.81850000  0.25110000  0.25000000  1.0 -0.2847033943
C  C227  1  0.74890000  0.56740000  0.25000000  1.0 -0.2847033943
C  C228  1  0.43260000  0.18150000  0.25000000  1.0 -0.2855608369
C  C229  1  0.80890000  0.20180000  0.79910000  1.0 -0.1982552838
C  C230  1  0.39290000  0.19110000  0.79910000  1.0 -0.1982552838
C  C231  1  0.79820000  0.60710000  0.79910000  1.0 -0.1982552838
C  C232  1  0.79820000  0.19110000  0.20090000  1.0 -0.1982552838
C  C233  1  0.80890000  0.60710000  0.20090000  1.0 -0.1982552838
C  C234  1  0.39290000  0.20180000  0.20090000  1.0 -0.1982552838
C  C235  1  0.80890000  0.20180000  0.70090000  1.0 -0.1982552838
C  C236  1  0.39290000  0.19110000  0.70090000  1.0 -0.1982552838
C  C237  1  0.79820000  0.60710000  0.70090000  1.0 -0.1982552838
C  C238  1  0.79820000  0.19110000  0.29910000  1.0 -0.1982552838
C  C239  1  0.80890000  0.60710000  0.29910000  1.0 -0.1982552838
C  C240  1  0.39290000  0.20180000  0.29910000  1.0 -0.1982552838
C  C241  1  0.83660000  0.13910000  0.97740000  1.0 0.0267218246
C  C242  1  0.30250000  0.16340000  0.97740000  1.0 0.0267218246
C  C243  1  0.86090000  0.69750000  0.97740000  1.0 0.0267218246
C  C244  1  0.86090000  0.16340000  0.02260000  1.0 0.0267218246
C  C245  1  0.83660000  0.69750000  0.02260000  1.0 0.0267218246
C  C246  1  0.30250000  0.13910000  0.02260000  1.0 0.0267218246
C  C247  1  0.83660000  0.13910000  0.52260000  1.0 0.0267218246
C  C248  1  0.30250000  0.16340000  0.52260000  1.0 0.0267218246
C  C249  1  0.86090000  0.69750000  0.52260000  1.0 0.0267218246
C  C250  1  0.86090000  0.16340000  0.47740000  1.0 0.0267218246
C  C251  1  0.83660000  0.69750000  0.47740000  1.0 0.0267218246
C  C252  1  0.30250000  0.13910000  0.47740000  1.0 0.0267218246
C  C253  1  0.57240000  0.89030000  0.79740000  1.0 -0.1982552838
C  C254  1  0.31790000  0.42760000  0.79740000  1.0 -0.1982552838
C  C255  1  0.10970000  0.68210000  0.79740000  1.0 -0.1982552838
C  C256  1  0.10970000  0.42760000  0.20260000  1.0 -0.1982552838
C  C257  1  0.57240000  0.68210000  0.20260000  1.0 -0.1982552838
C  C258  1  0.31790000  0.89030000  0.20260000  1.0 -0.1982552838
C  C259  1  0.57240000  0.89030000  0.70260000  1.0 -0.1982552838
C  C260  1  0.31790000  0.42760000  0.70260000  1.0 -0.1982552838
C  C261  1  0.10970000  0.68210000  0.70260000  1.0 -0.1982552838
C  C262  1  0.10970000  0.42760000  0.29740000  1.0 -0.1982552838
C  C263  1  0.57240000  0.68210000  0.29740000  1.0 -0.1982552838
C  C264  1  0.31790000  0.89030000  0.29740000  1.0 -0.1982552838
C  C265  1  0.55330000  0.87290000  0.75000000  1.0 0.0688374409
C  C266  1  0.31960000  0.44670000  0.75000000  1.0 0.0688374409
C  C267  1  0.12710000  0.68040000  0.75000000  1.0 0.0688374409
C  C268  1  0.12710000  0.44670000  0.25000000  1.0 0.0688374409
C  C269  1  0.55330000  0.68040000  0.25000000  1.0 0.0688374409
C  C270  1  0.31960000  0.87290000  0.25000000  1.0 0.0688374409
C  C271  1  0.51480000  0.83580000  0.75000000  1.0 0.0997663971
C  C272  1  0.32100000  0.48520000  0.75000000  1.0 0.0997663971
C  C273  1  0.16420000  0.67900000  0.75000000  1.0 0.0997663971
C  C274  1  0.16420000  0.48520000  0.25000000  1.0 0.0997663971
C  C275  1  0.51480000  0.67900000  0.25000000  1.0 0.0997663971
C  C276  1  0.32100000  0.83580000  0.25000000  1.0 0.0997663971
C  C277  1  0.49490000  0.81650000  0.79730000  1.0 -0.2184741142
C  C278  1  0.32160000  0.50510000  0.79730000  1.0 -0.2184741142
C  C279  1  0.18350000  0.67840000  0.79730000  1.0 -0.2184741142
C  C280  1  0.18350000  0.50510000  0.20270000  1.0 -0.2184741142
C  C281  1  0.49490000  0.67840000  0.20270000  1.0 -0.2184741142
C  C282  1  0.32160000  0.81650000  0.20270000  1.0 -0.2184741142
C  C283  1  0.49490000  0.81650000  0.70270000  1.0 -0.2184741142
C  C284  1  0.32160000  0.50510000  0.70270000  1.0 -0.2184741142
C  C285  1  0.18350000  0.67840000  0.70270000  1.0 -0.2184741142
C  C286  1  0.18350000  0.50510000  0.29730000  1.0 -0.2184741142
C  C287  1  0.49490000  0.67840000  0.29730000  1.0 -0.2184741142
C  C288  1  0.32160000  0.81650000  0.29730000  1.0 -0.2184741142
C  C289  1  0.45900000  0.78250000  0.79500000  1.0 0.0688374409
C  C290  1  0.32350000  0.54100000  0.79500000  1.0 0.0688374409
C  C291  1  0.21750000  0.67650000  0.79500000  1.0 0.0688374409
C  C292  1  0.21750000  0.54100000  0.20500000  1.0 0.0688374409
C  C293  1  0.45900000  0.67650000  0.20500000  1.0 0.0688374409
C  C294  1  0.32350000  0.78250000  0.20500000  1.0 0.0688374409
C  C295  1  0.45900000  0.78250000  0.70500000  1.0 0.0688374409
C  C296  1  0.32350000  0.54100000  0.70500000  1.0 0.0688374409
C  C297  1  0.21750000  0.67650000  0.70500000  1.0 0.0688374409
C  C298  1  0.21750000  0.54100000  0.29500000  1.0 0.0688374409
C  C299  1  0.45900000  0.67650000  0.29500000  1.0 0.0688374409
C  C300  1  0.32350000  0.78250000  0.29500000  1.0 0.0688374409
C  C301  1  0.33800000  0.73470000  0.67510000  1.0 0.5654552375
C  C302  1  0.39670000  0.66200000  0.67510000  1.0 0.5644378458
C  C303  1  0.26530000  0.60330000  0.67510000  1.0 0.5654552375
C  C304  1  0.26530000  0.66200000  0.32490000  1.0 0.5654552375
C  C305  1  0.33800000  0.60330000  0.32490000  1.0 0.5654552375
C  C306  1  0.39670000  0.73470000  0.32490000  1.0 0.5654552375
C  C307  1  0.33800000  0.73470000  0.82490000  1.0 0.5654552375
C  C308  1  0.39670000  0.66200000  0.82490000  1.0 0.5644378458
C  C309  1  0.26530000  0.60330000  0.82490000  1.0 0.5654552375
C  C310  1  0.26530000  0.66200000  0.17510000  1.0 0.5654552375
C  C311  1  0.33800000  0.60330000  0.17510000  1.0 0.5654552375
C  C312  1  0.39670000  0.73470000  0.17510000  1.0 0.5654552375
C  C313  1  0.33870000  0.76090000  0.62930000  1.0 0.142353546
C  C314  1  0.42220000  0.66130000  0.62930000  1.0 0.142353546
C  C315  1  0.23910000  0.57780000  0.62930000  1.0 0.142353546
C  C316  1  0.23910000  0.66130000  0.37070000  1.0 0.142353546
C  C317  1  0.33870000  0.57780000  0.37070000  1.0 0.142353546
C  C318  1  0.42220000  0.76090000  0.37070000  1.0 0.142353546
C  C319  1  0.33870000  0.76090000  0.87070000  1.0 0.142353546
C  C320  1  0.42220000  0.66130000  0.87070000  1.0 0.142353546
C  C321  1  0.23910000  0.57780000  0.87070000  1.0 0.142353546
C  C322  1  0.23910000  0.66130000  0.12930000  1.0 0.142353546
C  C323  1  0.33870000  0.57780000  0.12930000  1.0 0.142353546
C  C324  1  0.42220000  0.76090000  0.12930000  1.0 0.142353546
C  C325  1  0.32440000  0.78760000  0.64930000  1.0 -0.4533847663
C  C326  1  0.46320000  0.67560000  0.64930000  1.0 -0.4533847663
C  C327  1  0.21240000  0.53680000  0.64930000  1.0 -0.4533847663
C  C328  1  0.21240000  0.67560000  0.35070000  1.0 -0.4533847663
C  C329  1  0.32440000  0.53680000  0.35070000  1.0 -0.4533847663
C  C330  1  0.46320000  0.78760000  0.35070000  1.0 -0.4533847663
C  C331  1  0.32440000  0.78760000  0.85070000  1.0 -0.4533847663
C  C332  1  0.46320000  0.67560000  0.85070000  1.0 -0.4533847663
C  C333  1  0.21240000  0.53680000  0.85070000  1.0 -0.4533847663
C  C334  1  0.21240000  0.67560000  0.14930000  1.0 -0.4533847663
C  C335  1  0.32440000  0.53680000  0.14930000  1.0 -0.4533847663
C  C336  1  0.46320000  0.78760000  0.14930000  1.0 -0.4533847663
C  C337  1  0.37920000  0.78580000  0.60790000  1.0 -0.4268245597
C  C338  1  0.40660000  0.62080000  0.60790000  1.0 -0.4268245597
C  C339  1  0.21420000  0.59340000  0.60790000  1.0 -0.4268245597
C  C340  1  0.21420000  0.62080000  0.39210000  1.0 -0.4268245597
C  C341  1  0.37920000  0.59340000  0.39210000  1.0 -0.4268245597
C  C342  1  0.40660000  0.78580000  0.39210000  1.0 -0.4268245597
C  C343  1  0.37920000  0.78580000  0.89210000  1.0 -0.4268245597
C  C344  1  0.40660000  0.62080000  0.89210000  1.0 -0.4268245597
C  C345  1  0.21420000  0.59340000  0.89210000  1.0 -0.4268245597
C  C346  1  0.21420000  0.62080000  0.10790000  1.0 -0.4268245597
C  C347  1  0.37920000  0.59340000  0.10790000  1.0 -0.4268245597
C  C348  1  0.40660000  0.78580000  0.10790000  1.0 -0.4268245597
C  C349  1  0.31260000  0.73680000  0.58500000  1.0 -0.4268245597
C  C350  1  0.42420000  0.68740000  0.58500000  1.0 -0.4268245597
C  C351  1  0.26320000  0.57580000  0.58500000  1.0 -0.4268245597
C  C352  1  0.26320000  0.68740000  0.41500000  1.0 -0.4268245597
C  C353  1  0.31260000  0.57580000  0.41500000  1.0 -0.4268245597
C  C354  1  0.42420000  0.73680000  0.41500000  1.0 -0.4268245597
C  C355  1  0.31260000  0.73680000  0.91500000  1.0 -0.4268245597
C  C356  1  0.42420000  0.68740000  0.91500000  1.0 -0.4268245597
C  C357  1  0.26320000  0.57580000  0.91500000  1.0 -0.4268245597
C  C358  1  0.26320000  0.68740000  0.08500000  1.0 -0.4268245597
C  C359  1  0.31260000  0.57580000  0.08500000  1.0 -0.4268245597
C  C360  1  0.42420000  0.73680000  0.08500000  1.0 -0.4268245597
C  C361  1  0.60960000  0.01180000  0.88470000  1.0 -0.1910065336
C  C362  1  0.40220000  0.39040000  0.88470000  1.0 -0.1910065336
C  C363  1  0.98820000  0.59780000  0.88470000  1.0 -0.1982552838
C  C364  1  0.98820000  0.39040000  0.11530000  1.0 -0.1910065336
C  C365  1  0.60960000  0.59780000  0.11530000  1.0 -0.1910065336
C  C366  1  0.40220000  0.01180000  0.11530000  1.0 -0.1910065336
C  C367  1  0.60960000  0.01180000  0.61530000  1.0 -0.1910065336
C  C368  1  0.40220000  0.39040000  0.61530000  1.0 -0.1910065336
C  C369  1  0.98820000  0.59780000  0.61530000  1.0 -0.1982552838
C  C370  1  0.98820000  0.39040000  0.38470000  1.0 -0.1910065336
C  C371  1  0.60960000  0.59780000  0.38470000  1.0 -0.1910065336
C  C372  1  0.40220000  0.01180000  0.38470000  1.0 -0.1910065336
C  C373  1  0.66720000  0.06260000  0.92960000  1.0 -0.1501836994
C  C374  1  0.39540000  0.33280000  0.92960000  1.0 -0.1501836994
C  C375  1  0.93740000  0.60460000  0.92960000  1.0 -0.1982552838
C  C376  1  0.93740000  0.33280000  0.07040000  1.0 -0.1982552838
C  C377  1  0.66720000  0.60460000  0.07040000  1.0 -0.1501836994
C  C378  1  0.39540000  0.06260000  0.07040000  1.0 -0.1501836994
C  C379  1  0.66720000  0.06260000  0.57040000  1.0 -0.1501836994
C  C380  1  0.39540000  0.33280000  0.57040000  1.0 -0.1501836994
C  C381  1  0.93740000  0.60460000  0.57040000  1.0 -0.1982552838
C  C382  1  0.93740000  0.33280000  0.42960000  1.0 -0.1982552838
C  C383  1  0.66720000  0.60460000  0.42960000  1.0 -0.1501836994
C  C384  1  0.39540000  0.06260000  0.42960000  1.0 -0.1501836994
C  C385  1  0.64190000  0.07900000  0.85160000  1.0 -0.1819370717
C  C386  1  0.43710000  0.35810000  0.85160000  1.0 -0.1910065336
C  C387  1  0.92100000  0.56290000  0.85160000  1.0 -0.1910065336
C  C388  1  0.92100000  0.35810000  0.14840000  1.0 -0.1910065336
C  C389  1  0.64190000  0.56290000  0.14840000  1.0 -0.1819370717
C  C390  1  0.43710000  0.07900000  0.14840000  1.0 -0.1819370717
C  C391  1  0.64190000  0.07900000  0.64840000  1.0 -0.1819370717
C  C392  1  0.43710000  0.35810000  0.64840000  1.0 -0.1910065336
C  C393  1  0.92100000  0.56290000  0.64840000  1.0 -0.1910065336
C  C394  1  0.92100000  0.35810000  0.35160000  1.0 -0.1910065336
C  C395  1  0.64190000  0.56290000  0.35160000  1.0 -0.1819370717
C  C396  1  0.43710000  0.07900000  0.35160000  1.0 -0.1819370717
C  C397  1  0.71690000  0.91400000  0.85020000  1.0 -0.1910065336
C  C398  1  0.19710000  0.28310000  0.85020000  1.0 -0.1910065336
C  C399  1  0.08600000  0.80290000  0.85020000  1.0 -0.1910065336
C  C400  1  0.08600000  0.28310000  0.14980000  1.0 -0.1910065336
C  C401  1  0.71690000  0.80290000  0.14980000  1.0 -0.1910065336
C  C402  1  0.19710000  0.91400000  0.14980000  1.0 -0.1910065336
C  C403  1  0.71690000  0.91400000  0.64980000  1.0 -0.1910065336
C  C404  1  0.19710000  0.28310000  0.64980000  1.0 -0.1910065336
C  C405  1  0.08600000  0.80290000  0.64980000  1.0 -0.1910065336
C  C406  1  0.08600000  0.28310000  0.35020000  1.0 -0.1910065336
C  C407  1  0.71690000  0.80290000  0.35020000  1.0 -0.1910065336
C  C408  1  0.19710000  0.91400000  0.35020000  1.0 -0.1910065336
C  C409  1  0.75760000  0.96320000  0.91530000  1.0 -0.1819370717
C  C410  1  0.20560000  0.24240000  0.91530000  1.0 -0.1819370717
C  C411  1  0.03680000  0.79440000  0.91530000  1.0 -0.1819370717
C  C412  1  0.03680000  0.24240000  0.08470000  1.0 -0.1819370717
C  C413  1  0.75760000  0.79440000  0.08470000  1.0 -0.1819370717
C  C414  1  0.20560000  0.96320000  0.08470000  1.0 -0.1819370717
C  C415  1  0.75760000  0.96320000  0.58470000  1.0 -0.1819370717
C  C416  1  0.20560000  0.24240000  0.58470000  1.0 -0.1819370717
C  C417  1  0.03680000  0.79440000  0.58470000  1.0 -0.1819370717
C  C418  1  0.03680000  0.24240000  0.41530000  1.0 -0.1819370717
C  C419  1  0.75760000  0.79440000  0.41530000  1.0 -0.1819370717
C  C420  1  0.20560000  0.96320000  0.41530000  1.0 -0.1819370717
C  C421  1  0.68670000  0.93430000  0.91800000  1.0 -0.1982552838
C  C422  1  0.24760000  0.31330000  0.91800000  1.0 -0.1982552838
C  C423  1  0.06570000  0.75240000  0.91800000  1.0 -0.1982552838
C  C424  1  0.06570000  0.31330000  0.08200000  1.0 -0.1982552838
C  C425  1  0.68670000  0.75240000  0.08200000  1.0 -0.1982552838
C  C426  1  0.24760000  0.93430000  0.08200000  1.0 -0.1982552838
C  C427  1  0.68670000  0.93430000  0.58200000  1.0 -0.1982552838
C  C428  1  0.24760000  0.31330000  0.58200000  1.0 -0.1982552838
C  C429  1  0.06570000  0.75240000  0.58200000  1.0 -0.1982552838
C  C430  1  0.06570000  0.31330000  0.41800000  1.0 -0.1982552838
C  C431  1  0.68670000  0.75240000  0.41800000  1.0 -0.1982552838
C  C432  1  0.24760000  0.93430000  0.41800000  1.0 -0.1982552838
C  C433  1  0.89940000  0.10560000  0.75000000  1.0 -0.2985653932
C  C434  1  0.20620000  0.10060000  0.75000000  1.0 -0.2985653932
C  C435  1  0.89440000  0.79380000  0.75000000  1.0 -0.2985653932
C  C436  1  0.89440000  0.10060000  0.25000000  1.0 -0.2985653932
C  C437  1  0.89940000  0.79380000  0.25000000  1.0 -0.2985653932
C  C438  1  0.20620000  0.10560000  0.25000000  1.0 -0.2985653932
C  C439  1  0.86360000  0.04440000  0.79920000  1.0 -0.2102377163
C  C440  1  0.18080000  0.13640000  0.79920000  1.0 -0.2102377163
C  C441  1  0.95560000  0.81920000  0.79920000  1.0 -0.2102377163
C  C442  1  0.95560000  0.13640000  0.20080000  1.0 -0.2102377163
C  C443  1  0.86360000  0.81920000  0.20080000  1.0 -0.2102377163
C  C444  1  0.18080000  0.04440000  0.20080000  1.0 -0.2102377163
C  C445  1  0.86360000  0.04440000  0.70080000  1.0 -0.2102377163
C  C446  1  0.18080000  0.13640000  0.70080000  1.0 -0.2102377163
C  C447  1  0.95560000  0.81920000  0.70080000  1.0 -0.2102377163
C  C448  1  0.95560000  0.13640000  0.29920000  1.0 -0.2102377163
C  C449  1  0.86360000  0.81920000  0.29920000  1.0 -0.2102377163
C  C450  1  0.18080000  0.04440000  0.29920000  1.0 -0.2102377163
C  C451  1  0.83040000  0.20850000  0.75000000  1.0 -0.2488804107
C  C452  1  0.37810000  0.16960000  0.75000000  1.0 -0.2488804107
C  C453  1  0.79150000  0.62190000  0.75000000  1.0 -0.2488804107
C  C454  1  0.79150000  0.16960000  0.25000000  1.0 -0.2488804107
C  C455  1  0.83040000  0.62190000  0.25000000  1.0 -0.2488804107
C  C456  1  0.37810000  0.20850000  0.25000000  1.0 -0.2488804107
C  C457  1  0.76930000  0.18880000  0.70280000  1.0 -0.2184741142
C  C458  1  0.41950000  0.23070000  0.70280000  1.0 -0.2184741142
C  C459  1  0.81120000  0.58050000  0.70280000  1.0 -0.2184741142
C  C460  1  0.81120000  0.23070000  0.29720000  1.0 -0.2184741142
C  C461  1  0.76930000  0.58050000  0.29720000  1.0 -0.2184741142
C  C462  1  0.41950000  0.18880000  0.29720000  1.0 -0.2184741142
C  C463  1  0.76930000  0.18880000  0.79720000  1.0 -0.2184741142
C  C464  1  0.41950000  0.23070000  0.79720000  1.0 -0.2184741142
C  C465  1  0.81120000  0.58050000  0.79720000  1.0 -0.2184741142
C  C466  1  0.81120000  0.23070000  0.20280000  1.0 -0.2184741142
C  C467  1  0.76930000  0.58050000  0.20280000  1.0 -0.2184741142
C  C468  1  0.41950000  0.18880000  0.20280000  1.0 -0.2184741142
C  C469  1  0.32430000  0.95960000  0.83980000  1.0 0.4600821356
C  C470  1  0.63530000  0.67570000  0.83980000  1.0 0.4600821356
C  C471  1  0.04040000  0.36470000  0.83980000  1.0 0.4600821356
C  C472  1  0.04040000  0.67570000  0.16020000  1.0 0.4600821356
C  C473  1  0.32430000  0.36470000  0.16020000  1.0 0.4600821356
C  C474  1  0.63530000  0.95960000  0.16020000  1.0 0.4600821356
C  C475  1  0.32430000  0.95960000  0.66020000  1.0 0.4600821356
C  C476  1  0.63530000  0.67570000  0.66020000  1.0 0.4600821356
C  C477  1  0.04040000  0.36470000  0.66020000  1.0 0.4600821356
C  C478  1  0.04040000  0.67570000  0.33980000  1.0 0.4600821356
C  C479  1  0.32430000  0.36470000  0.33980000  1.0 0.4600821356
C  C480  1  0.63530000  0.95960000  0.33980000  1.0 0.4600821356
C  C481  1  0.27650000  0.01940000  0.84410000  1.0 0.4497101591
C  C482  1  0.74290000  0.72350000  0.84410000  1.0 0.4497101591
C  C483  1  0.98060000  0.25710000  0.84410000  1.0 0.4497101591
C  C484  1  0.98060000  0.72350000  0.15590000  1.0 0.4497101591
C  C485  1  0.27650000  0.25710000  0.15590000  1.0 0.4497101591
C  C486  1  0.74290000  0.01940000  0.15590000  1.0 0.4497101591
C  C487  1  0.27650000  0.01940000  0.65590000  1.0 0.4497101591
C  C488  1  0.74290000  0.72350000  0.65590000  1.0 0.4497101591
C  C489  1  0.98060000  0.25710000  0.65590000  1.0 0.4497101591
C  C490  1  0.98060000  0.72350000  0.34410000  1.0 0.4497101591
C  C491  1  0.27650000  0.25710000  0.34410000  1.0 0.4497101591
C  C492  1  0.74290000  0.01940000  0.34410000  1.0 0.4497101591
C  C493  1  0.17380000  0.92940000  0.75000000  1.0 0.4497101591
C  C494  1  0.75560000  0.82620000  0.75000000  1.0 0.4497101591
C  C495  1  0.07060000  0.24440000  0.75000000  1.0 0.4497101591
C  C496  1  0.07060000  0.82620000  0.25000000  1.0 0.4497101591
C  C497  1  0.17380000  0.24440000  0.25000000  1.0 0.4497101591
C  C498  1  0.75560000  0.92940000  0.25000000  1.0 0.4497101591
C  C499  1  0.22190000  0.86240000  0.75000000  1.0 0.4600821356
C  C500  1  0.64050000  0.77810000  0.75000000  1.0 0.4600821356
C  C501  1  0.13760000  0.35950000  0.75000000  1.0 0.4600821356
C  C502  1  0.13760000  0.77810000  0.25000000  1.0 0.4600821356
C  C503  1  0.22190000  0.35950000  0.25000000  1.0 0.4600821356
C  C504  1  0.64050000  0.86240000  0.25000000  1.0 0.4600821356
C  C505  1  0.21530000  0.87840000  0.91050000  1.0 0.0404692075
C  C506  1  0.66310000  0.78470000  0.91050000  1.0 0.0404692075
C  C507  1  0.12160000  0.33690000  0.91050000  1.0 0.0404692075
C  C508  1  0.12160000  0.78470000  0.08950000  1.0 0.0404692075
C  C509  1  0.21530000  0.33690000  0.08950000  1.0 0.0404692075
C  C510  1  0.66310000  0.87840000  0.08950000  1.0 0.0404692075
C  C511  1  0.21530000  0.87840000  0.58950000  1.0 0.0404692075
C  C512  1  0.66310000  0.78470000  0.58950000  1.0 0.0404692075
C  C513  1  0.12160000  0.33690000  0.58950000  1.0 0.0404692075
C  C514  1  0.12160000  0.78470000  0.41050000  1.0 0.0404692075
C  C515  1  0.21530000  0.33690000  0.41050000  1.0 0.0404692075
C  C516  1  0.66310000  0.87840000  0.41050000  1.0 0.0404692075
C  C517  1  0.18230000  0.91280000  0.91240000  1.0 0.0215643683
C  C518  1  0.73050000  0.81770000  0.91240000  1.0 0.0215643683
C  C519  1  0.08720000  0.26950000  0.91240000  1.0 0.0215643683
C  C520  1  0.08720000  0.81770000  0.08760000  1.0 0.0215643683
C  C521  1  0.18230000  0.26950000  0.08760000  1.0 0.0215643683
C  C522  1  0.73050000  0.91280000  0.08760000  1.0 0.0215643683
C  C523  1  0.18230000  0.91280000  0.58760000  1.0 0.0215643683
C  C524  1  0.73050000  0.81770000  0.58760000  1.0 0.0215643683
C  C525  1  0.08720000  0.26950000  0.58760000  1.0 0.0215643683
C  C526  1  0.08720000  0.81770000  0.41240000  1.0 0.0215643683
C  C527  1  0.18230000  0.26950000  0.41240000  1.0 0.0215643683
C  C528  1  0.73050000  0.91280000  0.41240000  1.0 0.0215643683
C  C529  1  0.35170000  0.95220000  0.87650000  1.0 0.0997663971
C  C530  1  0.60050000  0.64830000  0.87650000  1.0 0.0997663971
C  C531  1  0.04780000  0.39950000  0.87650000  1.0 0.0997663971
C  C532  1  0.04780000  0.64830000  0.12350000  1.0 0.0997663971
C  C533  1  0.35170000  0.39950000  0.12350000  1.0 0.0997663971
C  C534  1  0.60050000  0.95220000  0.12350000  1.0 0.0997663971
C  C535  1  0.35170000  0.95220000  0.62350000  1.0 0.0997663971
C  C536  1  0.60050000  0.64830000  0.62350000  1.0 0.0997663971
C  C537  1  0.04780000  0.39950000  0.62350000  1.0 0.0997663971
C  C538  1  0.04780000  0.64830000  0.37650000  1.0 0.0997663971
C  C539  1  0.35170000  0.39950000  0.37650000  1.0 0.0997663971
C  C540  1  0.60050000  0.95220000  0.37650000  1.0 0.0997663971
C  C541  1  0.27780000  0.05130000  0.88160000  1.0 0.1096623484
C  C542  1  0.77350000  0.72220000  0.88160000  1.0 0.1096623484
C  C543  1  0.94870000  0.22650000  0.88160000  1.0 0.1096623484
C  C544  1  0.94870000  0.72220000  0.11840000  1.0 0.1096623484
C  C545  1  0.27780000  0.22650000  0.11840000  1.0 0.1096623484
C  C546  1  0.77350000  0.05130000  0.11840000  1.0 0.1096623484
C  C547  1  0.27780000  0.05130000  0.61840000  1.0 0.1096623484
C  C548  1  0.77350000  0.72220000  0.61840000  1.0 0.1096623484
C  C549  1  0.94870000  0.22650000  0.61840000  1.0 0.1096623484
C  C550  1  0.94870000  0.72220000  0.38160000  1.0 0.1096623484
C  C551  1  0.27780000  0.22650000  0.38160000  1.0 0.1096623484
C  C552  1  0.77350000  0.05130000  0.38160000  1.0 0.1096623484
C  C553  1  0.13720000  0.93430000  0.75000000  1.0 0.1501157755
C  C554  1  0.79710000  0.86280000  0.75000000  1.0 0.1501157755
C  C555  1  0.06570000  0.20290000  0.75000000  1.0 0.1568000057
C  C556  1  0.06570000  0.86280000  0.25000000  1.0 0.1501157755
C  C557  1  0.13720000  0.20290000  0.25000000  1.0 0.1568000057
C  C558  1  0.79710000  0.93430000  0.25000000  1.0 0.1501157755
C  C559  1  0.21300000  0.81900000  0.75000000  1.0 0.1294397733
C  C560  1  0.60600000  0.78700000  0.75000000  1.0 0.1294397733
C  C561  1  0.18100000  0.39400000  0.75000000  1.0 0.1294397733
C  C562  1  0.18100000  0.78700000  0.25000000  1.0 0.1294397733
C  C563  1  0.21300000  0.39400000  0.25000000  1.0 0.1294397733
C  C564  1  0.60600000  0.81900000  0.25000000  1.0 0.1294397733
C  C565  1  0.19340000  0.85540000  0.95500000  1.0 -0.1982552838
C  C566  1  0.66200000  0.80660000  0.95500000  1.0 -0.1982552838
C  C567  1  0.14460000  0.33800000  0.95500000  1.0 -0.1982552838
C  C568  1  0.14460000  0.80660000  0.04500000  1.0 -0.1982552838
C  C569  1  0.19340000  0.33800000  0.04500000  1.0 -0.1982552838
C  C570  1  0.66200000  0.85540000  0.04500000  1.0 -0.1982552838
C  C571  1  0.19340000  0.85540000  0.54500000  1.0 -0.1982552838
C  C572  1  0.66200000  0.80660000  0.54500000  1.0 -0.1982552838
C  C573  1  0.14460000  0.33800000  0.54500000  1.0 -0.1982552838
C  C574  1  0.14460000  0.80660000  0.45500000  1.0 -0.1982552838
C  C575  1  0.19340000  0.33800000  0.45500000  1.0 -0.1982552838
C  C576  1  0.66200000  0.85540000  0.45500000  1.0 -0.1982552838
C  C577  1  0.15980000  0.89170000  0.95540000  1.0 -0.2488804107
C  C578  1  0.73190000  0.84020000  0.95540000  1.0 -0.2440680258
C  C579  1  0.10830000  0.26810000  0.95540000  1.0 -0.2440680258
C  C580  1  0.10830000  0.84020000  0.04460000  1.0 -0.2488804107
C  C581  1  0.15980000  0.26810000  0.04460000  1.0 -0.2488804107
C  C582  1  0.73190000  0.89170000  0.04460000  1.0 -0.2440680258
C  C583  1  0.15980000  0.89170000  0.54460000  1.0 -0.2488804107
C  C584  1  0.73190000  0.84020000  0.54460000  1.0 -0.2440680258
C  C585  1  0.10830000  0.26810000  0.54460000  1.0 -0.2440680258
C  C586  1  0.10830000  0.84020000  0.45540000  1.0 -0.2488804107
C  C587  1  0.15980000  0.26810000  0.45540000  1.0 -0.2488804107
C  C588  1  0.73190000  0.89170000  0.45540000  1.0 -0.2440680258
C  C589  1  0.39090000  0.07590000  0.79560000  1.0 0.0404692075
C  C590  1  0.68500000  0.60910000  0.79560000  1.0 0.0404692075
C  C591  1  0.92410000  0.31500000  0.79560000  1.0 0.0404692075
C  C592  1  0.92410000  0.60910000  0.20440000  1.0 0.0404692075
C  C593  1  0.39090000  0.31500000  0.20440000  1.0 0.0404692075
C  C594  1  0.68500000  0.07590000  0.20440000  1.0 0.0404692075
C  C595  1  0.39090000  0.07590000  0.70440000  1.0 0.0404692075
C  C596  1  0.68500000  0.60910000  0.70440000  1.0 0.0404692075
C  C597  1  0.92410000  0.31500000  0.70440000  1.0 0.0404692075
C  C598  1  0.92410000  0.60910000  0.29560000  1.0 0.0404692075
C  C599  1  0.39090000  0.31500000  0.29560000  1.0 0.0404692075
C  C600  1  0.68500000  0.07590000  0.29560000  1.0 0.0404692075
C  C601  1  0.33720000  0.90960000  0.88300000  1.0 -0.1982552838
C  C602  1  0.57240000  0.66280000  0.88300000  1.0 -0.1982552838
C  C603  1  0.09040000  0.42760000  0.88300000  1.0 -0.1982552838
C  C604  1  0.09040000  0.66280000  0.11700000  1.0 -0.1982552838
C  C605  1  0.33720000  0.42760000  0.11700000  1.0 -0.1982552838
C  C606  1  0.57240000  0.90960000  0.11700000  1.0 -0.1982552838
C  C607  1  0.33720000  0.90960000  0.61700000  1.0 -0.1982552838
C  C608  1  0.57240000  0.66280000  0.61700000  1.0 -0.1982552838
C  C609  1  0.09040000  0.42760000  0.61700000  1.0 -0.1982552838
C  C610  1  0.09040000  0.66280000  0.38300000  1.0 -0.1982552838
C  C611  1  0.33720000  0.42760000  0.38300000  1.0 -0.1982552838
C  C612  1  0.57240000  0.90960000  0.38300000  1.0 -0.1982552838
C  C613  1  0.39290000  0.97190000  0.85590000  1.0 -0.1910065336
C  C614  1  0.57900000  0.60710000  0.85590000  1.0 -0.1819370717
C  C615  1  0.02810000  0.42100000  0.85590000  1.0 -0.1819370717
C  C616  1  0.02810000  0.60710000  0.14410000  1.0 -0.1819370717
C  C617  1  0.39290000  0.42100000  0.14410000  1.0 -0.1819370717
C  C618  1  0.57900000  0.97190000  0.14410000  1.0 -0.1910065336
C  C619  1  0.39290000  0.97190000  0.64410000  1.0 -0.1910065336
C  C620  1  0.57900000  0.60710000  0.64410000  1.0 -0.1819370717
C  C621  1  0.02810000  0.42100000  0.64410000  1.0 -0.1819370717
C  C622  1  0.02810000  0.60710000  0.35590000  1.0 -0.1819370717
C  C623  1  0.39290000  0.42100000  0.35590000  1.0 -0.1819370717
C  C624  1  0.57900000  0.97190000  0.35590000  1.0 -0.1910065336
C  C625  1  0.35330000  0.96980000  0.93070000  1.0 -0.1982552838
C  C626  1  0.61650000  0.64670000  0.93070000  1.0 -0.1557042385
C  C627  1  0.03020000  0.38350000  0.93070000  1.0 -0.1557042385
C  C628  1  0.03020000  0.64670000  0.06930000  1.0 -0.1557042385
C  C629  1  0.35330000  0.38350000  0.06930000  1.0 -0.1557042385
C  C630  1  0.61650000  0.96980000  0.06930000  1.0 -0.1910065336
C  C631  1  0.35330000  0.96980000  0.56930000  1.0 -0.1982552838
C  C632  1  0.61650000  0.64670000  0.56930000  1.0 -0.1557042385
C  C633  1  0.03020000  0.38350000  0.56930000  1.0 -0.1557042385
C  C634  1  0.03020000  0.64670000  0.43070000  1.0 -0.1557042385
C  C635  1  0.35330000  0.38350000  0.43070000  1.0 -0.1557042385
C  C636  1  0.61650000  0.96980000  0.43070000  1.0 -0.1910065336
C  C637  1  0.28240000  0.04170000  0.93850000  1.0 -0.1982552838
C  C638  1  0.75930000  0.71760000  0.93850000  1.0 -0.1982552838
C  C639  1  0.95830000  0.24070000  0.93850000  1.0 -0.1982552838
C  C640  1  0.95830000  0.71760000  0.06150000  1.0 -0.1982552838
C  C641  1  0.28240000  0.24070000  0.06150000  1.0 -0.1982552838
C  C642  1  0.75930000  0.04170000  0.06150000  1.0 -0.1982552838
C  C643  1  0.28240000  0.04170000  0.56150000  1.0 -0.1982552838
C  C644  1  0.75930000  0.71760000  0.56150000  1.0 -0.1982552838
C  C645  1  0.95830000  0.24070000  0.56150000  1.0 -0.1982552838
C  C646  1  0.95830000  0.71760000  0.43850000  1.0 -0.1982552838
C  C647  1  0.28240000  0.24070000  0.43850000  1.0 -0.1982552838
C  C648  1  0.75930000  0.04170000  0.43850000  1.0 -0.1982552838
C  C649  1  0.31260000  0.09090000  0.86970000  1.0 -0.1982552838
C  C650  1  0.77830000  0.68740000  0.86970000  1.0 -0.1982552838
C  C651  1  0.90910000  0.22170000  0.86970000  1.0 -0.1982552838
C  C652  1  0.90910000  0.68740000  0.13030000  1.0 -0.1982552838
C  C653  1  0.31260000  0.22170000  0.13030000  1.0 -0.1982552838
C  C654  1  0.77830000  0.09090000  0.13030000  1.0 -0.1982552838
C  C655  1  0.31260000  0.09090000  0.63030000  1.0 -0.1982552838
C  C656  1  0.77830000  0.68740000  0.63030000  1.0 -0.1982552838
C  C657  1  0.90910000  0.22170000  0.63030000  1.0 -0.1982552838
C  C658  1  0.90910000  0.68740000  0.36970000  1.0 -0.1982552838
C  C659  1  0.31260000  0.22170000  0.36970000  1.0 -0.1982552838
C  C660  1  0.77830000  0.09090000  0.36970000  1.0 -0.1982552838
C  C661  1  0.23960000  0.05120000  0.87780000  1.0 -0.1741671412
C  C662  1  0.81160000  0.76040000  0.87780000  1.0 -0.1741671412
C  C663  1  0.94880000  0.18840000  0.87780000  1.0 -0.1741671412
C  C664  1  0.94880000  0.76040000  0.12220000  1.0 -0.1741671412
C  C665  1  0.23960000  0.18840000  0.12220000  1.0 -0.1741671412
C  C666  1  0.81160000  0.05120000  0.12220000  1.0 -0.1741671412
C  C667  1  0.23960000  0.05120000  0.62220000  1.0 -0.1741671412
C  C668  1  0.81160000  0.76040000  0.62220000  1.0 -0.1741671412
C  C669  1  0.94880000  0.18840000  0.62220000  1.0 -0.1741671412
C  C670  1  0.94880000  0.76040000  0.37780000  1.0 -0.1741671412
C  C671  1  0.23960000  0.18840000  0.37780000  1.0 -0.1741671412
C  C672  1  0.81160000  0.05120000  0.37780000  1.0 -0.1741671412
C  C673  1  0.15120000  0.97810000  0.75000000  1.0 -0.3073786031
C  C674  1  0.82690000  0.84880000  0.75000000  1.0 -0.3073786031
C  C675  1  0.02190000  0.17310000  0.75000000  1.0 -0.3073786031
C  C676  1  0.02190000  0.84880000  0.25000000  1.0 -0.3073786031
C  C677  1  0.15120000  0.17310000  0.25000000  1.0 -0.3073786031
C  C678  1  0.82690000  0.97810000  0.25000000  1.0 -0.3073786031
C  C679  1  0.11280000  0.91710000  0.79910000  1.0 -0.2102377163
C  C680  1  0.80430000  0.88720000  0.79910000  1.0 -0.2102377163
C  C681  1  0.08290000  0.19570000  0.79910000  1.0 -0.2102377163
C  C682  1  0.08290000  0.88720000  0.20090000  1.0 -0.2102377163
C  C683  1  0.11280000  0.19570000  0.20090000  1.0 -0.2102377163
C  C684  1  0.80430000  0.91710000  0.20090000  1.0 -0.2102377163
C  C685  1  0.11280000  0.91710000  0.70090000  1.0 -0.2102377163
C  C686  1  0.80430000  0.88720000  0.70090000  1.0 -0.2102377163
C  C687  1  0.08290000  0.19570000  0.70090000  1.0 -0.2102377163
C  C688  1  0.08290000  0.88720000  0.29910000  1.0 -0.2102377163
C  C689  1  0.11280000  0.19570000  0.29910000  1.0 -0.2102377163
C  C690  1  0.80430000  0.91710000  0.29910000  1.0 -0.2102377163
C  C691  1  0.25110000  0.81850000  0.75000000  1.0 -0.2855608369
C  C692  1  0.56740000  0.74890000  0.75000000  1.0 -0.2855608369
C  C693  1  0.18150000  0.43260000  0.75000000  1.0 -0.2855608369
C  C694  1  0.18150000  0.74890000  0.25000000  1.0 -0.2855608369
C  C695  1  0.25110000  0.43260000  0.25000000  1.0 -0.2855608369
C  C696  1  0.56740000  0.81850000  0.25000000  1.0 -0.2855608369
C  C697  1  0.19110000  0.79820000  0.79910000  1.0 -0.1982552838
C  C698  1  0.60710000  0.80890000  0.79910000  1.0 -0.1982552838
C  C699  1  0.20180000  0.39290000  0.79910000  1.0 -0.1982552838
C  C700  1  0.20180000  0.80890000  0.20090000  1.0 -0.1982552838
C  C701  1  0.19110000  0.39290000  0.20090000  1.0 -0.1982552838
C  C702  1  0.60710000  0.79820000  0.20090000  1.0 -0.1982552838
C  C703  1  0.19110000  0.79820000  0.70090000  1.0 -0.1982552838
C  C704  1  0.60710000  0.80890000  0.70090000  1.0 -0.1982552838
C  C705  1  0.20180000  0.39290000  0.70090000  1.0 -0.1982552838
C  C706  1  0.20180000  0.80890000  0.29910000  1.0 -0.1982552838
C  C707  1  0.19110000  0.39290000  0.29910000  1.0 -0.1982552838
C  C708  1  0.60710000  0.79820000  0.29910000  1.0 -0.1982552838
C  C709  1  0.16340000  0.86090000  0.97740000  1.0 0.0267218246
C  C710  1  0.69750000  0.83660000  0.97740000  1.0 0.0267218246
C  C711  1  0.13910000  0.30250000  0.97740000  1.0 0.0267218246
C  C712  1  0.13910000  0.83660000  0.02260000  1.0 0.0267218246
C  C713  1  0.16340000  0.30250000  0.02260000  1.0 0.0267218246
C  C714  1  0.69750000  0.86090000  0.02260000  1.0 0.0215643683
C  C715  1  0.16340000  0.86090000  0.52260000  1.0 0.0267218246
C  C716  1  0.69750000  0.83660000  0.52260000  1.0 0.0267218246
C  C717  1  0.13910000  0.30250000  0.52260000  1.0 0.0267218246
C  C718  1  0.13910000  0.83660000  0.47740000  1.0 0.0267218246
C  C719  1  0.16340000  0.30250000  0.47740000  1.0 0.0267218246
C  C720  1  0.69750000  0.86090000  0.47740000  1.0 0.0267218246
C  C721  1  0.42760000  0.10970000  0.79740000  1.0 -0.1982552838
C  C722  1  0.68210000  0.57240000  0.79740000  1.0 -0.1982552838
C  C723  1  0.89030000  0.31790000  0.79740000  1.0 -0.1982552838
C  C724  1  0.89030000  0.57240000  0.20260000  1.0 -0.1982552838
C  C725  1  0.42760000  0.31790000  0.20260000  1.0 -0.1982552838
C  C726  1  0.68210000  0.10970000  0.20260000  1.0 -0.1982552838
C  C727  1  0.42760000  0.10970000  0.70260000  1.0 -0.1982552838
C  C728  1  0.68210000  0.57240000  0.70260000  1.0 -0.1982552838
C  C729  1  0.89030000  0.31790000  0.70260000  1.0 -0.1982552838
C  C730  1  0.89030000  0.57240000  0.29740000  1.0 -0.1982552838
C  C731  1  0.42760000  0.31790000  0.29740000  1.0 -0.1982552838
C  C732  1  0.68210000  0.10970000  0.29740000  1.0 -0.1982552838
C  C733  1  0.44670000  0.12710000  0.75000000  1.0 0.0688374409
C  C734  1  0.68040000  0.55330000  0.75000000  1.0 0.0688374409
C  C735  1  0.87290000  0.31960000  0.75000000  1.0 0.0688374409
C  C736  1  0.87290000  0.55330000  0.25000000  1.0 0.0688374409
C  C737  1  0.44670000  0.31960000  0.25000000  1.0 0.0688374409
C  C738  1  0.68040000  0.12710000  0.25000000  1.0 0.0688374409
C  C739  1  0.48520000  0.16420000  0.75000000  1.0 0.0997663971
C  C740  1  0.67900000  0.51480000  0.75000000  1.0 0.0997663971
C  C741  1  0.83580000  0.32100000  0.75000000  1.0 0.0997663971
C  C742  1  0.83580000  0.51480000  0.25000000  1.0 0.0997663971
C  C743  1  0.48520000  0.32100000  0.25000000  1.0 0.0997663971
C  C744  1  0.67900000  0.16420000  0.25000000  1.0 0.0997663971
C  C745  1  0.50510000  0.18350000  0.79730000  1.0 -0.2184741142
C  C746  1  0.67840000  0.49490000  0.79730000  1.0 -0.2184741142
C  C747  1  0.81650000  0.32160000  0.79730000  1.0 -0.2184741142
C  C748  1  0.81650000  0.49490000  0.20270000  1.0 -0.2184741142
C  C749  1  0.50510000  0.32160000  0.20270000  1.0 -0.2184741142
C  C750  1  0.67840000  0.18350000  0.20270000  1.0 -0.2184741142
C  C751  1  0.50510000  0.18350000  0.70270000  1.0 -0.2184741142
C  C752  1  0.67840000  0.49490000  0.70270000  1.0 -0.2184741142
C  C753  1  0.81650000  0.32160000  0.70270000  1.0 -0.2184741142
C  C754  1  0.81650000  0.49490000  0.29730000  1.0 -0.2184741142
C  C755  1  0.50510000  0.32160000  0.29730000  1.0 -0.2184741142
C  C756  1  0.67840000  0.18350000  0.29730000  1.0 -0.2184741142
C  C757  1  0.54100000  0.21750000  0.79500000  1.0 0.0688374409
C  C758  1  0.67650000  0.45900000  0.79500000  1.0 0.0688374409
C  C759  1  0.78250000  0.32350000  0.79500000  1.0 0.0688374409
C  C760  1  0.78250000  0.45900000  0.20500000  1.0 0.0688374409
C  C761  1  0.54100000  0.32350000  0.20500000  1.0 0.0688374409
C  C762  1  0.67650000  0.21750000  0.20500000  1.0 0.0688374409
C  C763  1  0.54100000  0.21750000  0.70500000  1.0 0.0688374409
C  C764  1  0.67650000  0.45900000  0.70500000  1.0 0.0688374409
C  C765  1  0.78250000  0.32350000  0.70500000  1.0 0.0688374409
C  C766  1  0.78250000  0.45900000  0.29500000  1.0 0.0688374409
C  C767  1  0.54100000  0.32350000  0.29500000  1.0 0.0688374409
C  C768  1  0.67650000  0.21750000  0.29500000  1.0 0.0688374409
C  C769  1  0.66200000  0.26530000  0.67510000  1.0 0.5654552375
C  C770  1  0.60330000  0.33800000  0.67510000  1.0 0.5644378458
C  C771  1  0.73470000  0.39670000  0.67510000  1.0 0.5654552375
C  C772  1  0.73470000  0.33800000  0.32490000  1.0 0.5654552375
C  C773  1  0.66200000  0.39670000  0.32490000  1.0 0.5654552375
C  C774  1  0.60330000  0.26530000  0.32490000  1.0 0.5654552375
C  C775  1  0.66200000  0.26530000  0.82490000  1.0 0.5654552375
C  C776  1  0.60330000  0.33800000  0.82490000  1.0 0.5644378458
C  C777  1  0.73470000  0.39670000  0.82490000  1.0 0.5654552375
C  C778  1  0.73470000  0.33800000  0.17510000  1.0 0.5654552375
C  C779  1  0.66200000  0.39670000  0.17510000  1.0 0.5654552375
C  C780  1  0.60330000  0.26530000  0.17510000  1.0 0.5654552375
C  C781  1  0.66130000  0.23910000  0.62930000  1.0 0.142353546
C  C782  1  0.57780000  0.33870000  0.62930000  1.0 0.142353546
C  C783  1  0.76090000  0.42220000  0.62930000  1.0 0.142353546
C  C784  1  0.76090000  0.33870000  0.37070000  1.0 0.142353546
C  C785  1  0.66130000  0.42220000  0.37070000  1.0 0.142353546
C  C786  1  0.57780000  0.23910000  0.37070000  1.0 0.142353546
C  C787  1  0.66130000  0.23910000  0.87070000  1.0 0.142353546
C  C788  1  0.57780000  0.33870000  0.87070000  1.0 0.142353546
C  C789  1  0.76090000  0.42220000  0.87070000  1.0 0.142353546
C  C790  1  0.76090000  0.33870000  0.12930000  1.0 0.142353546
C  C791  1  0.66130000  0.42220000  0.12930000  1.0 0.142353546
C  C792  1  0.57780000  0.23910000  0.12930000  1.0 0.142353546
C  C793  1  0.67560000  0.21240000  0.64930000  1.0 -0.4533847663
C  C794  1  0.53680000  0.32440000  0.64930000  1.0 -0.4533847663
C  C795  1  0.78760000  0.46320000  0.64930000  1.0 -0.4533847663
C  C796  1  0.78760000  0.32440000  0.35070000  1.0 -0.4533847663
C  C797  1  0.67560000  0.46320000  0.35070000  1.0 -0.4533847663
C  C798  1  0.53680000  0.21240000  0.35070000  1.0 -0.4533847663
C  C799  1  0.67560000  0.21240000  0.85070000  1.0 -0.4533847663
C  C800  1  0.53680000  0.32440000  0.85070000  1.0 -0.4533847663
C  C801  1  0.78760000  0.46320000  0.85070000  1.0 -0.4533847663
C  C802  1  0.78760000  0.32440000  0.14930000  1.0 -0.4533847663
C  C803  1  0.67560000  0.46320000  0.14930000  1.0 -0.4533847663
C  C804  1  0.53680000  0.21240000  0.14930000  1.0 -0.4533847663
C  C805  1  0.62080000  0.21420000  0.60790000  1.0 -0.4268245597
C  C806  1  0.59340000  0.37920000  0.60790000  1.0 -0.4268245597
C  C807  1  0.78580000  0.40660000  0.60790000  1.0 -0.4268245597
C  C808  1  0.78580000  0.37920000  0.39210000  1.0 -0.4268245597
C  C809  1  0.62080000  0.40660000  0.39210000  1.0 -0.4268245597
C  C810  1  0.59340000  0.21420000  0.39210000  1.0 -0.4268245597
C  C811  1  0.62080000  0.21420000  0.89210000  1.0 -0.4268245597
C  C812  1  0.59340000  0.37920000  0.89210000  1.0 -0.4268245597
C  C813  1  0.78580000  0.40660000  0.89210000  1.0 -0.4268245597
C  C814  1  0.78580000  0.37920000  0.10790000  1.0 -0.4268245597
C  C815  1  0.62080000  0.40660000  0.10790000  1.0 -0.4268245597
C  C816  1  0.59340000  0.21420000  0.10790000  1.0 -0.4268245597
C  C817  1  0.68740000  0.26320000  0.58500000  1.0 -0.4268245597
C  C818  1  0.57580000  0.31260000  0.58500000  1.0 -0.4268245597
C  C819  1  0.73680000  0.42420000  0.58500000  1.0 -0.4268245597
C  C820  1  0.73680000  0.31260000  0.41500000  1.0 -0.4268245597
C  C821  1  0.68740000  0.42420000  0.41500000  1.0 -0.4268245597
C  C822  1  0.57580000  0.26320000  0.41500000  1.0 -0.4268245597
C  C823  1  0.68740000  0.26320000  0.91500000  1.0 -0.4268245597
C  C824  1  0.57580000  0.31260000  0.91500000  1.0 -0.4268245597
C  C825  1  0.73680000  0.42420000  0.91500000  1.0 -0.4268245597
C  C826  1  0.73680000  0.31260000  0.08500000  1.0 -0.4268245597
C  C827  1  0.68740000  0.42420000  0.08500000  1.0 -0.4268245597
C  C828  1  0.57580000  0.26320000  0.08500000  1.0 -0.4268245597
C  C829  1  0.39040000  0.98820000  0.88470000  1.0 -0.1982552838
C  C830  1  0.59780000  0.60960000  0.88470000  1.0 -0.1910065336
C  C831  1  0.01180000  0.40220000  0.88470000  1.0 -0.1910065336
C  C832  1  0.01180000  0.60960000  0.11530000  1.0 -0.1910065336
C  C833  1  0.39040000  0.40220000  0.11530000  1.0 -0.1910065336
C  C834  1  0.59780000  0.98820000  0.11530000  1.0 -0.1910065336
C  C835  1  0.39040000  0.98820000  0.61530000  1.0 -0.1982552838
C  C836  1  0.59780000  0.60960000  0.61530000  1.0 -0.1910065336
C  C837  1  0.01180000  0.40220000  0.61530000  1.0 -0.1910065336
C  C838  1  0.01180000  0.60960000  0.38470000  1.0 -0.1910065336
C  C839  1  0.39040000  0.40220000  0.38470000  1.0 -0.1910065336
C  C840  1  0.59780000  0.98820000  0.38470000  1.0 -0.1982552838
C  C841  1  0.33280000  0.93740000  0.92960000  1.0 -0.1982552838
C  C842  1  0.60460000  0.66720000  0.92960000  1.0 -0.1501836994
C  C843  1  0.06260000  0.39540000  0.92960000  1.0 -0.1501836994
C  C844  1  0.06260000  0.66720000  0.07040000  1.0 -0.1501836994
C  C845  1  0.33280000  0.39540000  0.07040000  1.0 -0.1501836994
C  C846  1  0.60460000  0.93740000  0.07040000  1.0 -0.1982552838
C  C847  1  0.33280000  0.93740000  0.57040000  1.0 -0.1982552838
C  C848  1  0.60460000  0.66720000  0.57040000  1.0 -0.1501836994
C  C849  1  0.06260000  0.39540000  0.57040000  1.0 -0.1501836994
C  C850  1  0.06260000  0.66720000  0.42960000  1.0 -0.1501836994
C  C851  1  0.33280000  0.39540000  0.42960000  1.0 -0.1501836994
C  C852  1  0.60460000  0.93740000  0.42960000  1.0 -0.1982552838
C  C853  1  0.35810000  0.92100000  0.85160000  1.0 -0.1910065336
C  C854  1  0.56290000  0.64190000  0.85160000  1.0 -0.1910065336
C  C855  1  0.07900000  0.43710000  0.85160000  1.0 -0.1910065336
C  C856  1  0.07900000  0.64190000  0.14840000  1.0 -0.1819370717
C  C857  1  0.35810000  0.43710000  0.14840000  1.0 -0.1910065336
C  C858  1  0.56290000  0.92100000  0.14840000  1.0 -0.1910065336
C  C859  1  0.35810000  0.92100000  0.64840000  1.0 -0.1910065336
C  C860  1  0.56290000  0.64190000  0.64840000  1.0 -0.1910065336
C  C861  1  0.07900000  0.43710000  0.64840000  1.0 -0.1819370717
C  C862  1  0.07900000  0.64190000  0.35160000  1.0 -0.1819370717
C  C863  1  0.35810000  0.43710000  0.35160000  1.0 -0.1910065336
C  C864  1  0.56290000  0.92100000  0.35160000  1.0 -0.1910065336
C  C865  1  0.28310000  0.08600000  0.85020000  1.0 -0.1910065336
C  C866  1  0.80290000  0.71690000  0.85020000  1.0 -0.1910065336
C  C867  1  0.91400000  0.19710000  0.85020000  1.0 -0.1910065336
C  C868  1  0.91400000  0.71690000  0.14980000  1.0 -0.1910065336
C  C869  1  0.28310000  0.19710000  0.14980000  1.0 -0.1910065336
C  C870  1  0.80290000  0.08600000  0.14980000  1.0 -0.1910065336
C  C871  1  0.28310000  0.08600000  0.64980000  1.0 -0.1910065336
C  C872  1  0.80290000  0.71690000  0.64980000  1.0 -0.1910065336
C  C873  1  0.91400000  0.19710000  0.64980000  1.0 -0.1910065336
C  C874  1  0.91400000  0.71690000  0.35020000  1.0 -0.1910065336
C  C875  1  0.28310000  0.19710000  0.35020000  1.0 -0.1910065336
C  C876  1  0.80290000  0.08600000  0.35020000  1.0 -0.1910065336
C  C877  1  0.24240000  0.03680000  0.91530000  1.0 -0.1819370717
C  C878  1  0.79440000  0.75760000  0.91530000  1.0 -0.1819370717
C  C879  1  0.96320000  0.20560000  0.91530000  1.0 -0.1819370717
C  C880  1  0.96320000  0.75760000  0.08470000  1.0 -0.1819370717
C  C881  1  0.24240000  0.20560000  0.08470000  1.0 -0.1819370717
C  C882  1  0.79440000  0.03680000  0.08470000  1.0 -0.1819370717
C  C883  1  0.24240000  0.03680000  0.58470000  1.0 -0.1819370717
C  C884  1  0.79440000  0.75760000  0.58470000  1.0 -0.1819370717
C  C885  1  0.96320000  0.20560000  0.58470000  1.0 -0.1819370717
C  C886  1  0.96320000  0.75760000  0.41530000  1.0 -0.1819370717
C  C887  1  0.24240000  0.20560000  0.41530000  1.0 -0.1819370717
C  C888  1  0.79440000  0.03680000  0.41530000  1.0 -0.1819370717
C  C889  1  0.31330000  0.06570000  0.91800000  1.0 -0.1982552838
C  C890  1  0.75240000  0.68670000  0.91800000  1.0 -0.1982552838
C  C891  1  0.93430000  0.24760000  0.91800000  1.0 -0.1982552838
C  C892  1  0.93430000  0.68670000  0.08200000  1.0 -0.1982552838
C  C893  1  0.31330000  0.24760000  0.08200000  1.0 -0.1982552838
C  C894  1  0.75240000  0.06570000  0.08200000  1.0 -0.1982552838
C  C895  1  0.31330000  0.06570000  0.58200000  1.0 -0.1982552838
C  C896  1  0.75240000  0.68670000  0.58200000  1.0 -0.1982552838
C  C897  1  0.93430000  0.24760000  0.58200000  1.0 -0.1982552838
C  C898  1  0.93430000  0.68670000  0.41800000  1.0 -0.1982552838
C  C899  1  0.31330000  0.24760000  0.41800000  1.0 -0.1982552838
C  C900  1  0.75240000  0.06570000  0.41800000  1.0 -0.1982552838
C  C901  1  0.10060000  0.89440000  0.75000000  1.0 -0.2985653932
C  C902  1  0.79380000  0.89940000  0.75000000  1.0 -0.2985653932
C  C903  1  0.10560000  0.20620000  0.75000000  1.0 -0.2985653932
C  C904  1  0.10560000  0.89940000  0.25000000  1.0 -0.2985653932
C  C905  1  0.10060000  0.20620000  0.25000000  1.0 -0.2985653932
C  C906  1  0.79380000  0.89440000  0.25000000  1.0 -0.2985653932
C  C907  1  0.13640000  0.95560000  0.79920000  1.0 -0.2102377163
C  C908  1  0.81920000  0.86360000  0.79920000  1.0 -0.2102377163
C  C909  1  0.04440000  0.18080000  0.79920000  1.0 -0.2102377163
C  C910  1  0.04440000  0.86360000  0.20080000  1.0 -0.2102377163
C  C911  1  0.13640000  0.18080000  0.20080000  1.0 -0.2102377163
C  C912  1  0.81920000  0.95560000  0.20080000  1.0 -0.2102377163
C  C913  1  0.13640000  0.95560000  0.70080000  1.0 -0.2102377163
C  C914  1  0.81920000  0.86360000  0.70080000  1.0 -0.2102377163
C  C915  1  0.04440000  0.18080000  0.70080000  1.0 -0.2102377163
C  C916  1  0.04440000  0.86360000  0.29920000  1.0 -0.2102377163
C  C917  1  0.13640000  0.18080000  0.29920000  1.0 -0.2102377163
C  C918  1  0.81920000  0.95560000  0.29920000  1.0 -0.2102377163
C  C919  1  0.16960000  0.79150000  0.75000000  1.0 -0.2488804107
C  C920  1  0.62190000  0.83040000  0.75000000  1.0 -0.2488804107
C  C921  1  0.20850000  0.37810000  0.75000000  1.0 -0.2488804107
C  C922  1  0.20850000  0.83040000  0.25000000  1.0 -0.2488804107
C  C923  1  0.16960000  0.37810000  0.25000000  1.0 -0.2488804107
C  C924  1  0.62190000  0.79150000  0.25000000  1.0 -0.2488804107
C  C925  1  0.23070000  0.81120000  0.70280000  1.0 -0.2184741142
C  C926  1  0.58050000  0.76930000  0.70280000  1.0 -0.2184741142
C  C927  1  0.18880000  0.41950000  0.70280000  1.0 -0.2184741142
C  C928  1  0.18880000  0.76930000  0.29720000  1.0 -0.2184741142
C  C929  1  0.23070000  0.41950000  0.29720000  1.0 -0.2184741142
C  C930  1  0.58050000  0.81120000  0.29720000  1.0 -0.2184741142
C  C931  1  0.23070000  0.81120000  0.79720000  1.0 -0.2184741142
C  C932  1  0.58050000  0.76930000  0.79720000  1.0 -0.2184741142
C  C933  1  0.18880000  0.41950000  0.79720000  1.0 -0.2184741142
C  C934  1  0.18880000  0.76930000  0.20280000  1.0 -0.2184741142
C  C935  1  0.23070000  0.41950000  0.20280000  1.0 -0.2184741142
C  C936  1  0.58050000  0.81120000  0.20280000  1.0 -0.2184741142
N  N1  1  0.79080000  0.09350000  0.88930000  1.0 -0.2440680258
N  N2  1  0.30270000  0.20920000  0.88930000  1.0 -0.2440680258
N  N3  1  0.90650000  0.69730000  0.88930000  1.0 -0.2440680258
N  N4  1  0.90650000  0.20920000  0.11070000  1.0 -0.2440680258
N  N5  1  0.79080000  0.69730000  0.11070000  1.0 -0.2440680258
N  N6  1  0.30270000  0.09350000  0.11070000  1.0 -0.2440680258
N  N7  1  0.79080000  0.09350000  0.61070000  1.0 -0.2440680258
N  N8  1  0.30270000  0.20920000  0.61070000  1.0 -0.2440680258
N  N9  1  0.90650000  0.69730000  0.61070000  1.0 -0.2440680258
N  N10  1  0.90650000  0.20920000  0.38930000  1.0 -0.2440680258
N  N11  1  0.79080000  0.69730000  0.38930000  1.0 -0.2440680258
N  N12  1  0.30270000  0.09350000  0.38930000  1.0 -0.2440680258
N  N13  1  0.62740000  0.94150000  0.75000000  1.0 -0.2488804107
N  N14  1  0.31410000  0.37260000  0.75000000  1.0 -0.2488804107
N  N15  1  0.05850000  0.68590000  0.75000000  1.0 -0.2488804107
N  N16  1  0.05850000  0.37260000  0.25000000  1.0 -0.2488804107
N  N17  1  0.62740000  0.68590000  0.25000000  1.0 -0.2488804107
N  N18  1  0.31410000  0.94150000  0.25000000  1.0 -0.2488804107
N  N19  1  0.44090000  0.76570000  0.75000000  1.0 -0.2298184663
N  N20  1  0.32480000  0.55910000  0.75000000  1.0 -0.2298184663
N  N21  1  0.23430000  0.67520000  0.75000000  1.0 -0.2298184663
N  N22  1  0.23430000  0.55910000  0.25000000  1.0 -0.2298184663
N  N23  1  0.44090000  0.67520000  0.25000000  1.0 -0.2298184663
N  N24  1  0.32480000  0.76570000  0.25000000  1.0 -0.2298184663
N  N25  1  0.20920000  0.90650000  0.88930000  1.0 -0.2440680258
N  N26  1  0.69730000  0.79080000  0.88930000  1.0 -0.2440680258
N  N27  1  0.09350000  0.30270000  0.88930000  1.0 -0.2440680258
N  N28  1  0.09350000  0.79080000  0.11070000  1.0 -0.2440680258
N  N29  1  0.20920000  0.30270000  0.11070000  1.0 -0.2440680258
N  N30  1  0.69730000  0.90650000  0.11070000  1.0 -0.2440680258
N  N31  1  0.20920000  0.90650000  0.61070000  1.0 -0.2440680258
N  N32  1  0.69730000  0.79080000  0.61070000  1.0 -0.2440680258
N  N33  1  0.09350000  0.30270000  0.61070000  1.0 -0.2440680258
N  N34  1  0.09350000  0.79080000  0.38930000  1.0 -0.2440680258
N  N35  1  0.20920000  0.30270000  0.38930000  1.0 -0.2440680258
N  N36  1  0.69730000  0.90650000  0.38930000  1.0 -0.2440680258
N  N37  1  0.37260000  0.05850000  0.75000000  1.0 -0.2488804107
N  N38  1  0.68590000  0.62740000  0.75000000  1.0 -0.2488804107
N  N39  1  0.94150000  0.31410000  0.75000000  1.0 -0.2488804107
N  N40  1  0.94150000  0.62740000  0.25000000  1.0 -0.2488804107
N  N41  1  0.37260000  0.31410000  0.25000000  1.0 -0.2488804107
N  N42  1  0.68590000  0.05850000  0.25000000  1.0 -0.2488804107
N  N43  1  0.55910000  0.23430000  0.75000000  1.0 -0.2298184663
N  N44  1  0.67520000  0.44090000  0.75000000  1.0 -0.2298184663
N  N45  1  0.76570000  0.32480000  0.75000000  1.0 -0.2298184663
N  N46  1  0.76570000  0.44090000  0.25000000  1.0 -0.2298184663
N  N47  1  0.55910000  0.32480000  0.25000000  1.0 -0.2298184663
N  N48  1  0.67520000  0.23430000  0.25000000  1.0 -0.2298184663
O  O1  1  0.73520000  0.04230000  0.75000000  1.0 -0.7717376754
O  O2  1  0.30710000  0.26480000  0.75000000  1.0 -0.7717376754
O  O3  1  0.95770000  0.69290000  0.75000000  1.0 -0.7717376754
O  O4  1  0.95770000  0.26480000  0.25000000  1.0 -0.7717376754
O  O5  1  0.73520000  0.69290000  0.25000000  1.0 -0.7717376754
O  O6  1  0.30710000  0.04230000  0.25000000  1.0 -0.7717376754
O  O7  1  0.71260000  0.06300000  0.84920000  1.0 -0.4985431969
O  O8  1  0.35040000  0.28740000  0.84920000  1.0 -0.4985431969
O  O9  1  0.93700000  0.64960000  0.84920000  1.0 -0.4985431969
O  O10  1  0.93700000  0.28740000  0.15080000  1.0 -0.4985431969
O  O11  1  0.71260000  0.64960000  0.15080000  1.0 -0.4985431969
O  O12  1  0.35040000  0.06300000  0.15080000  1.0 -0.4985431969
O  O13  1  0.71260000  0.06300000  0.65080000  1.0 -0.4985431969
O  O14  1  0.35040000  0.28740000  0.65080000  1.0 -0.4985431969
O  O15  1  0.93700000  0.64960000  0.65080000  1.0 -0.4985431969
O  O16  1  0.93700000  0.28740000  0.34920000  1.0 -0.4985431969
O  O17  1  0.71260000  0.64960000  0.34920000  1.0 -0.4985431969
O  O18  1  0.35040000  0.06300000  0.34920000  1.0 -0.4985431969
O  O19  1  0.74940000  0.01590000  0.85180000  1.0 -0.478570278
O  O20  1  0.26650000  0.25060000  0.85180000  1.0 -0.478570278
O  O21  1  0.98410000  0.73350000  0.85180000  1.0 -0.478570278
O  O22  1  0.98410000  0.25060000  0.14820000  1.0 -0.478570278
O  O23  1  0.74940000  0.73350000  0.14820000  1.0 -0.478570278
O  O24  1  0.26650000  0.01590000  0.14820000  1.0 -0.478570278
O  O25  1  0.74940000  0.01590000  0.64820000  1.0 -0.478570278
O  O26  1  0.26650000  0.25060000  0.64820000  1.0 -0.478570278
O  O27  1  0.98410000  0.73350000  0.64820000  1.0 -0.478570278
O  O28  1  0.98410000  0.25060000  0.35180000  1.0 -0.478570278
O  O29  1  0.74940000  0.73350000  0.35180000  1.0 -0.478570278
O  O30  1  0.26650000  0.01590000  0.35180000  1.0 -0.478570278
O  O31  1  0.81380000  0.07270000  0.79470000  1.0 -0.4723301767
O  O32  1  0.25890000  0.18620000  0.79470000  1.0 -0.4723301767
O  O33  1  0.92730000  0.74110000  0.79470000  1.0 -0.4723301767
O  O34  1  0.92730000  0.18620000  0.20530000  1.0 -0.4723301767
O  O35  1  0.81380000  0.74110000  0.20530000  1.0 -0.4723301767
O  O36  1  0.25890000  0.07270000  0.20530000  1.0 -0.4723301767
O  O37  1  0.81380000  0.07270000  0.70530000  1.0 -0.4723301767
O  O38  1  0.25890000  0.18620000  0.70530000  1.0 -0.4723301767
O  O39  1  0.92730000  0.74110000  0.70530000  1.0 -0.4723301767
O  O40  1  0.92730000  0.18620000  0.29470000  1.0 -0.4723301767
O  O41  1  0.81380000  0.74110000  0.29470000  1.0 -0.4723301767
O  O42  1  0.25890000  0.07270000  0.29470000  1.0 -0.4723301767
O  O43  1  0.77560000  0.12160000  0.79410000  1.0 -0.4723301767
O  O44  1  0.34600000  0.22440000  0.79410000  1.0 -0.4723301767
O  O45  1  0.87840000  0.65400000  0.79410000  1.0 -0.4723301767
O  O46  1  0.87840000  0.22440000  0.20590000  1.0 -0.4723301767
O  O47  1  0.77560000  0.65400000  0.20590000  1.0 -0.4723301767
O  O48  1  0.34600000  0.12160000  0.20590000  1.0 -0.4723301767
O  O49  1  0.77560000  0.12160000  0.70590000  1.0 -0.4723301767
O  O50  1  0.34600000  0.22440000  0.70590000  1.0 -0.4723301767
O  O51  1  0.87840000  0.65400000  0.70590000  1.0 -0.4723301767
O  O52  1  0.87840000  0.22440000  0.29410000  1.0 -0.4723301767
O  O53  1  0.77560000  0.65400000  0.29410000  1.0 -0.4723301767
O  O54  1  0.34600000  0.12160000  0.29410000  1.0 -0.4723301767
O  O55  1  0.66160000  0.01460000  0.80520000  1.0 -0.4723301767
O  O56  1  0.35300000  0.33840000  0.80520000  1.0 -0.4723301767
O  O57  1  0.98540000  0.64700000  0.80520000  1.0 -0.4723301767
O  O58  1  0.98540000  0.33840000  0.19480000  1.0 -0.4723301767
O  O59  1  0.66160000  0.64700000  0.19480000  1.0 -0.4723301767
O  O60  1  0.35300000  0.01460000  0.19480000  1.0 -0.4723301767
O  O61  1  0.66160000  0.01460000  0.69480000  1.0 -0.4723301767
O  O62  1  0.35300000  0.33840000  0.69480000  1.0 -0.4723301767
O  O63  1  0.98540000  0.64700000  0.69480000  1.0 -0.4723301767
O  O64  1  0.98540000  0.33840000  0.30520000  1.0 -0.4723301767
O  O65  1  0.66160000  0.64700000  0.30520000  1.0 -0.4723301767
O  O66  1  0.35300000  0.01460000  0.30520000  1.0 -0.4723301767
O  O67  1  0.69930000  0.96820000  0.80590000  1.0 -0.4943577484
O  O68  1  0.26890000  0.30070000  0.80590000  1.0 -0.4985431969
O  O69  1  0.03180000  0.73110000  0.80590000  1.0 -0.4943577484
O  O70  1  0.03180000  0.30070000  0.19410000  1.0 -0.4943577484
O  O71  1  0.69930000  0.73110000  0.19410000  1.0 -0.4943577484
O  O72  1  0.26890000  0.96820000  0.19410000  1.0 -0.4985431969
O  O73  1  0.69930000  0.96820000  0.69410000  1.0 -0.4943577484
O  O74  1  0.26890000  0.30070000  0.69410000  1.0 -0.4985431969
O  O75  1  0.03180000  0.73110000  0.69410000  1.0 -0.4943577484
O  O76  1  0.03180000  0.30070000  0.30590000  1.0 -0.4943577484
O  O77  1  0.69930000  0.73110000  0.30590000  1.0 -0.4985431969
O  O78  1  0.26890000  0.96820000  0.30590000  1.0 -0.4985431969
O  O79  1  0.33333333  0.66666667  0.75000000  1.0 -0.8425065334
O  O80  1  0.33333333  0.66666667  0.25000000  1.0 -0.8425065334
O  O81  1  0.37050000  0.74130000  0.69240000  1.0 -0.5103420906
O  O82  1  0.37080000  0.62950000  0.69240000  1.0 -0.5103420906
O  O83  1  0.25870000  0.62920000  0.69240000  1.0 -0.5103420906
O  O84  1  0.25870000  0.62950000  0.30760000  1.0 -0.5103420906
O  O85  1  0.37050000  0.62920000  0.30760000  1.0 -0.5103420906
O  O86  1  0.37080000  0.74130000  0.30760000  1.0 -0.5103420906
O  O87  1  0.37050000  0.74130000  0.80760000  1.0 -0.5103420906
O  O88  1  0.37080000  0.62950000  0.80760000  1.0 -0.5103420906
O  O89  1  0.25870000  0.62920000  0.80760000  1.0 -0.5103420906
O  O90  1  0.25870000  0.62950000  0.19240000  1.0 -0.5103420906
O  O91  1  0.37050000  0.62920000  0.19240000  1.0 -0.5103420906
O  O92  1  0.37080000  0.74130000  0.19240000  1.0 -0.5103420906
O  O93  1  0.30500000  0.71170000  0.69290000  1.0 -0.5103420906
O  O94  1  0.40670000  0.69500000  0.69290000  1.0 -0.5103420906
O  O95  1  0.28830000  0.59330000  0.69290000  1.0 -0.5103420906
O  O96  1  0.28830000  0.69500000  0.30710000  1.0 -0.5103420906
O  O97  1  0.30500000  0.59330000  0.30710000  1.0 -0.5103420906
O  O98  1  0.40670000  0.71170000  0.30710000  1.0 -0.5103420906
O  O99  1  0.30500000  0.71170000  0.80710000  1.0 -0.5103420906
O  O100  1  0.40670000  0.69500000  0.80710000  1.0 -0.5103420906
O  O101  1  0.28830000  0.59330000  0.80710000  1.0 -0.5103420906
O  O102  1  0.28830000  0.69500000  0.19290000  1.0 -0.5103420906
O  O103  1  0.30500000  0.59330000  0.19290000  1.0 -0.5103420906
O  O104  1  0.40670000  0.71170000  0.19290000  1.0 -0.5103420906
O  O105  1  0.26480000  0.95770000  0.75000000  1.0 -0.7717376754
O  O106  1  0.69290000  0.73520000  0.75000000  1.0 -0.7717376754
O  O107  1  0.04230000  0.30710000  0.75000000  1.0 -0.7717376754
O  O108  1  0.04230000  0.73520000  0.25000000  1.0 -0.7717376754
O  O109  1  0.26480000  0.30710000  0.25000000  1.0 -0.7717376754
O  O110  1  0.69290000  0.95770000  0.25000000  1.0 -0.7717376754
O  O111  1  0.28740000  0.93700000  0.84920000  1.0 -0.4985431969
O  O112  1  0.64960000  0.71260000  0.84920000  1.0 -0.4985431969
O  O113  1  0.06300000  0.35040000  0.84920000  1.0 -0.4985431969
O  O114  1  0.06300000  0.71260000  0.15080000  1.0 -0.4985431969
O  O115  1  0.28740000  0.35040000  0.15080000  1.0 -0.4985431969
O  O116  1  0.64960000  0.93700000  0.15080000  1.0 -0.4985431969
O  O117  1  0.28740000  0.93700000  0.65080000  1.0 -0.4985431969
O  O118  1  0.64960000  0.71260000  0.65080000  1.0 -0.4985431969
O  O119  1  0.06300000  0.35040000  0.65080000  1.0 -0.4985431969
O  O120  1  0.06300000  0.71260000  0.34920000  1.0 -0.4985431969
O  O121  1  0.28740000  0.35040000  0.34920000  1.0 -0.4985431969
O  O122  1  0.64960000  0.93700000  0.34920000  1.0 -0.4985431969
O  O123  1  0.25060000  0.98410000  0.85180000  1.0 -0.478570278
O  O124  1  0.73350000  0.74940000  0.85180000  1.0 -0.478570278
O  O125  1  0.01590000  0.26650000  0.85180000  1.0 -0.478570278
O  O126  1  0.01590000  0.74940000  0.14820000  1.0 -0.478570278
O  O127  1  0.25060000  0.26650000  0.14820000  1.0 -0.478570278
O  O128  1  0.73350000  0.98410000  0.14820000  1.0 -0.478570278
O  O129  1  0.25060000  0.98410000  0.64820000  1.0 -0.478570278
O  O130  1  0.73350000  0.74940000  0.64820000  1.0 -0.478570278
O  O131  1  0.01590000  0.26650000  0.64820000  1.0 -0.478570278
O  O132  1  0.01590000  0.74940000  0.35180000  1.0 -0.478570278
O  O133  1  0.25060000  0.26650000  0.35180000  1.0 -0.478570278
O  O134  1  0.73350000  0.98410000  0.35180000  1.0 -0.478570278
O  O135  1  0.18620000  0.92730000  0.79470000  1.0 -0.4723301767
O  O136  1  0.74110000  0.81380000  0.79470000  1.0 -0.4723301767
O  O137  1  0.07270000  0.25890000  0.79470000  1.0 -0.4723301767
O  O138  1  0.07270000  0.81380000  0.20530000  1.0 -0.4723301767
O  O139  1  0.18620000  0.25890000  0.20530000  1.0 -0.4723301767
O  O140  1  0.74110000  0.92730000  0.20530000  1.0 -0.4723301767
O  O141  1  0.18620000  0.92730000  0.70530000  1.0 -0.4723301767
O  O142  1  0.74110000  0.81380000  0.70530000  1.0 -0.4723301767
O  O143  1  0.07270000  0.25890000  0.70530000  1.0 -0.4723301767
O  O144  1  0.07270000  0.81380000  0.29470000  1.0 -0.4723301767
O  O145  1  0.18620000  0.25890000  0.29470000  1.0 -0.4723301767
O  O146  1  0.74110000  0.92730000  0.29470000  1.0 -0.4723301767
O  O147  1  0.22440000  0.87840000  0.79410000  1.0 -0.4723301767
O  O148  1  0.65400000  0.77560000  0.79410000  1.0 -0.4723301767
O  O149  1  0.12160000  0.34600000  0.79410000  1.0 -0.4723301767
O  O150  1  0.12160000  0.77560000  0.20590000  1.0 -0.4723301767
O  O151  1  0.22440000  0.34600000  0.20590000  1.0 -0.4723301767
O  O152  1  0.65400000  0.87840000  0.20590000  1.0 -0.4723301767
O  O153  1  0.22440000  0.87840000  0.70590000  1.0 -0.4723301767
O  O154  1  0.65400000  0.77560000  0.70590000  1.0 -0.4723301767
O  O155  1  0.12160000  0.34600000  0.70590000  1.0 -0.4723301767
O  O156  1  0.12160000  0.77560000  0.29410000  1.0 -0.4723301767
O  O157  1  0.22440000  0.34600000  0.29410000  1.0 -0.4723301767
O  O158  1  0.65400000  0.87840000  0.29410000  1.0 -0.4723301767
O  O159  1  0.33840000  0.98540000  0.80520000  1.0 -0.4723301767
O  O160  1  0.64700000  0.66160000  0.80520000  1.0 -0.4723301767
O  O161  1  0.01460000  0.35300000  0.80520000  1.0 -0.4723301767
O  O162  1  0.01460000  0.66160000  0.19480000  1.0 -0.4723301767
O  O163  1  0.33840000  0.35300000  0.19480000  1.0 -0.4723301767
O  O164  1  0.64700000  0.98540000  0.19480000  1.0 -0.4723301767
O  O165  1  0.33840000  0.98540000  0.69480000  1.0 -0.4723301767
O  O166  1  0.64700000  0.66160000  0.69480000  1.0 -0.4723301767
O  O167  1  0.01460000  0.35300000  0.69480000  1.0 -0.4723301767
O  O168  1  0.01460000  0.66160000  0.30520000  1.0 -0.4723301767
O  O169  1  0.33840000  0.35300000  0.30520000  1.0 -0.4723301767
O  O170  1  0.64700000  0.98540000  0.30520000  1.0 -0.4723301767
O  O171  1  0.30070000  0.03180000  0.80590000  1.0 -0.4943577484
O  O172  1  0.73110000  0.69930000  0.80590000  1.0 -0.4943577484
O  O173  1  0.96820000  0.26890000  0.80590000  1.0 -0.4985431969
O  O174  1  0.96820000  0.69930000  0.19410000  1.0 -0.4985431969
O  O175  1  0.30070000  0.26890000  0.19410000  1.0 -0.4985431969
O  O176  1  0.73110000  0.03180000  0.19410000  1.0 -0.4943577484
O  O177  1  0.30070000  0.03180000  0.69410000  1.0 -0.4943577484
O  O178  1  0.73110000  0.69930000  0.69410000  1.0 -0.4943577484
O  O179  1  0.96820000  0.26890000  0.69410000  1.0 -0.4985431969
O  O180  1  0.96820000  0.69930000  0.30590000  1.0 -0.4985431969
O  O181  1  0.30070000  0.26890000  0.30590000  1.0 -0.4985431969
O  O182  1  0.73110000  0.03180000  0.30590000  1.0 -0.4943577484
O  O183  1  0.66666667  0.33333333  0.75000000  1.0 -0.8425065334
O  O184  1  0.66666667  0.33333333  0.25000000  1.0 -0.8425065334
O  O185  1  0.62950000  0.25870000  0.69240000  1.0 -0.5103420906
O  O186  1  0.62920000  0.37050000  0.69240000  1.0 -0.5103420906
O  O187  1  0.74130000  0.37080000  0.69240000  1.0 -0.5103420906
O  O188  1  0.74130000  0.37050000  0.30760000  1.0 -0.5103420906
O  O189  1  0.62950000  0.37080000  0.30760000  1.0 -0.5103420906
O  O190  1  0.62920000  0.25870000  0.30760000  1.0 -0.5103420906
O  O191  1  0.62950000  0.25870000  0.80760000  1.0 -0.5103420906
O  O192  1  0.62920000  0.37050000  0.80760000  1.0 -0.5103420906
O  O193  1  0.74130000  0.37080000  0.80760000  1.0 -0.5103420906
O  O194  1  0.74130000  0.37050000  0.19240000  1.0 -0.5103420906
O  O195  1  0.62950000  0.37080000  0.19240000  1.0 -0.5103420906
O  O196  1  0.62920000  0.25870000  0.19240000  1.0 -0.5103420906
O  O197  1  0.69500000  0.28830000  0.69290000  1.0 -0.5103420906
O  O198  1  0.59330000  0.30500000  0.69290000  1.0 -0.5103420906
O  O199  1  0.71170000  0.40670000  0.69290000  1.0 -0.5103420906
O  O200  1  0.71170000  0.30500000  0.30710000  1.0 -0.5103420906
O  O201  1  0.69500000  0.40670000  0.30710000  1.0 -0.5103420906
O  O202  1  0.59330000  0.28830000  0.30710000  1.0 -0.5103420906
O  O203  1  0.69500000  0.28830000  0.80710000  1.0 -0.5103420906
O  O204  1  0.59330000  0.30500000  0.80710000  1.0 -0.5103420906
O  O205  1  0.71170000  0.40670000  0.80710000  1.0 -0.5103420906
O  O206  1  0.71170000  0.30500000  0.19290000  1.0 -0.5103420906
O  O207  1  0.69500000  0.40670000  0.19290000  1.0 -0.5103420906
O  O208  1  0.59330000  0.28830000  0.19290000  1.0 -0.5103420906
