# DDEC6 charges by PACMAN v1.1 (https://github.com/mtap-research/PACMAN-charge/)
data_YOXHAX_ASR_pacman
_symmetry_space_group_name_H-M   'P 1'
_cell_length_a   19.33600000
_cell_length_b   19.55000000
_cell_length_c   20.05000000
_cell_angle_alpha   84.41900000
_cell_angle_beta   83.65300000
_cell_angle_gamma   68.58000000
_symmetry_Int_Tables_number   1
_chemical_formula_structural   Cu2H33C47N7O17
_chemical_formula_sum   'Cu8 H132 C188 N28 O68'
_cell_volume   6999.25234432
_cell_formula_units_Z   4
loop_
 _symmetry_equiv_pos_site_id
 _symmetry_equiv_pos_as_xyz
  1  'x, y, z'
loop_
 _atom_site_type_symbol
 _atom_site_label
 _atom_site_symmetry_multiplicity
 _atom_site_fract_x
 _atom_site_fract_y
 _atom_site_fract_z
 _atom_site_occupancy
 _atom_site_charge
Cu  Cu1  1  0.27418000  0.56472000  0.44786000  1.0 0.8639869231
Cu  Cu2  1  0.05758000  0.77950000  0.94842000  1.0 0.7496374983
Cu  Cu3  1  0.13929000  0.61141000  0.40892000  1.0 0.8451088208
Cu  Cu4  1  0.10515000  0.64670000  0.90755000  1.0 0.8421986638
Cu  Cu5  1  0.72582000  0.43528000  0.55214000  1.0 0.8639869231
Cu  Cu6  1  0.94242000  0.22050000  0.05158000  1.0 0.7496374983
Cu  Cu7  1  0.86071000  0.38859000  0.59108000  1.0 0.8421986638
Cu  Cu8  1  0.89485000  0.35330000  0.09245000  1.0 0.8421986638
H  H1  1  0.64810000  0.13340000  0.52700000  1.0 0.2807893568
H  H2  1  0.46520000  0.63330000  0.10340000  1.0 0.2807893568
H  H3  1  0.95480000  0.75000000  0.26130000  1.0 0.2807893568
H  H4  1  0.99090000  0.37900000  0.39300000  1.0 0.1197435482
H  H5  1  0.91090000  0.15290000  0.59790000  1.0 0.1115272195
H  H6  1  0.36740000  0.15140000  0.39690000  1.0 0.2807893568
H  H7  1  0.91750000  0.94530000  0.47060000  1.0 0.1289543837
H  H8  1  0.75080000  0.52240000  0.24160000  1.0 0.2807893568
H  H9  1  0.55910000  0.57920000  0.02770000  1.0 0.1289543837
H  H10  1  0.85390000  0.03640000  0.39370000  1.0 0.2915879924
H  H11  1  0.14440000  0.29390000  0.32680000  1.0 0.1197435482
H  H12  1  0.97750000  0.72490000  0.47010000  1.0 0.1505931697
H  H13  1  0.71020000  0.22830000  0.52190000  1.0 0.1411444342
H  H14  1  0.89990000  0.63330000  0.85780000  1.0 0.1197435482
H  H15  1  0.56900000  0.16720000  0.44560000  1.0 0.1289543837
H  H16  1  0.88260000  0.25700000  0.41430000  1.0 0.1115272195
H  H17  1  0.11280000  0.51750000  0.10150000  1.0 0.1197435482
H  H18  1  0.77900000  0.47140000  0.34850000  1.0 0.1411444342
H  H19  1  0.00640000  0.72730000  0.15280000  1.0 0.1289543837
H  H20  1  0.89730000  0.29830000  0.30350000  1.0 0.1115272195
H  H21  1  0.65700000  0.39900000  0.10310000  1.0 0.1197435482
H  H22  1  0.94420000  0.44500000  0.20150000  1.0 0.1411444342
H  H23  1  0.78010000  0.52480000  0.02920000  1.0 0.1505931697
H  H24  1  0.02990000  0.39330000  0.28160000  1.0 0.1115272195
H  H25  1  0.64150000  0.15330000  0.99490000  1.0 0.2807893568
H  H26  1  0.39250000  0.59490000  0.25400000  1.0 0.1411444342
H  H27  1  0.10120000  0.47810000  0.21220000  1.0 0.1115272195
H  H28  1  0.33480000  0.33530000  0.41720000  1.0 0.1505931697
H  H29  1  0.89620000  0.10790000  0.24300000  1.0 0.1411444342
H  H30  1  0.65350000  0.52150000  0.20350000  1.0 0.1289543837
H  H31  1  0.87910000  0.14150000  0.44090000  1.0 0.1197435482
H  H32  1  0.53620000  0.40450000  0.09670000  1.0 0.1197435482
H  H33  1  0.25450000  0.19630000  0.34690000  1.0 0.1289543837
H  H34  1  0.19600000  0.60130000  0.19760000  1.0 0.1197435482
H  H35  1  0.73520000  0.20960000  0.01050000  1.0 0.1197435482
H  H36  1  0.91390000  0.03370000  0.59640000  1.0 0.1197435482
H  H37  1  0.78670000  0.65480000  0.81610000  1.0 0.1197435482
H  H38  1  0.23960000  0.60860000  0.08550000  1.0 0.1115272195
H  H39  1  0.12880000  0.41030000  0.35480000  1.0 0.1197435482
H  H40  1  0.96250000  0.84720000  0.29540000  1.0 0.1197435482
H  H41  1  0.66230000  0.89750000  0.82630000  1.0 0.2729985255
H  H42  1  0.81670000  0.01070000  0.55800000  1.0 0.1197435482
H  H43  1  0.66240000  0.94690000  0.43990000  1.0 0.1411444342
H  H44  1  0.51400000  0.31370000  0.04660000  1.0 0.1197435482
H  H45  1  0.45010000  0.05190000  0.39500000  1.0 0.1289543837
H  H46  1  0.04210000  0.56110000  0.29510000  1.0 0.1289543837
H  H47  1  0.36050000  0.60570000  0.05820000  1.0 0.1115272195
H  H48  1  0.83310000  0.84830000  0.89280000  1.0 0.1505931697
H  H49  1  0.69600000  0.77100000  0.81550000  1.0 0.1197435482
H  H50  1  0.46570000  0.19670000  0.86520000  1.0 0.1411444342
H  H51  1  0.56770000  0.98840000  0.81220000  1.0 0.1289543837
H  H52  1  0.66520000  0.07470000  0.93060000  1.0 0.1197435482
H  H53  1  0.09400000  0.89390000  0.02400000  1.0 0.1197435482
H  H54  1  0.90910000  0.98130000  0.06500000  1.0 0.0704697732
H  H55  1  0.92550000  0.03240000  0.11180000  1.0 0.0919046502
H  H56  1  0.92760000  0.95390000  0.13930000  1.0 0.0919046502
H  H57  1  0.06010000  0.96090000  0.16150000  1.0 0.0784073225
H  H58  1  0.04140000  0.03190000  0.11290000  1.0 0.0784073225
H  H59  1  0.11160000  0.96220000  0.09560000  1.0 0.1049464333
H  H60  1  0.11930000  0.89010000  0.97850000  1.0 0.0784073225
H  H61  1  0.15380000  0.98030000  0.00840000  1.0 0.0919046502
H  H62  1  0.16500000  0.95700000  0.08470000  1.0 0.0919046502
H  H63  1  0.10770000  0.03450000  0.06350000  1.0 0.1115272195
H  H64  1  0.97170000  0.95100000  0.09880000  1.0 0.1115272195
H  H65  1  0.98550000  0.02300000  0.11040000  1.0 0.0704697732
H  H66  1  0.02630000  0.94940000  0.15160000  1.0 0.0784073225
H  H67  1  0.35190000  0.86660000  0.47300000  1.0 0.2807893568
H  H68  1  0.53480000  0.36670000  0.89660000  1.0 0.2807893568
H  H69  1  0.04520000  0.25000000  0.73870000  1.0 0.2807893568
H  H70  1  0.00910000  0.62100000  0.60700000  1.0 0.1197435482
H  H71  1  0.08910000  0.84710000  0.40210000  1.0 0.1115272195
H  H72  1  0.63260000  0.84860000  0.60310000  1.0 0.2807893568
H  H73  1  0.08250000  0.05470000  0.52940000  1.0 0.1289543837
H  H74  1  0.24920000  0.47760000  0.75840000  1.0 0.2807893568
H  H75  1  0.44090000  0.42080000  0.97230000  1.0 0.1289543837
H  H76  1  0.14610000  0.96360000  0.60630000  1.0 0.2915879924
H  H77  1  0.85560000  0.70610000  0.67320000  1.0 0.1197435482
H  H78  1  0.02250000  0.27510000  0.52990000  1.0 0.1505931697
H  H79  1  0.28980000  0.77170000  0.47810000  1.0 0.1411444342
H  H80  1  0.10010000  0.36670000  0.14220000  1.0 0.1197435482
H  H81  1  0.43100000  0.83280000  0.55440000  1.0 0.1289543837
H  H82  1  0.11740000  0.74300000  0.58570000  1.0 0.1115272195
H  H83  1  0.88720000  0.48250000  0.89850000  1.0 0.1197435482
H  H84  1  0.22100000  0.52860000  0.65150000  1.0 0.1411444342
H  H85  1  0.99360000  0.27270000  0.84720000  1.0 0.1289543837
H  H86  1  0.10270000  0.70170000  0.69650000  1.0 0.1115272195
H  H87  1  0.34300000  0.60100000  0.89690000  1.0 0.1197435482
H  H88  1  0.05580000  0.55500000  0.79850000  1.0 0.1411444342
H  H89  1  0.21990000  0.47520000  0.97080000  1.0 0.1505931697
H  H90  1  0.97010000  0.60670000  0.71840000  1.0 0.1115272195
H  H91  1  0.35850000  0.84670000  0.00510000  1.0 0.2807893568
H  H92  1  0.60750000  0.40510000  0.74600000  1.0 0.1411444342
H  H93  1  0.89880000  0.52190000  0.78780000  1.0 0.1115272195
H  H94  1  0.66520000  0.66470000  0.58280000  1.0 0.1505931697
H  H95  1  0.10380000  0.89210000  0.75700000  1.0 0.1411444342
H  H96  1  0.34650000  0.47850000  0.79650000  1.0 0.1289543837
H  H97  1  0.12090000  0.85850000  0.55910000  1.0 0.1197435482
H  H98  1  0.46380000  0.59550000  0.90330000  1.0 0.1197435482
H  H99  1  0.74550000  0.80370000  0.65310000  1.0 0.1289543837
H  H100  1  0.80400000  0.39870000  0.80240000  1.0 0.1197435482
H  H101  1  0.26480000  0.79040000  0.98950000  1.0 0.1197435482
H  H102  1  0.08610000  0.96630000  0.40360000  1.0 0.1197435482
H  H103  1  0.21330000  0.34520000  0.18390000  1.0 0.1197435482
H  H104  1  0.76040000  0.39140000  0.91450000  1.0 0.1115272195
H  H105  1  0.87120000  0.58970000  0.64520000  1.0 0.1197435482
H  H106  1  0.03750000  0.15280000  0.70460000  1.0 0.1197435482
H  H107  1  0.33770000  0.10250000  0.17370000  1.0 0.2729985255
H  H108  1  0.18330000  0.98930000  0.44200000  1.0 0.1197435482
H  H109  1  0.33760000  0.05310000  0.56010000  1.0 0.1411444342
H  H110  1  0.48600000  0.68630000  0.95340000  1.0 0.1197435482
H  H111  1  0.54990000  0.94810000  0.60500000  1.0 0.1289543837
H  H112  1  0.95790000  0.43890000  0.70490000  1.0 0.1289543837
H  H113  1  0.63950000  0.39430000  0.94180000  1.0 0.1115272195
H  H114  1  0.16690000  0.15170000  0.10720000  1.0 0.1505931697
H  H115  1  0.30400000  0.22900000  0.18450000  1.0 0.1197435482
H  H116  1  0.53430000  0.80330000  0.13480000  1.0 0.1411444342
H  H117  1  0.43230000  0.01160000  0.18780000  1.0 0.1289543837
H  H118  1  0.33480000  0.92530000  0.06940000  1.0 0.1197435482
H  H119  1  0.90600000  0.10610000  0.97600000  1.0 0.1197435482
H  H120  1  0.09090000  0.01870000  0.93500000  1.0 0.0704697732
H  H121  1  0.07450000  0.96760000  0.88820000  1.0 0.0919046502
H  H122  1  0.07240000  0.04610000  0.86070000  1.0 0.0919046502
H  H123  1  0.93990000  0.03910000  0.83850000  1.0 0.0784073225
H  H124  1  0.95860000  0.96810000  0.88710000  1.0 0.0784073225
H  H125  1  0.88840000  0.03780000  0.90440000  1.0 0.1049464333
H  H126  1  0.88070000  0.10990000  0.02150000  1.0 0.0784073225
H  H127  1  0.84620000  0.01970000  0.99160000  1.0 0.0919046502
H  H128  1  0.83500000  0.04300000  0.91530000  1.0 0.0919046502
H  H129  1  0.89230000  0.96550000  0.93650000  1.0 0.1115272195
H  H130  1  0.02830000  0.04900000  0.90120000  1.0 0.1115272195
H  H131  1  0.01450000  0.97700000  0.88960000  1.0 0.0704697732
H  H132  1  0.97370000  0.05060000  0.84840000  1.0 0.0784073225
C  C1  1  0.95600000  0.40040000  0.36150000  1.0 -0.1104919221
C  C2  1  0.87130000  0.14400000  0.58280000  1.0 -0.1310425319
C  C3  1  0.88900000  0.11210000  0.34420000  1.0 0.2326293785
C  C4  1  0.59430000  0.55280000  0.12110000  1.0 -0.0096514202
C  C5  1  0.93140000  0.90320000  0.44680000  1.0 -0.1625868019
C  C6  1  0.60080000  0.56480000  0.05220000  1.0 -0.1625868019
C  C7  1  0.89770000  0.20710000  0.26250000  1.0 0.0114528299
C  C8  1  0.72820000  0.52000000  0.12350000  1.0 -0.0178624843
C  C9  1  0.18240000  0.30200000  0.34570000  1.0 -0.0802719783
C  C10  1  0.96670000  0.77060000  0.44660000  1.0 -0.1401549266
C  C11  1  0.85170000  0.46420000  0.26720000  1.0 0.2406045858
C  C12  1  0.38750000  0.60050000  0.15280000  1.0 0.2326293785
C  C13  1  0.75300000  0.11770000  0.53640000  1.0 0.2326293785
C  C14  1  0.94520000  0.83470000  0.48010000  1.0 0.0704697732
C  C15  1  0.75080000  0.18930000  0.53720000  1.0 -0.2103153661
C  C16  1  0.23000000  0.38340000  0.39000000  1.0 -0.0020692364
C  C17  1  0.86390000  0.68050000  0.85690000  1.0 -0.1104919221
C  C18  1  0.56530000  0.12230000  0.43860000  1.0 -0.1401549266
C  C19  1  0.88640000  0.22660000  0.38000000  1.0 -0.0719993486
C  C20  1  0.08970000  0.55160000  0.13380000  1.0 -0.1104919221
C  C21  1  0.82960000  0.45550000  0.33460000  1.0 -0.2015117816
C  C22  1  0.88070000  0.42390000  0.38140000  1.0 -0.0096514202
C  C23  1  0.02600000  0.67720000  0.16490000  1.0 -0.2103153661
C  C24  1  0.87860000  0.73840000  0.88060000  1.0 -0.0284112005
C  C25  1  0.01920000  0.65370000  0.23180000  1.0 0.2406045858
C  C26  1  0.06170000  0.62780000  0.11490000  1.0 -0.0284112005
C  C27  1  0.49890000  0.12050000  0.41810000  1.0 -0.0020692364
C  C28  1  0.89430000  0.25200000  0.31370000  1.0 -0.1104919221
C  C29  1  0.64820000  0.36220000  0.08310000  1.0 -0.1167547416
C  C30  1  0.92800000  0.44020000  0.24650000  1.0 -0.1501678717
C  C31  1  0.73410000  0.53220000  0.05280000  1.0 -0.1310425319
C  C32  1  0.80850000  0.20300000  0.56080000  1.0 -0.0096514202
C  C33  1  0.52340000  0.55140000  0.15850000  1.0 0.4611888218
C  C34  1  0.97910000  0.40880000  0.29470000  1.0 -0.0935926263
C  C35  1  0.36200000  0.59740000  0.22040000  1.0 -0.1808992984
C  C36  1  0.08230000  0.52820000  0.20020000  1.0 -0.0935926263
C  C37  1  0.69810000  0.05700000  0.46890000  1.0 0.4611888218
C  C38  1  0.29630000  0.32650000  0.39990000  1.0 -0.1698394467
C  C39  1  0.28980000  0.59810000  0.23670000  1.0 0.0015215802
C  C40  1  0.89460000  0.13730000  0.27740000  1.0 -0.2103153661
C  C41  1  0.65800000  0.53000000  0.15700000  1.0 -0.1401549266
C  C42  1  0.88400000  0.15790000  0.39610000  1.0 -0.1868344259
C  C43  1  0.93480000  0.97890000  0.33720000  1.0 0.454891159
C  C44  1  0.85170000  0.41850000  0.45350000  1.0 0.5717376608
C  C45  1  0.62630000  0.05670000  0.44840000  1.0 -0.0096514202
C  C46  1  0.57610000  0.36560000  0.07890000  1.0 -0.0802719783
C  C47  1  0.24860000  0.24360000  0.35720000  1.0 -0.1868344259
C  C48  1  0.24380000  0.60150000  0.18620000  1.0 -0.1104919221
C  C49  1  0.07000000  0.65530000  0.04580000  1.0 0.5587193011
C  C50  1  0.69500000  0.24930000  0.02670000  1.0 -0.2103153661
C  C51  1  0.93870000  0.90770000  0.37690000  1.0 0.0114528299
C  C52  1  0.80470000  0.28030000  0.56235000  1.0 0.5717376608
C  C53  1  0.70770000  0.30320000  0.05690000  1.0 -0.0020692364
C  C54  1  0.95110000  0.72800000  0.90410000  1.0 0.5587193011
C  C55  1  0.87300000  0.07280000  0.58160000  1.0 -0.0802719783
C  C56  1  0.78630000  0.29900000  0.06110000  1.0 0.5538807649
C  C57  1  0.79600000  0.69330000  0.83230000  1.0 -0.0802719783
C  C58  1  0.97150000  0.77670000  0.37610000  1.0 -0.0096514202
C  C59  1  0.27010000  0.60530000  0.11930000  1.0 -0.0802719783
C  C60  1  0.17310000  0.37140000  0.36220000  1.0 -0.1310425319
C  C61  1  0.67070000  0.55510000  0.02010000  1.0 0.0784073225
C  C62  1  0.95830000  0.84400000  0.34220000  1.0 -0.1501678717
C  C63  1  0.81480000  0.05880000  0.55860000  1.0 -0.1808992984
C  C64  1  0.30570000  0.25600000  0.38400000  1.0 0.2326293785
C  C65  1  0.62160000  0.99060000  0.43600000  1.0 -0.1501678717
C  C66  1  0.56260000  0.31150000  0.04840000  1.0 -0.1808992984
C  C67  1  0.49390000  0.05390000  0.40800000  1.0 -0.1808992984
C  C68  1  0.04700000  0.57800000  0.25050000  1.0 -0.1698394467
C  C69  1  0.34250000  0.60410000  0.10300000  1.0 -0.1868344259
C  C70  1  0.62260000  0.25320000  0.02010000  1.0 0.2326293785
C  C71  1  0.99820000  0.70540000  0.34168000  1.0 0.4712299374
C  C72  1  0.62710000  0.02000000  0.87060000  1.0 -0.0178624843
C  C73  1  0.79860000  0.49250000  0.15700000  1.0 0.4611888218
C  C74  1  0.82360000  0.80910000  0.87820000  1.0 -0.1808992984
C  C75  1  0.26180000  0.59460000  0.30890000  1.0 0.5717376608
C  C76  1  0.56510000  0.14560000  0.90460000  1.0 -0.0096514202
C  C77  1  0.90520000  0.23480000  0.19020000  1.0 0.5587193011
C  C78  1  0.43850000  0.19470000  0.40690000  1.0 0.4712299374
C  C79  1  0.74180000  0.76320000  0.83140000  1.0 -0.1868344259
C  C80  1  0.50640000  0.15280000  0.86750000  1.0 -0.1310425319
C  C81  1  0.22010000  0.45870000  0.40890000  1.0 0.5799726981
C  C82  1  0.75520000  0.82130000  0.85410000  1.0 0.2167544353
C  C83  1  0.56810000  0.02740000  0.83510000  1.0 -0.1501678717
C  C84  1  0.55390000  0.99090000  0.41750000  1.0 0.0704697732
C  C85  1  0.62540000  0.07960000  0.90600000  1.0 -0.1501678717
C  C86  1  0.56140000  0.21110000  0.94060000  1.0 0.4712299374
C  C87  1  0.50960000  0.09330000  0.83390000  1.0 0.0784073225
C  C88  1  0.69590000  0.95200000  0.87860000  1.0 0.4712299374
C  C89  1  0.04280000  0.90560000  0.03140000  1.0 0.2025898236
C  C90  1  0.93810000  0.98240000  0.10050000  1.0 -0.2688502383
C  C91  1  0.06120000  0.97910000  0.11530000  1.0 -0.0719993486
C  C92  1  0.07550000  0.90760000  0.00630000  1.0 0.0543197196
C  C93  1  0.12930000  0.98380000  0.05300000  1.0 -0.3401761301
C  C94  1  0.00810000  0.97050000  0.10890000  1.0 -0.0096514202
C  C95  1  0.04400000  0.59960000  0.63850000  1.0 -0.1104919221
C  C96  1  0.12870000  0.85600000  0.41720000  1.0 -0.1310425319
C  C97  1  0.11100000  0.88790000  0.65580000  1.0 0.2326293785
C  C98  1  0.40570000  0.44720000  0.87890000  1.0 -0.0096514202
C  C99  1  0.06860000  0.09680000  0.55320000  1.0 -0.1625868019
C  C100  1  0.39920000  0.43520000  0.94780000  1.0 -0.1625868019
C  C101  1  0.10230000  0.79290000  0.73750000  1.0 0.0114528299
C  C102  1  0.27180000  0.48000000  0.87650000  1.0 -0.0178624843
C  C103  1  0.81760000  0.69800000  0.65430000  1.0 -0.0802719783
C  C104  1  0.03330000  0.22940000  0.55340000  1.0 -0.1401549266
C  C105  1  0.14830000  0.53580000  0.73280000  1.0 0.2406045858
C  C106  1  0.61250000  0.39950000  0.84720000  1.0 0.2326293785
C  C107  1  0.24700000  0.88230000  0.46360000  1.0 0.2326293785
C  C108  1  0.05480000  0.16530000  0.51990000  1.0 0.0704697732
C  C109  1  0.24920000  0.81070000  0.46280000  1.0 -0.2103153661
C  C110  1  0.77000000  0.61660000  0.61000000  1.0 -0.0020692364
C  C111  1  0.13610000  0.31950000  0.14310000  1.0 -0.1104919221
C  C112  1  0.43470000  0.87770000  0.56140000  1.0 -0.1401549266
C  C113  1  0.11360000  0.77340000  0.62000000  1.0 -0.0719993486
C  C114  1  0.91030000  0.44840000  0.86620000  1.0 -0.1104919221
C  C115  1  0.17040000  0.54450000  0.66540000  1.0 -0.2015117816
C  C116  1  0.11930000  0.57610000  0.61860000  1.0 -0.0096514202
C  C117  1  0.97400000  0.32280000  0.83510000  1.0 -0.2103153661
C  C118  1  0.12140000  0.26160000  0.11940000  1.0 -0.0284112005
C  C119  1  0.98080000  0.34630000  0.76820000  1.0 0.2406045858
C  C120  1  0.93830000  0.37220000  0.88510000  1.0 -0.0284112005
C  C121  1  0.50110000  0.87950000  0.58190000  1.0 -0.0020692364
C  C122  1  0.10570000  0.74800000  0.68630000  1.0 -0.1104919221
C  C123  1  0.35180000  0.63780000  0.91690000  1.0 -0.1167547416
C  C124  1  0.07200000  0.55980000  0.75350000  1.0 -0.1501678717
C  C125  1  0.26590000  0.46780000  0.94720000  1.0 -0.1310425319
C  C126  1  0.19150000  0.79700000  0.43920000  1.0 -0.0096514202
C  C127  1  0.47660000  0.44860000  0.84150000  1.0 0.4611888218
C  C128  1  0.02090000  0.59120000  0.70530000  1.0 -0.0935926263
C  C129  1  0.63800000  0.40260000  0.77960000  1.0 -0.1808992984
C  C130  1  0.91770000  0.47180000  0.79980000  1.0 -0.0935926263
C  C131  1  0.30190000  0.94300000  0.53110000  1.0 0.4611888218
C  C132  1  0.70370000  0.67350000  0.60010000  1.0 -0.1698394467
C  C133  1  0.71020000  0.40190000  0.76330000  1.0 0.0015215802
C  C134  1  0.10540000  0.86270000  0.72260000  1.0 -0.2103153661
C  C135  1  0.34200000  0.47000000  0.84300000  1.0 -0.1501678717
C  C136  1  0.11600000  0.84210000  0.60390000  1.0 -0.1868344259
C  C137  1  0.06520000  0.02110000  0.66280000  1.0 0.4611888218
C  C138  1  0.14830000  0.58150000  0.54650000  1.0 0.5717376608
C  C139  1  0.37370000  0.94330000  0.55160000  1.0 -0.0096514202
C  C140  1  0.42390000  0.63440000  0.92110000  1.0 -0.0802719783
C  C141  1  0.75140000  0.75640000  0.64280000  1.0 -0.1868344259
C  C142  1  0.75620000  0.39850000  0.81380000  1.0 -0.1104919221
C  C143  1  0.93000000  0.34470000  0.95420000  1.0 0.5587193011
C  C144  1  0.30500000  0.75070000  0.97330000  1.0 -0.2103153661
C  C145  1  0.06130000  0.09230000  0.62310000  1.0 0.0114528299
C  C146  1  0.19530000  0.71970000  0.43765000  1.0 0.5717376608
C  C147  1  0.29230000  0.69680000  0.94310000  1.0 -0.0020692364
C  C148  1  0.04890000  0.27200000  0.09590000  1.0 0.5587193011
C  C149  1  0.12700000  0.92720000  0.41840000  1.0 -0.0802719783
C  C150  1  0.21370000  0.70100000  0.93890000  1.0 0.5538807649
C  C151  1  0.20400000  0.30670000  0.16770000  1.0 -0.0802719783
C  C152  1  0.02850000  0.22330000  0.62390000  1.0 -0.0096514202
C  C153  1  0.72990000  0.39470000  0.88070000  1.0 -0.0802719783
C  C154  1  0.82690000  0.62860000  0.63780000  1.0 -0.1310425319
C  C155  1  0.32930000  0.44490000  0.97990000  1.0 0.0784073225
C  C156  1  0.04170000  0.15600000  0.65780000  1.0 -0.1501678717
C  C157  1  0.18520000  0.94120000  0.44140000  1.0 -0.1808992984
C  C158  1  0.69430000  0.74400000  0.61600000  1.0 0.2326293785
C  C159  1  0.37840000  0.00940000  0.56400000  1.0 -0.1401549266
C  C160  1  0.43740000  0.68850000  0.95160000  1.0 -0.1808992984
C  C161  1  0.50610000  0.94610000  0.59200000  1.0 -0.1808992984
C  C162  1  0.95300000  0.42200000  0.74950000  1.0 -0.1698394467
C  C163  1  0.65750000  0.39590000  0.89700000  1.0 -0.1868344259
C  C164  1  0.37740000  0.74680000  0.97990000  1.0 0.2326293785
C  C165  1  0.00180000  0.29460000  0.65832000  1.0 0.4712299374
C  C166  1  0.37290000  0.98000000  0.12940000  1.0 -0.0178624843
C  C167  1  0.20140000  0.50750000  0.84300000  1.0 0.4611888218
C  C168  1  0.17640000  0.19090000  0.12180000  1.0 -0.1868344259
C  C169  1  0.73820000  0.40540000  0.69110000  1.0 0.5717376608
C  C170  1  0.43490000  0.85440000  0.09540000  1.0 -0.0178624843
C  C171  1  0.09480000  0.76520000  0.80980000  1.0 0.5587193011
C  C172  1  0.56150000  0.80530000  0.59310000  1.0 0.4712299374
C  C173  1  0.25820000  0.23680000  0.16860000  1.0 -0.1868344259
C  C174  1  0.49360000  0.84720000  0.13250000  1.0 -0.1310425319
C  C175  1  0.77990000  0.54130000  0.59110000  1.0 0.5799726981
C  C176  1  0.24480000  0.17870000  0.14590000  1.0 0.2167544353
C  C177  1  0.43190000  0.97260000  0.16490000  1.0 -0.1501678717
C  C178  1  0.44610000  0.00910000  0.58250000  1.0 0.0704697732
C  C179  1  0.37460000  0.92040000  0.09400000  1.0 -0.1501678717
C  C180  1  0.43860000  0.78890000  0.05940000  1.0 0.4712299374
C  C181  1  0.49040000  0.90670000  0.16610000  1.0 0.0704697732
C  C182  1  0.30410000  0.04800000  0.12140000  1.0 0.4611888218
C  C183  1  0.95720000  0.09440000  0.96860000  1.0 0.2025898236
C  C184  1  0.06190000  0.01760000  0.89950000  1.0 -0.2688502383
C  C185  1  0.93880000  0.02090000  0.88470000  1.0 -0.0719993486
C  C186  1  0.92450000  0.09240000  0.99370000  1.0 0.0543197196
C  C187  1  0.87070000  0.01620000  0.94700000  1.0 -0.3401761301
C  C188  1  0.99190000  0.02950000  0.89110000  1.0 -0.0096514202
N  N1  1  0.93710000  0.83009000  0.55336000  1.0 0.5013703246
N  N2  1  0.69220000  0.10630000  0.51233000  1.0 -0.3699652841
N  N3  1  0.46050000  0.60030000  0.13326000  1.0 -0.3865317267
N  N4  1  0.98610000  0.70930000  0.27688000  1.0 -0.348114596
N  N5  1  0.37120000  0.19390000  0.39620000  1.0 -0.3699652841
N  N6  1  0.79379000  0.49690000  0.22323000  1.0 -0.348114596
N  N7  1  0.88760000  0.04017000  0.36330000  1.0 -0.36339374
N  N8  1  0.67630000  0.56940000  0.94559000  1.0 0.5013703246
N  N9  1  0.61310000  0.19810000  0.98630000  1.0 -0.3768078547
N  N10  1  0.54830000  0.91920000  0.40660000  1.0 0.5096289057
N  N11  1  0.69860000  0.89250000  0.84990000  1.0 -0.36339374
N  N12  1  0.44490000  0.10200000  0.79460000  1.0 0.5013703246
N  N13  1  0.01610000  0.95200000  0.07860000  1.0 0.0784073225
N  N14  1  0.07000000  0.95210000  0.05670000  1.0 0.0421619032
N  N15  1  0.06290000  0.16991000  0.44664000  1.0 0.5013703246
N  N16  1  0.30780000  0.89370000  0.48767000  1.0 -0.3699652841
N  N17  1  0.53950000  0.39970000  0.86674000  1.0 -0.3865317267
N  N18  1  0.01390000  0.29070000  0.72312000  1.0 -0.348114596
N  N19  1  0.62880000  0.80610000  0.60380000  1.0 -0.3699652841
N  N20  1  0.20621000  0.50310000  0.77677000  1.0 -0.348114596
N  N21  1  0.11240000  0.95983000  0.63670000  1.0 -0.36339374
N  N22  1  0.32370000  0.43060000  0.05441000  1.0 0.5013703246
N  N23  1  0.38690000  0.80190000  0.01370000  1.0 -0.3699652841
N  N24  1  0.45170000  0.08080000  0.59340000  1.0 0.5096289057
N  N25  1  0.30140000  0.10750000  0.15010000  1.0 -0.36339374
N  N26  1  0.55510000  0.89800000  0.20540000  1.0 0.5013703246
N  N27  1  0.98390000  0.04800000  0.92140000  1.0 0.0784073225
N  N28  1  0.93000000  0.04790000  0.94330000  1.0 0.0421619032
O  O1  1  0.02992000  0.64685000  0.37308000  1.0 -0.4579331737
O  O2  1  0.94191000  0.77123000  0.58264000  1.0 -0.3168595097
O  O3  1  0.92540000  0.88652000  0.58240000  1.0 -0.3401761301
O  O4  1  0.51497000  0.27054000  0.92971000  1.0 -0.4498684567
O  O5  1  0.89908000  0.39005000  0.49672000  1.0 -0.5073118668
O  O6  1  0.85857000  0.46473000  0.12348000  1.0 -0.4689520957
O  O7  1  0.74786000  0.33019000  0.54085000  1.0 -0.520598213
O  O8  1  0.99980000  0.66273000  0.90503000  1.0 -0.520598213
O  O9  1  0.75888000  0.01209000  0.44671000  1.0 -0.5027723175
O  O10  1  0.91854000  0.19033000  0.14523000  1.0 -0.5395359557
O  O11  1  0.15604000  0.50740000  0.40627000  1.0 -0.5073118668
O  O12  1  0.10339000  0.61026000  0.00178000  1.0 -0.5073118668
O  O13  1  0.85805000  0.29012000  0.58516000  1.0 -0.520598213
O  O14  1  0.97680000  0.97677000  0.28634000  1.0 -0.4689520957
O  O15  1  0.73685000  0.56410000  0.91772000  1.0 -0.3168595097
O  O16  1  0.83719000  0.24437000  0.03546000  1.0 -0.5634136659
O  O17  1  0.89721000  0.30193000  0.18128000  1.0 -0.520598213
O  O18  1  0.78229000  0.44291000  0.46593000  1.0 -0.520598213
O  O19  1  0.79509000  0.35002000  0.08760000  1.0 -0.5073118668
O  O20  1  0.19201000  0.60741000  0.32012000  1.0 -0.5395359557
O  O21  1  0.27719000  0.46835000  0.42610000  1.0 -0.5073118668
O  O22  1  0.96219000  0.78366000  0.92077000  1.0 -0.520598213
O  O23  1  0.45212000  0.25087000  0.40775000  1.0 -0.4429989816
O  O24  1  0.30686000  0.58082000  0.35303000  1.0 -0.5073118668
O  O25  1  0.04231000  0.72571000  0.03386000  1.0 -0.5661089879
O  O26  1  0.61960000  0.58540000  0.91710000  1.0 -0.3291658026
O  O27  1  0.52468000  0.50880000  0.20725000  1.0 -0.4498684567
O  O28  1  0.02610000  0.87820000  0.00020000  1.0 -0.0719993486
O  O29  1  0.74700000  0.95500000  0.90860000  1.0 -0.4689520957
O  O30  1  0.49320000  0.91940000  0.38550000  1.0 -0.3401761301
O  O31  1  0.59890000  0.86360000  0.42360000  1.0 -0.3291658026
O  O32  1  0.39660000  0.16090000  0.78900000  1.0 -0.3291658026
O  O33  1  0.44510000  0.04710000  0.77120000  1.0 -0.3699652841
O  O34  1  0.00180000  0.88520000  0.99590000  1.0 -0.2103153661
O  O35  1  0.97008000  0.35315000  0.62692000  1.0 -0.4579331737
O  O36  1  0.05809000  0.22877000  0.41736000  1.0 -0.3168595097
O  O37  1  0.07460000  0.11348000  0.41760000  1.0 -0.3401761301
O  O38  1  0.48503000  0.72946000  0.07029000  1.0 -0.4429989816
O  O39  1  0.10092000  0.60995000  0.50328000  1.0 -0.5073118668
O  O40  1  0.14143000  0.53527000  0.87652000  1.0 -0.4689520957
O  O41  1  0.25214000  0.66981000  0.45915000  1.0 -0.520598213
O  O42  1  0.00020000  0.33727000  0.09497000  1.0 -0.520598213
O  O43  1  0.24112000  0.98791000  0.55329000  1.0 -0.5027723175
O  O44  1  0.08146000  0.80967000  0.85477000  1.0 -0.5395359557
O  O45  1  0.84396000  0.49260000  0.59373000  1.0 -0.5073118668
O  O46  1  0.89661000  0.38974000  0.99822000  1.0 -0.5073118668
O  O47  1  0.14195000  0.70988000  0.41484000  1.0 -0.520598213
O  O48  1  0.02320000  0.02323000  0.71366000  1.0 -0.4689520957
O  O49  1  0.26315000  0.43590000  0.08228000  1.0 -0.3145702344
O  O50  1  0.16281000  0.75563000  0.96454000  1.0 -0.5634136659
O  O51  1  0.10279000  0.69807000  0.81872000  1.0 -0.520598213
O  O52  1  0.21771000  0.55709000  0.53407000  1.0 -0.5252075654
O  O53  1  0.20491000  0.64998000  0.91240000  1.0 -0.5073118668
O  O54  1  0.80799000  0.39259000  0.67988000  1.0 -0.5395359557
O  O55  1  0.72281000  0.53165000  0.57390000  1.0 -0.5073118668
O  O56  1  0.03781000  0.21634000  0.07923000  1.0 -0.5252075654
O  O57  1  0.54788000  0.74913000  0.59225000  1.0 -0.4429989816
O  O58  1  0.69314000  0.41918000  0.64697000  1.0 -0.5073118668
O  O59  1  0.95769000  0.27429000  0.96614000  1.0 -0.5661089879
O  O60  1  0.38040000  0.41460000  0.08290000  1.0 -0.3291658026
O  O61  1  0.47532000  0.49120000  0.79275000  1.0 -0.4498684567
O  O62  1  0.97390000  0.12180000  0.99980000  1.0 -0.0719993486
O  O63  1  0.25300000  0.04500000  0.09140000  1.0 -0.4689520957
O  O64  1  0.50680000  0.08060000  0.61450000  1.0 -0.3401761301
O  O65  1  0.40110000  0.13640000  0.57640000  1.0 -0.3291658026
O  O66  1  0.60340000  0.83910000  0.21100000  1.0 -0.3401761301
O  O67  1  0.55490000  0.95290000  0.22880000  1.0 -0.3699652841
O  O68  1  0.99820000  0.11480000  0.00410000  1.0 -0.2015117816
