# DDEC6 charges by PACMAN v1.1 (https://github.com/mtap-research/PACMAN-charge/)
data_YOYCEV_ASR_pacman
_symmetry_space_group_name_H-M   'P 1'
_cell_length_a   24.66630000
_cell_length_b   24.66630000
_cell_length_c   17.63140000
_cell_angle_alpha   90.00000000
_cell_angle_beta   90.00000000
_cell_angle_gamma   90.00000000
_symmetry_Int_Tables_number   1
_chemical_formula_structural   KSi2Ni2H72C32(N5O3)2
_chemical_formula_sum   'K8 Si16 Ni16 H576 C256 N80 O48'
_cell_volume   10727.40844771
_cell_formula_units_Z   8
loop_
 _symmetry_equiv_pos_site_id
 _symmetry_equiv_pos_as_xyz
  1  'x, y, z'
loop_
 _atom_site_type_symbol
 _atom_site_label
 _atom_site_symmetry_multiplicity
 _atom_site_fract_x
 _atom_site_fract_y
 _atom_site_fract_z
 _atom_site_occupancy
 _atom_site_charge
K  K1  1  0.25000000  0.79833000  0.87500000  1.0 0.8995681986
K  K2  1  0.75000000  0.20167000  0.87500000  1.0 0.8995681986
K  K3  1  0.79833000  0.75000000  0.12500000  1.0 0.8995681986
K  K4  1  0.20167000  0.25000000  0.12500000  1.0 0.8995681986
K  K5  1  0.70167000  0.75000000  0.62500000  1.0 0.8995681986
K  K6  1  0.29833000  0.25000000  0.62500000  1.0 0.8995681986
K  K7  1  0.75000000  0.29833000  0.37500000  1.0 0.8995681986
K  K8  1  0.25000000  0.70167000  0.37500000  1.0 0.8995681986
Si  Si1  1  0.32880000  0.01184000  0.16500000  1.0 1.1406520515
Si  Si2  1  0.67120000  0.98816000  0.16500000  1.0 1.1406520515
Si  Si3  1  0.01184000  0.67120000  0.83500000  1.0 1.1406520515
Si  Si4  1  0.98816000  0.32880000  0.83500000  1.0 1.1406520515
Si  Si5  1  0.17120000  0.01184000  0.58500000  1.0 1.1406520515
Si  Si6  1  0.82880000  0.98816000  0.58500000  1.0 1.1406520515
Si  Si7  1  0.48816000  0.67120000  0.91500000  1.0 1.1406520515
Si  Si8  1  0.51184000  0.32880000  0.91500000  1.0 1.1406520515
Si  Si9  1  0.82880000  0.51184000  0.66500000  1.0 1.1406520515
Si  Si10  1  0.17120000  0.48816000  0.66500000  1.0 1.1406520515
Si  Si11  1  0.51184000  0.17120000  0.33500000  1.0 1.1406520515
Si  Si12  1  0.48816000  0.82880000  0.33500000  1.0 1.1406520515
Si  Si13  1  0.67120000  0.51184000  0.08500000  1.0 1.1406520515
Si  Si14  1  0.32880000  0.48816000  0.08500000  1.0 1.1406520515
Si  Si15  1  0.98816000  0.17120000  0.41500000  1.0 1.1406520515
Si  Si16  1  0.01184000  0.82880000  0.41500000  1.0 1.1406520515
Ni  Ni1  1  0.25915000  0.01862000  0.02529000  1.0 0.4996602893
Ni  Ni2  1  0.74085000  0.98138000  0.02529000  1.0 0.4996602893
Ni  Ni3  1  0.01862000  0.74085000  0.97471000  1.0 0.4996602893
Ni  Ni4  1  0.98138000  0.25915000  0.97471000  1.0 0.4996602893
Ni  Ni5  1  0.24085000  0.01862000  0.72471000  1.0 0.4996602893
Ni  Ni6  1  0.75915000  0.98138000  0.72471000  1.0 0.4996602893
Ni  Ni7  1  0.48138000  0.74085000  0.77529000  1.0 0.4996602893
Ni  Ni8  1  0.51862000  0.25915000  0.77529000  1.0 0.4996602893
Ni  Ni9  1  0.75915000  0.51862000  0.52529000  1.0 0.4996602893
Ni  Ni10  1  0.24085000  0.48138000  0.52529000  1.0 0.4996602893
Ni  Ni11  1  0.51862000  0.24085000  0.47471000  1.0 0.4996602893
Ni  Ni12  1  0.48138000  0.75915000  0.47471000  1.0 0.4996602893
Ni  Ni13  1  0.74085000  0.51862000  0.22471000  1.0 0.4996602893
Ni  Ni14  1  0.25915000  0.48138000  0.22471000  1.0 0.4996602893
Ni  Ni15  1  0.98138000  0.24085000  0.27529000  1.0 0.4996602893
Ni  Ni16  1  0.01862000  0.75915000  0.27529000  1.0 0.4996602893
H  H1  1  0.35660000  0.96030000  0.01540000  1.0 0.284202766
H  H2  1  0.64340000  0.03970000  0.01540000  1.0 0.284202766
H  H3  1  0.96030000  0.64340000  0.98460000  1.0 0.284202766
H  H4  1  0.03970000  0.35660000  0.98460000  1.0 0.284202766
H  H5  1  0.14340000  0.96030000  0.73460000  1.0 0.284202766
H  H6  1  0.85660000  0.03970000  0.73460000  1.0 0.284202766
H  H7  1  0.53970000  0.64340000  0.76540000  1.0 0.284202766
H  H8  1  0.46030000  0.35660000  0.76540000  1.0 0.284202766
H  H9  1  0.85660000  0.46030000  0.51540000  1.0 0.284202766
H  H10  1  0.14340000  0.53970000  0.51540000  1.0 0.284202766
H  H11  1  0.46030000  0.14340000  0.48460000  1.0 0.284202766
H  H12  1  0.53970000  0.85660000  0.48460000  1.0 0.284202766
H  H13  1  0.64340000  0.46030000  0.23460000  1.0 0.284202766
H  H14  1  0.35660000  0.53970000  0.23460000  1.0 0.284202766
H  H15  1  0.03970000  0.14340000  0.26540000  1.0 0.284202766
H  H16  1  0.96030000  0.85660000  0.26540000  1.0 0.284202766
H  H17  1  0.33830000  0.09670000  0.03630000  1.0 0.2862762272
H  H18  1  0.66170000  0.90330000  0.03630000  1.0 0.2862762272
H  H19  1  0.09670000  0.66170000  0.96370000  1.0 0.2862762272
H  H20  1  0.90330000  0.33830000  0.96370000  1.0 0.2862762272
H  H21  1  0.16170000  0.09670000  0.71370000  1.0 0.2862762272
H  H22  1  0.83830000  0.90330000  0.71370000  1.0 0.2862762272
H  H23  1  0.40330000  0.66170000  0.78630000  1.0 0.2862762272
H  H24  1  0.59670000  0.33830000  0.78630000  1.0 0.2862762272
H  H25  1  0.83830000  0.59670000  0.53630000  1.0 0.2862762272
H  H26  1  0.16170000  0.40330000  0.53630000  1.0 0.2862762272
H  H27  1  0.59670000  0.16170000  0.46370000  1.0 0.2862762272
H  H28  1  0.40330000  0.83830000  0.46370000  1.0 0.2862762272
H  H29  1  0.66170000  0.59670000  0.21370000  1.0 0.2862762272
H  H30  1  0.33830000  0.40330000  0.21370000  1.0 0.2862762272
H  H31  1  0.90330000  0.16170000  0.28630000  1.0 0.2862762272
H  H32  1  0.09670000  0.83830000  0.28630000  1.0 0.2862762272
H  H33  1  0.13380000  0.95040000  0.97590000  1.0 0.1230748579
H  H34  1  0.86620000  0.04960000  0.97590000  1.0 0.1230748579
H  H35  1  0.95040000  0.86620000  0.02410000  1.0 0.1230748579
H  H36  1  0.04960000  0.13380000  0.02410000  1.0 0.1230748579
H  H37  1  0.36620000  0.95040000  0.77410000  1.0 0.1230748579
H  H38  1  0.63380000  0.04960000  0.77410000  1.0 0.1230748579
H  H39  1  0.54960000  0.86620000  0.72590000  1.0 0.1230748579
H  H40  1  0.45040000  0.13380000  0.72590000  1.0 0.1230748579
H  H41  1  0.63380000  0.45040000  0.47590000  1.0 0.1230748579
H  H42  1  0.36620000  0.54960000  0.47590000  1.0 0.1230748579
H  H43  1  0.45040000  0.36620000  0.52410000  1.0 0.1230748579
H  H44  1  0.54960000  0.63380000  0.52410000  1.0 0.1230748579
H  H45  1  0.86620000  0.45040000  0.27410000  1.0 0.1230748579
H  H46  1  0.13380000  0.54960000  0.27410000  1.0 0.1230748579
H  H47  1  0.04960000  0.36620000  0.22590000  1.0 0.1230748579
H  H48  1  0.95040000  0.63380000  0.22590000  1.0 0.1230748579
H  H49  1  0.16150000  0.95170000  0.05820000  1.0 0.1272010624
H  H50  1  0.83850000  0.04830000  0.05820000  1.0 0.1272010624
H  H51  1  0.95170000  0.83850000  0.94180000  1.0 0.1272010624
H  H52  1  0.04830000  0.16150000  0.94180000  1.0 0.1272010624
H  H53  1  0.33850000  0.95170000  0.69180000  1.0 0.1272010624
H  H54  1  0.66150000  0.04830000  0.69180000  1.0 0.1272010624
H  H55  1  0.54830000  0.83850000  0.80820000  1.0 0.1272010624
H  H56  1  0.45170000  0.16150000  0.80820000  1.0 0.1272010624
H  H57  1  0.66150000  0.45170000  0.55820000  1.0 0.1272010624
H  H58  1  0.33850000  0.54830000  0.55820000  1.0 0.1272010624
H  H59  1  0.45170000  0.33850000  0.44180000  1.0 0.1272010624
H  H60  1  0.54830000  0.66150000  0.44180000  1.0 0.1272010624
H  H61  1  0.83850000  0.45170000  0.19180000  1.0 0.1272010624
H  H62  1  0.16150000  0.54830000  0.19180000  1.0 0.1272010624
H  H63  1  0.04830000  0.33850000  0.30820000  1.0 0.1272010624
H  H64  1  0.95170000  0.66150000  0.30820000  1.0 0.1272010624
H  H65  1  0.20750000  0.88350000  0.99840000  1.0 0.1041090883
H  H66  1  0.79250000  0.11650000  0.99840000  1.0 0.1041090883
H  H67  1  0.88350000  0.79250000  0.00160000  1.0 0.1041090883
H  H68  1  0.11650000  0.20750000  0.00160000  1.0 0.1041090883
H  H69  1  0.29250000  0.88350000  0.75160000  1.0 0.1041090883
H  H70  1  0.70750000  0.11650000  0.75160000  1.0 0.1041090883
H  H71  1  0.61650000  0.79250000  0.74840000  1.0 0.1041090883
H  H72  1  0.38350000  0.20750000  0.74840000  1.0 0.1041090883
H  H73  1  0.70750000  0.38350000  0.49840000  1.0 0.1041090883
H  H74  1  0.29250000  0.61650000  0.49840000  1.0 0.1041090883
H  H75  1  0.38350000  0.29250000  0.50160000  1.0 0.1041090883
H  H76  1  0.61650000  0.70750000  0.50160000  1.0 0.1041090883
H  H77  1  0.79250000  0.38350000  0.25160000  1.0 0.1041090883
H  H78  1  0.20750000  0.61650000  0.25160000  1.0 0.1041090883
H  H79  1  0.11650000  0.29250000  0.24840000  1.0 0.1041090883
H  H80  1  0.88350000  0.70750000  0.24840000  1.0 0.1041090883
H  H81  1  0.21030000  0.91640000  0.91970000  1.0 0.0934845567
H  H82  1  0.78970000  0.08360000  0.91970000  1.0 0.0934845567
H  H83  1  0.91640000  0.78970000  0.08030000  1.0 0.0934845567
H  H84  1  0.08360000  0.21030000  0.08030000  1.0 0.0934845567
H  H85  1  0.28970000  0.91640000  0.83030000  1.0 0.0934845567
H  H86  1  0.71030000  0.08360000  0.83030000  1.0 0.0934845567
H  H87  1  0.58360000  0.78970000  0.66970000  1.0 0.0934845567
H  H88  1  0.41640000  0.21030000  0.66970000  1.0 0.0934845567
H  H89  1  0.71030000  0.41640000  0.41970000  1.0 0.0934845567
H  H90  1  0.28970000  0.58360000  0.41970000  1.0 0.0934845567
H  H91  1  0.41640000  0.28970000  0.58030000  1.0 0.0934845567
H  H92  1  0.58360000  0.71030000  0.58030000  1.0 0.0934845567
H  H93  1  0.78970000  0.41640000  0.33030000  1.0 0.0934845567
H  H94  1  0.21030000  0.58360000  0.33030000  1.0 0.0934845567
H  H95  1  0.08360000  0.28970000  0.16970000  1.0 0.0934845567
H  H96  1  0.91640000  0.71030000  0.16970000  1.0 0.0934845567
H  H97  1  0.40150000  0.87330000  0.94940000  1.0 0.0622678715
H  H98  1  0.59850000  0.12670000  0.94940000  1.0 0.0622678715
H  H99  1  0.87330000  0.59850000  0.05060000  1.0 0.0622678715
H  H100  1  0.12670000  0.40150000  0.05060000  1.0 0.0622678715
H  H101  1  0.09850000  0.87330000  0.80060000  1.0 0.0622678715
H  H102  1  0.90150000  0.12670000  0.80060000  1.0 0.0622678715
H  H103  1  0.62670000  0.59850000  0.69940000  1.0 0.0622678715
H  H104  1  0.37330000  0.40150000  0.69940000  1.0 0.0622678715
H  H105  1  0.90150000  0.37330000  0.44940000  1.0 0.0622678715
H  H106  1  0.09850000  0.62670000  0.44940000  1.0 0.0622678715
H  H107  1  0.37330000  0.09850000  0.55060000  1.0 0.0622678715
H  H108  1  0.62670000  0.90150000  0.55060000  1.0 0.0622678715
H  H109  1  0.59850000  0.37330000  0.30060000  1.0 0.0622678715
H  H110  1  0.40150000  0.62670000  0.30060000  1.0 0.0622678715
H  H111  1  0.12670000  0.09850000  0.19940000  1.0 0.0622678715
H  H112  1  0.87330000  0.90150000  0.19940000  1.0 0.0622678715
H  H113  1  0.39060000  0.84870000  0.07740000  1.0 0.1505857812
H  H114  1  0.60940000  0.15130000  0.07740000  1.0 0.1505857812
H  H115  1  0.84870000  0.60940000  0.92260000  1.0 0.1505857812
H  H116  1  0.15130000  0.39060000  0.92260000  1.0 0.1505857812
H  H117  1  0.10940000  0.84870000  0.67260000  1.0 0.1505857812
H  H118  1  0.89060000  0.15130000  0.67260000  1.0 0.1505857812
H  H119  1  0.65130000  0.60940000  0.82740000  1.0 0.1505857812
H  H120  1  0.34870000  0.39060000  0.82740000  1.0 0.1505857812
H  H121  1  0.89060000  0.34870000  0.57740000  1.0 0.1505857812
H  H122  1  0.10940000  0.65130000  0.57740000  1.0 0.1505857812
H  H123  1  0.34870000  0.10940000  0.42260000  1.0 0.1505857812
H  H124  1  0.65130000  0.89060000  0.42260000  1.0 0.1505857812
H  H125  1  0.60940000  0.34870000  0.17260000  1.0 0.1505857812
H  H126  1  0.39060000  0.65130000  0.17260000  1.0 0.1505857812
H  H127  1  0.15130000  0.10940000  0.32740000  1.0 0.1505857812
H  H128  1  0.84870000  0.89060000  0.32740000  1.0 0.1505857812
H  H129  1  0.42640000  0.89970000  0.10300000  1.0 0.1387881664
H  H130  1  0.57360000  0.10030000  0.10300000  1.0 0.1387881664
H  H131  1  0.89970000  0.57360000  0.89700000  1.0 0.1387881664
H  H132  1  0.10030000  0.42640000  0.89700000  1.0 0.1387881664
H  H133  1  0.07360000  0.89970000  0.64700000  1.0 0.1387881664
H  H134  1  0.92640000  0.10030000  0.64700000  1.0 0.1387881664
H  H135  1  0.60030000  0.57360000  0.85300000  1.0 0.1387881664
H  H136  1  0.39970000  0.42640000  0.85300000  1.0 0.1387881664
H  H137  1  0.92640000  0.39970000  0.60300000  1.0 0.1387881664
H  H138  1  0.07360000  0.60030000  0.60300000  1.0 0.1387881664
H  H139  1  0.39970000  0.07360000  0.39700000  1.0 0.1387881664
H  H140  1  0.60030000  0.92640000  0.39700000  1.0 0.1387881664
H  H141  1  0.57360000  0.39970000  0.14700000  1.0 0.1387881664
H  H142  1  0.42640000  0.60030000  0.14700000  1.0 0.1387881664
H  H143  1  0.10030000  0.07360000  0.35300000  1.0 0.1387881664
H  H144  1  0.89970000  0.92640000  0.35300000  1.0 0.1387881664
H  H145  1  0.45360000  0.85130000  0.05600000  1.0 0.1387881664
H  H146  1  0.54640000  0.14870000  0.05600000  1.0 0.1387881664
H  H147  1  0.85130000  0.54640000  0.94400000  1.0 0.1387881664
H  H148  1  0.14870000  0.45360000  0.94400000  1.0 0.1387881664
H  H149  1  0.04640000  0.85130000  0.69400000  1.0 0.1387881664
H  H150  1  0.95360000  0.14870000  0.69400000  1.0 0.1387881664
H  H151  1  0.64870000  0.54640000  0.80600000  1.0 0.1387881664
H  H152  1  0.35130000  0.45360000  0.80600000  1.0 0.1387881664
H  H153  1  0.95360000  0.35130000  0.55600000  1.0 0.1387881664
H  H154  1  0.04640000  0.64870000  0.55600000  1.0 0.1387881664
H  H155  1  0.35130000  0.04640000  0.44400000  1.0 0.1387881664
H  H156  1  0.64870000  0.95360000  0.44400000  1.0 0.1387881664
H  H157  1  0.54640000  0.35130000  0.19400000  1.0 0.1387881664
H  H158  1  0.45360000  0.64870000  0.19400000  1.0 0.1387881664
H  H159  1  0.14870000  0.04640000  0.30600000  1.0 0.1387881664
H  H160  1  0.85130000  0.95360000  0.30600000  1.0 0.1387881664
H  H161  1  0.44070000  0.95680000  0.91640000  1.0 0.1272010624
H  H162  1  0.55930000  0.04320000  0.91640000  1.0 0.1272010624
H  H163  1  0.95680000  0.55930000  0.08360000  1.0 0.1272010624
H  H164  1  0.04320000  0.44070000  0.08360000  1.0 0.1272010624
H  H165  1  0.05930000  0.95680000  0.83360000  1.0 0.1272010624
H  H166  1  0.94070000  0.04320000  0.83360000  1.0 0.1272010624
H  H167  1  0.54320000  0.55930000  0.66640000  1.0 0.1272010624
H  H168  1  0.45680000  0.44070000  0.66640000  1.0 0.1272010624
H  H169  1  0.94070000  0.45680000  0.41640000  1.0 0.1272010624
H  H170  1  0.05930000  0.54320000  0.41640000  1.0 0.1272010624
H  H171  1  0.45680000  0.05930000  0.58360000  1.0 0.1272010624
H  H172  1  0.54320000  0.94070000  0.58360000  1.0 0.1272010624
H  H173  1  0.55930000  0.45680000  0.33360000  1.0 0.1272010624
H  H174  1  0.44070000  0.54320000  0.33360000  1.0 0.1272010624
H  H175  1  0.04320000  0.05930000  0.16640000  1.0 0.1272010624
H  H176  1  0.95680000  0.94070000  0.16640000  1.0 0.1272010624
H  H177  1  0.48470000  0.91840000  0.95610000  1.0 0.1387881664
H  H178  1  0.51530000  0.08160000  0.95610000  1.0 0.1387881664
H  H179  1  0.91840000  0.51530000  0.04390000  1.0 0.1387881664
H  H180  1  0.08160000  0.48470000  0.04390000  1.0 0.1387881664
H  H181  1  0.01530000  0.91840000  0.79390000  1.0 0.1387881664
H  H182  1  0.98470000  0.08160000  0.79390000  1.0 0.1387881664
H  H183  1  0.58160000  0.51530000  0.70610000  1.0 0.1387881664
H  H184  1  0.41840000  0.48470000  0.70610000  1.0 0.1387881664
H  H185  1  0.98470000  0.41840000  0.45610000  1.0 0.1387881664
H  H186  1  0.01530000  0.58160000  0.45610000  1.0 0.1387881664
H  H187  1  0.41840000  0.01530000  0.54390000  1.0 0.1387881664
H  H188  1  0.58160000  0.98470000  0.54390000  1.0 0.1387881664
H  H189  1  0.51530000  0.41840000  0.29390000  1.0 0.1387881664
H  H190  1  0.48470000  0.58160000  0.29390000  1.0 0.1387881664
H  H191  1  0.08160000  0.01530000  0.20610000  1.0 0.1387881664
H  H192  1  0.91840000  0.98470000  0.20610000  1.0 0.1387881664
H  H193  1  0.45750000  0.96690000  0.00300000  1.0 0.1505857812
H  H194  1  0.54250000  0.03310000  0.00300000  1.0 0.1505857812
H  H195  1  0.96690000  0.54250000  0.99700000  1.0 0.1505857812
H  H196  1  0.03310000  0.45750000  0.99700000  1.0 0.1505857812
H  H197  1  0.04250000  0.96690000  0.74700000  1.0 0.1505857812
H  H198  1  0.95750000  0.03310000  0.74700000  1.0 0.1505857812
H  H199  1  0.53310000  0.54250000  0.75300000  1.0 0.1505857812
H  H200  1  0.46690000  0.45750000  0.75300000  1.0 0.1505857812
H  H201  1  0.95750000  0.46690000  0.50300000  1.0 0.1505857812
H  H202  1  0.04250000  0.53310000  0.50300000  1.0 0.1505857812
H  H203  1  0.46690000  0.04250000  0.49700000  1.0 0.1505857812
H  H204  1  0.53310000  0.95750000  0.49700000  1.0 0.1505857812
H  H205  1  0.54250000  0.46690000  0.24700000  1.0 0.1505857812
H  H206  1  0.45750000  0.53310000  0.24700000  1.0 0.1505857812
H  H207  1  0.03310000  0.04250000  0.25300000  1.0 0.1505857812
H  H208  1  0.96690000  0.95750000  0.25300000  1.0 0.1505857812
H  H209  1  0.15470000  0.03840000  0.09280000  1.0 0.1272010624
H  H210  1  0.84530000  0.96160000  0.09280000  1.0 0.1272010624
H  H211  1  0.03840000  0.84530000  0.90720000  1.0 0.1272010624
H  H212  1  0.96160000  0.15470000  0.90720000  1.0 0.1272010624
H  H213  1  0.34530000  0.03840000  0.65720000  1.0 0.1272010624
H  H214  1  0.65470000  0.96160000  0.65720000  1.0 0.1272010624
H  H215  1  0.46160000  0.84530000  0.84280000  1.0 0.1272010624
H  H216  1  0.53840000  0.15470000  0.84280000  1.0 0.1272010624
H  H217  1  0.65470000  0.53840000  0.59280000  1.0 0.1272010624
H  H218  1  0.34530000  0.46160000  0.59280000  1.0 0.1272010624
H  H219  1  0.53840000  0.34530000  0.40720000  1.0 0.1272010624
H  H220  1  0.46160000  0.65470000  0.40720000  1.0 0.1272010624
H  H221  1  0.84530000  0.53840000  0.15720000  1.0 0.1272010624
H  H222  1  0.15470000  0.46160000  0.15720000  1.0 0.1272010624
H  H223  1  0.96160000  0.34530000  0.34280000  1.0 0.1272010624
H  H224  1  0.03840000  0.65470000  0.34280000  1.0 0.1272010624
H  H225  1  0.11820000  0.05740000  0.02220000  1.0 0.1230748579
H  H226  1  0.88180000  0.94260000  0.02220000  1.0 0.1230748579
H  H227  1  0.05740000  0.88180000  0.97780000  1.0 0.1230748579
H  H228  1  0.94260000  0.11820000  0.97780000  1.0 0.1230748579
H  H229  1  0.38180000  0.05740000  0.72780000  1.0 0.1230748579
H  H230  1  0.61820000  0.94260000  0.72780000  1.0 0.1230748579
H  H231  1  0.44260000  0.88180000  0.77220000  1.0 0.1230748579
H  H232  1  0.55740000  0.11820000  0.77220000  1.0 0.1230748579
H  H233  1  0.61820000  0.55740000  0.52220000  1.0 0.1230748579
H  H234  1  0.38180000  0.44260000  0.52220000  1.0 0.1230748579
H  H235  1  0.55740000  0.38180000  0.47780000  1.0 0.1230748579
H  H236  1  0.44260000  0.61820000  0.47780000  1.0 0.1230748579
H  H237  1  0.88180000  0.55740000  0.22780000  1.0 0.1230748579
H  H238  1  0.11820000  0.44260000  0.22780000  1.0 0.1230748579
H  H239  1  0.94260000  0.38180000  0.27220000  1.0 0.1230748579
H  H240  1  0.05740000  0.61820000  0.27220000  1.0 0.1230748579
H  H241  1  0.17520000  0.12750000  0.99330000  1.0 0.1041090883
H  H242  1  0.82480000  0.87250000  0.99330000  1.0 0.1041090883
H  H243  1  0.12750000  0.82480000  0.00670000  1.0 0.1041090883
H  H244  1  0.87250000  0.17520000  0.00670000  1.0 0.1041090883
H  H245  1  0.32480000  0.12750000  0.75670000  1.0 0.1041090883
H  H246  1  0.67520000  0.87250000  0.75670000  1.0 0.1041090883
H  H247  1  0.37250000  0.82480000  0.74330000  1.0 0.1041090883
H  H248  1  0.62750000  0.17520000  0.74330000  1.0 0.1041090883
H  H249  1  0.67520000  0.62750000  0.49330000  1.0 0.1041090883
H  H250  1  0.32480000  0.37250000  0.49330000  1.0 0.1041090883
H  H251  1  0.62750000  0.32480000  0.50670000  1.0 0.1041090883
H  H252  1  0.37250000  0.67520000  0.50670000  1.0 0.1041090883
H  H253  1  0.82480000  0.62750000  0.25670000  1.0 0.1041090883
H  H254  1  0.17520000  0.37250000  0.25670000  1.0 0.1041090883
H  H255  1  0.87250000  0.32480000  0.24330000  1.0 0.1041090883
H  H256  1  0.12750000  0.67520000  0.24330000  1.0 0.1041090883
H  H257  1  0.17600000  0.12820000  0.08450000  1.0 0.1085071325
H  H258  1  0.82400000  0.87180000  0.08450000  1.0 0.1085071325
H  H259  1  0.12820000  0.82400000  0.91550000  1.0 0.1085071325
H  H260  1  0.87180000  0.17600000  0.91550000  1.0 0.1085071325
H  H261  1  0.32400000  0.12820000  0.66550000  1.0 0.1085071325
H  H262  1  0.67600000  0.87180000  0.66550000  1.0 0.1085071325
H  H263  1  0.37180000  0.82400000  0.83450000  1.0 0.1085071325
H  H264  1  0.62820000  0.17600000  0.83450000  1.0 0.1085071325
H  H265  1  0.67600000  0.62820000  0.58450000  1.0 0.1085071325
H  H266  1  0.32400000  0.37180000  0.58450000  1.0 0.1085071325
H  H267  1  0.62820000  0.32400000  0.41550000  1.0 0.1085071325
H  H268  1  0.37180000  0.67600000  0.41550000  1.0 0.1085071325
H  H269  1  0.82400000  0.62820000  0.16550000  1.0 0.1085071325
H  H270  1  0.17600000  0.37180000  0.16550000  1.0 0.1085071325
H  H271  1  0.87180000  0.32400000  0.33450000  1.0 0.1085071325
H  H272  1  0.12820000  0.67600000  0.33450000  1.0 0.1085071325
H  H273  1  0.35510000  0.20580000  0.02750000  1.0 0.0811412129
H  H274  1  0.64490000  0.79420000  0.02750000  1.0 0.0811412129
H  H275  1  0.20580000  0.64490000  0.97250000  1.0 0.0811412129
H  H276  1  0.79420000  0.35510000  0.97250000  1.0 0.0811412129
H  H277  1  0.14490000  0.20580000  0.72250000  1.0 0.0811412129
H  H278  1  0.85510000  0.79420000  0.72250000  1.0 0.0811412129
H  H279  1  0.29420000  0.64490000  0.77750000  1.0 0.0811412129
H  H280  1  0.70580000  0.35510000  0.77750000  1.0 0.0811412129
H  H281  1  0.85510000  0.70580000  0.52750000  1.0 0.0811412129
H  H282  1  0.14490000  0.29420000  0.52750000  1.0 0.0811412129
H  H283  1  0.70580000  0.14490000  0.47250000  1.0 0.0811412129
H  H284  1  0.29420000  0.85510000  0.47250000  1.0 0.0811412129
H  H285  1  0.64490000  0.70580000  0.22250000  1.0 0.0811412129
H  H286  1  0.35510000  0.29420000  0.22250000  1.0 0.0811412129
H  H287  1  0.79420000  0.14490000  0.27750000  1.0 0.0811412129
H  H288  1  0.20580000  0.85510000  0.27750000  1.0 0.0811412129
H  H289  1  0.38190000  0.17290000  0.14490000  1.0 0.1387881664
H  H290  1  0.61810000  0.82710000  0.14490000  1.0 0.1387881664
H  H291  1  0.17290000  0.61810000  0.85510000  1.0 0.1387881664
H  H292  1  0.82710000  0.38190000  0.85510000  1.0 0.1387881664
H  H293  1  0.11810000  0.17290000  0.60510000  1.0 0.1387881664
H  H294  1  0.88190000  0.82710000  0.60510000  1.0 0.1387881664
H  H295  1  0.32710000  0.61810000  0.89490000  1.0 0.1387881664
H  H296  1  0.67290000  0.38190000  0.89490000  1.0 0.1387881664
H  H297  1  0.88190000  0.67290000  0.64490000  1.0 0.1387881664
H  H298  1  0.11810000  0.32710000  0.64490000  1.0 0.1387881664
H  H299  1  0.67290000  0.11810000  0.35510000  1.0 0.1387881664
H  H300  1  0.32710000  0.88190000  0.35510000  1.0 0.1387881664
H  H301  1  0.61810000  0.67290000  0.10510000  1.0 0.1387881664
H  H302  1  0.38190000  0.32710000  0.10510000  1.0 0.1387881664
H  H303  1  0.82710000  0.11810000  0.39490000  1.0 0.1387881664
H  H304  1  0.17290000  0.88190000  0.39490000  1.0 0.1387881664
H  H305  1  0.43360000  0.19200000  0.09690000  1.0 0.1387881664
H  H306  1  0.56640000  0.80800000  0.09690000  1.0 0.1387881664
H  H307  1  0.19200000  0.56640000  0.90310000  1.0 0.1387881664
H  H308  1  0.80800000  0.43360000  0.90310000  1.0 0.1387881664
H  H309  1  0.06640000  0.19200000  0.65310000  1.0 0.1387881664
H  H310  1  0.93360000  0.80800000  0.65310000  1.0 0.1387881664
H  H311  1  0.30800000  0.56640000  0.84690000  1.0 0.1387881664
H  H312  1  0.69200000  0.43360000  0.84690000  1.0 0.1387881664
H  H313  1  0.93360000  0.69200000  0.59690000  1.0 0.1387881664
H  H314  1  0.06640000  0.30800000  0.59690000  1.0 0.1387881664
H  H315  1  0.69200000  0.06640000  0.40310000  1.0 0.1387881664
H  H316  1  0.30800000  0.93360000  0.40310000  1.0 0.1387881664
H  H317  1  0.56640000  0.69200000  0.15310000  1.0 0.1387881664
H  H318  1  0.43360000  0.30800000  0.15310000  1.0 0.1387881664
H  H319  1  0.80800000  0.06640000  0.34690000  1.0 0.1387881664
H  H320  1  0.19200000  0.93360000  0.34690000  1.0 0.1387881664
H  H321  1  0.41970000  0.12880000  0.10420000  1.0 0.1387881664
H  H322  1  0.58030000  0.87120000  0.10420000  1.0 0.1387881664
H  H323  1  0.12880000  0.58030000  0.89580000  1.0 0.1387881664
H  H324  1  0.87120000  0.41970000  0.89580000  1.0 0.1387881664
H  H325  1  0.08030000  0.12880000  0.64580000  1.0 0.1387881664
H  H326  1  0.91970000  0.87120000  0.64580000  1.0 0.1387881664
H  H327  1  0.37120000  0.58030000  0.85420000  1.0 0.1387881664
H  H328  1  0.62880000  0.41970000  0.85420000  1.0 0.1387881664
H  H329  1  0.91970000  0.62880000  0.60420000  1.0 0.1387881664
H  H330  1  0.08030000  0.37120000  0.60420000  1.0 0.1387881664
H  H331  1  0.62880000  0.08030000  0.39580000  1.0 0.1387881664
H  H332  1  0.37120000  0.91970000  0.39580000  1.0 0.1387881664
H  H333  1  0.58030000  0.62880000  0.14580000  1.0 0.1387881664
H  H334  1  0.41970000  0.37120000  0.14580000  1.0 0.1387881664
H  H335  1  0.87120000  0.08030000  0.35420000  1.0 0.1387881664
H  H336  1  0.12880000  0.91970000  0.35420000  1.0 0.1387881664
H  H337  1  0.39260000  0.15710000  0.91220000  1.0 0.1387881664
H  H338  1  0.60740000  0.84290000  0.91220000  1.0 0.1387881664
H  H339  1  0.15710000  0.60740000  0.08780000  1.0 0.1387881664
H  H340  1  0.84290000  0.39260000  0.08780000  1.0 0.1387881664
H  H341  1  0.10740000  0.15710000  0.83780000  1.0 0.1387881664
H  H342  1  0.89260000  0.84290000  0.83780000  1.0 0.1387881664
H  H343  1  0.34290000  0.60740000  0.66220000  1.0 0.1387881664
H  H344  1  0.65710000  0.39260000  0.66220000  1.0 0.1387881664
H  H345  1  0.89260000  0.65710000  0.41220000  1.0 0.1387881664
H  H346  1  0.10740000  0.34290000  0.41220000  1.0 0.1387881664
H  H347  1  0.65710000  0.10740000  0.58780000  1.0 0.1387881664
H  H348  1  0.34290000  0.89260000  0.58780000  1.0 0.1387881664
H  H349  1  0.60740000  0.65710000  0.33780000  1.0 0.1387881664
H  H350  1  0.39260000  0.34290000  0.33780000  1.0 0.1387881664
H  H351  1  0.84290000  0.10740000  0.16220000  1.0 0.1387881664
H  H352  1  0.15710000  0.89260000  0.16220000  1.0 0.1387881664
H  H353  1  0.42860000  0.11940000  0.96610000  1.0 0.1387881664
H  H354  1  0.57140000  0.88060000  0.96610000  1.0 0.1387881664
H  H355  1  0.11940000  0.57140000  0.03390000  1.0 0.1387881664
H  H356  1  0.88060000  0.42860000  0.03390000  1.0 0.1387881664
H  H357  1  0.07140000  0.11940000  0.78390000  1.0 0.1387881664
H  H358  1  0.92860000  0.88060000  0.78390000  1.0 0.1387881664
H  H359  1  0.38060000  0.57140000  0.71610000  1.0 0.1387881664
H  H360  1  0.61940000  0.42860000  0.71610000  1.0 0.1387881664
H  H361  1  0.92860000  0.61940000  0.46610000  1.0 0.1387881664
H  H362  1  0.07140000  0.38060000  0.46610000  1.0 0.1387881664
H  H363  1  0.61940000  0.07140000  0.53390000  1.0 0.1387881664
H  H364  1  0.38060000  0.92860000  0.53390000  1.0 0.1387881664
H  H365  1  0.57140000  0.61940000  0.28390000  1.0 0.1387881664
H  H366  1  0.42860000  0.38060000  0.28390000  1.0 0.1387881664
H  H367  1  0.88060000  0.07140000  0.21610000  1.0 0.1387881664
H  H368  1  0.11940000  0.92860000  0.21610000  1.0 0.1387881664
H  H369  1  0.44190000  0.18270000  0.95890000  1.0 0.1387881664
H  H370  1  0.55810000  0.81730000  0.95890000  1.0 0.1387881664
H  H371  1  0.18270000  0.55810000  0.04110000  1.0 0.1387881664
H  H372  1  0.81730000  0.44190000  0.04110000  1.0 0.1387881664
H  H373  1  0.05810000  0.18270000  0.79110000  1.0 0.1387881664
H  H374  1  0.94190000  0.81730000  0.79110000  1.0 0.1387881664
H  H375  1  0.31730000  0.55810000  0.70890000  1.0 0.1387881664
H  H376  1  0.68270000  0.44190000  0.70890000  1.0 0.1387881664
H  H377  1  0.94190000  0.68270000  0.45890000  1.0 0.1387881664
H  H378  1  0.05810000  0.31730000  0.45890000  1.0 0.1387881664
H  H379  1  0.68270000  0.05810000  0.54110000  1.0 0.1387881664
H  H380  1  0.31730000  0.94190000  0.54110000  1.0 0.1387881664
H  H381  1  0.55810000  0.68270000  0.29110000  1.0 0.1387881664
H  H382  1  0.44190000  0.31730000  0.29110000  1.0 0.1387881664
H  H383  1  0.81730000  0.05810000  0.20890000  1.0 0.1387881664
H  H384  1  0.18270000  0.94190000  0.20890000  1.0 0.1387881664
H  H385  1  0.19060000  0.06720000  0.90210000  1.0 0.1505857812
H  H386  1  0.80940000  0.93280000  0.90210000  1.0 0.1505857812
H  H387  1  0.06720000  0.80940000  0.09790000  1.0 0.1505857812
H  H388  1  0.93280000  0.19060000  0.09790000  1.0 0.1505857812
H  H389  1  0.30940000  0.06720000  0.84790000  1.0 0.1505857812
H  H390  1  0.69060000  0.93280000  0.84790000  1.0 0.1505857812
H  H391  1  0.43280000  0.80940000  0.65210000  1.0 0.1505857812
H  H392  1  0.56720000  0.19060000  0.65210000  1.0 0.1505857812
H  H393  1  0.69060000  0.56720000  0.40210000  1.0 0.1505857812
H  H394  1  0.30940000  0.43280000  0.40210000  1.0 0.1505857812
H  H395  1  0.56720000  0.30940000  0.59790000  1.0 0.1505857812
H  H396  1  0.43280000  0.69060000  0.59790000  1.0 0.1505857812
H  H397  1  0.80940000  0.56720000  0.34790000  1.0 0.1505857812
H  H398  1  0.19060000  0.43280000  0.34790000  1.0 0.1505857812
H  H399  1  0.93280000  0.30940000  0.15210000  1.0 0.1505857812
H  H400  1  0.06720000  0.69060000  0.15210000  1.0 0.1505857812
H  H401  1  0.14080000  0.02610000  0.89460000  1.0 0.1505857812
H  H402  1  0.85920000  0.97390000  0.89460000  1.0 0.1505857812
H  H403  1  0.02610000  0.85920000  0.10540000  1.0 0.1505857812
H  H404  1  0.97390000  0.14080000  0.10540000  1.0 0.1505857812
H  H405  1  0.35920000  0.02610000  0.85540000  1.0 0.1505857812
H  H406  1  0.64080000  0.97390000  0.85540000  1.0 0.1505857812
H  H407  1  0.47390000  0.85920000  0.64460000  1.0 0.1505857812
H  H408  1  0.52610000  0.14080000  0.64460000  1.0 0.1505857812
H  H409  1  0.64080000  0.52610000  0.39460000  1.0 0.1505857812
H  H410  1  0.35920000  0.47390000  0.39460000  1.0 0.1505857812
H  H411  1  0.52610000  0.35920000  0.60540000  1.0 0.1505857812
H  H412  1  0.47390000  0.64080000  0.60540000  1.0 0.1505857812
H  H413  1  0.85920000  0.52610000  0.35540000  1.0 0.1505857812
H  H414  1  0.14080000  0.47390000  0.35540000  1.0 0.1505857812
H  H415  1  0.97390000  0.35920000  0.14460000  1.0 0.1505857812
H  H416  1  0.02610000  0.64080000  0.14460000  1.0 0.1505857812
H  H417  1  0.20120000  0.00560000  0.87780000  1.0 0.1387881664
H  H418  1  0.79880000  0.99440000  0.87780000  1.0 0.1387881664
H  H419  1  0.00560000  0.79880000  0.12220000  1.0 0.1387881664
H  H420  1  0.99440000  0.20120000  0.12220000  1.0 0.1387881664
H  H421  1  0.29880000  0.00560000  0.87220000  1.0 0.1387881664
H  H422  1  0.70120000  0.99440000  0.87220000  1.0 0.1387881664
H  H423  1  0.49440000  0.79880000  0.62780000  1.0 0.1387881664
H  H424  1  0.50560000  0.20120000  0.62780000  1.0 0.1387881664
H  H425  1  0.70120000  0.50560000  0.37780000  1.0 0.1387881664
H  H426  1  0.29880000  0.49440000  0.37780000  1.0 0.1387881664
H  H427  1  0.50560000  0.29880000  0.62220000  1.0 0.1387881664
H  H428  1  0.49440000  0.70120000  0.62220000  1.0 0.1387881664
H  H429  1  0.79880000  0.50560000  0.37220000  1.0 0.1387881664
H  H430  1  0.20120000  0.49440000  0.37220000  1.0 0.1387881664
H  H431  1  0.99440000  0.29880000  0.12780000  1.0 0.1387881664
H  H432  1  0.00560000  0.70120000  0.12780000  1.0 0.1387881664
H  H433  1  0.24660000  0.05620000  0.20170000  1.0 0.1700098872
H  H434  1  0.75340000  0.94380000  0.20170000  1.0 0.1700098872
H  H435  1  0.05620000  0.75340000  0.79830000  1.0 0.1700098872
H  H436  1  0.94380000  0.24660000  0.79830000  1.0 0.1700098872
H  H437  1  0.25340000  0.05620000  0.54830000  1.0 0.1700098872
H  H438  1  0.74660000  0.94380000  0.54830000  1.0 0.1700098872
H  H439  1  0.44380000  0.75340000  0.95170000  1.0 0.1700098872
H  H440  1  0.55620000  0.24660000  0.95170000  1.0 0.1700098872
H  H441  1  0.74660000  0.55620000  0.70170000  1.0 0.1700098872
H  H442  1  0.25340000  0.44380000  0.70170000  1.0 0.1700098872
H  H443  1  0.55620000  0.25340000  0.29830000  1.0 0.1700098872
H  H444  1  0.44380000  0.74660000  0.29830000  1.0 0.1700098872
H  H445  1  0.75340000  0.55620000  0.04830000  1.0 0.1700098872
H  H446  1  0.24660000  0.44380000  0.04830000  1.0 0.1700098872
H  H447  1  0.94380000  0.25340000  0.45170000  1.0 0.1700098872
H  H448  1  0.05620000  0.74660000  0.45170000  1.0 0.1700098872
H  H449  1  0.29620000  0.09760000  0.20900000  1.0 0.1865035616
H  H450  1  0.70380000  0.90240000  0.20900000  1.0 0.1865035616
H  H451  1  0.09760000  0.70380000  0.79100000  1.0 0.1865035616
H  H452  1  0.90240000  0.29620000  0.79100000  1.0 0.1865035616
H  H453  1  0.20380000  0.09760000  0.54100000  1.0 0.1865035616
H  H454  1  0.79620000  0.90240000  0.54100000  1.0 0.1865035616
H  H455  1  0.40240000  0.70380000  0.95900000  1.0 0.1865035616
H  H456  1  0.59760000  0.29620000  0.95900000  1.0 0.1865035616
H  H457  1  0.79620000  0.59760000  0.70900000  1.0 0.1865035616
H  H458  1  0.20380000  0.40240000  0.70900000  1.0 0.1865035616
H  H459  1  0.59760000  0.20380000  0.29100000  1.0 0.1865035616
H  H460  1  0.40240000  0.79620000  0.29100000  1.0 0.1865035616
H  H461  1  0.70380000  0.59760000  0.04100000  1.0 0.1865035616
H  H462  1  0.29620000  0.40240000  0.04100000  1.0 0.1865035616
H  H463  1  0.90240000  0.20380000  0.45900000  1.0 0.1865035616
H  H464  1  0.09760000  0.79620000  0.45900000  1.0 0.1865035616
H  H465  1  0.28660000  0.05270000  0.27300000  1.0 0.1865035616
H  H466  1  0.71340000  0.94730000  0.27300000  1.0 0.1865035616
H  H467  1  0.05270000  0.71340000  0.72700000  1.0 0.1865035616
H  H468  1  0.94730000  0.28660000  0.72700000  1.0 0.1865035616
H  H469  1  0.21340000  0.05270000  0.47700000  1.0 0.1865035616
H  H470  1  0.78660000  0.94730000  0.47700000  1.0 0.1865035616
H  H471  1  0.44730000  0.71340000  0.02300000  1.0 0.1865035616
H  H472  1  0.55270000  0.28660000  0.02300000  1.0 0.1865035616
H  H473  1  0.78660000  0.55270000  0.77300000  1.0 0.1865035616
H  H474  1  0.21340000  0.44730000  0.77300000  1.0 0.1865035616
H  H475  1  0.55270000  0.21340000  0.22700000  1.0 0.1865035616
H  H476  1  0.44730000  0.78660000  0.22700000  1.0 0.1865035616
H  H477  1  0.71340000  0.55270000  0.97700000  1.0 0.1865035616
H  H478  1  0.28660000  0.44730000  0.97700000  1.0 0.1865035616
H  H479  1  0.94730000  0.21340000  0.52300000  1.0 0.1865035616
H  H480  1  0.05270000  0.78660000  0.52300000  1.0 0.1865035616
H  H481  1  0.26970000  0.93540000  0.17320000  1.0 0.1700098872
H  H482  1  0.73030000  0.06460000  0.17320000  1.0 0.1700098872
H  H483  1  0.93540000  0.73030000  0.82680000  1.0 0.1700098872
H  H484  1  0.06460000  0.26970000  0.82680000  1.0 0.1700098872
H  H485  1  0.23030000  0.93540000  0.57680000  1.0 0.1700098872
H  H486  1  0.76970000  0.06460000  0.57680000  1.0 0.1700098872
H  H487  1  0.56460000  0.73030000  0.92320000  1.0 0.1700098872
H  H488  1  0.43540000  0.26970000  0.92320000  1.0 0.1700098872
H  H489  1  0.76970000  0.43540000  0.67320000  1.0 0.1700098872
H  H490  1  0.23030000  0.56460000  0.67320000  1.0 0.1700098872
H  H491  1  0.43540000  0.23030000  0.32680000  1.0 0.1700098872
H  H492  1  0.56460000  0.76970000  0.32680000  1.0 0.1700098872
H  H493  1  0.73030000  0.43540000  0.07680000  1.0 0.1700098872
H  H494  1  0.26970000  0.56460000  0.07680000  1.0 0.1700098872
H  H495  1  0.06460000  0.23030000  0.42320000  1.0 0.1700098872
H  H496  1  0.93540000  0.76970000  0.42320000  1.0 0.1700098872
H  H497  1  0.30940000  0.93610000  0.24490000  1.0 0.1804323719
H  H498  1  0.69060000  0.06390000  0.24490000  1.0 0.1804323719
H  H499  1  0.93610000  0.69060000  0.75510000  1.0 0.1804323719
H  H500  1  0.06390000  0.30940000  0.75510000  1.0 0.1804323719
H  H501  1  0.19060000  0.93610000  0.50510000  1.0 0.1804323719
H  H502  1  0.80940000  0.06390000  0.50510000  1.0 0.1804323719
H  H503  1  0.56390000  0.69060000  0.99490000  1.0 0.1804323719
H  H504  1  0.43610000  0.30940000  0.99490000  1.0 0.1804323719
H  H505  1  0.80940000  0.43610000  0.74490000  1.0 0.1804323719
H  H506  1  0.19060000  0.56390000  0.74490000  1.0 0.1804323719
H  H507  1  0.43610000  0.19060000  0.25510000  1.0 0.1804323719
H  H508  1  0.56390000  0.80940000  0.25510000  1.0 0.1804323719
H  H509  1  0.69060000  0.43610000  0.00510000  1.0 0.1804323719
H  H510  1  0.30940000  0.56390000  0.00510000  1.0 0.1804323719
H  H511  1  0.06390000  0.19060000  0.49490000  1.0 0.1804323719
H  H512  1  0.93610000  0.80940000  0.49490000  1.0 0.1804323719
H  H513  1  0.33090000  0.91510000  0.16450000  1.0 0.1804323719
H  H514  1  0.66910000  0.08490000  0.16450000  1.0 0.1804323719
H  H515  1  0.91510000  0.66910000  0.83550000  1.0 0.1804323719
H  H516  1  0.08490000  0.33090000  0.83550000  1.0 0.1804323719
H  H517  1  0.16910000  0.91510000  0.58550000  1.0 0.1804323719
H  H518  1  0.83090000  0.08490000  0.58550000  1.0 0.1804323719
H  H519  1  0.58490000  0.66910000  0.91450000  1.0 0.1804323719
H  H520  1  0.41510000  0.33090000  0.91450000  1.0 0.1804323719
H  H521  1  0.83090000  0.41510000  0.66450000  1.0 0.1804323719
H  H522  1  0.16910000  0.58490000  0.66450000  1.0 0.1804323719
H  H523  1  0.41510000  0.16910000  0.33550000  1.0 0.1804323719
H  H524  1  0.58490000  0.83090000  0.33550000  1.0 0.1804323719
H  H525  1  0.66910000  0.41510000  0.08550000  1.0 0.1804323719
H  H526  1  0.33090000  0.58490000  0.08550000  1.0 0.1804323719
H  H527  1  0.08490000  0.16910000  0.41450000  1.0 0.1804323719
H  H528  1  0.91510000  0.83090000  0.41450000  1.0 0.1804323719
H  H529  1  0.41260000  0.05720000  0.18560000  1.0 0.1804323719
H  H530  1  0.58740000  0.94280000  0.18560000  1.0 0.1804323719
H  H531  1  0.05720000  0.58740000  0.81440000  1.0 0.1804323719
H  H532  1  0.94280000  0.41260000  0.81440000  1.0 0.1804323719
H  H533  1  0.08740000  0.05720000  0.56440000  1.0 0.1804323719
H  H534  1  0.91260000  0.94280000  0.56440000  1.0 0.1804323719
H  H535  1  0.44280000  0.58740000  0.93560000  1.0 0.1804323719
H  H536  1  0.55720000  0.41260000  0.93560000  1.0 0.1804323719
H  H537  1  0.91260000  0.55720000  0.68560000  1.0 0.1804323719
H  H538  1  0.08740000  0.44280000  0.68560000  1.0 0.1804323719
H  H539  1  0.55720000  0.08740000  0.31440000  1.0 0.1804323719
H  H540  1  0.44280000  0.91260000  0.31440000  1.0 0.1804323719
H  H541  1  0.58740000  0.55720000  0.06440000  1.0 0.1804323719
H  H542  1  0.41260000  0.44280000  0.06440000  1.0 0.1804323719
H  H543  1  0.94280000  0.08740000  0.43560000  1.0 0.1804323719
H  H544  1  0.05720000  0.91260000  0.43560000  1.0 0.1804323719
H  H545  1  0.42340000  0.99390000  0.17240000  1.0 0.1865035616
H  H546  1  0.57660000  0.00610000  0.17240000  1.0 0.1865035616
H  H547  1  0.99390000  0.57660000  0.82760000  1.0 0.1865035616
H  H548  1  0.00610000  0.42340000  0.82760000  1.0 0.1865035616
H  H549  1  0.07660000  0.99390000  0.57760000  1.0 0.1865035616
H  H550  1  0.92340000  0.00610000  0.57760000  1.0 0.1865035616
H  H551  1  0.50610000  0.57660000  0.92240000  1.0 0.1865035616
H  H552  1  0.49390000  0.42340000  0.92240000  1.0 0.1865035616
H  H553  1  0.92340000  0.49390000  0.67240000  1.0 0.1865035616
H  H554  1  0.07660000  0.50610000  0.67240000  1.0 0.1865035616
H  H555  1  0.49390000  0.07660000  0.32760000  1.0 0.1865035616
H  H556  1  0.50610000  0.92340000  0.32760000  1.0 0.1865035616
H  H557  1  0.57660000  0.49390000  0.07760000  1.0 0.1865035616
H  H558  1  0.42340000  0.50610000  0.07760000  1.0 0.1865035616
H  H559  1  0.00610000  0.07660000  0.42240000  1.0 0.1865035616
H  H560  1  0.99390000  0.92340000  0.42240000  1.0 0.1865035616
H  H561  1  0.40190000  0.01490000  0.25290000  1.0 0.1865035616
H  H562  1  0.59810000  0.98510000  0.25290000  1.0 0.1865035616
H  H563  1  0.01490000  0.59810000  0.74710000  1.0 0.1865035616
H  H564  1  0.98510000  0.40190000  0.74710000  1.0 0.1865035616
H  H565  1  0.09810000  0.01490000  0.49710000  1.0 0.1865035616
H  H566  1  0.90190000  0.98510000  0.49710000  1.0 0.1865035616
H  H567  1  0.48510000  0.59810000  0.00290000  1.0 0.1865035616
H  H568  1  0.51490000  0.40190000  0.00290000  1.0 0.1865035616
H  H569  1  0.90190000  0.51490000  0.75290000  1.0 0.1865035616
H  H570  1  0.09810000  0.48510000  0.75290000  1.0 0.1865035616
H  H571  1  0.51490000  0.09810000  0.24710000  1.0 0.1865035616
H  H572  1  0.48510000  0.90190000  0.24710000  1.0 0.1865035616
H  H573  1  0.59810000  0.51490000  0.99710000  1.0 0.1865035616
H  H574  1  0.40190000  0.48510000  0.99710000  1.0 0.1865035616
H  H575  1  0.98510000  0.09810000  0.50290000  1.0 0.1865035616
H  H576  1  0.01490000  0.90190000  0.50290000  1.0 0.1865035616
C  C1  1  0.16799000  0.95770000  0.00346000  1.0 -0.1641492486
C  C2  1  0.83201000  0.04230000  0.00346000  1.0 -0.1641492486
C  C3  1  0.95770000  0.83201000  0.99654000  1.0 -0.1641492486
C  C4  1  0.04230000  0.16799000  0.99654000  1.0 -0.1641492486
C  C5  1  0.33201000  0.95770000  0.74654000  1.0 -0.1641492486
C  C6  1  0.66799000  0.04230000  0.74654000  1.0 -0.1641492486
C  C7  1  0.54230000  0.83201000  0.75346000  1.0 -0.1641492486
C  C8  1  0.45770000  0.16799000  0.75346000  1.0 -0.1641492486
C  C9  1  0.66799000  0.45770000  0.50346000  1.0 -0.1641492486
C  C10  1  0.33201000  0.54230000  0.50346000  1.0 -0.1641492486
C  C11  1  0.45770000  0.33201000  0.49654000  1.0 -0.1641492486
C  C12  1  0.54230000  0.66799000  0.49654000  1.0 -0.1641492486
C  C13  1  0.83201000  0.45770000  0.24654000  1.0 -0.1641492486
C  C14  1  0.16799000  0.54230000  0.24654000  1.0 -0.1641492486
C  C15  1  0.04230000  0.33201000  0.25346000  1.0 -0.1641492486
C  C16  1  0.95770000  0.66799000  0.25346000  1.0 -0.1641492486
C  C17  1  0.21196000  0.91991000  0.97563000  1.0 -0.0565840295
C  C18  1  0.78804000  0.08009000  0.97563000  1.0 -0.0565840295
C  C19  1  0.91991000  0.78804000  0.02437000  1.0 -0.0565840295
C  C20  1  0.08009000  0.21196000  0.02437000  1.0 -0.0565840295
C  C21  1  0.28804000  0.91991000  0.77437000  1.0 -0.0565840295
C  C22  1  0.71196000  0.08009000  0.77437000  1.0 -0.0565840295
C  C23  1  0.58009000  0.78804000  0.72563000  1.0 -0.0565840295
C  C24  1  0.41991000  0.21196000  0.72563000  1.0 -0.0565840295
C  C25  1  0.71196000  0.41991000  0.47563000  1.0 -0.0565840295
C  C26  1  0.28804000  0.58009000  0.47563000  1.0 -0.0565840295
C  C27  1  0.41991000  0.28804000  0.52437000  1.0 -0.0565840295
C  C28  1  0.58009000  0.71196000  0.52437000  1.0 -0.0565840295
C  C29  1  0.78804000  0.41991000  0.27437000  1.0 -0.0565840295
C  C30  1  0.21196000  0.58009000  0.27437000  1.0 -0.0565840295
C  C31  1  0.08009000  0.28804000  0.22563000  1.0 -0.0565840295
C  C32  1  0.91991000  0.71196000  0.22563000  1.0 -0.0565840295
C  C33  1  0.30670000  0.91043000  0.98614000  1.0 0.5905801583
C  C34  1  0.69330000  0.08957000  0.98614000  1.0 0.5905801583
C  C35  1  0.91043000  0.69330000  0.01386000  1.0 0.5905801583
C  C36  1  0.08957000  0.30670000  0.01386000  1.0 0.5905801583
C  C37  1  0.19330000  0.91043000  0.76386000  1.0 0.5905801583
C  C38  1  0.80670000  0.08957000  0.76386000  1.0 0.5905801583
C  C39  1  0.58957000  0.69330000  0.73614000  1.0 0.5905801583
C  C40  1  0.41043000  0.30670000  0.73614000  1.0 0.5905801583
C  C41  1  0.80670000  0.41043000  0.48614000  1.0 0.5905801583
C  C42  1  0.19330000  0.58957000  0.48614000  1.0 0.5905801583
C  C43  1  0.41043000  0.19330000  0.51386000  1.0 0.5905801583
C  C44  1  0.58957000  0.80670000  0.51386000  1.0 0.5905801583
C  C45  1  0.69330000  0.41043000  0.26386000  1.0 0.5905801583
C  C46  1  0.30670000  0.58957000  0.26386000  1.0 0.5905801583
C  C47  1  0.08957000  0.19330000  0.23614000  1.0 0.5905801583
C  C48  1  0.91043000  0.80670000  0.23614000  1.0 0.5905801583
C  C49  1  0.40658000  0.90144000  0.98955000  1.0 0.2458974909
C  C50  1  0.59342000  0.09856000  0.98955000  1.0 0.2458974909
C  C51  1  0.90144000  0.59342000  0.01045000  1.0 0.2458974909
C  C52  1  0.09856000  0.40658000  0.01045000  1.0 0.2458974909
C  C53  1  0.09342000  0.90144000  0.76045000  1.0 0.2458974909
C  C54  1  0.90658000  0.09856000  0.76045000  1.0 0.2458974909
C  C55  1  0.59856000  0.59342000  0.73955000  1.0 0.2458974909
C  C56  1  0.40144000  0.40658000  0.73955000  1.0 0.2458974909
C  C57  1  0.90658000  0.40144000  0.48955000  1.0 0.2458974909
C  C58  1  0.09342000  0.59856000  0.48955000  1.0 0.2458974909
C  C59  1  0.40144000  0.09342000  0.51045000  1.0 0.2458974909
C  C60  1  0.59856000  0.90658000  0.51045000  1.0 0.2458974909
C  C61  1  0.59342000  0.40144000  0.26045000  1.0 0.2458974909
C  C62  1  0.40658000  0.59856000  0.26045000  1.0 0.2458974909
C  C63  1  0.09856000  0.09342000  0.23955000  1.0 0.2458974909
C  C64  1  0.90144000  0.90658000  0.23955000  1.0 0.2458974909
C  C65  1  0.42052000  0.87276000  0.06298000  1.0 -0.5070661122
C  C66  1  0.57948000  0.12724000  0.06298000  1.0 -0.5070661122
C  C67  1  0.87276000  0.57948000  0.93702000  1.0 -0.5070661122
C  C68  1  0.12724000  0.42052000  0.93702000  1.0 -0.5070661122
C  C69  1  0.07948000  0.87276000  0.68702000  1.0 -0.5070661122
C  C70  1  0.92052000  0.12724000  0.68702000  1.0 -0.5070661122
C  C71  1  0.62724000  0.57948000  0.81298000  1.0 -0.5070661122
C  C72  1  0.37276000  0.42052000  0.81298000  1.0 -0.5070661122
C  C73  1  0.92052000  0.37276000  0.56298000  1.0 -0.5070661122
C  C74  1  0.07948000  0.62724000  0.56298000  1.0 -0.5070661122
C  C75  1  0.37276000  0.07948000  0.43702000  1.0 -0.5070661122
C  C76  1  0.62724000  0.92052000  0.43702000  1.0 -0.5070661122
C  C77  1  0.57948000  0.37276000  0.18702000  1.0 -0.5070661122
C  C78  1  0.42052000  0.62724000  0.18702000  1.0 -0.5070661122
C  C79  1  0.12724000  0.07948000  0.31298000  1.0 -0.5070661122
C  C80  1  0.87276000  0.92052000  0.31298000  1.0 -0.5070661122
C  C81  1  0.45128000  0.93921000  0.96400000  1.0 -0.5070661122
C  C82  1  0.54872000  0.06079000  0.96400000  1.0 -0.5070661122
C  C83  1  0.93921000  0.54872000  0.03600000  1.0 -0.5070661122
C  C84  1  0.06079000  0.45128000  0.03600000  1.0 -0.5070661122
C  C85  1  0.04872000  0.93921000  0.78600000  1.0 -0.5070661122
C  C86  1  0.95128000  0.06079000  0.78600000  1.0 -0.5070661122
C  C87  1  0.56079000  0.54872000  0.71400000  1.0 -0.5070661122
C  C88  1  0.43921000  0.45128000  0.71400000  1.0 -0.5070661122
C  C89  1  0.95128000  0.43921000  0.46400000  1.0 -0.5070661122
C  C90  1  0.04872000  0.56079000  0.46400000  1.0 -0.5070661122
C  C91  1  0.43921000  0.04872000  0.53600000  1.0 -0.5070661122
C  C92  1  0.56079000  0.95128000  0.53600000  1.0 -0.5070661122
C  C93  1  0.54872000  0.43921000  0.28600000  1.0 -0.5070661122
C  C94  1  0.45128000  0.56079000  0.28600000  1.0 -0.5070661122
C  C95  1  0.06079000  0.04872000  0.21400000  1.0 -0.5070661122
C  C96  1  0.93921000  0.95128000  0.21400000  1.0 -0.5070661122
C  C97  1  0.15593000  0.05267000  0.04036000  1.0 -0.1708513522
C  C98  1  0.84407000  0.94733000  0.04036000  1.0 -0.1708513522
C  C99  1  0.05267000  0.84407000  0.95964000  1.0 -0.1708513522
C  C100  1  0.94733000  0.15593000  0.95964000  1.0 -0.1708513522
C  C101  1  0.34407000  0.05267000  0.70964000  1.0 -0.1708513522
C  C102  1  0.65593000  0.94733000  0.70964000  1.0 -0.1708513522
C  C103  1  0.44733000  0.84407000  0.79036000  1.0 -0.1708513522
C  C104  1  0.55267000  0.15593000  0.79036000  1.0 -0.1708513522
C  C105  1  0.65593000  0.55267000  0.54036000  1.0 -0.1708513522
C  C106  1  0.34407000  0.44733000  0.54036000  1.0 -0.1708513522
C  C107  1  0.55267000  0.34407000  0.45964000  1.0 -0.1708513522
C  C108  1  0.44733000  0.65593000  0.45964000  1.0 -0.1708513522
C  C109  1  0.84407000  0.55267000  0.20964000  1.0 -0.1708513522
C  C110  1  0.15593000  0.44733000  0.20964000  1.0 -0.1708513522
C  C111  1  0.94733000  0.34407000  0.29036000  1.0 -0.1708513522
C  C112  1  0.05267000  0.65593000  0.29036000  1.0 -0.1708513522
C  C113  1  0.18536000  0.10655000  0.03904000  1.0 -0.0515279338
C  C114  1  0.81464000  0.89345000  0.03904000  1.0 -0.0515279338
C  C115  1  0.10655000  0.81464000  0.96096000  1.0 -0.0515279338
C  C116  1  0.89345000  0.18536000  0.96096000  1.0 -0.0515279338
C  C117  1  0.31464000  0.10655000  0.71096000  1.0 -0.0515279338
C  C118  1  0.68536000  0.89345000  0.71096000  1.0 -0.0515279338
C  C119  1  0.39345000  0.81464000  0.78904000  1.0 -0.0515279338
C  C120  1  0.60655000  0.18536000  0.78904000  1.0 -0.0515279338
C  C121  1  0.68536000  0.60655000  0.53904000  1.0 -0.0515279338
C  C122  1  0.31464000  0.39345000  0.53904000  1.0 -0.0515279338
C  C123  1  0.60655000  0.31464000  0.46096000  1.0 -0.0515279338
C  C124  1  0.39345000  0.68536000  0.46096000  1.0 -0.0515279338
C  C125  1  0.81464000  0.60655000  0.21096000  1.0 -0.0515279338
C  C126  1  0.18536000  0.39345000  0.21096000  1.0 -0.0515279338
C  C127  1  0.89345000  0.31464000  0.28904000  1.0 -0.0515279338
C  C128  1  0.10655000  0.68536000  0.28904000  1.0 -0.0515279338
C  C129  1  0.27578000  0.13759000  0.03502000  1.0 0.5905801583
C  C130  1  0.72422000  0.86241000  0.03502000  1.0 0.5905801583
C  C131  1  0.13759000  0.72422000  0.96498000  1.0 0.5905801583
C  C132  1  0.86241000  0.27578000  0.96498000  1.0 0.5905801583
C  C133  1  0.22422000  0.13759000  0.71498000  1.0 0.5905801583
C  C134  1  0.77578000  0.86241000  0.71498000  1.0 0.5905801583
C  C135  1  0.36241000  0.72422000  0.78502000  1.0 0.5905801583
C  C136  1  0.63759000  0.27578000  0.78502000  1.0 0.5905801583
C  C137  1  0.77578000  0.63759000  0.53502000  1.0 0.5905801583
C  C138  1  0.22422000  0.36241000  0.53502000  1.0 0.5905801583
C  C139  1  0.63759000  0.22422000  0.46498000  1.0 0.5905801583
C  C140  1  0.36241000  0.77578000  0.46498000  1.0 0.5905801583
C  C141  1  0.72422000  0.63759000  0.21498000  1.0 0.5905801583
C  C142  1  0.27578000  0.36241000  0.21498000  1.0 0.5905801583
C  C143  1  0.86241000  0.22422000  0.28502000  1.0 0.5905801583
C  C144  1  0.13759000  0.77578000  0.28502000  1.0 0.5905801583
C  C145  1  0.37095000  0.16868000  0.03261000  1.0 0.2245480776
C  C146  1  0.62905000  0.83132000  0.03261000  1.0 0.2245480776
C  C147  1  0.16868000  0.62905000  0.96739000  1.0 0.2245480776
C  C148  1  0.83132000  0.37095000  0.96739000  1.0 0.2245480776
C  C149  1  0.12905000  0.16868000  0.71739000  1.0 0.2245480776
C  C150  1  0.87095000  0.83132000  0.71739000  1.0 0.2245480776
C  C151  1  0.33132000  0.62905000  0.78261000  1.0 0.2245480776
C  C152  1  0.66868000  0.37095000  0.78261000  1.0 0.2245480776
C  C153  1  0.87095000  0.66868000  0.53261000  1.0 0.2245480776
C  C154  1  0.12905000  0.33132000  0.53261000  1.0 0.2245480776
C  C155  1  0.66868000  0.12905000  0.46739000  1.0 0.2245480776
C  C156  1  0.33132000  0.87095000  0.46739000  1.0 0.2245480776
C  C157  1  0.62905000  0.66868000  0.21739000  1.0 0.2245480776
C  C158  1  0.37095000  0.33132000  0.21739000  1.0 0.2245480776
C  C159  1  0.83132000  0.12905000  0.28261000  1.0 0.2245480776
C  C160  1  0.16868000  0.87095000  0.28261000  1.0 0.2245480776
C  C161  1  0.40420000  0.16530000  0.10010000  1.0 -0.5070661122
C  C162  1  0.59580000  0.83470000  0.10010000  1.0 -0.5070661122
C  C163  1  0.16530000  0.59580000  0.89990000  1.0 -0.5070661122
C  C164  1  0.83470000  0.40420000  0.89990000  1.0 -0.5070661122
C  C165  1  0.09580000  0.16530000  0.64990000  1.0 -0.5070661122
C  C166  1  0.90420000  0.83470000  0.64990000  1.0 -0.5070661122
C  C167  1  0.33470000  0.59580000  0.85010000  1.0 -0.5070661122
C  C168  1  0.66530000  0.40420000  0.85010000  1.0 -0.5070661122
C  C169  1  0.90420000  0.66530000  0.60010000  1.0 -0.5070661122
C  C170  1  0.09580000  0.33470000  0.60010000  1.0 -0.5070661122
C  C171  1  0.66530000  0.09580000  0.39990000  1.0 -0.5070661122
C  C172  1  0.33470000  0.90420000  0.39990000  1.0 -0.5070661122
C  C173  1  0.59580000  0.66530000  0.14990000  1.0 -0.5070661122
C  C174  1  0.40420000  0.33470000  0.14990000  1.0 -0.5070661122
C  C175  1  0.83470000  0.09580000  0.35010000  1.0 -0.5070661122
C  C176  1  0.16530000  0.90420000  0.35010000  1.0 -0.5070661122
C  C177  1  0.41290000  0.15560000  0.95990000  1.0 -0.5310179233
C  C178  1  0.58710000  0.84440000  0.95990000  1.0 -0.5310179233
C  C179  1  0.15560000  0.58710000  0.04010000  1.0 -0.5310179233
C  C180  1  0.84440000  0.41290000  0.04010000  1.0 -0.5310179233
C  C181  1  0.08710000  0.15560000  0.79010000  1.0 -0.5310179233
C  C182  1  0.91290000  0.84440000  0.79010000  1.0 -0.5310179233
C  C183  1  0.34440000  0.58710000  0.70990000  1.0 -0.5310179233
C  C184  1  0.65560000  0.41290000  0.70990000  1.0 -0.5310179233
C  C185  1  0.91290000  0.65560000  0.45990000  1.0 -0.5310179233
C  C186  1  0.08710000  0.34440000  0.45990000  1.0 -0.5310179233
C  C187  1  0.65560000  0.08710000  0.54010000  1.0 -0.5310179233
C  C188  1  0.34440000  0.91290000  0.54010000  1.0 -0.5310179233
C  C189  1  0.58710000  0.65560000  0.29010000  1.0 -0.5310179233
C  C190  1  0.41290000  0.34440000  0.29010000  1.0 -0.5310179233
C  C191  1  0.84440000  0.08710000  0.20990000  1.0 -0.5310179233
C  C192  1  0.15560000  0.91290000  0.20990000  1.0 -0.5310179233
C  C193  1  0.17893000  0.02962000  0.90933000  1.0 -0.366558313
C  C194  1  0.82107000  0.97038000  0.90933000  1.0 -0.366558313
C  C195  1  0.02962000  0.82107000  0.09067000  1.0 -0.366558313
C  C196  1  0.97038000  0.17893000  0.09067000  1.0 -0.366558313
C  C197  1  0.32107000  0.02962000  0.84067000  1.0 -0.366558313
C  C198  1  0.67893000  0.97038000  0.84067000  1.0 -0.366558313
C  C199  1  0.47038000  0.82107000  0.65933000  1.0 -0.366558313
C  C200  1  0.52962000  0.17893000  0.65933000  1.0 -0.366558313
C  C201  1  0.67893000  0.52962000  0.40933000  1.0 -0.366558313
C  C202  1  0.32107000  0.47038000  0.40933000  1.0 -0.366558313
C  C203  1  0.52962000  0.32107000  0.59067000  1.0 -0.366558313
C  C204  1  0.47038000  0.67893000  0.59067000  1.0 -0.366558313
C  C205  1  0.82107000  0.52962000  0.34067000  1.0 -0.366558313
C  C206  1  0.17893000  0.47038000  0.34067000  1.0 -0.366558313
C  C207  1  0.97038000  0.32107000  0.15933000  1.0 -0.366558313
C  C208  1  0.02962000  0.67893000  0.15933000  1.0 -0.366558313
C  C209  1  0.28419000  0.06038000  0.21861000  1.0 -0.8020277531
C  C210  1  0.71581000  0.93962000  0.21861000  1.0 -0.8020277531
C  C211  1  0.06038000  0.71581000  0.78139000  1.0 -0.8020277531
C  C212  1  0.93962000  0.28419000  0.78139000  1.0 -0.8020277531
C  C213  1  0.21581000  0.06038000  0.53139000  1.0 -0.8020277531
C  C214  1  0.78419000  0.93962000  0.53139000  1.0 -0.8020277531
C  C215  1  0.43962000  0.71581000  0.96861000  1.0 -0.8020277531
C  C216  1  0.56038000  0.28419000  0.96861000  1.0 -0.8020277531
C  C217  1  0.78419000  0.56038000  0.71861000  1.0 -0.8020277531
C  C218  1  0.21581000  0.43962000  0.71861000  1.0 -0.8020277531
C  C219  1  0.56038000  0.21581000  0.28139000  1.0 -0.8020277531
C  C220  1  0.43962000  0.78419000  0.28139000  1.0 -0.8020277531
C  C221  1  0.71581000  0.56038000  0.03139000  1.0 -0.8020277531
C  C222  1  0.28419000  0.43962000  0.03139000  1.0 -0.8020277531
C  C223  1  0.93962000  0.21581000  0.46861000  1.0 -0.8020277531
C  C224  1  0.06038000  0.78419000  0.46861000  1.0 -0.8020277531
C  C225  1  0.30712000  0.94119000  0.18984000  1.0 -0.8055026174
C  C226  1  0.69288000  0.05881000  0.18984000  1.0 -0.8020277531
C  C227  1  0.94119000  0.69288000  0.81016000  1.0 -0.8020277531
C  C228  1  0.05881000  0.30712000  0.81016000  1.0 -0.8020277531
C  C229  1  0.19288000  0.94119000  0.56016000  1.0 -0.8055026174
C  C230  1  0.80712000  0.05881000  0.56016000  1.0 -0.8020277531
C  C231  1  0.55881000  0.69288000  0.93984000  1.0 -0.8055026174
C  C232  1  0.44119000  0.30712000  0.93984000  1.0 -0.8020277531
C  C233  1  0.80712000  0.44119000  0.68984000  1.0 -0.8055026174
C  C234  1  0.19288000  0.55881000  0.68984000  1.0 -0.8055026174
C  C235  1  0.44119000  0.19288000  0.31016000  1.0 -0.8020277531
C  C236  1  0.55881000  0.80712000  0.31016000  1.0 -0.8055026174
C  C237  1  0.69288000  0.44119000  0.06016000  1.0 -0.8020277531
C  C238  1  0.30712000  0.55881000  0.06016000  1.0 -0.8020277531
C  C239  1  0.05881000  0.19288000  0.43984000  1.0 -0.8020277531
C  C240  1  0.94119000  0.80712000  0.43984000  1.0 -0.8020277531
C  C241  1  0.40015000  0.02048000  0.19790000  1.0 -0.8020277531
C  C242  1  0.59985000  0.97952000  0.19790000  1.0 -0.8020277531
C  C243  1  0.02048000  0.59985000  0.80210000  1.0 -0.8020277531
C  C244  1  0.97952000  0.40015000  0.80210000  1.0 -0.8020277531
C  C245  1  0.09985000  0.02048000  0.55210000  1.0 -0.8020277531
C  C246  1  0.90015000  0.97952000  0.55210000  1.0 -0.8020277531
C  C247  1  0.47952000  0.59985000  0.94790000  1.0 -0.8020277531
C  C248  1  0.52048000  0.40015000  0.94790000  1.0 -0.8020277531
C  C249  1  0.90015000  0.52048000  0.69790000  1.0 -0.8020277531
C  C250  1  0.09985000  0.47952000  0.69790000  1.0 -0.8020277531
C  C251  1  0.52048000  0.09985000  0.30210000  1.0 -0.8020277531
C  C252  1  0.47952000  0.90015000  0.30210000  1.0 -0.8020277531
C  C253  1  0.59985000  0.52048000  0.05210000  1.0 -0.8020277531
C  C254  1  0.40015000  0.47952000  0.05210000  1.0 -0.8020277531
C  C255  1  0.97952000  0.09985000  0.44790000  1.0 -0.8020277531
C  C256  1  0.02048000  0.90015000  0.44790000  1.0 -0.8020277531
N  N1  1  0.18531000  0.01434000  0.99043000  1.0 0.0497382624
N  N2  1  0.81469000  0.98566000  0.99043000  1.0 0.0497382624
N  N3  1  0.01434000  0.81469000  0.00957000  1.0 0.0497382624
N  N4  1  0.98566000  0.18531000  0.00957000  1.0 0.0497382624
N  N5  1  0.31469000  0.01434000  0.75957000  1.0 0.0497382624
N  N6  1  0.68531000  0.98566000  0.75957000  1.0 0.0497382624
N  N7  1  0.48566000  0.81469000  0.74043000  1.0 0.0497382624
N  N8  1  0.51434000  0.18531000  0.74043000  1.0 0.0497382624
N  N9  1  0.68531000  0.51434000  0.49043000  1.0 0.0497382624
N  N10  1  0.31469000  0.48566000  0.49043000  1.0 0.0497382624
N  N11  1  0.51434000  0.31469000  0.50957000  1.0 0.0497382624
N  N12  1  0.48566000  0.68531000  0.50957000  1.0 0.0497382624
N  N13  1  0.81469000  0.51434000  0.25957000  1.0 0.0497382624
N  N14  1  0.18531000  0.48566000  0.25957000  1.0 0.0497382624
N  N15  1  0.98566000  0.31469000  0.24043000  1.0 0.0497382624
N  N16  1  0.01434000  0.68531000  0.24043000  1.0 0.0497382624
N  N17  1  0.26397000  0.94360000  0.99867000  1.0 -0.4674486949
N  N18  1  0.73603000  0.05640000  0.99867000  1.0 -0.4674486949
N  N19  1  0.94360000  0.73603000  0.00133000  1.0 -0.4674486949
N  N20  1  0.05640000  0.26397000  0.00133000  1.0 -0.4674486949
N  N21  1  0.23603000  0.94360000  0.75133000  1.0 -0.4674486949
N  N22  1  0.76397000  0.05640000  0.75133000  1.0 -0.4674486949
N  N23  1  0.55640000  0.73603000  0.74867000  1.0 -0.4674486949
N  N24  1  0.44360000  0.26397000  0.74867000  1.0 -0.4674486949
N  N25  1  0.76397000  0.44360000  0.49867000  1.0 -0.4674486949
N  N26  1  0.23603000  0.55640000  0.49867000  1.0 -0.4674486949
N  N27  1  0.44360000  0.23603000  0.50133000  1.0 -0.4674486949
N  N28  1  0.55640000  0.76397000  0.50133000  1.0 -0.4674486949
N  N29  1  0.73603000  0.44360000  0.25133000  1.0 -0.4674486949
N  N30  1  0.26397000  0.55640000  0.25133000  1.0 -0.4674486949
N  N31  1  0.05640000  0.23603000  0.24867000  1.0 -0.4674486949
N  N32  1  0.94360000  0.76397000  0.24867000  1.0 -0.4674486949
N  N33  1  0.24342000  0.09399000  0.03830000  1.0 -0.4639208654
N  N34  1  0.75658000  0.90601000  0.03830000  1.0 -0.4639208654
N  N35  1  0.09399000  0.75658000  0.96170000  1.0 -0.4639208654
N  N36  1  0.90601000  0.24342000  0.96170000  1.0 -0.4639208654
N  N37  1  0.25658000  0.09399000  0.71170000  1.0 -0.4639208654
N  N38  1  0.74342000  0.90601000  0.71170000  1.0 -0.4639208654
N  N39  1  0.40601000  0.75658000  0.78830000  1.0 -0.4639208654
N  N40  1  0.59399000  0.24342000  0.78830000  1.0 -0.4639208654
N  N41  1  0.74342000  0.59399000  0.53830000  1.0 -0.4639208654
N  N42  1  0.25658000  0.40601000  0.53830000  1.0 -0.4639208654
N  N43  1  0.59399000  0.25658000  0.46170000  1.0 -0.4639208654
N  N44  1  0.40601000  0.74342000  0.46170000  1.0 -0.4674486949
N  N45  1  0.75658000  0.59399000  0.21170000  1.0 -0.4639208654
N  N46  1  0.24342000  0.40601000  0.21170000  1.0 -0.4639208654
N  N47  1  0.90601000  0.25658000  0.28830000  1.0 -0.4639208654
N  N48  1  0.09399000  0.74342000  0.28830000  1.0 -0.4639208654
N  N49  1  0.35685000  0.93279000  0.99479000  1.0 -0.4272387415
N  N50  1  0.64315000  0.06721000  0.99479000  1.0 -0.4272387415
N  N51  1  0.93279000  0.64315000  0.00521000  1.0 -0.4272387415
N  N52  1  0.06721000  0.35685000  0.00521000  1.0 -0.4272387415
N  N53  1  0.14315000  0.93279000  0.75521000  1.0 -0.4272387415
N  N54  1  0.85685000  0.06721000  0.75521000  1.0 -0.4272387415
N  N55  1  0.56721000  0.64315000  0.74479000  1.0 -0.4272387415
N  N56  1  0.43279000  0.35685000  0.74479000  1.0 -0.4272387415
N  N57  1  0.85685000  0.43279000  0.49479000  1.0 -0.4272387415
N  N58  1  0.14315000  0.56721000  0.49479000  1.0 -0.4272387415
N  N59  1  0.43279000  0.14315000  0.50521000  1.0 -0.4272387415
N  N60  1  0.56721000  0.85685000  0.50521000  1.0 -0.4272387415
N  N61  1  0.64315000  0.43279000  0.25521000  1.0 -0.4272387415
N  N62  1  0.35685000  0.56721000  0.25521000  1.0 -0.4272387415
N  N63  1  0.06721000  0.14315000  0.24479000  1.0 -0.4272387415
N  N64  1  0.93279000  0.85685000  0.24479000  1.0 -0.4272387415
N  N65  1  0.32947000  0.12794000  0.02270000  1.0 -0.4372757856
N  N66  1  0.67053000  0.87206000  0.02270000  1.0 -0.4372757856
N  N67  1  0.12794000  0.67053000  0.97730000  1.0 -0.4372757856
N  N68  1  0.87206000  0.32947000  0.97730000  1.0 -0.4372757856
N  N69  1  0.17053000  0.12794000  0.72730000  1.0 -0.4372757856
N  N70  1  0.82947000  0.87206000  0.72730000  1.0 -0.4372757856
N  N71  1  0.37206000  0.67053000  0.77270000  1.0 -0.4372757856
N  N72  1  0.62794000  0.32947000  0.77270000  1.0 -0.4372757856
N  N73  1  0.82947000  0.62794000  0.52270000  1.0 -0.4372757856
N  N74  1  0.17053000  0.37206000  0.52270000  1.0 -0.4372757856
N  N75  1  0.62794000  0.17053000  0.47730000  1.0 -0.4372757856
N  N76  1  0.37206000  0.82947000  0.47730000  1.0 -0.4372757856
N  N77  1  0.67053000  0.62794000  0.22730000  1.0 -0.4372757856
N  N78  1  0.32947000  0.37206000  0.22730000  1.0 -0.4372757856
N  N79  1  0.87206000  0.17053000  0.27270000  1.0 -0.4372757856
N  N80  1  0.12794000  0.82947000  0.27270000  1.0 -0.4372757856
O  O1  1  0.32659000  0.02233000  0.07417000  1.0 -0.7618211374
O  O2  1  0.67341000  0.97767000  0.07417000  1.0 -0.7618211374
O  O3  1  0.02233000  0.67341000  0.92583000  1.0 -0.7618211374
O  O4  1  0.97767000  0.32659000  0.92583000  1.0 -0.7618211374
O  O5  1  0.17341000  0.02233000  0.67583000  1.0 -0.7618211374
O  O6  1  0.82659000  0.97767000  0.67583000  1.0 -0.7618211374
O  O7  1  0.47767000  0.67341000  0.82417000  1.0 -0.7618211374
O  O8  1  0.52233000  0.32659000  0.82417000  1.0 -0.7618211374
O  O9  1  0.82659000  0.52233000  0.57417000  1.0 -0.7618211374
O  O10  1  0.17341000  0.47767000  0.57417000  1.0 -0.7618211374
O  O11  1  0.52233000  0.17341000  0.42583000  1.0 -0.7618211374
O  O12  1  0.47767000  0.82659000  0.42583000  1.0 -0.7618211374
O  O13  1  0.67341000  0.52233000  0.17583000  1.0 -0.7618211374
O  O14  1  0.32659000  0.47767000  0.17583000  1.0 -0.7618211374
O  O15  1  0.97767000  0.17341000  0.32417000  1.0 -0.7618211374
O  O16  1  0.02233000  0.82659000  0.32417000  1.0 -0.7618211374
O  O17  1  0.30204000  0.86192000  0.96500000  1.0 -0.6619330361
O  O18  1  0.69796000  0.13808000  0.96500000  1.0 -0.6619330361
O  O19  1  0.86192000  0.69796000  0.03500000  1.0 -0.6619330361
O  O20  1  0.13808000  0.30204000  0.03500000  1.0 -0.6619330361
O  O21  1  0.19796000  0.86192000  0.78500000  1.0 -0.6619330361
O  O22  1  0.80204000  0.13808000  0.78500000  1.0 -0.6619330361
O  O23  1  0.63808000  0.69796000  0.71500000  1.0 -0.6619330361
O  O24  1  0.36192000  0.30204000  0.71500000  1.0 -0.6619330361
O  O25  1  0.80204000  0.36192000  0.46500000  1.0 -0.6619330361
O  O26  1  0.19796000  0.63808000  0.46500000  1.0 -0.6619330361
O  O27  1  0.36192000  0.19796000  0.53500000  1.0 -0.6619330361
O  O28  1  0.63808000  0.80204000  0.53500000  1.0 -0.6619330361
O  O29  1  0.69796000  0.36192000  0.28500000  1.0 -0.6619330361
O  O30  1  0.30204000  0.63808000  0.28500000  1.0 -0.6619330361
O  O31  1  0.13808000  0.19796000  0.21500000  1.0 -0.6619330361
O  O32  1  0.86192000  0.80204000  0.21500000  1.0 -0.6619330361
O  O33  1  0.25859000  0.18571000  0.03860000  1.0 -0.6717151381
O  O34  1  0.74141000  0.81429000  0.03860000  1.0 -0.6717151381
O  O35  1  0.18571000  0.74141000  0.96140000  1.0 -0.6717151381
O  O36  1  0.81429000  0.25859000  0.96140000  1.0 -0.6717151381
O  O37  1  0.24141000  0.18571000  0.71140000  1.0 -0.6717151381
O  O38  1  0.75859000  0.81429000  0.71140000  1.0 -0.6717151381
O  O39  1  0.31429000  0.74141000  0.78860000  1.0 -0.6717151381
O  O40  1  0.68571000  0.25859000  0.78860000  1.0 -0.6717151381
O  O41  1  0.75859000  0.68571000  0.53860000  1.0 -0.6717151381
O  O42  1  0.24141000  0.31429000  0.53860000  1.0 -0.6717151381
O  O43  1  0.68571000  0.24141000  0.46140000  1.0 -0.6717151381
O  O44  1  0.31429000  0.75859000  0.46140000  1.0 -0.6717151381
O  O45  1  0.74141000  0.68571000  0.21140000  1.0 -0.6717151381
O  O46  1  0.25859000  0.31429000  0.21140000  1.0 -0.6717151381
O  O47  1  0.81429000  0.24141000  0.28860000  1.0 -0.6717151381
O  O48  1  0.18571000  0.75859000  0.28860000  1.0 -0.6717151381
