# DDEC6 charges by PACMAN v1.1 (https://github.com/mtap-research/PACMAN-charge/)
data_YOYTOX_ASR_pacman
_symmetry_space_group_name_H-M   'P 1'
_cell_length_a   15.88000000
_cell_length_b   15.88000000
_cell_length_c   15.88000000
_cell_angle_alpha   115.71000000
_cell_angle_beta   115.71000000
_cell_angle_gamma   115.71000000
_symmetry_Int_Tables_number   1
_chemical_formula_structural   FeAg2H8(C2N)8
_chemical_formula_sum   'Fe3 Ag6 H24 C48 N24'
_cell_volume   2088.98533393
_cell_formula_units_Z   3
loop_
 _symmetry_equiv_pos_site_id
 _symmetry_equiv_pos_as_xyz
  1  'x, y, z'
loop_
 _atom_site_type_symbol
 _atom_site_label
 _atom_site_symmetry_multiplicity
 _atom_site_fract_x
 _atom_site_fract_y
 _atom_site_fract_z
 _atom_site_occupancy
 _atom_site_charge
Fe  Fe1  1  0.50000000  0.50000000  0.00000000  1.0 0.7555584689
Fe  Fe2  1  0.50000000  0.00000000  0.50000000  1.0 0.7555584689
Fe  Fe3  1  0.00000000  0.50000000  0.50000000  1.0 0.7555584689
Ag  Ag1  1  0.00000000  0.70219000  0.29781000  1.0 0.1458290746
Ag  Ag2  1  0.70219000  0.29781000  0.00000000  1.0 0.137953085
Ag  Ag3  1  0.29782000  0.00000000  0.70218000  1.0 0.1458290746
Ag  Ag4  1  0.00000000  0.29781000  0.70218000  1.0 0.1458290746
Ag  Ag5  1  0.29782000  0.70219000  0.00000000  1.0 0.137953085
Ag  Ag6  1  0.70218000  0.00000000  0.29781000  1.0 0.1458290746
H  H1  1  0.38040000  0.52430000  0.10880000  1.0 0.1171743055
H  H2  1  0.52430000  0.10880000  0.38040000  1.0 0.1171743055
H  H3  1  0.10880000  0.38040000  0.52430000  1.0 0.1171743055
H  H4  1  0.47570000  0.61960000  0.89120000  1.0 0.1171743055
H  H5  1  0.89120000  0.47570000  0.61960000  1.0 0.1171743055
H  H6  1  0.61960000  0.89120000  0.47570000  1.0 0.1171743055
H  H7  1  0.61960000  0.47570000  0.89120000  1.0 0.1171743055
H  H8  1  0.47570000  0.89120000  0.61960000  1.0 0.1171743055
H  H9  1  0.89120000  0.61960000  0.47570000  1.0 0.1171743055
H  H10  1  0.52430000  0.38040000  0.10880000  1.0 0.1171743055
H  H11  1  0.10880000  0.52430000  0.38040000  1.0 0.1171743055
H  H12  1  0.38040000  0.10880000  0.52430000  1.0 0.1171743055
H  H13  1  0.32870000  0.47690000  0.20640000  1.0 0.137953085
H  H14  1  0.47690000  0.20640000  0.32870000  1.0 0.137953085
H  H15  1  0.20640000  0.32870000  0.47690000  1.0 0.137953085
H  H16  1  0.52310000  0.67130000  0.79360000  1.0 0.137953085
H  H17  1  0.79360000  0.52310000  0.67130000  1.0 0.137953085
H  H18  1  0.67130000  0.79360000  0.52310000  1.0 0.137953085
H  H19  1  0.67130000  0.52310000  0.79360000  1.0 0.137953085
H  H20  1  0.52310000  0.79360000  0.67130000  1.0 0.137953085
H  H21  1  0.79360000  0.67130000  0.52310000  1.0 0.137953085
H  H22  1  0.47690000  0.32870000  0.20640000  1.0 0.137953085
H  H23  1  0.20640000  0.47690000  0.32870000  1.0 0.137953085
H  H24  1  0.32870000  0.20640000  0.47690000  1.0 0.137953085
C  C1  1  0.39970000  0.48380000  0.12820000  1.0 0.0905330856
C  C2  1  0.48380000  0.12820000  0.39970000  1.0 0.0905330856
C  C3  1  0.12820000  0.39970000  0.48380000  1.0 0.0905330856
C  C4  1  0.51620000  0.60030000  0.87180000  1.0 0.0905330856
C  C5  1  0.87180000  0.51620000  0.60030000  1.0 0.0905330856
C  C6  1  0.60030000  0.87180000  0.51620000  1.0 0.0905330856
C  C7  1  0.60030000  0.51620000  0.87180000  1.0 0.0905330856
C  C8  1  0.51620000  0.87180000  0.60030000  1.0 0.0905330856
C  C9  1  0.87180000  0.60030000  0.51620000  1.0 0.0905330856
C  C10  1  0.48380000  0.39970000  0.12820000  1.0 0.0905330856
C  C11  1  0.12820000  0.48380000  0.39970000  1.0 0.0905330856
C  C12  1  0.39970000  0.12820000  0.48380000  1.0 0.0905330856
C  C13  1  0.36810000  0.45550000  0.18690000  1.0 -0.1677657287
C  C14  1  0.45550000  0.18690000  0.36810000  1.0 -0.1677657287
C  C15  1  0.18690000  0.36810000  0.45550000  1.0 -0.1677657287
C  C16  1  0.54450000  0.63190000  0.81310000  1.0 -0.1677657287
C  C17  1  0.81310000  0.54450000  0.63190000  1.0 -0.1677657287
C  C18  1  0.63190000  0.81310000  0.54450000  1.0 -0.1677657287
C  C19  1  0.63190000  0.54450000  0.81310000  1.0 -0.1677657287
C  C20  1  0.54450000  0.81310000  0.63190000  1.0 -0.1677657287
C  C21  1  0.81310000  0.63190000  0.54450000  1.0 -0.1677657287
C  C22  1  0.45550000  0.36810000  0.18690000  1.0 -0.1677657287
C  C23  1  0.18690000  0.45550000  0.36810000  1.0 -0.1677657287
C  C24  1  0.36810000  0.18690000  0.45550000  1.0 -0.1677657287
C  C25  1  0.39515000  0.39515000  0.21630000  1.0 0.0615283851
C  C26  1  0.39515000  0.21630000  0.39515000  1.0 0.0615283851
C  C27  1  0.21630000  0.39515000  0.39515000  1.0 0.0615283851
C  C28  1  0.60485000  0.60485000  0.78370000  1.0 0.0615283851
C  C29  1  0.78370000  0.60485000  0.60485000  1.0 0.0615283851
C  C30  1  0.60485000  0.78370000  0.60485000  1.0 0.0615283851
C  C31  1  0.36305000  0.36305000  0.27900000  1.0 0.3578387578
C  C32  1  0.36305000  0.27900000  0.36305000  1.0 0.3578387578
C  C33  1  0.27900000  0.36305000  0.36305000  1.0 0.3578387578
C  C34  1  0.63695000  0.63695000  0.72100000  1.0 0.3578387578
C  C35  1  0.72100000  0.63695000  0.63695000  1.0 0.3578387578
C  C36  1  0.63695000  0.72100000  0.63695000  1.0 0.3578387578
C  C37  1  0.80870000  0.62420000  0.20430000  1.0 -0.0098058512
C  C38  1  0.62420000  0.20430000  0.80870000  1.0 -0.0098058512
C  C39  1  0.20430000  0.80870000  0.62420000  1.0 -0.0098058512
C  C40  1  0.37580000  0.19130000  0.79570000  1.0 -0.0098058512
C  C41  1  0.79570000  0.37580000  0.19130000  1.0 -0.0098058512
C  C42  1  0.19130000  0.79570000  0.37580000  1.0 -0.0098058512
C  C43  1  0.19130000  0.37580000  0.79570000  1.0 -0.0098058512
C  C44  1  0.37580000  0.79570000  0.19130000  1.0 -0.0098058512
C  C45  1  0.79570000  0.19130000  0.37580000  1.0 -0.0098058512
C  C46  1  0.62420000  0.80870000  0.20430000  1.0 -0.0098058512
C  C47  1  0.20430000  0.62420000  0.80870000  1.0 -0.0098058512
C  C48  1  0.80870000  0.20430000  0.62420000  1.0 -0.0098058512
N  N1  1  0.45635000  0.45635000  0.09810000  1.0 -0.2052512288
N  N2  1  0.45635000  0.09810000  0.45635000  1.0 -0.2052512288
N  N3  1  0.09810000  0.45635000  0.45635000  1.0 -0.2052512288
N  N4  1  0.54365000  0.54365000  0.90190000  1.0 -0.2052512288
N  N5  1  0.90190000  0.54365000  0.54365000  1.0 -0.2052512288
N  N6  1  0.54365000  0.90190000  0.54365000  1.0 -0.2052512288
N  N7  1  0.70510000  0.58840000  0.14690000  1.0 -0.3359071161
N  N8  1  0.58840000  0.14690000  0.70510000  1.0 -0.3359071161
N  N9  1  0.14690000  0.70510000  0.58840000  1.0 -0.3359071161
N  N10  1  0.41160000  0.29490000  0.85310000  1.0 -0.3359071161
N  N11  1  0.85310000  0.41160000  0.29490000  1.0 -0.3359071161
N  N12  1  0.29490000  0.85310000  0.41160000  1.0 -0.3359071161
N  N13  1  0.29490000  0.41160000  0.85310000  1.0 -0.3359071161
N  N14  1  0.41160000  0.85310000  0.29490000  1.0 -0.3359071161
N  N15  1  0.85310000  0.29490000  0.41160000  1.0 -0.3359071161
N  N16  1  0.58840000  0.70510000  0.14690000  1.0 -0.3359071161
N  N17  1  0.14690000  0.58840000  0.70510000  1.0 -0.3359071161
N  N18  1  0.70510000  0.14690000  0.58840000  1.0 -0.3359071161
N  N19  1  0.39466000  0.30657000  0.30657000  1.0 -0.3994624536
N  N20  1  0.30657000  0.30657000  0.39466000  1.0 -0.3994624536
N  N21  1  0.30657000  0.39466000  0.30657000  1.0 -0.3994624536
N  N22  1  0.69343000  0.60534000  0.69343000  1.0 -0.3994624536
N  N23  1  0.69343000  0.69343000  0.60534000  1.0 -0.3994624536
N  N24  1  0.60534000  0.69343000  0.69343000  1.0 -0.3994624536
