# DDEC6 charges by PACMAN v1.1 (https://github.com/mtap-research/PACMAN-charge/)
data_YOYYUI_ASR_pacman
_symmetry_space_group_name_H-M   'P 1'
_cell_length_a   30.44460000
_cell_length_b   30.44460000
_cell_length_c   30.44460000
_cell_angle_alpha   109.47100000
_cell_angle_beta   109.47100000
_cell_angle_gamma   109.47100000
_symmetry_Int_Tables_number   1
_chemical_formula_structural   Zn6H47C54(N4O9)2
_chemical_formula_sum   'Zn72 H564 C648 N96 O216'
_cell_volume   21722.63345580
_cell_formula_units_Z   12
loop_
 _symmetry_equiv_pos_site_id
 _symmetry_equiv_pos_as_xyz
  1  'x, y, z'
loop_
 _atom_site_type_symbol
 _atom_site_label
 _atom_site_symmetry_multiplicity
 _atom_site_fract_x
 _atom_site_fract_y
 _atom_site_fract_z
 _atom_site_occupancy
 _atom_site_charge
Zn  Zn1  1  0.67024000  0.33224000  0.66200000  1.0 0.9789768503
Zn  Zn2  1  0.67024000  0.00824000  0.33800000  1.0 0.9789768503
Zn  Zn3  1  0.32976000  0.66776000  0.33800000  1.0 0.9789768503
Zn  Zn4  1  0.32976000  0.99176000  0.66200000  1.0 0.9789768503
Zn  Zn5  1  0.66200000  0.67024000  0.33224000  1.0 0.9789768503
Zn  Zn6  1  0.33800000  0.67024000  0.00824000  1.0 0.9789768503
Zn  Zn7  1  0.33800000  0.32976000  0.66776000  1.0 0.9789768503
Zn  Zn8  1  0.66200000  0.32976000  0.99176000  1.0 0.9789768503
Zn  Zn9  1  0.33224000  0.66200000  0.67024000  1.0 0.9789768503
Zn  Zn10  1  0.00824000  0.33800000  0.67024000  1.0 0.9789768503
Zn  Zn11  1  0.66776000  0.33800000  0.32976000  1.0 0.9789768503
Zn  Zn12  1  0.99176000  0.66200000  0.32976000  1.0 0.9789768503
Zn  Zn13  1  0.22999000  0.15580000  0.38579000  1.0 0.9481147375
Zn  Zn14  1  0.77001000  0.84420000  0.61421000  1.0 0.9481147375
Zn  Zn15  1  0.22999000  0.84420000  0.07419000  1.0 0.9481147375
Zn  Zn16  1  0.77001000  0.15580000  0.92581000  1.0 0.9481147375
Zn  Zn17  1  0.38579000  0.22999000  0.15580000  1.0 0.9481147375
Zn  Zn18  1  0.61421000  0.77001000  0.84420000  1.0 0.9481147375
Zn  Zn19  1  0.07419000  0.22999000  0.84420000  1.0 0.9481147375
Zn  Zn20  1  0.92581000  0.77001000  0.15580000  1.0 0.9481147375
Zn  Zn21  1  0.15580000  0.38579000  0.22999000  1.0 0.9481147375
Zn  Zn22  1  0.84420000  0.61421000  0.77001000  1.0 0.9481147375
Zn  Zn23  1  0.84420000  0.07419000  0.22999000  1.0 0.9481147375
Zn  Zn24  1  0.15580000  0.92581000  0.77001000  1.0 0.9481147375
Zn  Zn25  1  0.30776000  0.13460000  0.34084000  1.0 0.739943201
Zn  Zn26  1  0.79376000  0.96692000  0.65916000  1.0 0.739943201
Zn  Zn27  1  0.20624000  0.86540000  0.17316000  1.0 0.739943201
Zn  Zn28  1  0.69224000  0.03308000  0.82684000  1.0 0.739943201
Zn  Zn29  1  0.34084000  0.30776000  0.13460000  1.0 0.739943201
Zn  Zn30  1  0.65916000  0.79376000  0.96692000  1.0 0.739943201
Zn  Zn31  1  0.17316000  0.20624000  0.86540000  1.0 0.739943201
Zn  Zn32  1  0.82684000  0.69224000  0.03308000  1.0 0.739943201
Zn  Zn33  1  0.13460000  0.34084000  0.30776000  1.0 0.739943201
Zn  Zn34  1  0.96692000  0.65916000  0.79376000  1.0 0.739943201
Zn  Zn35  1  0.86540000  0.17316000  0.20624000  1.0 0.739943201
Zn  Zn36  1  0.03308000  0.82684000  0.69224000  1.0 0.739943201
Zn  Zn37  1  0.69224000  0.86540000  0.65916000  1.0 0.739943201
Zn  Zn38  1  0.20624000  0.03308000  0.34084000  1.0 0.739943201
Zn  Zn39  1  0.79376000  0.13460000  0.82684000  1.0 0.739943201
Zn  Zn40  1  0.30776000  0.96692000  0.17316000  1.0 0.739943201
Zn  Zn41  1  0.65916000  0.69224000  0.86540000  1.0 0.739943201
Zn  Zn42  1  0.34084000  0.20624000  0.03308000  1.0 0.739943201
Zn  Zn43  1  0.82684000  0.79376000  0.13460000  1.0 0.739943201
Zn  Zn44  1  0.17316000  0.30776000  0.96692000  1.0 0.739943201
Zn  Zn45  1  0.86540000  0.65916000  0.69224000  1.0 0.739943201
Zn  Zn46  1  0.03308000  0.34084000  0.20624000  1.0 0.739943201
Zn  Zn47  1  0.13460000  0.82684000  0.79376000  1.0 0.739943201
Zn  Zn48  1  0.96692000  0.17316000  0.30776000  1.0 0.739943201
Zn  Zn49  1  0.61114000  0.24665000  0.53479000  1.0 0.7673006302
Zn  Zn50  1  0.71186000  0.07635000  0.46521000  1.0 0.7673006302
Zn  Zn51  1  0.28814000  0.75335000  0.36449000  1.0 0.7673006302
Zn  Zn52  1  0.38886000  0.92365000  0.63551000  1.0 0.7673006302
Zn  Zn53  1  0.53479000  0.61114000  0.24665000  1.0 0.7673006302
Zn  Zn54  1  0.46521000  0.71186000  0.07635000  1.0 0.7673006302
Zn  Zn55  1  0.36449000  0.28814000  0.75335000  1.0 0.7673006302
Zn  Zn56  1  0.63551000  0.38886000  0.92365000  1.0 0.7673006302
Zn  Zn57  1  0.24665000  0.53479000  0.61114000  1.0 0.7673006302
Zn  Zn58  1  0.07635000  0.46521000  0.71186000  1.0 0.7673006302
Zn  Zn59  1  0.75335000  0.36449000  0.28814000  1.0 0.7673006302
Zn  Zn60  1  0.92365000  0.63551000  0.38886000  1.0 0.7673006302
Zn  Zn61  1  0.38886000  0.75335000  0.46521000  1.0 0.7673006302
Zn  Zn62  1  0.28814000  0.92365000  0.53479000  1.0 0.7673006302
Zn  Zn63  1  0.71186000  0.24665000  0.63551000  1.0 0.7673006302
Zn  Zn64  1  0.61114000  0.07635000  0.36449000  1.0 0.7673006302
Zn  Zn65  1  0.46521000  0.38886000  0.75335000  1.0 0.7673006302
Zn  Zn66  1  0.53479000  0.28814000  0.92365000  1.0 0.7673006302
Zn  Zn67  1  0.63551000  0.71186000  0.24665000  1.0 0.7673006302
Zn  Zn68  1  0.36449000  0.61114000  0.07635000  1.0 0.7673006302
Zn  Zn69  1  0.75335000  0.46521000  0.38886000  1.0 0.7673006302
Zn  Zn70  1  0.92365000  0.53479000  0.28814000  1.0 0.7673006302
Zn  Zn71  1  0.24665000  0.63551000  0.71186000  1.0 0.7673006302
Zn  Zn72  1  0.07635000  0.36449000  0.61114000  1.0 0.7673006302
H  H1  1  0.45640000  0.22490000  0.48930000  1.0 0.1301155739
H  H2  1  0.73560000  0.96710000  0.51070000  1.0 0.1301155739
H  H3  1  0.26440000  0.77510000  0.23150000  1.0 0.1301155739
H  H4  1  0.54360000  0.03290000  0.76850000  1.0 0.1301155739
H  H5  1  0.48930000  0.45640000  0.22490000  1.0 0.1301155739
H  H6  1  0.51070000  0.73560000  0.96710000  1.0 0.1301155739
H  H7  1  0.23150000  0.26440000  0.77510000  1.0 0.1301155739
H  H8  1  0.76850000  0.54360000  0.03290000  1.0 0.1301155739
H  H9  1  0.22490000  0.48930000  0.45640000  1.0 0.1301155739
H  H10  1  0.96710000  0.51070000  0.73560000  1.0 0.1301155739
H  H11  1  0.77510000  0.23150000  0.26440000  1.0 0.1301155739
H  H12  1  0.03290000  0.76850000  0.54360000  1.0 0.1301155739
H  H13  1  0.54360000  0.77510000  0.51070000  1.0 0.1301155739
H  H14  1  0.26440000  0.03290000  0.48930000  1.0 0.1301155739
H  H15  1  0.73560000  0.22490000  0.76850000  1.0 0.1301155739
H  H16  1  0.45640000  0.96710000  0.23150000  1.0 0.1301155739
H  H17  1  0.51070000  0.54360000  0.77510000  1.0 0.1301155739
H  H18  1  0.48930000  0.26440000  0.03290000  1.0 0.1301155739
H  H19  1  0.76850000  0.73560000  0.22490000  1.0 0.1301155739
H  H20  1  0.23150000  0.45640000  0.96710000  1.0 0.1301155739
H  H21  1  0.77510000  0.51070000  0.54360000  1.0 0.1301155739
H  H22  1  0.03290000  0.48930000  0.26440000  1.0 0.1301155739
H  H23  1  0.22490000  0.76850000  0.73560000  1.0 0.1301155739
H  H24  1  0.96710000  0.23150000  0.45640000  1.0 0.1301155739
H  H25  1  0.36290000  0.26350000  0.54200000  1.0 0.1301155739
H  H26  1  0.72150000  0.82090000  0.45800000  1.0 0.1301155739
H  H27  1  0.27850000  0.73650000  0.09940000  1.0 0.1301155739
H  H28  1  0.63710000  0.17910000  0.90060000  1.0 0.1301155739
H  H29  1  0.54200000  0.36290000  0.26350000  1.0 0.1301155739
H  H30  1  0.45800000  0.72150000  0.82090000  1.0 0.1301155739
H  H31  1  0.09940000  0.27850000  0.73650000  1.0 0.1301155739
H  H32  1  0.90060000  0.63710000  0.17910000  1.0 0.1301155739
H  H33  1  0.26350000  0.54200000  0.36290000  1.0 0.1301155739
H  H34  1  0.82090000  0.45800000  0.72150000  1.0 0.1301155739
H  H35  1  0.73650000  0.09940000  0.27850000  1.0 0.1301155739
H  H36  1  0.17910000  0.90060000  0.63710000  1.0 0.1301155739
H  H37  1  0.63710000  0.73650000  0.45800000  1.0 0.1301155739
H  H38  1  0.27850000  0.17910000  0.54200000  1.0 0.1301155739
H  H39  1  0.72150000  0.26350000  0.90060000  1.0 0.1301155739
H  H40  1  0.36290000  0.82090000  0.09940000  1.0 0.1301155739
H  H41  1  0.45800000  0.63710000  0.73650000  1.0 0.1301155739
H  H42  1  0.54200000  0.27850000  0.17910000  1.0 0.1301155739
H  H43  1  0.90060000  0.72150000  0.26350000  1.0 0.1301155739
H  H44  1  0.09940000  0.36290000  0.82090000  1.0 0.1301155739
H  H45  1  0.73650000  0.45800000  0.63710000  1.0 0.1301155739
H  H46  1  0.17910000  0.54200000  0.27850000  1.0 0.1301155739
H  H47  1  0.26350000  0.90060000  0.72150000  1.0 0.1301155739
H  H48  1  0.82090000  0.09940000  0.36290000  1.0 0.1301155739
H  H49  1  0.51720000  0.32250000  0.64530000  1.0 0.1621875274
H  H50  1  0.67720000  0.87190000  0.35470000  1.0 0.1621875274
H  H51  1  0.32280000  0.67750000  0.19470000  1.0 0.1621875274
H  H52  1  0.48280000  0.12810000  0.80530000  1.0 0.1621875274
H  H53  1  0.64530000  0.51720000  0.32250000  1.0 0.1621875274
H  H54  1  0.35470000  0.67720000  0.87190000  1.0 0.1621875274
H  H55  1  0.19470000  0.32280000  0.67750000  1.0 0.1621875274
H  H56  1  0.80530000  0.48280000  0.12810000  1.0 0.1621875274
H  H57  1  0.32250000  0.64530000  0.51720000  1.0 0.1621875274
H  H58  1  0.87190000  0.35470000  0.67720000  1.0 0.1621875274
H  H59  1  0.67750000  0.19470000  0.32280000  1.0 0.1621875274
H  H60  1  0.12810000  0.80530000  0.48280000  1.0 0.1621875274
H  H61  1  0.48280000  0.67750000  0.35470000  1.0 0.1621875274
H  H62  1  0.32280000  0.12810000  0.64530000  1.0 0.1621875274
H  H63  1  0.67720000  0.32250000  0.80530000  1.0 0.1621875274
H  H64  1  0.51720000  0.87190000  0.19470000  1.0 0.1621875274
H  H65  1  0.35470000  0.48280000  0.67750000  1.0 0.1621875274
H  H66  1  0.64530000  0.32280000  0.12810000  1.0 0.1621875274
H  H67  1  0.80530000  0.67720000  0.32250000  1.0 0.1621875274
H  H68  1  0.19470000  0.51720000  0.87190000  1.0 0.1621875274
H  H69  1  0.67750000  0.35470000  0.48280000  1.0 0.1621875274
H  H70  1  0.12810000  0.64530000  0.32280000  1.0 0.1621875274
H  H71  1  0.32250000  0.80530000  0.67720000  1.0 0.1621875274
H  H72  1  0.87190000  0.19470000  0.51720000  1.0 0.1621875274
H  H73  1  0.21480000  0.25580000  0.30840000  1.0 0.1499535586
H  H74  1  0.94740000  0.90640000  0.69160000  1.0 0.1499535586
H  H75  1  0.05260000  0.74420000  0.95900000  1.0 0.1499535586
H  H76  1  0.78520000  0.09360000  0.04100000  1.0 0.1499535586
H  H77  1  0.30840000  0.21480000  0.25580000  1.0 0.1499535586
H  H78  1  0.69160000  0.94740000  0.90640000  1.0 0.1499535586
H  H79  1  0.95900000  0.05260000  0.74420000  1.0 0.1499535586
H  H80  1  0.04100000  0.78520000  0.09360000  1.0 0.1499535586
H  H81  1  0.25580000  0.30840000  0.21480000  1.0 0.1499535586
H  H82  1  0.90640000  0.69160000  0.94740000  1.0 0.1499535586
H  H83  1  0.74420000  0.95900000  0.05260000  1.0 0.1499535586
H  H84  1  0.09360000  0.04100000  0.78520000  1.0 0.1499535586
H  H85  1  0.78520000  0.74420000  0.69160000  1.0 0.1499535586
H  H86  1  0.05260000  0.09360000  0.30840000  1.0 0.1499535586
H  H87  1  0.94740000  0.25580000  0.04100000  1.0 0.1499535586
H  H88  1  0.21480000  0.90640000  0.95900000  1.0 0.1499535586
H  H89  1  0.69160000  0.78520000  0.74420000  1.0 0.1499535586
H  H90  1  0.30840000  0.05260000  0.09360000  1.0 0.1499535586
H  H91  1  0.04100000  0.94740000  0.25580000  1.0 0.1499535586
H  H92  1  0.95900000  0.21480000  0.90640000  1.0 0.1499535586
H  H93  1  0.74420000  0.69160000  0.78520000  1.0 0.1499535586
H  H94  1  0.09360000  0.30840000  0.05260000  1.0 0.1499535586
H  H95  1  0.25580000  0.04100000  0.94740000  1.0 0.1499535586
H  H96  1  0.90640000  0.95900000  0.21480000  1.0 0.1499535586
H  H97  1  0.43880000  0.18620000  0.38520000  1.0 0.1499535586
H  H98  1  0.80100000  0.05360000  0.61480000  1.0 0.1499535586
H  H99  1  0.19900000  0.81380000  0.25260000  1.0 0.1499535586
H  H100  1  0.56120000  0.94640000  0.74740000  1.0 0.1499535586
H  H101  1  0.38520000  0.43880000  0.18620000  1.0 0.1499535586
H  H102  1  0.61480000  0.80100000  0.05360000  1.0 0.1499535586
H  H103  1  0.25260000  0.19900000  0.81380000  1.0 0.1499535586
H  H104  1  0.74740000  0.56120000  0.94640000  1.0 0.1499535586
H  H105  1  0.18620000  0.38520000  0.43880000  1.0 0.1499535586
H  H106  1  0.05360000  0.61480000  0.80100000  1.0 0.1499535586
H  H107  1  0.81380000  0.25260000  0.19900000  1.0 0.1499535586
H  H108  1  0.94640000  0.74740000  0.56120000  1.0 0.1499535586
H  H109  1  0.56120000  0.81380000  0.61480000  1.0 0.1499535586
H  H110  1  0.19900000  0.94640000  0.38520000  1.0 0.1499535586
H  H111  1  0.80100000  0.18620000  0.74740000  1.0 0.1499535586
H  H112  1  0.43880000  0.05360000  0.25260000  1.0 0.1499535586
H  H113  1  0.61480000  0.56120000  0.81380000  1.0 0.1499535586
H  H114  1  0.38520000  0.19900000  0.94640000  1.0 0.1499535586
H  H115  1  0.74740000  0.80100000  0.18620000  1.0 0.1499535586
H  H116  1  0.25260000  0.43880000  0.05360000  1.0 0.1499535586
H  H117  1  0.81380000  0.61480000  0.56120000  1.0 0.1499535586
H  H118  1  0.94640000  0.38520000  0.19900000  1.0 0.1499535586
H  H119  1  0.18620000  0.74740000  0.80100000  1.0 0.1499535586
H  H120  1  0.05360000  0.25260000  0.43880000  1.0 0.1499535586
H  H121  1  0.51820000  0.19120000  0.39320000  1.0 0.1499535586
H  H122  1  0.79800000  0.12500000  0.60680000  1.0 0.1499535586
H  H123  1  0.20200000  0.80880000  0.32700000  1.0 0.1499535586
H  H124  1  0.48180000  0.87500000  0.67300000  1.0 0.1499535586
H  H125  1  0.39320000  0.51820000  0.19120000  1.0 0.1499535586
H  H126  1  0.60680000  0.79800000  0.12500000  1.0 0.1499535586
H  H127  1  0.32700000  0.20200000  0.80880000  1.0 0.1499535586
H  H128  1  0.67300000  0.48180000  0.87500000  1.0 0.1499535586
H  H129  1  0.19120000  0.39320000  0.51820000  1.0 0.1499535586
H  H130  1  0.12500000  0.60680000  0.79800000  1.0 0.1499535586
H  H131  1  0.80880000  0.32700000  0.20200000  1.0 0.1499535586
H  H132  1  0.87500000  0.67300000  0.48180000  1.0 0.1499535586
H  H133  1  0.48180000  0.80880000  0.60680000  1.0 0.1499535586
H  H134  1  0.20200000  0.87500000  0.39320000  1.0 0.1499535586
H  H135  1  0.79800000  0.19120000  0.67300000  1.0 0.1499535586
H  H136  1  0.51820000  0.12500000  0.32700000  1.0 0.1499535586
H  H137  1  0.60680000  0.48180000  0.80880000  1.0 0.1499535586
H  H138  1  0.39320000  0.20200000  0.87500000  1.0 0.1499535586
H  H139  1  0.67300000  0.79800000  0.19120000  1.0 0.1499535586
H  H140  1  0.32700000  0.51820000  0.12500000  1.0 0.1499535586
H  H141  1  0.80880000  0.60680000  0.48180000  1.0 0.1499535586
H  H142  1  0.87500000  0.39320000  0.20200000  1.0 0.1499535586
H  H143  1  0.19120000  0.67300000  0.79800000  1.0 0.1499535586
H  H144  1  0.12500000  0.32700000  0.51820000  1.0 0.1499535586
H  H145  1  0.67260000  0.19390000  0.42730000  1.0 0.046730818
H  H146  1  0.76660000  0.24530000  0.57270000  1.0 0.046730818
H  H147  1  0.23340000  0.80610000  0.47870000  1.0 0.046730818
H  H148  1  0.32740000  0.75470000  0.52130000  1.0 0.046730818
H  H149  1  0.42730000  0.67260000  0.19390000  1.0 0.046730818
H  H150  1  0.57270000  0.76660000  0.24530000  1.0 0.046730818
H  H151  1  0.47870000  0.23340000  0.80610000  1.0 0.046730818
H  H152  1  0.52130000  0.32740000  0.75470000  1.0 0.046730818
H  H153  1  0.19390000  0.42730000  0.67260000  1.0 0.046730818
H  H154  1  0.24530000  0.57270000  0.76660000  1.0 0.046730818
H  H155  1  0.80610000  0.47870000  0.23340000  1.0 0.046730818
H  H156  1  0.75470000  0.52130000  0.32740000  1.0 0.046730818
H  H157  1  0.32740000  0.80610000  0.57270000  1.0 0.046730818
H  H158  1  0.23340000  0.75470000  0.42730000  1.0 0.046730818
H  H159  1  0.76660000  0.19390000  0.52130000  1.0 0.046730818
H  H160  1  0.67260000  0.24530000  0.47870000  1.0 0.046730818
H  H161  1  0.57270000  0.32740000  0.80610000  1.0 0.046730818
H  H162  1  0.42730000  0.23340000  0.75470000  1.0 0.046730818
H  H163  1  0.52130000  0.76660000  0.19390000  1.0 0.046730818
H  H164  1  0.47870000  0.67260000  0.24530000  1.0 0.046730818
H  H165  1  0.80610000  0.57270000  0.32740000  1.0 0.046730818
H  H166  1  0.75470000  0.42730000  0.23340000  1.0 0.046730818
H  H167  1  0.19390000  0.52130000  0.76660000  1.0 0.046730818
H  H168  1  0.24530000  0.47870000  0.67260000  1.0 0.046730818
H  H169  1  0.69180000  0.22880000  0.48820000  1.0 0.0703918349
H  H170  1  0.74060000  0.20360000  0.51180000  1.0 0.0703918349
H  H171  1  0.25940000  0.77120000  0.46300000  1.0 0.0703918349
H  H172  1  0.30820000  0.79640000  0.53700000  1.0 0.0703918349
H  H173  1  0.48820000  0.69180000  0.22880000  1.0 0.0703918349
H  H174  1  0.51180000  0.74060000  0.20360000  1.0 0.0703918349
H  H175  1  0.46300000  0.25940000  0.77120000  1.0 0.0703918349
H  H176  1  0.53700000  0.30820000  0.79640000  1.0 0.0703918349
H  H177  1  0.22880000  0.48820000  0.69180000  1.0 0.0703918349
H  H178  1  0.20360000  0.51180000  0.74060000  1.0 0.0703918349
H  H179  1  0.77120000  0.46300000  0.25940000  1.0 0.0703918349
H  H180  1  0.79640000  0.53700000  0.30820000  1.0 0.0703918349
H  H181  1  0.30820000  0.77120000  0.51180000  1.0 0.0703918349
H  H182  1  0.25940000  0.79640000  0.48820000  1.0 0.0703918349
H  H183  1  0.74060000  0.22880000  0.53700000  1.0 0.0703918349
H  H184  1  0.69180000  0.20360000  0.46300000  1.0 0.0703918349
H  H185  1  0.51180000  0.30820000  0.77120000  1.0 0.0703918349
H  H186  1  0.48820000  0.25940000  0.79640000  1.0 0.0703918349
H  H187  1  0.53700000  0.74060000  0.22880000  1.0 0.0703918349
H  H188  1  0.46300000  0.69180000  0.20360000  1.0 0.0703918349
H  H189  1  0.77120000  0.51180000  0.30820000  1.0 0.0703918349
H  H190  1  0.79640000  0.48820000  0.25940000  1.0 0.0703918349
H  H191  1  0.22880000  0.53700000  0.74060000  1.0 0.0703918349
H  H192  1  0.20360000  0.46300000  0.69180000  1.0 0.0703918349
H  H193  1  0.65440000  0.23610000  0.44470000  1.0 -0.0025620181
H  H194  1  0.79140000  0.20970000  0.55530000  1.0 -0.0025620181
H  H195  1  0.20860000  0.76390000  0.41830000  1.0 -0.0025620181
H  H196  1  0.34560000  0.79030000  0.58170000  1.0 -0.0025620181
H  H197  1  0.44470000  0.65440000  0.23610000  1.0 -0.0025620181
H  H198  1  0.55530000  0.79140000  0.20970000  1.0 -0.0025620181
H  H199  1  0.41830000  0.20860000  0.76390000  1.0 -0.0025620181
H  H200  1  0.58170000  0.34560000  0.79030000  1.0 -0.0025620181
H  H201  1  0.23610000  0.44470000  0.65440000  1.0 -0.0025620181
H  H202  1  0.20970000  0.55530000  0.79140000  1.0 -0.0025620181
H  H203  1  0.76390000  0.41830000  0.20860000  1.0 -0.0025620181
H  H204  1  0.79030000  0.58170000  0.34560000  1.0 -0.0025620181
H  H205  1  0.34560000  0.76390000  0.55530000  1.0 -0.0025620181
H  H206  1  0.20860000  0.79030000  0.44470000  1.0 -0.0025620181
H  H207  1  0.79140000  0.23610000  0.58170000  1.0 -0.0025620181
H  H208  1  0.65440000  0.20970000  0.41830000  1.0 -0.0025620181
H  H209  1  0.55530000  0.34560000  0.76390000  1.0 -0.0025620181
H  H210  1  0.44470000  0.20860000  0.79030000  1.0 -0.0025620181
H  H211  1  0.58170000  0.79140000  0.23610000  1.0 -0.0025620181
H  H212  1  0.41830000  0.65440000  0.20970000  1.0 -0.0025620181
H  H213  1  0.76390000  0.55530000  0.34560000  1.0 -0.0025620181
H  H214  1  0.79030000  0.44470000  0.20860000  1.0 -0.0025620181
H  H215  1  0.23610000  0.58170000  0.79140000  1.0 -0.0025620181
H  H216  1  0.20970000  0.41830000  0.65440000  1.0 -0.0025620181
H  H217  1  0.51170000  0.14630000  0.49920000  1.0 0.1206778929
H  H218  1  0.64710000  0.01250000  0.50080000  1.0 0.1206778929
H  H219  1  0.35290000  0.85370000  0.36540000  1.0 0.1206778929
H  H220  1  0.48830000  0.98750000  0.63460000  1.0 0.1206778929
H  H221  1  0.49920000  0.51170000  0.14630000  1.0 0.1206778929
H  H222  1  0.50080000  0.64710000  0.01250000  1.0 0.1206778929
H  H223  1  0.36540000  0.35290000  0.85370000  1.0 0.1206778929
H  H224  1  0.63460000  0.48830000  0.98750000  1.0 0.1206778929
H  H225  1  0.14630000  0.49920000  0.51170000  1.0 0.1206778929
H  H226  1  0.01250000  0.50080000  0.64710000  1.0 0.1206778929
H  H227  1  0.85370000  0.36540000  0.35290000  1.0 0.1206778929
H  H228  1  0.98750000  0.63460000  0.48830000  1.0 0.1206778929
H  H229  1  0.48830000  0.85370000  0.50080000  1.0 0.1206778929
H  H230  1  0.35290000  0.98750000  0.49920000  1.0 0.1206778929
H  H231  1  0.64710000  0.14630000  0.63460000  1.0 0.1206778929
H  H232  1  0.51170000  0.01250000  0.36540000  1.0 0.1206778929
H  H233  1  0.50080000  0.48830000  0.85370000  1.0 0.1206778929
H  H234  1  0.49920000  0.35290000  0.98750000  1.0 0.1206778929
H  H235  1  0.63460000  0.64710000  0.14630000  1.0 0.1206778929
H  H236  1  0.36540000  0.51170000  0.01250000  1.0 0.1206778929
H  H237  1  0.85370000  0.50080000  0.48830000  1.0 0.1206778929
H  H238  1  0.98750000  0.49920000  0.35290000  1.0 0.1206778929
H  H239  1  0.14630000  0.63460000  0.64710000  1.0 0.1206778929
H  H240  1  0.01250000  0.36540000  0.51170000  1.0 0.1206778929
H  H241  1  0.44620000  0.05490000  0.45830000  1.0 0.0893398783
H  H242  1  0.59660000  0.98790000  0.54170000  1.0 0.0893398783
H  H243  1  0.40340000  0.94510000  0.39130000  1.0 0.0893398783
H  H244  1  0.55380000  0.01210000  0.60870000  1.0 0.0893398783
H  H245  1  0.45830000  0.44620000  0.05490000  1.0 0.0893398783
H  H246  1  0.54170000  0.59660000  0.98790000  1.0 0.0893398783
H  H247  1  0.39130000  0.40340000  0.94510000  1.0 0.0893398783
H  H248  1  0.60870000  0.55380000  0.01210000  1.0 0.0893398783
H  H249  1  0.05490000  0.45830000  0.44620000  1.0 0.0893398783
H  H250  1  0.98790000  0.54170000  0.59660000  1.0 0.0893398783
H  H251  1  0.94510000  0.39130000  0.40340000  1.0 0.0893398783
H  H252  1  0.01210000  0.60870000  0.55380000  1.0 0.0893398783
H  H253  1  0.55380000  0.94510000  0.54170000  1.0 0.0893398783
H  H254  1  0.40340000  0.01210000  0.45830000  1.0 0.0893398783
H  H255  1  0.59660000  0.05490000  0.60870000  1.0 0.0893398783
H  H256  1  0.44620000  0.98790000  0.39130000  1.0 0.0893398783
H  H257  1  0.54170000  0.55380000  0.94510000  1.0 0.0893398783
H  H258  1  0.45830000  0.40340000  0.01210000  1.0 0.0893398783
H  H259  1  0.60870000  0.59660000  0.05490000  1.0 0.0893398783
H  H260  1  0.39130000  0.44620000  0.98790000  1.0 0.0893398783
H  H261  1  0.94510000  0.54170000  0.55380000  1.0 0.0893398783
H  H262  1  0.01210000  0.45830000  0.40340000  1.0 0.0893398783
H  H263  1  0.05490000  0.60870000  0.59660000  1.0 0.0893398783
H  H264  1  0.98790000  0.39130000  0.44620000  1.0 0.0893398783
H  H265  1  0.31520000  0.06930000  0.19450000  1.0 0.0893398783
H  H266  1  0.87480000  0.12070000  0.80550000  1.0 0.0893398783
H  H267  1  0.12520000  0.93070000  0.24590000  1.0 0.0893398783
H  H268  1  0.68480000  0.87930000  0.75410000  1.0 0.0893398783
H  H269  1  0.19450000  0.31520000  0.06930000  1.0 0.0893398783
H  H270  1  0.80550000  0.87480000  0.12070000  1.0 0.0893398783
H  H271  1  0.24590000  0.12520000  0.93070000  1.0 0.0893398783
H  H272  1  0.75410000  0.68480000  0.87930000  1.0 0.0893398783
H  H273  1  0.06930000  0.19450000  0.31520000  1.0 0.0893398783
H  H274  1  0.12070000  0.80550000  0.87480000  1.0 0.0893398783
H  H275  1  0.93070000  0.24590000  0.12520000  1.0 0.0893398783
H  H276  1  0.87930000  0.75410000  0.68480000  1.0 0.0893398783
H  H277  1  0.68480000  0.93070000  0.80550000  1.0 0.0893398783
H  H278  1  0.12520000  0.87930000  0.19450000  1.0 0.0893398783
H  H279  1  0.87480000  0.06930000  0.75410000  1.0 0.0893398783
H  H280  1  0.31520000  0.12070000  0.24590000  1.0 0.0893398783
H  H281  1  0.80550000  0.68480000  0.93070000  1.0 0.0893398783
H  H282  1  0.19450000  0.12520000  0.87930000  1.0 0.0893398783
H  H283  1  0.75410000  0.87480000  0.06930000  1.0 0.0893398783
H  H284  1  0.24590000  0.31520000  0.12070000  1.0 0.0893398783
H  H285  1  0.93070000  0.80550000  0.68480000  1.0 0.0893398783
H  H286  1  0.87930000  0.19450000  0.12520000  1.0 0.0893398783
H  H287  1  0.06930000  0.75410000  0.87480000  1.0 0.0893398783
H  H288  1  0.12070000  0.24590000  0.31520000  1.0 0.0893398783
H  H289  1  0.34680000  0.12460000  0.24780000  1.0 0.0805839926
H  H290  1  0.87680000  0.09900000  0.75220000  1.0 0.0805839926
H  H291  1  0.12320000  0.87540000  0.22220000  1.0 0.0805839926
H  H292  1  0.65320000  0.90100000  0.77780000  1.0 0.0805839926
H  H293  1  0.24780000  0.34680000  0.12460000  1.0 0.0805839926
H  H294  1  0.75220000  0.87680000  0.09900000  1.0 0.0805839926
H  H295  1  0.22220000  0.12320000  0.87540000  1.0 0.0805839926
H  H296  1  0.77780000  0.65320000  0.90100000  1.0 0.0805839926
H  H297  1  0.12460000  0.24780000  0.34680000  1.0 0.0805839926
H  H298  1  0.09900000  0.75220000  0.87680000  1.0 0.0805839926
H  H299  1  0.87540000  0.22220000  0.12320000  1.0 0.0805839926
H  H300  1  0.90100000  0.77780000  0.65320000  1.0 0.0805839926
H  H301  1  0.65320000  0.87540000  0.75220000  1.0 0.0805839926
H  H302  1  0.12320000  0.90100000  0.24780000  1.0 0.0805839926
H  H303  1  0.87680000  0.12460000  0.77780000  1.0 0.0805839926
H  H304  1  0.34680000  0.09900000  0.22220000  1.0 0.0805839926
H  H305  1  0.75220000  0.65320000  0.87540000  1.0 0.0805839926
H  H306  1  0.24780000  0.12320000  0.90100000  1.0 0.0805839926
H  H307  1  0.77780000  0.87680000  0.12460000  1.0 0.0805839926
H  H308  1  0.22220000  0.34680000  0.09900000  1.0 0.0805839926
H  H309  1  0.87540000  0.75220000  0.65320000  1.0 0.0805839926
H  H310  1  0.90100000  0.24780000  0.12320000  1.0 0.0805839926
H  H311  1  0.12460000  0.77780000  0.87680000  1.0 0.0805839926
H  H312  1  0.09900000  0.22220000  0.34680000  1.0 0.0805839926
H  H313  1  0.28390000  0.09130000  0.21840000  1.0 0.0617711415
H  H314  1  0.87290000  0.06550000  0.78160000  1.0 0.0617711415
H  H315  1  0.12710000  0.90870000  0.19260000  1.0 0.0617711415
H  H316  1  0.71610000  0.93450000  0.80740000  1.0 0.0617711415
H  H317  1  0.21840000  0.28390000  0.09130000  1.0 0.0617711415
H  H318  1  0.78160000  0.87290000  0.06550000  1.0 0.0617711415
H  H319  1  0.19260000  0.12710000  0.90870000  1.0 0.0617711415
H  H320  1  0.80740000  0.71610000  0.93450000  1.0 0.0617711415
H  H321  1  0.09130000  0.21840000  0.28390000  1.0 0.0617711415
H  H322  1  0.06550000  0.78160000  0.87290000  1.0 0.0617711415
H  H323  1  0.90870000  0.19260000  0.12710000  1.0 0.0617711415
H  H324  1  0.93450000  0.80740000  0.71610000  1.0 0.0617711415
H  H325  1  0.71610000  0.90870000  0.78160000  1.0 0.0617711415
H  H326  1  0.12710000  0.93450000  0.21840000  1.0 0.0617711415
H  H327  1  0.87290000  0.09130000  0.80740000  1.0 0.0617711415
H  H328  1  0.28390000  0.06550000  0.19260000  1.0 0.0617711415
H  H329  1  0.78160000  0.71610000  0.90870000  1.0 0.0617711415
H  H330  1  0.21840000  0.12710000  0.93450000  1.0 0.0617711415
H  H331  1  0.80740000  0.87290000  0.09130000  1.0 0.0617711415
H  H332  1  0.19260000  0.28390000  0.06550000  1.0 0.0617711415
H  H333  1  0.90870000  0.78160000  0.71610000  1.0 0.0617711415
H  H334  1  0.93450000  0.21840000  0.12710000  1.0 0.0617711415
H  H335  1  0.09130000  0.80740000  0.87290000  1.0 0.0617711415
H  H336  1  0.06550000  0.19260000  0.28390000  1.0 0.0617711415
H  H337  1  0.32810000  0.06650000  0.39460000  1.0 0.1301155739
H  H338  1  0.67190000  0.93350000  0.60540000  1.0 0.1301155739
H  H339  1  0.32810000  0.93350000  0.26160000  1.0 0.1301155739
H  H340  1  0.67190000  0.06650000  0.73840000  1.0 0.1301155739
H  H341  1  0.39460000  0.32810000  0.06650000  1.0 0.1301155739
H  H342  1  0.60540000  0.67190000  0.93350000  1.0 0.1301155739
H  H343  1  0.26160000  0.32810000  0.93350000  1.0 0.1301155739
H  H344  1  0.73840000  0.67190000  0.06650000  1.0 0.1301155739
H  H345  1  0.06650000  0.39460000  0.32810000  1.0 0.1301155739
H  H346  1  0.93350000  0.60540000  0.67190000  1.0 0.1301155739
H  H347  1  0.93350000  0.26160000  0.32810000  1.0 0.1301155739
H  H348  1  0.06650000  0.73840000  0.67190000  1.0 0.1301155739
H  H349  1  0.33290000  0.99460000  0.40470000  1.0 0.101635483
H  H350  1  0.58990000  0.92820000  0.59530000  1.0 0.101635483
H  H351  1  0.41010000  0.00540000  0.33830000  1.0 0.101635483
H  H352  1  0.66710000  0.07180000  0.66170000  1.0 0.101635483
H  H353  1  0.40470000  0.33290000  0.99460000  1.0 0.101635483
H  H354  1  0.59530000  0.58990000  0.92820000  1.0 0.101635483
H  H355  1  0.33830000  0.41010000  0.00540000  1.0 0.101635483
H  H356  1  0.66170000  0.66710000  0.07180000  1.0 0.101635483
H  H357  1  0.99460000  0.40470000  0.33290000  1.0 0.101635483
H  H358  1  0.92820000  0.59530000  0.58990000  1.0 0.101635483
H  H359  1  0.00540000  0.33830000  0.41010000  1.0 0.101635483
H  H360  1  0.07180000  0.66170000  0.66710000  1.0 0.101635483
H  H361  1  0.66710000  0.00540000  0.59530000  1.0 0.101635483
H  H362  1  0.41010000  0.07180000  0.40470000  1.0 0.101635483
H  H363  1  0.58990000  0.99460000  0.66170000  1.0 0.101635483
H  H364  1  0.33290000  0.92820000  0.33830000  1.0 0.101635483
H  H365  1  0.59530000  0.66710000  0.00540000  1.0 0.101635483
H  H366  1  0.40470000  0.41010000  0.07180000  1.0 0.101635483
H  H367  1  0.66170000  0.58990000  0.99460000  1.0 0.101635483
H  H368  1  0.33830000  0.33290000  0.92820000  1.0 0.101635483
H  H369  1  0.00540000  0.59530000  0.66710000  1.0 0.101635483
H  H370  1  0.07180000  0.40470000  0.41010000  1.0 0.101635483
H  H371  1  0.99460000  0.66170000  0.58990000  1.0 0.101635483
H  H372  1  0.92820000  0.33830000  0.33290000  1.0 0.101635483
H  H373  1  0.62340000  0.18410000  0.38790000  1.0 0.0387685486
H  H374  1  0.79620000  0.23550000  0.61210000  1.0 0.0387685486
H  H375  1  0.20380000  0.81590000  0.43930000  1.0 0.0387685486
H  H376  1  0.37660000  0.76450000  0.56070000  1.0 0.0387685486
H  H377  1  0.38790000  0.62340000  0.18410000  1.0 0.0387685486
H  H378  1  0.61210000  0.79620000  0.23550000  1.0 0.0387685486
H  H379  1  0.43930000  0.20380000  0.81590000  1.0 0.0387685486
H  H380  1  0.56070000  0.37660000  0.76450000  1.0 0.0387685486
H  H381  1  0.18410000  0.38790000  0.62340000  1.0 0.0387685486
H  H382  1  0.23550000  0.61210000  0.79620000  1.0 0.0387685486
H  H383  1  0.81590000  0.43930000  0.20380000  1.0 0.0387685486
H  H384  1  0.76450000  0.56070000  0.37660000  1.0 0.0387685486
H  H385  1  0.37660000  0.81590000  0.61210000  1.0 0.0387685486
H  H386  1  0.20380000  0.76450000  0.38790000  1.0 0.0387685486
H  H387  1  0.79620000  0.18410000  0.56070000  1.0 0.0387685486
H  H388  1  0.62340000  0.23550000  0.43930000  1.0 0.0387685486
H  H389  1  0.61210000  0.37660000  0.81590000  1.0 0.0387685486
H  H390  1  0.38790000  0.20380000  0.76450000  1.0 0.0387685486
H  H391  1  0.56070000  0.79620000  0.18410000  1.0 0.0387685486
H  H392  1  0.43930000  0.62340000  0.23550000  1.0 0.0387685486
H  H393  1  0.81590000  0.61210000  0.37660000  1.0 0.0387685486
H  H394  1  0.76450000  0.38790000  0.20380000  1.0 0.0387685486
H  H395  1  0.18410000  0.56070000  0.79620000  1.0 0.0387685486
H  H396  1  0.23550000  0.43930000  0.62340000  1.0 0.0387685486
H  H397  1  0.59310000  0.21210000  0.40660000  1.0 0.0333532736
H  H398  1  0.80550000  0.18650000  0.59340000  1.0 0.0333532736
H  H399  1  0.19450000  0.78790000  0.38100000  1.0 0.0333532736
H  H400  1  0.40690000  0.81350000  0.61900000  1.0 0.0333532736
H  H401  1  0.40660000  0.59310000  0.21210000  1.0 0.0333532736
H  H402  1  0.59340000  0.80550000  0.18650000  1.0 0.0333532736
H  H403  1  0.38100000  0.19450000  0.78790000  1.0 0.0333532736
H  H404  1  0.61900000  0.40690000  0.81350000  1.0 0.0333532736
H  H405  1  0.21210000  0.40660000  0.59310000  1.0 0.0333532736
H  H406  1  0.18650000  0.59340000  0.80550000  1.0 0.0333532736
H  H407  1  0.78790000  0.38100000  0.19450000  1.0 0.0333532736
H  H408  1  0.81350000  0.61900000  0.40690000  1.0 0.0333532736
H  H409  1  0.40690000  0.78790000  0.59340000  1.0 0.0333532736
H  H410  1  0.19450000  0.81350000  0.40660000  1.0 0.0333532736
H  H411  1  0.80550000  0.21210000  0.61900000  1.0 0.0333532736
H  H412  1  0.59310000  0.18650000  0.38100000  1.0 0.0333532736
H  H413  1  0.59340000  0.40690000  0.78790000  1.0 0.0333532736
H  H414  1  0.40660000  0.19450000  0.81350000  1.0 0.0333532736
H  H415  1  0.61900000  0.80550000  0.21210000  1.0 0.0333532736
H  H416  1  0.38100000  0.59310000  0.18650000  1.0 0.0333532736
H  H417  1  0.78790000  0.59340000  0.40690000  1.0 0.0333532736
H  H418  1  0.81350000  0.40660000  0.19450000  1.0 0.0333532736
H  H419  1  0.21210000  0.61900000  0.80550000  1.0 0.0333532736
H  H420  1  0.18650000  0.38100000  0.59310000  1.0 0.0333532736
H  H421  1  0.65340000  0.23320000  0.44620000  1.0 -0.009757418
H  H422  1  0.78700000  0.20720000  0.55380000  1.0 -0.0025620181
H  H423  1  0.21300000  0.76680000  0.42020000  1.0 -0.009757418
H  H424  1  0.34660000  0.79280000  0.57980000  1.0 -0.009757418
H  H425  1  0.44620000  0.65340000  0.23320000  1.0 -0.009757418
H  H426  1  0.55380000  0.78700000  0.20720000  1.0 -0.009757418
H  H427  1  0.42020000  0.21300000  0.76680000  1.0 -0.0025620181
H  H428  1  0.57980000  0.34660000  0.79280000  1.0 -0.0025620181
H  H429  1  0.23320000  0.44620000  0.65340000  1.0 -0.009757418
H  H430  1  0.20720000  0.55380000  0.78700000  1.0 -0.0025620181
H  H431  1  0.76680000  0.42020000  0.21300000  1.0 -0.009757418
H  H432  1  0.79280000  0.57980000  0.34660000  1.0 -0.009757418
H  H433  1  0.34660000  0.76680000  0.55380000  1.0 -0.009757418
H  H434  1  0.21300000  0.79280000  0.44620000  1.0 -0.009757418
H  H435  1  0.78700000  0.23320000  0.57980000  1.0 -0.0025620181
H  H436  1  0.65340000  0.20720000  0.42020000  1.0 -0.009757418
H  H437  1  0.55380000  0.34660000  0.76680000  1.0 -0.0025620181
H  H438  1  0.44620000  0.21300000  0.79280000  1.0 -0.0025620181
H  H439  1  0.57980000  0.78700000  0.23320000  1.0 -0.009757418
H  H440  1  0.42020000  0.65340000  0.20720000  1.0 -0.009757418
H  H441  1  0.76680000  0.55380000  0.34660000  1.0 -0.009757418
H  H442  1  0.79280000  0.44620000  0.21300000  1.0 -0.009757418
H  H443  1  0.23320000  0.57980000  0.78700000  1.0 -0.0025620181
H  H444  1  0.20720000  0.42020000  0.65340000  1.0 -0.009757418
H  H445  1  0.23460000  0.99740000  0.18580000  1.0 0.0387685486
H  H446  1  0.81160000  0.04880000  0.81420000  1.0 0.0387685486
H  H447  1  0.18840000  0.00260000  0.23720000  1.0 0.0387685486
H  H448  1  0.76540000  0.95120000  0.76280000  1.0 0.0387685486
H  H449  1  0.18580000  0.23460000  0.99740000  1.0 0.0387685486
H  H450  1  0.81420000  0.81160000  0.04880000  1.0 0.0387685486
H  H451  1  0.23720000  0.18840000  0.00260000  1.0 0.0387685486
H  H452  1  0.76280000  0.76540000  0.95120000  1.0 0.0387685486
H  H453  1  0.99740000  0.18580000  0.23460000  1.0 0.0387685486
H  H454  1  0.04880000  0.81420000  0.81160000  1.0 0.0387685486
H  H455  1  0.00260000  0.23720000  0.18840000  1.0 0.0387685486
H  H456  1  0.95120000  0.76280000  0.76540000  1.0 0.0387685486
H  H457  1  0.76540000  0.00260000  0.81420000  1.0 0.0387685486
H  H458  1  0.18840000  0.95120000  0.18580000  1.0 0.0387685486
H  H459  1  0.81160000  0.99740000  0.76280000  1.0 0.0387685486
H  H460  1  0.23460000  0.04880000  0.23720000  1.0 0.0387685486
H  H461  1  0.81420000  0.76540000  0.00260000  1.0 0.0387685486
H  H462  1  0.18580000  0.18840000  0.95120000  1.0 0.0387685486
H  H463  1  0.76280000  0.81160000  0.99740000  1.0 0.0387685486
H  H464  1  0.23720000  0.23460000  0.04880000  1.0 0.0387685486
H  H465  1  0.00260000  0.81420000  0.76540000  1.0 0.0387685486
H  H466  1  0.95120000  0.18580000  0.18840000  1.0 0.0387685486
H  H467  1  0.99740000  0.76280000  0.81160000  1.0 0.0387685486
H  H468  1  0.04880000  0.23720000  0.23460000  1.0 0.0387685486
H  H469  1  0.23620000  0.05250000  0.20930000  1.0 0.046730818
H  H470  1  0.84320000  0.02690000  0.79070000  1.0 0.046730818
H  H471  1  0.15680000  0.94750000  0.18370000  1.0 0.046730818
H  H472  1  0.76380000  0.97310000  0.81630000  1.0 0.046730818
H  H473  1  0.20930000  0.23620000  0.05250000  1.0 0.046730818
H  H474  1  0.79070000  0.84320000  0.02690000  1.0 0.046730818
H  H475  1  0.18370000  0.15680000  0.94750000  1.0 0.046730818
H  H476  1  0.81630000  0.76380000  0.97310000  1.0 0.046730818
H  H477  1  0.05250000  0.20930000  0.23620000  1.0 0.046730818
H  H478  1  0.02690000  0.79070000  0.84320000  1.0 0.046730818
H  H479  1  0.94750000  0.18370000  0.15680000  1.0 0.046730818
H  H480  1  0.97310000  0.81630000  0.76380000  1.0 0.046730818
H  H481  1  0.76380000  0.94750000  0.79070000  1.0 0.046730818
H  H482  1  0.15680000  0.97310000  0.20930000  1.0 0.046730818
H  H483  1  0.84320000  0.05250000  0.81630000  1.0 0.046730818
H  H484  1  0.23620000  0.02690000  0.18370000  1.0 0.046730818
H  H485  1  0.79070000  0.76380000  0.94750000  1.0 0.046730818
H  H486  1  0.20930000  0.15680000  0.97310000  1.0 0.046730818
H  H487  1  0.81630000  0.84320000  0.05250000  1.0 0.046730818
H  H488  1  0.18370000  0.23620000  0.02690000  1.0 0.046730818
H  H489  1  0.94750000  0.79070000  0.76380000  1.0 0.046730818
H  H490  1  0.97310000  0.20930000  0.15680000  1.0 0.046730818
H  H491  1  0.05250000  0.81630000  0.84320000  1.0 0.046730818
H  H492  1  0.02690000  0.18370000  0.23620000  1.0 0.046730818
H  H493  1  0.23300000  0.01950000  0.23930000  1.0 -0.0309949273
H  H494  1  0.78020000  0.99370000  0.76070000  1.0 -0.0309949273
H  H495  1  0.21980000  0.98050000  0.21350000  1.0 -0.0309949273
H  H496  1  0.76700000  0.00630000  0.78650000  1.0 -0.0309949273
H  H497  1  0.23930000  0.23300000  0.01950000  1.0 -0.0309949273
H  H498  1  0.76070000  0.78020000  0.99370000  1.0 -0.0309949273
H  H499  1  0.21350000  0.21980000  0.98050000  1.0 -0.0309949273
H  H500  1  0.78650000  0.76700000  0.00630000  1.0 -0.0309949273
H  H501  1  0.01950000  0.23930000  0.23300000  1.0 -0.0309949273
H  H502  1  0.99370000  0.76070000  0.78020000  1.0 -0.0309949273
H  H503  1  0.98050000  0.21350000  0.21980000  1.0 -0.0309949273
H  H504  1  0.00630000  0.78650000  0.76700000  1.0 -0.0309949273
H  H505  1  0.76700000  0.98050000  0.76070000  1.0 -0.0309949273
H  H506  1  0.21980000  0.00630000  0.23930000  1.0 -0.0309949273
H  H507  1  0.78020000  0.01950000  0.78650000  1.0 -0.0309949273
H  H508  1  0.23300000  0.99370000  0.21350000  1.0 -0.0309949273
H  H509  1  0.76070000  0.76700000  0.98050000  1.0 -0.0309949273
H  H510  1  0.23930000  0.21980000  0.00630000  1.0 -0.0309949273
H  H511  1  0.78650000  0.78020000  0.01950000  1.0 -0.0309949273
H  H512  1  0.21350000  0.23300000  0.99370000  1.0 -0.0309949273
H  H513  1  0.98050000  0.76070000  0.76700000  1.0 -0.0309949273
H  H514  1  0.00630000  0.23930000  0.21980000  1.0 -0.0309949273
H  H515  1  0.01950000  0.78650000  0.78020000  1.0 -0.0309949273
H  H516  1  0.99370000  0.21350000  0.23300000  1.0 -0.0309949273
H  H517  1  0.53780000  0.05980000  0.54440000  1.0 0.0703918349
H  H518  1  0.51540000  0.99340000  0.45560000  1.0 0.0703918349
H  H519  1  0.48460000  0.94020000  0.47800000  1.0 0.0703918349
H  H520  1  0.46220000  0.00660000  0.52200000  1.0 0.0703918349
H  H521  1  0.54440000  0.53780000  0.05980000  1.0 0.0703918349
H  H522  1  0.45560000  0.51540000  0.99340000  1.0 0.0805839926
H  H523  1  0.47800000  0.48460000  0.94020000  1.0 0.0703918349
H  H524  1  0.52200000  0.46220000  0.00660000  1.0 0.0703918349
H  H525  1  0.05980000  0.54440000  0.53780000  1.0 0.0703918349
H  H526  1  0.99340000  0.45560000  0.51540000  1.0 0.0805839926
H  H527  1  0.94020000  0.47800000  0.48460000  1.0 0.0703918349
H  H528  1  0.00660000  0.52200000  0.46220000  1.0 0.0703918349
H  H529  1  0.46220000  0.94020000  0.45560000  1.0 0.0703918349
H  H530  1  0.48460000  0.00660000  0.54440000  1.0 0.0703918349
H  H531  1  0.51540000  0.05980000  0.52200000  1.0 0.0703918349
H  H532  1  0.53780000  0.99340000  0.47800000  1.0 0.0703918349
H  H533  1  0.45560000  0.46220000  0.94020000  1.0 0.0703918349
H  H534  1  0.54440000  0.48460000  0.00660000  1.0 0.0703918349
H  H535  1  0.52200000  0.51540000  0.05980000  1.0 0.0703918349
H  H536  1  0.47800000  0.53780000  0.99340000  1.0 0.0805839926
H  H537  1  0.94020000  0.45560000  0.46220000  1.0 0.0703918349
H  H538  1  0.00660000  0.54440000  0.48460000  1.0 0.0703918349
H  H539  1  0.05980000  0.52200000  0.51540000  1.0 0.0805839926
H  H540  1  0.99340000  0.47800000  0.53780000  1.0 0.0805839926
H  H541  1  0.56120000  0.14610000  0.55010000  1.0 0.101635483
H  H542  1  0.59600000  0.01110000  0.44990000  1.0 0.101635483
H  H543  1  0.40400000  0.85390000  0.41510000  1.0 0.101635483
H  H544  1  0.43880000  0.98890000  0.58490000  1.0 0.101635483
H  H545  1  0.55010000  0.56120000  0.14610000  1.0 0.101635483
H  H546  1  0.44990000  0.59600000  0.01110000  1.0 0.101635483
H  H547  1  0.41510000  0.40400000  0.85390000  1.0 0.101635483
H  H548  1  0.58490000  0.43880000  0.98890000  1.0 0.101635483
H  H549  1  0.14610000  0.55010000  0.56120000  1.0 0.101635483
H  H550  1  0.01110000  0.44990000  0.59600000  1.0 0.101635483
H  H551  1  0.85390000  0.41510000  0.40400000  1.0 0.101635483
H  H552  1  0.98890000  0.58490000  0.43880000  1.0 0.101635483
H  H553  1  0.43880000  0.85390000  0.44990000  1.0 0.101635483
H  H554  1  0.40400000  0.98890000  0.55010000  1.0 0.101635483
H  H555  1  0.59600000  0.14610000  0.58490000  1.0 0.101635483
H  H556  1  0.56120000  0.01110000  0.41510000  1.0 0.101635483
H  H557  1  0.44990000  0.43880000  0.85390000  1.0 0.101635483
H  H558  1  0.55010000  0.40400000  0.98890000  1.0 0.101635483
H  H559  1  0.58490000  0.59600000  0.14610000  1.0 0.101635483
H  H560  1  0.41510000  0.56120000  0.01110000  1.0 0.101635483
H  H561  1  0.85390000  0.44990000  0.43880000  1.0 0.101635483
H  H562  1  0.98890000  0.55010000  0.40400000  1.0 0.101635483
H  H563  1  0.14610000  0.58490000  0.59600000  1.0 0.101635483
H  H564  1  0.01110000  0.41510000  0.56120000  1.0 0.101635483
C  C1  1  0.49532000  0.27509000  0.56837000  1.0 -0.0309949273
C  C2  1  0.70672000  0.92695000  0.43163000  1.0 -0.0309949273
C  C3  1  0.29328000  0.72491000  0.22023000  1.0 -0.0309949273
C  C4  1  0.50468000  0.07305000  0.77977000  1.0 -0.0309949273
C  C5  1  0.56837000  0.49532000  0.27509000  1.0 -0.0309949273
C  C6  1  0.43163000  0.70672000  0.92695000  1.0 -0.0309949273
C  C7  1  0.22023000  0.29328000  0.72491000  1.0 -0.0309949273
C  C8  1  0.77977000  0.50468000  0.07305000  1.0 -0.0309949273
C  C9  1  0.27509000  0.56837000  0.49532000  1.0 -0.0309949273
C  C10  1  0.92695000  0.43163000  0.70672000  1.0 -0.0309949273
C  C11  1  0.72491000  0.22023000  0.29328000  1.0 -0.0309949273
C  C12  1  0.07305000  0.77977000  0.50468000  1.0 -0.0309949273
C  C13  1  0.50468000  0.72491000  0.43163000  1.0 -0.0309949273
C  C14  1  0.29328000  0.07305000  0.56837000  1.0 -0.0309949273
C  C15  1  0.70672000  0.27509000  0.77977000  1.0 -0.0309949273
C  C16  1  0.49532000  0.92695000  0.22023000  1.0 -0.0309949273
C  C17  1  0.43163000  0.50468000  0.72491000  1.0 -0.0309949273
C  C18  1  0.56837000  0.29328000  0.07305000  1.0 -0.0309949273
C  C19  1  0.77977000  0.70672000  0.27509000  1.0 -0.0309949273
C  C20  1  0.22023000  0.49532000  0.92695000  1.0 -0.0309949273
C  C21  1  0.72491000  0.43163000  0.50468000  1.0 -0.0309949273
C  C22  1  0.07305000  0.56837000  0.29328000  1.0 -0.0309949273
C  C23  1  0.27509000  0.77977000  0.70672000  1.0 -0.0309949273
C  C24  1  0.92695000  0.22023000  0.49532000  1.0 -0.0309949273
C  C25  1  0.45224000  0.24359000  0.51735000  1.0 -0.118606913
C  C26  1  0.72624000  0.93489000  0.48265000  1.0 -0.118606913
C  C27  1  0.27376000  0.75641000  0.20865000  1.0 -0.118606913
C  C28  1  0.54776000  0.06511000  0.79135000  1.0 -0.118606913
C  C29  1  0.51735000  0.45224000  0.24359000  1.0 -0.118606913
C  C30  1  0.48265000  0.72624000  0.93489000  1.0 -0.118606913
C  C31  1  0.20865000  0.27376000  0.75641000  1.0 -0.118606913
C  C32  1  0.79135000  0.54776000  0.06511000  1.0 -0.118606913
C  C33  1  0.24359000  0.51735000  0.45224000  1.0 -0.118606913
C  C34  1  0.93489000  0.48265000  0.72624000  1.0 -0.118606913
C  C35  1  0.75641000  0.20865000  0.27376000  1.0 -0.118606913
C  C36  1  0.06511000  0.79135000  0.54776000  1.0 -0.118606913
C  C37  1  0.54776000  0.75641000  0.48265000  1.0 -0.118606913
C  C38  1  0.27376000  0.06511000  0.51735000  1.0 -0.118606913
C  C39  1  0.72624000  0.24359000  0.79135000  1.0 -0.118606913
C  C40  1  0.45224000  0.93489000  0.20865000  1.0 -0.118606913
C  C41  1  0.48265000  0.54776000  0.75641000  1.0 -0.118606913
C  C42  1  0.51735000  0.27376000  0.06511000  1.0 -0.118606913
C  C43  1  0.79135000  0.72624000  0.24359000  1.0 -0.118606913
C  C44  1  0.20865000  0.45224000  0.93489000  1.0 -0.118606913
C  C45  1  0.75641000  0.48265000  0.54776000  1.0 -0.118606913
C  C46  1  0.06511000  0.51735000  0.27376000  1.0 -0.118606913
C  C47  1  0.24359000  0.79135000  0.72624000  1.0 -0.118606913
C  C48  1  0.93489000  0.20865000  0.45224000  1.0 -0.118606913
C  C49  1  0.40194000  0.23888000  0.50646000  1.0 -0.0175345497
C  C50  1  0.73242000  0.89548000  0.49354000  1.0 -0.0175345497
C  C51  1  0.26758000  0.76112000  0.16306000  1.0 -0.0175345497
C  C52  1  0.59806000  0.10452000  0.83694000  1.0 -0.0175345497
C  C53  1  0.50646000  0.40194000  0.23888000  1.0 -0.0175345497
C  C54  1  0.49354000  0.73242000  0.89548000  1.0 -0.0175345497
C  C55  1  0.16306000  0.26758000  0.76112000  1.0 -0.0175345497
C  C56  1  0.83694000  0.59806000  0.10452000  1.0 -0.0175345497
C  C57  1  0.23888000  0.50646000  0.40194000  1.0 -0.0175345497
C  C58  1  0.89548000  0.49354000  0.73242000  1.0 -0.0175345497
C  C59  1  0.76112000  0.16306000  0.26758000  1.0 -0.0175345497
C  C60  1  0.10452000  0.83694000  0.59806000  1.0 -0.0175345497
C  C61  1  0.59806000  0.76112000  0.49354000  1.0 -0.0175345497
C  C62  1  0.26758000  0.10452000  0.50646000  1.0 -0.0175345497
C  C63  1  0.73242000  0.23888000  0.83694000  1.0 -0.0175345497
C  C64  1  0.40194000  0.89548000  0.16306000  1.0 -0.0175345497
C  C65  1  0.49354000  0.59806000  0.76112000  1.0 -0.0175345497
C  C66  1  0.50646000  0.26758000  0.10452000  1.0 -0.0175345497
C  C67  1  0.83694000  0.73242000  0.23888000  1.0 -0.0175345497
C  C68  1  0.16306000  0.40194000  0.89548000  1.0 -0.0175345497
C  C69  1  0.76112000  0.49354000  0.59806000  1.0 -0.0175345497
C  C70  1  0.10452000  0.50646000  0.26758000  1.0 -0.0175345497
C  C71  1  0.23888000  0.83694000  0.73242000  1.0 -0.0175345497
C  C72  1  0.89548000  0.16306000  0.40194000  1.0 -0.0175345497
C  C73  1  0.39609000  0.26606000  0.54871000  1.0 -0.0970416601
C  C74  1  0.71735000  0.84738000  0.45129000  1.0 -0.0970416601
C  C75  1  0.28265000  0.73394000  0.13003000  1.0 -0.0970416601
C  C76  1  0.60391000  0.15262000  0.86997000  1.0 -0.0970416601
C  C77  1  0.54871000  0.39609000  0.26606000  1.0 -0.0970416601
C  C78  1  0.45129000  0.71735000  0.84738000  1.0 -0.0970416601
C  C79  1  0.13003000  0.28265000  0.73394000  1.0 -0.0970416601
C  C80  1  0.86997000  0.60391000  0.15262000  1.0 -0.0970416601
C  C81  1  0.26606000  0.54871000  0.39609000  1.0 -0.0970416601
C  C82  1  0.84738000  0.45129000  0.71735000  1.0 -0.0970416601
C  C83  1  0.73394000  0.13003000  0.28265000  1.0 -0.0970416601
C  C84  1  0.15262000  0.86997000  0.60391000  1.0 -0.0970416601
C  C85  1  0.60391000  0.73394000  0.45129000  1.0 -0.0970416601
C  C86  1  0.28265000  0.15262000  0.54871000  1.0 -0.0970416601
C  C87  1  0.71735000  0.26606000  0.86997000  1.0 -0.0970416601
C  C88  1  0.39609000  0.84738000  0.13003000  1.0 -0.0970416601
C  C89  1  0.45129000  0.60391000  0.73394000  1.0 -0.0970416601
C  C90  1  0.54871000  0.28265000  0.15262000  1.0 -0.0970416601
C  C91  1  0.86997000  0.71735000  0.26606000  1.0 -0.0970416601
C  C92  1  0.13003000  0.39609000  0.84738000  1.0 -0.0970416601
C  C93  1  0.73394000  0.45129000  0.60391000  1.0 -0.0970416601
C  C94  1  0.15262000  0.54871000  0.28265000  1.0 -0.0970416601
C  C95  1  0.26606000  0.86997000  0.71735000  1.0 -0.0970416601
C  C96  1  0.84738000  0.13003000  0.39609000  1.0 -0.0970416601
C  C97  1  0.43874000  0.29678000  0.60056000  1.0 -0.0175345497
C  C98  1  0.69622000  0.83818000  0.39944000  1.0 -0.0175345497
C  C99  1  0.30378000  0.70322000  0.14196000  1.0 -0.0175345497
C  C100  1  0.56126000  0.16182000  0.85804000  1.0 -0.0175345497
C  C101  1  0.60056000  0.43874000  0.29678000  1.0 -0.0175345497
C  C102  1  0.39944000  0.69622000  0.83818000  1.0 -0.0175345497
C  C103  1  0.14196000  0.30378000  0.70322000  1.0 -0.0175345497
C  C104  1  0.85804000  0.56126000  0.16182000  1.0 -0.0175345497
C  C105  1  0.29678000  0.60056000  0.43874000  1.0 -0.0175345497
C  C106  1  0.83818000  0.39944000  0.69622000  1.0 -0.0175345497
C  C107  1  0.70322000  0.14196000  0.30378000  1.0 -0.0175345497
C  C108  1  0.16182000  0.85804000  0.56126000  1.0 -0.0175345497
C  C109  1  0.56126000  0.70322000  0.39944000  1.0 -0.0175345497
C  C110  1  0.30378000  0.16182000  0.60056000  1.0 -0.0175345497
C  C111  1  0.69622000  0.29678000  0.85804000  1.0 -0.0175345497
C  C112  1  0.43874000  0.83818000  0.14196000  1.0 -0.0175345497
C  C113  1  0.39944000  0.56126000  0.70322000  1.0 -0.0175345497
C  C114  1  0.60056000  0.30378000  0.16182000  1.0 -0.0175345497
C  C115  1  0.85804000  0.69622000  0.29678000  1.0 -0.0175345497
C  C116  1  0.14196000  0.43874000  0.83818000  1.0 -0.0175345497
C  C117  1  0.70322000  0.39944000  0.56126000  1.0 -0.0175345497
C  C118  1  0.16182000  0.60056000  0.30378000  1.0 -0.0175345497
C  C119  1  0.29678000  0.85804000  0.69622000  1.0 -0.0175345497
C  C120  1  0.83818000  0.14196000  0.43874000  1.0 -0.0175345497
C  C121  1  0.48829000  0.30147000  0.61030000  1.0 -0.009757418
C  C122  1  0.69117000  0.87799000  0.38970000  1.0 -0.009757418
C  C123  1  0.30883000  0.69853000  0.18682000  1.0 -0.009757418
C  C124  1  0.51171000  0.12201000  0.81318000  1.0 -0.009757418
C  C125  1  0.61030000  0.48829000  0.30147000  1.0 -0.009757418
C  C126  1  0.38970000  0.69117000  0.87799000  1.0 -0.009757418
C  C127  1  0.18682000  0.30883000  0.69853000  1.0 -0.009757418
C  C128  1  0.81318000  0.51171000  0.12201000  1.0 -0.009757418
C  C129  1  0.30147000  0.61030000  0.48829000  1.0 -0.009757418
C  C130  1  0.87799000  0.38970000  0.69117000  1.0 -0.009757418
C  C131  1  0.69853000  0.18682000  0.30883000  1.0 -0.009757418
C  C132  1  0.12201000  0.81318000  0.51171000  1.0 -0.009757418
C  C133  1  0.51171000  0.69853000  0.38970000  1.0 -0.009757418
C  C134  1  0.30883000  0.12201000  0.61030000  1.0 -0.009757418
C  C135  1  0.69117000  0.30147000  0.81318000  1.0 -0.009757418
C  C136  1  0.48829000  0.87799000  0.18682000  1.0 -0.009757418
C  C137  1  0.38970000  0.51171000  0.69853000  1.0 -0.009757418
C  C138  1  0.61030000  0.30883000  0.12201000  1.0 -0.009757418
C  C139  1  0.81318000  0.69117000  0.30147000  1.0 -0.009757418
C  C140  1  0.18682000  0.48829000  0.87799000  1.0 -0.009757418
C  C141  1  0.69853000  0.38970000  0.51171000  1.0 -0.009757418
C  C142  1  0.12201000  0.61030000  0.30883000  1.0 -0.009757418
C  C143  1  0.30147000  0.81318000  0.69117000  1.0 -0.009757418
C  C144  1  0.87799000  0.18682000  0.48829000  1.0 -0.009757418
C  C145  1  0.54922000  0.27973000  0.57901000  1.0 0.5768680469
C  C146  1  0.70072000  0.97021000  0.42099000  1.0 0.5768680469
C  C147  1  0.29928000  0.72027000  0.26949000  1.0 0.5768680469
C  C148  1  0.45078000  0.02979000  0.73051000  1.0 0.5768680469
C  C149  1  0.57901000  0.54922000  0.27973000  1.0 0.5768680469
C  C150  1  0.42099000  0.70072000  0.97021000  1.0 0.5768680469
C  C151  1  0.26949000  0.29928000  0.72027000  1.0 0.5768680469
C  C152  1  0.73051000  0.45078000  0.02979000  1.0 0.5768680469
C  C153  1  0.27973000  0.57901000  0.54922000  1.0 0.5768680469
C  C154  1  0.97021000  0.42099000  0.70072000  1.0 0.5768680469
C  C155  1  0.72027000  0.26949000  0.29928000  1.0 0.5768680469
C  C156  1  0.02979000  0.73051000  0.45078000  1.0 0.5768680469
C  C157  1  0.45078000  0.72027000  0.42099000  1.0 0.5768680469
C  C158  1  0.29928000  0.02979000  0.57901000  1.0 0.5768680469
C  C159  1  0.70072000  0.27973000  0.73051000  1.0 0.5768680469
C  C160  1  0.54922000  0.97021000  0.26949000  1.0 0.5768680469
C  C161  1  0.42099000  0.45078000  0.72027000  1.0 0.5768680469
C  C162  1  0.57901000  0.29928000  0.02979000  1.0 0.5768680469
C  C163  1  0.73051000  0.70072000  0.27973000  1.0 0.5768680469
C  C164  1  0.26949000  0.54922000  0.97021000  1.0 0.5768680469
C  C165  1  0.72027000  0.42099000  0.45078000  1.0 0.5768680469
C  C166  1  0.02979000  0.57901000  0.29928000  1.0 0.5768680469
C  C167  1  0.27973000  0.73051000  0.70072000  1.0 0.5768680469
C  C168  1  0.97021000  0.26949000  0.54922000  1.0 0.5768680469
C  C169  1  0.35426000  0.20372000  0.45022000  1.0 0.5653362916
C  C170  1  0.75350000  0.90404000  0.54978000  1.0 0.5653362916
C  C171  1  0.24650000  0.79628000  0.15054000  1.0 0.5653362916
C  C172  1  0.64574000  0.09596000  0.84946000  1.0 0.5653362916
C  C173  1  0.45022000  0.35426000  0.20372000  1.0 0.5653362916
C  C174  1  0.54978000  0.75350000  0.90404000  1.0 0.5653362916
C  C175  1  0.15054000  0.24650000  0.79628000  1.0 0.5653362916
C  C176  1  0.84946000  0.64574000  0.09596000  1.0 0.5653362916
C  C177  1  0.20372000  0.45022000  0.35426000  1.0 0.5653362916
C  C178  1  0.90404000  0.54978000  0.75350000  1.0 0.5653362916
C  C179  1  0.79628000  0.15054000  0.24650000  1.0 0.5653362916
C  C180  1  0.09596000  0.84946000  0.64574000  1.0 0.5653362916
C  C181  1  0.64574000  0.79628000  0.54978000  1.0 0.5653362916
C  C182  1  0.24650000  0.09596000  0.45022000  1.0 0.5653362916
C  C183  1  0.75350000  0.20372000  0.84946000  1.0 0.5653362916
C  C184  1  0.35426000  0.90404000  0.15054000  1.0 0.5653362916
C  C185  1  0.54978000  0.64574000  0.79628000  1.0 0.5653362916
C  C186  1  0.45022000  0.24650000  0.09596000  1.0 0.5653362916
C  C187  1  0.84946000  0.75350000  0.20372000  1.0 0.5653362916
C  C188  1  0.15054000  0.35426000  0.90404000  1.0 0.5653362916
C  C189  1  0.79628000  0.54978000  0.64574000  1.0 0.5653362916
C  C190  1  0.09596000  0.45022000  0.24650000  1.0 0.5653362916
C  C191  1  0.20372000  0.84946000  0.75350000  1.0 0.5653362916
C  C192  1  0.90404000  0.15054000  0.35426000  1.0 0.5653362916
C  C193  1  0.43073000  0.32419000  0.64574000  1.0 0.5326075152
C  C194  1  0.67845000  0.78499000  0.35426000  1.0 0.5326075152
C  C195  1  0.32155000  0.67581000  0.10654000  1.0 0.5326075152
C  C196  1  0.56927000  0.21501000  0.89346000  1.0 0.5326075152
C  C197  1  0.64574000  0.43073000  0.32419000  1.0 0.5326075152
C  C198  1  0.35426000  0.67845000  0.78499000  1.0 0.5326075152
C  C199  1  0.10654000  0.32155000  0.67581000  1.0 0.5326075152
C  C200  1  0.89346000  0.56927000  0.21501000  1.0 0.5326075152
C  C201  1  0.32419000  0.64574000  0.43073000  1.0 0.5326075152
C  C202  1  0.78499000  0.35426000  0.67845000  1.0 0.5326075152
C  C203  1  0.67581000  0.10654000  0.32155000  1.0 0.5326075152
C  C204  1  0.21501000  0.89346000  0.56927000  1.0 0.5326075152
C  C205  1  0.56927000  0.67581000  0.35426000  1.0 0.5326075152
C  C206  1  0.32155000  0.21501000  0.64574000  1.0 0.5326075152
C  C207  1  0.67845000  0.32419000  0.89346000  1.0 0.5326075152
C  C208  1  0.43073000  0.78499000  0.10654000  1.0 0.5326075152
C  C209  1  0.35426000  0.56927000  0.67581000  1.0 0.5326075152
C  C210  1  0.64574000  0.32155000  0.21501000  1.0 0.5326075152
C  C211  1  0.89346000  0.67845000  0.32419000  1.0 0.5326075152
C  C212  1  0.10654000  0.43073000  0.78499000  1.0 0.5326075152
C  C213  1  0.67581000  0.35426000  0.56927000  1.0 0.5326075152
C  C214  1  0.21501000  0.64574000  0.32155000  1.0 0.5326075152
C  C215  1  0.32419000  0.89346000  0.67845000  1.0 0.5326075152
C  C216  1  0.78499000  0.10654000  0.43073000  1.0 0.5326075152
C  C217  1  0.26394000  0.19849000  0.31443000  1.0 0.5562014625
C  C218  1  0.88406000  0.94951000  0.68557000  1.0 0.5562014625
C  C219  1  0.11594000  0.80151000  0.06545000  1.0 0.5562014625
C  C220  1  0.73606000  0.05049000  0.93455000  1.0 0.5562014625
C  C221  1  0.31443000  0.26394000  0.19849000  1.0 0.5562014625
C  C222  1  0.68557000  0.88406000  0.94951000  1.0 0.5562014625
C  C223  1  0.06545000  0.11594000  0.80151000  1.0 0.5562014625
C  C224  1  0.93455000  0.73606000  0.05049000  1.0 0.5562014625
C  C225  1  0.19849000  0.31443000  0.26394000  1.0 0.5562014625
C  C226  1  0.94951000  0.68557000  0.88406000  1.0 0.5562014625
C  C227  1  0.80151000  0.06545000  0.11594000  1.0 0.5562014625
C  C228  1  0.05049000  0.93455000  0.73606000  1.0 0.5562014625
C  C229  1  0.73606000  0.80151000  0.68557000  1.0 0.5562014625
C  C230  1  0.11594000  0.05049000  0.31443000  1.0 0.5562014625
C  C231  1  0.88406000  0.19849000  0.93455000  1.0 0.5562014625
C  C232  1  0.26394000  0.94951000  0.06545000  1.0 0.5562014625
C  C233  1  0.68557000  0.73606000  0.80151000  1.0 0.5562014625
C  C234  1  0.31443000  0.11594000  0.05049000  1.0 0.5562014625
C  C235  1  0.93455000  0.88406000  0.19849000  1.0 0.5562014625
C  C236  1  0.06545000  0.26394000  0.94951000  1.0 0.5562014625
C  C237  1  0.80151000  0.68557000  0.73606000  1.0 0.5562014625
C  C238  1  0.05049000  0.31443000  0.11594000  1.0 0.5562014625
C  C239  1  0.19849000  0.93455000  0.88406000  1.0 0.5562014625
C  C240  1  0.94951000  0.06545000  0.26394000  1.0 0.5562014625
C  C241  1  0.26143000  0.23042000  0.28521000  1.0 -0.009757418
C  C242  1  0.94521000  0.97622000  0.71479000  1.0 -0.009757418
C  C243  1  0.05479000  0.76958000  0.03101000  1.0 -0.0175345497
C  C244  1  0.73857000  0.02378000  0.96899000  1.0 -0.009757418
C  C245  1  0.28521000  0.26143000  0.23042000  1.0 -0.009757418
C  C246  1  0.71479000  0.94521000  0.97622000  1.0 -0.009757418
C  C247  1  0.03101000  0.05479000  0.76958000  1.0 -0.0175345497
C  C248  1  0.96899000  0.73857000  0.02378000  1.0 -0.009757418
C  C249  1  0.23042000  0.28521000  0.26143000  1.0 -0.009757418
C  C250  1  0.97622000  0.71479000  0.94521000  1.0 -0.009757418
C  C251  1  0.76958000  0.03101000  0.05479000  1.0 -0.009757418
C  C252  1  0.02378000  0.96899000  0.73857000  1.0 -0.009757418
C  C253  1  0.73857000  0.76958000  0.71479000  1.0 -0.009757418
C  C254  1  0.05479000  0.02378000  0.28521000  1.0 -0.009757418
C  C255  1  0.94521000  0.23042000  0.96899000  1.0 -0.009757418
C  C256  1  0.26143000  0.97622000  0.03101000  1.0 -0.009757418
C  C257  1  0.71479000  0.73857000  0.76958000  1.0 -0.009757418
C  C258  1  0.28521000  0.05479000  0.02378000  1.0 -0.009757418
C  C259  1  0.96899000  0.94521000  0.23042000  1.0 -0.009757418
C  C260  1  0.03101000  0.26143000  0.97622000  1.0 -0.0175345497
C  C261  1  0.76958000  0.71479000  0.73857000  1.0 -0.009757418
C  C262  1  0.02378000  0.28521000  0.05479000  1.0 -0.009757418
C  C263  1  0.23042000  0.96899000  0.94521000  1.0 -0.0175345497
C  C264  1  0.97622000  0.03101000  0.26143000  1.0 -0.009757418
C  C265  1  0.23292000  0.25707000  0.28795000  1.0 -0.0970416601
C  C266  1  0.96912000  0.94497000  0.71205000  1.0 -0.0970416601
C  C267  1  0.03088000  0.74293000  0.97585000  1.0 -0.0970416601
C  C268  1  0.76708000  0.05503000  0.02415000  1.0 -0.0970416601
C  C269  1  0.28795000  0.23292000  0.25707000  1.0 -0.0970416601
C  C270  1  0.71205000  0.96912000  0.94497000  1.0 -0.0970416601
C  C271  1  0.97585000  0.03088000  0.74293000  1.0 -0.0970416601
C  C272  1  0.02415000  0.76708000  0.05503000  1.0 -0.0970416601
C  C273  1  0.25707000  0.28795000  0.23292000  1.0 -0.0970416601
C  C274  1  0.94497000  0.71205000  0.96912000  1.0 -0.0970416601
C  C275  1  0.74293000  0.97585000  0.03088000  1.0 -0.0970416601
C  C276  1  0.05503000  0.02415000  0.76708000  1.0 -0.0970416601
C  C277  1  0.76708000  0.74293000  0.71205000  1.0 -0.0970416601
C  C278  1  0.03088000  0.05503000  0.28795000  1.0 -0.0970416601
C  C279  1  0.96912000  0.25707000  0.02415000  1.0 -0.0970416601
C  C280  1  0.23292000  0.94497000  0.97585000  1.0 -0.0970416601
C  C281  1  0.71205000  0.76708000  0.74293000  1.0 -0.0970416601
C  C282  1  0.28795000  0.03088000  0.05503000  1.0 -0.0970416601
C  C283  1  0.02415000  0.96912000  0.25707000  1.0 -0.0970416601
C  C284  1  0.97585000  0.23292000  0.94497000  1.0 -0.0970416601
C  C285  1  0.74293000  0.71205000  0.76708000  1.0 -0.0970416601
C  C286  1  0.05503000  0.28795000  0.03088000  1.0 -0.0970416601
C  C287  1  0.25707000  0.02415000  0.96912000  1.0 -0.0970416601
C  C288  1  0.94497000  0.97585000  0.23292000  1.0 -0.0970416601
C  C289  1  0.60150000  0.16330000  0.43820000  1.0 0.3526640356
C  C290  1  0.72510000  0.16330000  0.56180000  1.0 0.3526640356
C  C291  1  0.27490000  0.83670000  0.43820000  1.0 0.3526640356
C  C292  1  0.39850000  0.83670000  0.56180000  1.0 0.3526640356
C  C293  1  0.43820000  0.60150000  0.16330000  1.0 0.3526640356
C  C294  1  0.56180000  0.72510000  0.16330000  1.0 0.3526640356
C  C295  1  0.43820000  0.27490000  0.83670000  1.0 0.3526640356
C  C296  1  0.56180000  0.39850000  0.83670000  1.0 0.3526640356
C  C297  1  0.16330000  0.43820000  0.60150000  1.0 0.3526640356
C  C298  1  0.16330000  0.56180000  0.72510000  1.0 0.3526640356
C  C299  1  0.83670000  0.43820000  0.27490000  1.0 0.3526640356
C  C300  1  0.83670000  0.56180000  0.39850000  1.0 0.3526640356
C  C301  1  0.61950000  0.20170000  0.41780000  1.0 -0.2607295629
C  C302  1  0.78390000  0.20170000  0.58220000  1.0 -0.2607295629
C  C303  1  0.21610000  0.79830000  0.41780000  1.0 -0.2607295629
C  C304  1  0.38050000  0.79830000  0.58220000  1.0 -0.2607295629
C  C305  1  0.41780000  0.61950000  0.20170000  1.0 -0.2607295629
C  C306  1  0.58220000  0.78390000  0.20170000  1.0 -0.2607295629
C  C307  1  0.41780000  0.21610000  0.79830000  1.0 -0.2607295629
C  C308  1  0.58220000  0.38050000  0.79830000  1.0 -0.2607295629
C  C309  1  0.20170000  0.41780000  0.61950000  1.0 -0.2607295629
C  C310  1  0.20170000  0.58220000  0.78390000  1.0 -0.2607295629
C  C311  1  0.79830000  0.41780000  0.21610000  1.0 -0.2607295629
C  C312  1  0.79830000  0.58220000  0.38050000  1.0 -0.2607295629
C  C313  1  0.57650000  0.12940000  0.48590000  1.0 0.0893398783
C  C314  1  0.64350000  0.09060000  0.51410000  1.0 0.0893398783
C  C315  1  0.35650000  0.87060000  0.44710000  1.0 0.0893398783
C  C316  1  0.42350000  0.90940000  0.55290000  1.0 0.0893398783
C  C317  1  0.48590000  0.57650000  0.12940000  1.0 0.0893398783
C  C318  1  0.51410000  0.64350000  0.09060000  1.0 0.0893398783
C  C319  1  0.44710000  0.35650000  0.87060000  1.0 0.0893398783
C  C320  1  0.55290000  0.42350000  0.90940000  1.0 0.0893398783
C  C321  1  0.12940000  0.48590000  0.57650000  1.0 0.0893398783
C  C322  1  0.09060000  0.51410000  0.64350000  1.0 0.0893398783
C  C323  1  0.87060000  0.44710000  0.35650000  1.0 0.0893398783
C  C324  1  0.90940000  0.55290000  0.42350000  1.0 0.0893398783
C  C325  1  0.42350000  0.87060000  0.51410000  1.0 0.0893398783
C  C326  1  0.35650000  0.90940000  0.48590000  1.0 0.0893398783
C  C327  1  0.64350000  0.12940000  0.55290000  1.0 0.0893398783
C  C328  1  0.57650000  0.09060000  0.44710000  1.0 0.0893398783
C  C329  1  0.51410000  0.42350000  0.87060000  1.0 0.0893398783
C  C330  1  0.48590000  0.35650000  0.90940000  1.0 0.0893398783
C  C331  1  0.55290000  0.64350000  0.12940000  1.0 0.0893398783
C  C332  1  0.44710000  0.57650000  0.09060000  1.0 0.0893398783
C  C333  1  0.87060000  0.51410000  0.42350000  1.0 0.0893398783
C  C334  1  0.90940000  0.48590000  0.35650000  1.0 0.0893398783
C  C335  1  0.12940000  0.55290000  0.64350000  1.0 0.0893398783
C  C336  1  0.09060000  0.44710000  0.57650000  1.0 0.0893398783
C  C337  1  0.30540000  0.05680000  0.24860000  1.0 0.1431522092
C  C338  1  0.80820000  0.05680000  0.75140000  1.0 0.1431522092
C  C339  1  0.19180000  0.94320000  0.24860000  1.0 0.1431522092
C  C340  1  0.69460000  0.94320000  0.75140000  1.0 0.1431522092
C  C341  1  0.24860000  0.30540000  0.05680000  1.0 0.1431522092
C  C342  1  0.75140000  0.80820000  0.05680000  1.0 0.1431522092
C  C343  1  0.24860000  0.19180000  0.94320000  1.0 0.1431522092
C  C344  1  0.75140000  0.69460000  0.94320000  1.0 0.1431522092
C  C345  1  0.05680000  0.24860000  0.30540000  1.0 0.1431522092
C  C346  1  0.05680000  0.75140000  0.80820000  1.0 0.1431522092
C  C347  1  0.94320000  0.24860000  0.19180000  1.0 0.1431522092
C  C348  1  0.94320000  0.75140000  0.69460000  1.0 0.1431522092
C  C349  1  0.24740000  0.02920000  0.21820000  1.0 -0.3104627534
C  C350  1  0.81100000  0.02920000  0.78180000  1.0 -0.3104627534
C  C351  1  0.18900000  0.97080000  0.21820000  1.0 -0.3104627534
C  C352  1  0.75260000  0.97080000  0.78180000  1.0 -0.3104627534
C  C353  1  0.21820000  0.24740000  0.02920000  1.0 -0.3104627534
C  C354  1  0.78180000  0.81100000  0.02920000  1.0 -0.3104627534
C  C355  1  0.21820000  0.18900000  0.97080000  1.0 -0.3104627534
C  C356  1  0.78180000  0.75260000  0.97080000  1.0 -0.3104627534
C  C357  1  0.02920000  0.21820000  0.24740000  1.0 -0.3104627534
C  C358  1  0.02920000  0.78180000  0.81100000  1.0 -0.3104627534
C  C359  1  0.97080000  0.21820000  0.18900000  1.0 -0.3104627534
C  C360  1  0.97080000  0.78180000  0.75260000  1.0 -0.3104627534
C  C361  1  0.38880000  0.11550000  0.31150000  1.0 -0.009757418
C  C362  1  0.80400000  0.07730000  0.68850000  1.0 -0.009757418
C  C363  1  0.19600000  0.88450000  0.27330000  1.0 -0.009757418
C  C364  1  0.61120000  0.92270000  0.72670000  1.0 -0.009757418
C  C365  1  0.31150000  0.38880000  0.11550000  1.0 -0.009757418
C  C366  1  0.68850000  0.80400000  0.07730000  1.0 -0.009757418
C  C367  1  0.27330000  0.19600000  0.88450000  1.0 -0.009757418
C  C368  1  0.72670000  0.61120000  0.92270000  1.0 -0.009757418
C  C369  1  0.11550000  0.31150000  0.38880000  1.0 -0.009757418
C  C370  1  0.07730000  0.68850000  0.80400000  1.0 -0.009757418
C  C371  1  0.88450000  0.27330000  0.19600000  1.0 -0.009757418
C  C372  1  0.92270000  0.72670000  0.61120000  1.0 -0.009757418
C  C373  1  0.61120000  0.88450000  0.68850000  1.0 -0.009757418
C  C374  1  0.19600000  0.92270000  0.31150000  1.0 -0.009757418
C  C375  1  0.80400000  0.11550000  0.72670000  1.0 -0.009757418
C  C376  1  0.38880000  0.07730000  0.27330000  1.0 -0.009757418
C  C377  1  0.68850000  0.61120000  0.88450000  1.0 -0.009757418
C  C378  1  0.31150000  0.19600000  0.92270000  1.0 -0.009757418
C  C379  1  0.72670000  0.80400000  0.11550000  1.0 -0.009757418
C  C380  1  0.27330000  0.38880000  0.07730000  1.0 -0.009757418
C  C381  1  0.88450000  0.68850000  0.61120000  1.0 -0.009757418
C  C382  1  0.92270000  0.31150000  0.19600000  1.0 -0.009757418
C  C383  1  0.11550000  0.72670000  0.80400000  1.0 -0.009757418
C  C384  1  0.07730000  0.27330000  0.38880000  1.0 -0.009757418
C  C385  1  0.43860000  0.15900000  0.35760000  1.0 -0.1120437562
C  C386  1  0.80140000  0.08100000  0.64240000  1.0 -0.1120437562
C  C387  1  0.19860000  0.84100000  0.27960000  1.0 -0.1120437562
C  C388  1  0.56140000  0.91900000  0.72040000  1.0 -0.1120437562
C  C389  1  0.35760000  0.43860000  0.15900000  1.0 -0.1120437562
C  C390  1  0.64240000  0.80140000  0.08100000  1.0 -0.1120437562
C  C391  1  0.27960000  0.19860000  0.84100000  1.0 -0.1120437562
C  C392  1  0.72040000  0.56140000  0.91900000  1.0 -0.1120437562
C  C393  1  0.15900000  0.35760000  0.43860000  1.0 -0.1120437562
C  C394  1  0.08100000  0.64240000  0.80140000  1.0 -0.1120437562
C  C395  1  0.84100000  0.27960000  0.19860000  1.0 -0.1120437562
C  C396  1  0.91900000  0.72040000  0.56140000  1.0 -0.1120437562
C  C397  1  0.56140000  0.84100000  0.64240000  1.0 -0.1120437562
C  C398  1  0.19860000  0.91900000  0.35760000  1.0 -0.1120437562
C  C399  1  0.80140000  0.15900000  0.72040000  1.0 -0.1120437562
C  C400  1  0.43860000  0.08100000  0.27960000  1.0 -0.1120437562
C  C401  1  0.64240000  0.56140000  0.84100000  1.0 -0.1120437562
C  C402  1  0.35760000  0.19860000  0.91900000  1.0 -0.1120437562
C  C403  1  0.72040000  0.80140000  0.15900000  1.0 -0.1120437562
C  C404  1  0.27960000  0.43860000  0.08100000  1.0 -0.1120437562
C  C405  1  0.84100000  0.64240000  0.56140000  1.0 -0.1120437562
C  C406  1  0.91900000  0.35760000  0.19860000  1.0 -0.1120437562
C  C407  1  0.15900000  0.72040000  0.80140000  1.0 -0.1120437562
C  C408  1  0.08100000  0.27960000  0.43860000  1.0 -0.1120437562
C  C409  1  0.48460000  0.16140000  0.36220000  1.0 -0.0970416601
C  C410  1  0.79920000  0.12240000  0.63780000  1.0 -0.0970416601
C  C411  1  0.20080000  0.83860000  0.32320000  1.0 -0.0970416601
C  C412  1  0.51540000  0.87760000  0.67680000  1.0 -0.0970416601
C  C413  1  0.36220000  0.48460000  0.16140000  1.0 -0.0970416601
C  C414  1  0.63780000  0.79920000  0.12240000  1.0 -0.0970416601
C  C415  1  0.32320000  0.20080000  0.83860000  1.0 -0.0970416601
C  C416  1  0.67680000  0.51540000  0.87760000  1.0 -0.0970416601
C  C417  1  0.16140000  0.36220000  0.48460000  1.0 -0.0970416601
C  C418  1  0.12240000  0.63780000  0.79920000  1.0 -0.0970416601
C  C419  1  0.83860000  0.32320000  0.20080000  1.0 -0.0970416601
C  C420  1  0.87760000  0.67680000  0.51540000  1.0 -0.0970416601
C  C421  1  0.51540000  0.83860000  0.63780000  1.0 -0.0970416601
C  C422  1  0.20080000  0.87760000  0.36220000  1.0 -0.0970416601
C  C423  1  0.79920000  0.16140000  0.67680000  1.0 -0.0970416601
C  C424  1  0.48460000  0.12240000  0.32320000  1.0 -0.0970416601
C  C425  1  0.63780000  0.51540000  0.83860000  1.0 -0.0970416601
C  C426  1  0.36220000  0.20080000  0.87760000  1.0 -0.0970416601
C  C427  1  0.67680000  0.79920000  0.16140000  1.0 -0.0970416601
C  C428  1  0.32320000  0.48460000  0.12240000  1.0 -0.0970416601
C  C429  1  0.83860000  0.63780000  0.51540000  1.0 -0.0970416601
C  C430  1  0.87760000  0.36220000  0.20080000  1.0 -0.0970416601
C  C431  1  0.16140000  0.67680000  0.79920000  1.0 -0.0970416601
C  C432  1  0.12240000  0.32320000  0.48460000  1.0 -0.0970416601
C  C433  1  0.61520000  0.16940000  0.44580000  1.0 0.3660123096
C  C434  1  0.72360000  0.16940000  0.55420000  1.0 0.3660123096
C  C435  1  0.27640000  0.83060000  0.44580000  1.0 0.3660123096
C  C436  1  0.38480000  0.83060000  0.55420000  1.0 0.3660123096
C  C437  1  0.44580000  0.61520000  0.16940000  1.0 0.3660123096
C  C438  1  0.55420000  0.72360000  0.16940000  1.0 0.3660123096
C  C439  1  0.44580000  0.27640000  0.83060000  1.0 0.3660123096
C  C440  1  0.55420000  0.38480000  0.83060000  1.0 0.3660123096
C  C441  1  0.16940000  0.44580000  0.61520000  1.0 0.3660123096
C  C442  1  0.16940000  0.55420000  0.72360000  1.0 0.3660123096
C  C443  1  0.83060000  0.44580000  0.27640000  1.0 0.3660123096
C  C444  1  0.83060000  0.55420000  0.38480000  1.0 0.3660123096
C  C445  1  0.66260000  0.21060000  0.45200000  1.0 -0.297921951
C  C446  1  0.75860000  0.21060000  0.54800000  1.0 -0.297921951
C  C447  1  0.24140000  0.78940000  0.45200000  1.0 -0.297921951
C  C448  1  0.33740000  0.78940000  0.54800000  1.0 -0.297921951
C  C449  1  0.45200000  0.66260000  0.21060000  1.0 -0.297921951
C  C450  1  0.54800000  0.75860000  0.21060000  1.0 -0.297921951
C  C451  1  0.45200000  0.24140000  0.78940000  1.0 -0.297921951
C  C452  1  0.54800000  0.33740000  0.78940000  1.0 -0.297921951
C  C453  1  0.21060000  0.45200000  0.66260000  1.0 -0.297921951
C  C454  1  0.21060000  0.54800000  0.75860000  1.0 -0.297921951
C  C455  1  0.78940000  0.45200000  0.24140000  1.0 -0.297921951
C  C456  1  0.78940000  0.54800000  0.33740000  1.0 -0.297921951
C  C457  1  0.54910000  0.13130000  0.45660000  1.0 0.0805839926
C  C458  1  0.67470000  0.09250000  0.54340000  1.0 0.0805839926
C  C459  1  0.32530000  0.86870000  0.41780000  1.0 0.0805839926
C  C460  1  0.45090000  0.90750000  0.58220000  1.0 0.0805839926
C  C461  1  0.45660000  0.54910000  0.13130000  1.0 0.0805839926
C  C462  1  0.54340000  0.67470000  0.09250000  1.0 0.0805839926
C  C463  1  0.41780000  0.32530000  0.86870000  1.0 0.0805839926
C  C464  1  0.58220000  0.45090000  0.90750000  1.0 0.0805839926
C  C465  1  0.13130000  0.45660000  0.54910000  1.0 0.0805839926
C  C466  1  0.09250000  0.54340000  0.67470000  1.0 0.0805839926
C  C467  1  0.86870000  0.41780000  0.32530000  1.0 0.0805839926
C  C468  1  0.90750000  0.58220000  0.45090000  1.0 0.0805839926
C  C469  1  0.45090000  0.86870000  0.54340000  1.0 0.0805839926
C  C470  1  0.32530000  0.90750000  0.45660000  1.0 0.0805839926
C  C471  1  0.67470000  0.13130000  0.58220000  1.0 0.0805839926
C  C472  1  0.54910000  0.09250000  0.41780000  1.0 0.0805839926
C  C473  1  0.54340000  0.45090000  0.86870000  1.0 0.0805839926
C  C474  1  0.45660000  0.32530000  0.90750000  1.0 0.0805839926
C  C475  1  0.58220000  0.67470000  0.13130000  1.0 0.0805839926
C  C476  1  0.41780000  0.54910000  0.09250000  1.0 0.0805839926
C  C477  1  0.86870000  0.54340000  0.45090000  1.0 0.0805839926
C  C478  1  0.90750000  0.45660000  0.32530000  1.0 0.0805839926
C  C479  1  0.13130000  0.58220000  0.67470000  1.0 0.0805839926
C  C480  1  0.09250000  0.41780000  0.54910000  1.0 0.0805839926
C  C481  1  0.51130000  0.11860000  0.47190000  1.0 -0.0309949273
C  C482  1  0.64670000  0.03940000  0.52810000  1.0 -0.0309949273
C  C483  1  0.35330000  0.88140000  0.39270000  1.0 -0.0309949273
C  C484  1  0.48870000  0.96060000  0.60730000  1.0 -0.0309949273
C  C485  1  0.47190000  0.51130000  0.11860000  1.0 -0.0309949273
C  C486  1  0.52810000  0.64670000  0.03940000  1.0 -0.0309949273
C  C487  1  0.39270000  0.35330000  0.88140000  1.0 -0.0309949273
C  C488  1  0.60730000  0.48870000  0.96060000  1.0 -0.0309949273
C  C489  1  0.11860000  0.47190000  0.51130000  1.0 -0.0309949273
C  C490  1  0.03940000  0.52810000  0.64670000  1.0 -0.0309949273
C  C491  1  0.88140000  0.39270000  0.35330000  1.0 -0.0309949273
C  C492  1  0.96060000  0.60730000  0.48870000  1.0 -0.0309949273
C  C493  1  0.48870000  0.88140000  0.52810000  1.0 -0.0309949273
C  C494  1  0.35330000  0.96060000  0.47190000  1.0 -0.0309949273
C  C495  1  0.64670000  0.11860000  0.60730000  1.0 -0.0309949273
C  C496  1  0.51130000  0.03940000  0.39270000  1.0 -0.0309949273
C  C497  1  0.52810000  0.48870000  0.88140000  1.0 -0.0309949273
C  C498  1  0.47190000  0.35330000  0.96060000  1.0 -0.0309949273
C  C499  1  0.60730000  0.64670000  0.11860000  1.0 -0.0309949273
C  C500  1  0.39270000  0.51130000  0.03940000  1.0 -0.0309949273
C  C501  1  0.88140000  0.52810000  0.48870000  1.0 -0.0309949273
C  C502  1  0.96060000  0.47190000  0.35330000  1.0 -0.0309949273
C  C503  1  0.11860000  0.60730000  0.64670000  1.0 -0.0309949273
C  C504  1  0.03940000  0.39270000  0.51130000  1.0 -0.0309949273
C  C505  1  0.47210000  0.06470000  0.44700000  1.0 -0.1715201144
C  C506  1  0.61770000  0.02510000  0.55300000  1.0 -0.1715201144
C  C507  1  0.38230000  0.93530000  0.40740000  1.0 -0.1715201144
C  C508  1  0.52790000  0.97490000  0.59260000  1.0 -0.1715201144
C  C509  1  0.44700000  0.47210000  0.06470000  1.0 -0.1715201144
C  C510  1  0.55300000  0.61770000  0.02510000  1.0 -0.1715201144
C  C511  1  0.40740000  0.38230000  0.93530000  1.0 -0.1715201144
C  C512  1  0.59260000  0.52790000  0.97490000  1.0 -0.1715201144
C  C513  1  0.06470000  0.44700000  0.47210000  1.0 -0.1715201144
C  C514  1  0.02510000  0.55300000  0.61770000  1.0 -0.1715201144
C  C515  1  0.93530000  0.40740000  0.38230000  1.0 -0.1715201144
C  C516  1  0.97490000  0.59260000  0.52790000  1.0 -0.1715201144
C  C517  1  0.52790000  0.93530000  0.55300000  1.0 -0.1715201144
C  C518  1  0.38230000  0.97490000  0.44700000  1.0 -0.1715201144
C  C519  1  0.61770000  0.06470000  0.59260000  1.0 -0.1715201144
C  C520  1  0.47210000  0.02510000  0.40740000  1.0 -0.1715201144
C  C521  1  0.55300000  0.52790000  0.93530000  1.0 -0.1715201144
C  C522  1  0.44700000  0.38230000  0.97490000  1.0 -0.1715201144
C  C523  1  0.59260000  0.61770000  0.06470000  1.0 -0.1715201144
C  C524  1  0.40740000  0.47210000  0.02510000  1.0 -0.1715201144
C  C525  1  0.93530000  0.55300000  0.52790000  1.0 -0.1715201144
C  C526  1  0.97490000  0.44700000  0.38230000  1.0 -0.1715201144
C  C527  1  0.06470000  0.59260000  0.61770000  1.0 -0.1715201144
C  C528  1  0.02510000  0.40740000  0.47210000  1.0 -0.1715201144
C  C529  1  0.31980000  0.06120000  0.25860000  1.0 0.220255218
C  C530  1  0.80260000  0.06120000  0.74140000  1.0 0.220255218
C  C531  1  0.19740000  0.93880000  0.25860000  1.0 0.220255218
C  C532  1  0.68020000  0.93880000  0.74140000  1.0 0.220255218
C  C533  1  0.25860000  0.31980000  0.06120000  1.0 0.220255218
C  C534  1  0.74140000  0.80260000  0.06120000  1.0 0.220255218
C  C535  1  0.25860000  0.19740000  0.93880000  1.0 0.220255218
C  C536  1  0.74140000  0.68020000  0.93880000  1.0 0.220255218
C  C537  1  0.06120000  0.25860000  0.31980000  1.0 0.220255218
C  C538  1  0.06120000  0.74140000  0.80260000  1.0 0.220255218
C  C539  1  0.93880000  0.25860000  0.19740000  1.0 0.220255218
C  C540  1  0.93880000  0.74140000  0.68020000  1.0 0.220255218
C  C541  1  0.31610000  0.08910000  0.22700000  1.0 -0.2607295629
C  C542  1  0.86210000  0.08910000  0.77300000  1.0 -0.2607295629
C  C543  1  0.13790000  0.91090000  0.22700000  1.0 -0.2607295629
C  C544  1  0.68390000  0.91090000  0.77300000  1.0 -0.2607295629
C  C545  1  0.22700000  0.31610000  0.08910000  1.0 -0.2607295629
C  C546  1  0.77300000  0.86210000  0.08910000  1.0 -0.2607295629
C  C547  1  0.22700000  0.13790000  0.91090000  1.0 -0.2607295629
C  C548  1  0.77300000  0.68390000  0.91090000  1.0 -0.2607295629
C  C549  1  0.08910000  0.22700000  0.31610000  1.0 -0.2607295629
C  C550  1  0.08910000  0.77300000  0.86210000  1.0 -0.2607295629
C  C551  1  0.91090000  0.22700000  0.13790000  1.0 -0.2607295629
C  C552  1  0.91090000  0.77300000  0.68390000  1.0 -0.2607295629
C  C553  1  0.32520000  0.04150000  0.32250000  1.0 -0.0537883624
C  C554  1  0.71900000  0.00270000  0.67750000  1.0 -0.0537883624
C  C555  1  0.28100000  0.95850000  0.28370000  1.0 -0.055784047
C  C556  1  0.67480000  0.99730000  0.71630000  1.0 -0.0537883624
C  C557  1  0.32250000  0.32520000  0.04150000  1.0 -0.0537883624
C  C558  1  0.67750000  0.71900000  0.00270000  1.0 -0.0537883624
C  C559  1  0.28370000  0.28100000  0.95850000  1.0 -0.0537883624
C  C560  1  0.71630000  0.67480000  0.99730000  1.0 -0.0537883624
C  C561  1  0.04150000  0.32250000  0.32520000  1.0 -0.0537883624
C  C562  1  0.00270000  0.67750000  0.71900000  1.0 -0.0537883624
C  C563  1  0.95850000  0.28370000  0.28100000  1.0 -0.0537883624
C  C564  1  0.99730000  0.71630000  0.67480000  1.0 -0.0537883624
C  C565  1  0.67480000  0.95850000  0.67750000  1.0 -0.0537883624
C  C566  1  0.28100000  0.99730000  0.32250000  1.0 -0.055784047
C  C567  1  0.71900000  0.04150000  0.71630000  1.0 -0.0537883624
C  C568  1  0.32520000  0.00270000  0.28370000  1.0 -0.0537883624
C  C569  1  0.67750000  0.67480000  0.95850000  1.0 -0.0537883624
C  C570  1  0.32250000  0.28100000  0.99730000  1.0 -0.0537883624
C  C571  1  0.71630000  0.71900000  0.04150000  1.0 -0.0537883624
C  C572  1  0.28370000  0.32520000  0.00270000  1.0 -0.0537883624
C  C573  1  0.95850000  0.67750000  0.67480000  1.0 -0.0537883624
C  C574  1  0.99730000  0.32250000  0.28100000  1.0 -0.0537883624
C  C575  1  0.04150000  0.71630000  0.71900000  1.0 -0.0537883624
C  C576  1  0.00270000  0.28370000  0.32520000  1.0 -0.0537883624
C  C577  1  0.32810000  0.03920000  0.36730000  1.0 -0.083174054
C  C578  1  0.67190000  0.96080000  0.63270000  1.0 -0.083174054
C  C579  1  0.32810000  0.96080000  0.28890000  1.0 -0.083174054
C  C580  1  0.67190000  0.03920000  0.71110000  1.0 -0.083174054
C  C581  1  0.36730000  0.32810000  0.03920000  1.0 -0.083174054
C  C582  1  0.63270000  0.67190000  0.96080000  1.0 -0.083174054
C  C583  1  0.28890000  0.32810000  0.96080000  1.0 -0.083174054
C  C584  1  0.71110000  0.67190000  0.03920000  1.0 -0.083174054
C  C585  1  0.03920000  0.36730000  0.32810000  1.0 -0.083174054
C  C586  1  0.96080000  0.63270000  0.67190000  1.0 -0.083174054
C  C587  1  0.96080000  0.28890000  0.32810000  1.0 -0.083174054
C  C588  1  0.03920000  0.71110000  0.67190000  1.0 -0.083174054
C  C589  1  0.33080000  0.99670000  0.37330000  1.0 -0.055784047
C  C590  1  0.62340000  0.95750000  0.62670000  1.0 -0.055784047
C  C591  1  0.37660000  0.00330000  0.33410000  1.0 -0.055784047
C  C592  1  0.66920000  0.04250000  0.66590000  1.0 -0.055784047
C  C593  1  0.37330000  0.33080000  0.99670000  1.0 -0.055784047
C  C594  1  0.62670000  0.62340000  0.95750000  1.0 -0.055784047
C  C595  1  0.33410000  0.37660000  0.00330000  1.0 -0.055784047
C  C596  1  0.66590000  0.66920000  0.04250000  1.0 -0.055784047
C  C597  1  0.99670000  0.37330000  0.33080000  1.0 -0.055784047
C  C598  1  0.95750000  0.62670000  0.62340000  1.0 -0.055784047
C  C599  1  0.00330000  0.33410000  0.37660000  1.0 -0.055784047
C  C600  1  0.04250000  0.66590000  0.66920000  1.0 -0.055784047
C  C601  1  0.66920000  0.00330000  0.62670000  1.0 -0.055784047
C  C602  1  0.37660000  0.04250000  0.37330000  1.0 -0.055784047
C  C603  1  0.62340000  0.99670000  0.66590000  1.0 -0.055784047
C  C604  1  0.33080000  0.95750000  0.33410000  1.0 -0.055784047
C  C605  1  0.62670000  0.66920000  0.00330000  1.0 -0.055784047
C  C606  1  0.37330000  0.37660000  0.04250000  1.0 -0.055784047
C  C607  1  0.66590000  0.62340000  0.99670000  1.0 -0.055784047
C  C608  1  0.33410000  0.33080000  0.95750000  1.0 -0.055784047
C  C609  1  0.00330000  0.62670000  0.66920000  1.0 -0.055784047
C  C610  1  0.04250000  0.37330000  0.37660000  1.0 -0.055784047
C  C611  1  0.99670000  0.66590000  0.62340000  1.0 -0.055784047
C  C612  1  0.95750000  0.33410000  0.33080000  1.0 -0.055784047
C  C613  1  0.54740000  0.06700000  0.51960000  1.0 -0.1502134763
C  C614  1  0.54740000  0.02780000  0.48040000  1.0 -0.1502134763
C  C615  1  0.45260000  0.93300000  0.48040000  1.0 -0.1502134763
C  C616  1  0.45260000  0.97220000  0.51960000  1.0 -0.1502134763
C  C617  1  0.51960000  0.54740000  0.06700000  1.0 -0.1502134763
C  C618  1  0.48040000  0.54740000  0.02780000  1.0 -0.1502134763
C  C619  1  0.48040000  0.45260000  0.93300000  1.0 -0.1502134763
C  C620  1  0.51960000  0.45260000  0.97220000  1.0 -0.1502134763
C  C621  1  0.06700000  0.51960000  0.54740000  1.0 -0.1502134763
C  C622  1  0.02780000  0.48040000  0.54740000  1.0 -0.1502134763
C  C623  1  0.93300000  0.48040000  0.45260000  1.0 -0.1502134763
C  C624  1  0.97220000  0.51960000  0.45260000  1.0 -0.1502134763
C  C625  1  0.56170000  0.11890000  0.52320000  1.0 -0.0309949273
C  C626  1  0.59570000  0.03850000  0.47680000  1.0 -0.0309949273
C  C627  1  0.40430000  0.88110000  0.44280000  1.0 -0.0309949273
C  C628  1  0.43830000  0.96150000  0.55720000  1.0 -0.0309949273
C  C629  1  0.52320000  0.56170000  0.11890000  1.0 -0.0309949273
C  C630  1  0.47680000  0.59570000  0.03850000  1.0 -0.0309949273
C  C631  1  0.44280000  0.40430000  0.88110000  1.0 -0.0309949273
C  C632  1  0.55720000  0.43830000  0.96150000  1.0 -0.0309949273
C  C633  1  0.11890000  0.52320000  0.56170000  1.0 -0.0309949273
C  C634  1  0.03850000  0.47680000  0.59570000  1.0 -0.0309949273
C  C635  1  0.88110000  0.44280000  0.40430000  1.0 -0.0309949273
C  C636  1  0.96150000  0.55720000  0.43830000  1.0 -0.0309949273
C  C637  1  0.43830000  0.88110000  0.47680000  1.0 -0.0309949273
C  C638  1  0.40430000  0.96150000  0.52320000  1.0 -0.0309949273
C  C639  1  0.59570000  0.11890000  0.55720000  1.0 -0.0309949273
C  C640  1  0.56170000  0.03850000  0.44280000  1.0 -0.0309949273
C  C641  1  0.47680000  0.43830000  0.88110000  1.0 -0.0309949273
C  C642  1  0.52320000  0.40430000  0.96150000  1.0 -0.0309949273
C  C643  1  0.55720000  0.59570000  0.11890000  1.0 -0.0309949273
C  C644  1  0.44280000  0.56170000  0.03850000  1.0 -0.0309949273
C  C645  1  0.88110000  0.47680000  0.43830000  1.0 -0.0309949273
C  C646  1  0.96150000  0.52320000  0.40430000  1.0 -0.0309949273
C  C647  1  0.11890000  0.55720000  0.59570000  1.0 -0.0309949273
C  C648  1  0.03850000  0.44280000  0.56170000  1.0 -0.0309949273
N  N1  1  0.59230000  0.17560000  0.48050000  1.0 -0.3104627534
N  N2  1  0.69510000  0.11180000  0.51950000  1.0 -0.3104627534
N  N3  1  0.30490000  0.82440000  0.41670000  1.0 -0.3152496173
N  N4  1  0.40770000  0.88820000  0.58330000  1.0 -0.3152496173
N  N5  1  0.48050000  0.59230000  0.17560000  1.0 -0.3104627534
N  N6  1  0.51950000  0.69510000  0.11180000  1.0 -0.3104627534
N  N7  1  0.41670000  0.30490000  0.82440000  1.0 -0.3152496173
N  N8  1  0.58330000  0.40770000  0.88820000  1.0 -0.3152496173
N  N9  1  0.17560000  0.48050000  0.59230000  1.0 -0.3152496173
N  N10  1  0.11180000  0.51950000  0.69510000  1.0 -0.3152496173
N  N11  1  0.82440000  0.41670000  0.30490000  1.0 -0.3104627534
N  N12  1  0.88820000  0.58330000  0.40770000  1.0 -0.3104627534
N  N13  1  0.40770000  0.82440000  0.51950000  1.0 -0.3152496173
N  N14  1  0.30490000  0.88820000  0.48050000  1.0 -0.3152496173
N  N15  1  0.69510000  0.17560000  0.58330000  1.0 -0.3104627534
N  N16  1  0.59230000  0.11180000  0.41670000  1.0 -0.3104627534
N  N17  1  0.51950000  0.40770000  0.82440000  1.0 -0.3152496173
N  N18  1  0.48050000  0.30490000  0.88820000  1.0 -0.3152496173
N  N19  1  0.58330000  0.69510000  0.17560000  1.0 -0.3104627534
N  N20  1  0.41670000  0.59230000  0.11180000  1.0 -0.3104627534
N  N21  1  0.82440000  0.51950000  0.40770000  1.0 -0.3104627534
N  N22  1  0.88820000  0.48050000  0.30490000  1.0 -0.3104627534
N  N23  1  0.17560000  0.58330000  0.69510000  1.0 -0.3152496173
N  N24  1  0.11180000  0.41670000  0.59230000  1.0 -0.3152496173
N  N25  1  0.33610000  0.10280000  0.29630000  1.0 -0.0682477477
N  N26  1  0.80650000  0.03980000  0.70370000  1.0 -0.0682477477
N  N27  1  0.19350000  0.89720000  0.23330000  1.0 -0.0682477477
N  N28  1  0.66390000  0.96020000  0.76670000  1.0 -0.0682477477
N  N29  1  0.29630000  0.33610000  0.10280000  1.0 -0.0682477477
N  N30  1  0.70370000  0.80650000  0.03980000  1.0 -0.0682477477
N  N31  1  0.23330000  0.19350000  0.89720000  1.0 -0.0682477477
N  N32  1  0.76670000  0.66390000  0.96020000  1.0 -0.0682477477
N  N33  1  0.10280000  0.29630000  0.33610000  1.0 -0.0682477477
N  N34  1  0.03980000  0.70370000  0.80650000  1.0 -0.0682477477
N  N35  1  0.89720000  0.23330000  0.19350000  1.0 -0.0682477477
N  N36  1  0.96020000  0.76670000  0.66390000  1.0 -0.0682477477
N  N37  1  0.66390000  0.89720000  0.70370000  1.0 -0.0682477477
N  N38  1  0.19350000  0.96020000  0.29630000  1.0 -0.0682477477
N  N39  1  0.80650000  0.10280000  0.76670000  1.0 -0.0682477477
N  N40  1  0.33610000  0.03980000  0.23330000  1.0 -0.0682477477
N  N41  1  0.70370000  0.66390000  0.89720000  1.0 -0.0682477477
N  N42  1  0.29630000  0.19350000  0.96020000  1.0 -0.0682477477
N  N43  1  0.76670000  0.80650000  0.10280000  1.0 -0.0682477477
N  N44  1  0.23330000  0.33610000  0.03980000  1.0 -0.0682477477
N  N45  1  0.89720000  0.70370000  0.66390000  1.0 -0.0682477477
N  N46  1  0.96020000  0.29630000  0.19350000  1.0 -0.0682477477
N  N47  1  0.10280000  0.76670000  0.80650000  1.0 -0.0682477477
N  N48  1  0.03980000  0.23330000  0.33610000  1.0 -0.0682477477
N  N49  1  0.59120000  0.18030000  0.47430000  1.0 -0.3423813039
N  N50  1  0.70600000  0.11690000  0.52570000  1.0 -0.3423813039
N  N51  1  0.29400000  0.81970000  0.41090000  1.0 -0.3423813039
N  N52  1  0.40880000  0.88310000  0.58910000  1.0 -0.3423813039
N  N53  1  0.47430000  0.59120000  0.18030000  1.0 -0.3423813039
N  N54  1  0.52570000  0.70600000  0.11690000  1.0 -0.3423813039
N  N55  1  0.41090000  0.29400000  0.81970000  1.0 -0.3423813039
N  N56  1  0.58910000  0.40880000  0.88310000  1.0 -0.3423813039
N  N57  1  0.18030000  0.47430000  0.59120000  1.0 -0.3423813039
N  N58  1  0.11690000  0.52570000  0.70600000  1.0 -0.3423813039
N  N59  1  0.81970000  0.41090000  0.29400000  1.0 -0.3423813039
N  N60  1  0.88310000  0.58910000  0.40880000  1.0 -0.3423813039
N  N61  1  0.40880000  0.81970000  0.52570000  1.0 -0.3423813039
N  N62  1  0.29400000  0.88310000  0.47430000  1.0 -0.3423813039
N  N63  1  0.70600000  0.18030000  0.58910000  1.0 -0.3423813039
N  N64  1  0.59120000  0.11690000  0.41090000  1.0 -0.3423813039
N  N65  1  0.52570000  0.40880000  0.81970000  1.0 -0.3423813039
N  N66  1  0.47430000  0.29400000  0.88310000  1.0 -0.3423813039
N  N67  1  0.58910000  0.70600000  0.18030000  1.0 -0.3423813039
N  N68  1  0.41090000  0.59120000  0.11690000  1.0 -0.3423813039
N  N69  1  0.81970000  0.52570000  0.40880000  1.0 -0.3423813039
N  N70  1  0.88310000  0.47430000  0.29400000  1.0 -0.3423813039
N  N71  1  0.18030000  0.58910000  0.70600000  1.0 -0.3423813039
N  N72  1  0.11690000  0.41090000  0.59120000  1.0 -0.3423813039
N  N73  1  0.32170000  0.07810000  0.30620000  1.0 -0.1502134763
N  N74  1  0.77190000  0.01550000  0.69380000  1.0 -0.1502134763
N  N75  1  0.22810000  0.92190000  0.24360000  1.0 -0.1502134763
N  N76  1  0.67830000  0.98450000  0.75640000  1.0 -0.1502134763
N  N77  1  0.30620000  0.32170000  0.07810000  1.0 -0.1502134763
N  N78  1  0.69380000  0.77190000  0.01550000  1.0 -0.1502134763
N  N79  1  0.24360000  0.22810000  0.92190000  1.0 -0.1502134763
N  N80  1  0.75640000  0.67830000  0.98450000  1.0 -0.1502134763
N  N81  1  0.07810000  0.30620000  0.32170000  1.0 -0.1502134763
N  N82  1  0.01550000  0.69380000  0.77190000  1.0 -0.1502134763
N  N83  1  0.92190000  0.24360000  0.22810000  1.0 -0.1502134763
N  N84  1  0.98450000  0.75640000  0.67830000  1.0 -0.1502134763
N  N85  1  0.67830000  0.92190000  0.69380000  1.0 -0.1502134763
N  N86  1  0.22810000  0.98450000  0.30620000  1.0 -0.1502134763
N  N87  1  0.77190000  0.07810000  0.75640000  1.0 -0.1502134763
N  N88  1  0.32170000  0.01550000  0.24360000  1.0 -0.1502134763
N  N89  1  0.69380000  0.67830000  0.92190000  1.0 -0.1502134763
N  N90  1  0.30620000  0.22810000  0.98450000  1.0 -0.1502134763
N  N91  1  0.75640000  0.77190000  0.07810000  1.0 -0.1502134763
N  N92  1  0.24360000  0.32170000  0.01550000  1.0 -0.1502134763
N  N93  1  0.92190000  0.69380000  0.67830000  1.0 -0.1502134763
N  N94  1  0.98450000  0.30620000  0.22810000  1.0 -0.1502134763
N  N95  1  0.07810000  0.75640000  0.77190000  1.0 -0.1502134763
N  N96  1  0.01550000  0.24360000  0.32170000  1.0 -0.1502134763
O  O1  1  0.58713000  0.30752000  0.62659000  1.0 -0.5171534314
O  O2  1  0.68093000  0.96054000  0.37341000  1.0 -0.5171534314
O  O3  1  0.31907000  0.69248000  0.27961000  1.0 -0.5171534314
O  O4  1  0.41287000  0.03946000  0.72039000  1.0 -0.5171534314
O  O5  1  0.62659000  0.58713000  0.30752000  1.0 -0.5171534314
O  O6  1  0.37341000  0.68093000  0.96054000  1.0 -0.5171534314
O  O7  1  0.27961000  0.31907000  0.69248000  1.0 -0.5171534314
O  O8  1  0.72039000  0.41287000  0.03946000  1.0 -0.5171534314
O  O9  1  0.30752000  0.62659000  0.58713000  1.0 -0.5171534314
O  O10  1  0.96054000  0.37341000  0.68093000  1.0 -0.5171534314
O  O11  1  0.69248000  0.27961000  0.31907000  1.0 -0.5171534314
O  O12  1  0.03946000  0.72039000  0.41287000  1.0 -0.5171534314
O  O13  1  0.41287000  0.69248000  0.37341000  1.0 -0.5171534314
O  O14  1  0.31907000  0.03946000  0.62659000  1.0 -0.5171534314
O  O15  1  0.68093000  0.30752000  0.72039000  1.0 -0.5171534314
O  O16  1  0.58713000  0.96054000  0.27961000  1.0 -0.5171534314
O  O17  1  0.37341000  0.41287000  0.69248000  1.0 -0.5171534314
O  O18  1  0.62659000  0.31907000  0.03946000  1.0 -0.5171534314
O  O19  1  0.72039000  0.68093000  0.30752000  1.0 -0.5171534314
O  O20  1  0.27961000  0.58713000  0.96054000  1.0 -0.5171534314
O  O21  1  0.69248000  0.37341000  0.41287000  1.0 -0.5171534314
O  O22  1  0.03946000  0.62659000  0.31907000  1.0 -0.5171534314
O  O23  1  0.30752000  0.72039000  0.68093000  1.0 -0.5171534314
O  O24  1  0.96054000  0.27961000  0.58713000  1.0 -0.5171534314
O  O25  1  0.55111000  0.25474000  0.53803000  1.0 -0.5286959761
O  O26  1  0.71671000  0.01308000  0.46197000  1.0 -0.5286959761
O  O27  1  0.28329000  0.74526000  0.29637000  1.0 -0.5286959761
O  O28  1  0.44889000  0.98692000  0.70363000  1.0 -0.5286959761
O  O29  1  0.53803000  0.55111000  0.25474000  1.0 -0.5286959761
O  O30  1  0.46197000  0.71671000  0.01308000  1.0 -0.5286959761
O  O31  1  0.29637000  0.28329000  0.74526000  1.0 -0.5286959761
O  O32  1  0.70363000  0.44889000  0.98692000  1.0 -0.5286959761
O  O33  1  0.25474000  0.53803000  0.55111000  1.0 -0.5286959761
O  O34  1  0.01308000  0.46197000  0.71671000  1.0 -0.5286959761
O  O35  1  0.74526000  0.29637000  0.28329000  1.0 -0.5286959761
O  O36  1  0.98692000  0.70363000  0.44889000  1.0 -0.5286959761
O  O37  1  0.44889000  0.74526000  0.46197000  1.0 -0.5286959761
O  O38  1  0.28329000  0.98692000  0.53803000  1.0 -0.5286959761
O  O39  1  0.71671000  0.25474000  0.70363000  1.0 -0.5286959761
O  O40  1  0.55111000  0.01308000  0.29637000  1.0 -0.5286959761
O  O41  1  0.46197000  0.44889000  0.74526000  1.0 -0.5286959761
O  O42  1  0.53803000  0.28329000  0.98692000  1.0 -0.5286959761
O  O43  1  0.70363000  0.71671000  0.25474000  1.0 -0.5286959761
O  O44  1  0.29637000  0.55111000  0.01308000  1.0 -0.5286959761
O  O45  1  0.74526000  0.46197000  0.44889000  1.0 -0.5286959761
O  O46  1  0.98692000  0.53803000  0.28329000  1.0 -0.5286959761
O  O47  1  0.25474000  0.70363000  0.71671000  1.0 -0.5286959761
O  O48  1  0.01308000  0.29637000  0.55111000  1.0 -0.5286959761
O  O49  1  0.31346000  0.20684000  0.44088000  1.0 -0.4972497329
O  O50  1  0.76596000  0.87258000  0.55912000  1.0 -0.4972497329
O  O51  1  0.23404000  0.79316000  0.10662000  1.0 -0.4972497329
O  O52  1  0.68654000  0.12742000  0.89338000  1.0 -0.4972497329
O  O53  1  0.44088000  0.31346000  0.20684000  1.0 -0.4972497329
O  O54  1  0.55912000  0.76596000  0.87258000  1.0 -0.4972497329
O  O55  1  0.10662000  0.23404000  0.79316000  1.0 -0.4972497329
O  O56  1  0.89338000  0.68654000  0.12742000  1.0 -0.4972497329
O  O57  1  0.20684000  0.44088000  0.31346000  1.0 -0.4972497329
O  O58  1  0.87258000  0.55912000  0.76596000  1.0 -0.4972497329
O  O59  1  0.79316000  0.10662000  0.23404000  1.0 -0.4972497329
O  O60  1  0.12742000  0.89338000  0.68654000  1.0 -0.4972497329
O  O61  1  0.68654000  0.79316000  0.55912000  1.0 -0.4972497329
O  O62  1  0.23404000  0.12742000  0.44088000  1.0 -0.4972497329
O  O63  1  0.76596000  0.20684000  0.89338000  1.0 -0.4972497329
O  O64  1  0.31346000  0.87258000  0.10662000  1.0 -0.4972497329
O  O65  1  0.55912000  0.68654000  0.79316000  1.0 -0.4972497329
O  O66  1  0.44088000  0.23404000  0.12742000  1.0 -0.4972497329
O  O67  1  0.89338000  0.76596000  0.20684000  1.0 -0.4972497329
O  O68  1  0.10662000  0.31346000  0.87258000  1.0 -0.4972497329
O  O69  1  0.79316000  0.55912000  0.68654000  1.0 -0.4972497329
O  O70  1  0.12742000  0.44088000  0.23404000  1.0 -0.4972497329
O  O71  1  0.20684000  0.89338000  0.76596000  1.0 -0.4972497329
O  O72  1  0.87258000  0.10662000  0.31346000  1.0 -0.4972497329
O  O73  1  0.36153000  0.17409000  0.41608000  1.0 -0.5567445014
O  O74  1  0.75801000  0.94545000  0.58392000  1.0 -0.5567445014
O  O75  1  0.24199000  0.82591000  0.18744000  1.0 -0.5567445014
O  O76  1  0.63847000  0.05455000  0.81256000  1.0 -0.5567445014
O  O77  1  0.41608000  0.36153000  0.17409000  1.0 -0.5567445014
O  O78  1  0.58392000  0.75801000  0.94545000  1.0 -0.5567445014
O  O79  1  0.18744000  0.24199000  0.82591000  1.0 -0.5567445014
O  O80  1  0.81256000  0.63847000  0.05455000  1.0 -0.5567445014
O  O81  1  0.17409000  0.41608000  0.36153000  1.0 -0.5567445014
O  O82  1  0.94545000  0.58392000  0.75801000  1.0 -0.5567445014
O  O83  1  0.82591000  0.18744000  0.24199000  1.0 -0.5567445014
O  O84  1  0.05455000  0.81256000  0.63847000  1.0 -0.5567445014
O  O85  1  0.63847000  0.82591000  0.58392000  1.0 -0.5567445014
O  O86  1  0.24199000  0.05455000  0.41608000  1.0 -0.5567445014
O  O87  1  0.75801000  0.17409000  0.81256000  1.0 -0.5567445014
O  O88  1  0.36153000  0.94545000  0.18744000  1.0 -0.5567445014
O  O89  1  0.58392000  0.63847000  0.82591000  1.0 -0.5567445014
O  O90  1  0.41608000  0.24199000  0.05455000  1.0 -0.5567445014
O  O91  1  0.81256000  0.75801000  0.17409000  1.0 -0.5567445014
O  O92  1  0.18744000  0.36153000  0.94545000  1.0 -0.5567445014
O  O93  1  0.82591000  0.58392000  0.63847000  1.0 -0.5567445014
O  O94  1  0.05455000  0.41608000  0.24199000  1.0 -0.5567445014
O  O95  1  0.17409000  0.81256000  0.75801000  1.0 -0.5567445014
O  O96  1  0.94545000  0.18744000  0.36153000  1.0 -0.5567445014
O  O97  1  0.38818000  0.32541000  0.63483000  1.0 -0.4945755853
O  O98  1  0.69058000  0.75335000  0.36517000  1.0 -0.4972497329
O  O99  1  0.30942000  0.67459000  0.06277000  1.0 -0.4972497329
O  O100  1  0.61182000  0.24665000  0.93723000  1.0 -0.4945755853
O  O101  1  0.63483000  0.38818000  0.32541000  1.0 -0.4945755853
O  O102  1  0.36517000  0.69058000  0.75335000  1.0 -0.4972497329
O  O103  1  0.06277000  0.30942000  0.67459000  1.0 -0.4972497329
O  O104  1  0.93723000  0.61182000  0.24665000  1.0 -0.4945755853
O  O105  1  0.32541000  0.63483000  0.38818000  1.0 -0.4972497329
O  O106  1  0.75335000  0.36517000  0.69058000  1.0 -0.4945755853
O  O107  1  0.67459000  0.06277000  0.30942000  1.0 -0.4945755853
O  O108  1  0.24665000  0.93723000  0.61182000  1.0 -0.4972497329
O  O109  1  0.61182000  0.67459000  0.36517000  1.0 -0.4972497329
O  O110  1  0.30942000  0.24665000  0.63483000  1.0 -0.4945755853
O  O111  1  0.69058000  0.32541000  0.93723000  1.0 -0.4945755853
O  O112  1  0.38818000  0.75335000  0.06277000  1.0 -0.4972497329
O  O113  1  0.36517000  0.61182000  0.67459000  1.0 -0.4972497329
O  O114  1  0.63483000  0.30942000  0.24665000  1.0 -0.4945755853
O  O115  1  0.93723000  0.69058000  0.32541000  1.0 -0.4945755853
O  O116  1  0.06277000  0.38818000  0.75335000  1.0 -0.4972497329
O  O117  1  0.67459000  0.36517000  0.61182000  1.0 -0.4945755853
O  O118  1  0.24665000  0.63483000  0.30942000  1.0 -0.4972497329
O  O119  1  0.32541000  0.93723000  0.69058000  1.0 -0.4972497329
O  O120  1  0.75335000  0.06277000  0.38818000  1.0 -0.4945755853
O  O121  1  0.46814000  0.34286000  0.69360000  1.0 -0.5171534314
O  O122  1  0.64926000  0.77454000  0.30640000  1.0 -0.5171534314
O  O123  1  0.35074000  0.65714000  0.12528000  1.0 -0.5171534314
O  O124  1  0.53186000  0.22546000  0.87472000  1.0 -0.5171534314
O  O125  1  0.69360000  0.46814000  0.34286000  1.0 -0.5171534314
O  O126  1  0.30640000  0.64926000  0.77454000  1.0 -0.5171534314
O  O127  1  0.12528000  0.35074000  0.65714000  1.0 -0.5171534314
O  O128  1  0.87472000  0.53186000  0.22546000  1.0 -0.5171534314
O  O129  1  0.34286000  0.69360000  0.46814000  1.0 -0.5171534314
O  O130  1  0.77454000  0.30640000  0.64926000  1.0 -0.5171534314
O  O131  1  0.65714000  0.12528000  0.35074000  1.0 -0.5171534314
O  O132  1  0.22546000  0.87472000  0.53186000  1.0 -0.5171534314
O  O133  1  0.53186000  0.65714000  0.30640000  1.0 -0.5171534314
O  O134  1  0.35074000  0.22546000  0.69360000  1.0 -0.5171534314
O  O135  1  0.64926000  0.34286000  0.87472000  1.0 -0.5171534314
O  O136  1  0.46814000  0.77454000  0.12528000  1.0 -0.5171534314
O  O137  1  0.30640000  0.53186000  0.65714000  1.0 -0.5171534314
O  O138  1  0.69360000  0.35074000  0.22546000  1.0 -0.5171534314
O  O139  1  0.87472000  0.64926000  0.34286000  1.0 -0.5171534314
O  O140  1  0.12528000  0.46814000  0.77454000  1.0 -0.5171534314
O  O141  1  0.65714000  0.30640000  0.53186000  1.0 -0.5171534314
O  O142  1  0.22546000  0.69360000  0.35074000  1.0 -0.5171534314
O  O143  1  0.34286000  0.87472000  0.64926000  1.0 -0.5171534314
O  O144  1  0.77454000  0.12528000  0.46814000  1.0 -0.5171534314
O  O145  1  0.29676000  0.18066000  0.31376000  1.0 -0.5860551998
O  O146  1  0.86690000  0.98300000  0.68624000  1.0 -0.5860551998
O  O147  1  0.13310000  0.81934000  0.11610000  1.0 -0.5860551998
O  O148  1  0.70324000  0.01700000  0.88390000  1.0 -0.5860551998
O  O149  1  0.31376000  0.29676000  0.18066000  1.0 -0.5860551998
O  O150  1  0.68624000  0.86690000  0.98300000  1.0 -0.5860551998
O  O151  1  0.11610000  0.13310000  0.81934000  1.0 -0.5860551998
O  O152  1  0.88390000  0.70324000  0.01700000  1.0 -0.5860551998
O  O153  1  0.18066000  0.31376000  0.29676000  1.0 -0.5860551998
O  O154  1  0.98300000  0.68624000  0.86690000  1.0 -0.5860551998
O  O155  1  0.81934000  0.11610000  0.13310000  1.0 -0.5860551998
O  O156  1  0.01700000  0.88390000  0.70324000  1.0 -0.5860551998
O  O157  1  0.70324000  0.81934000  0.68624000  1.0 -0.5860551998
O  O158  1  0.13310000  0.01700000  0.31376000  1.0 -0.5860551998
O  O159  1  0.86690000  0.18066000  0.88390000  1.0 -0.5860551998
O  O160  1  0.29676000  0.98300000  0.11610000  1.0 -0.5860551998
O  O161  1  0.68624000  0.70324000  0.81934000  1.0 -0.5860551998
O  O162  1  0.31376000  0.13310000  0.01700000  1.0 -0.5860551998
O  O163  1  0.88390000  0.86690000  0.18066000  1.0 -0.5860551998
O  O164  1  0.11610000  0.29676000  0.98300000  1.0 -0.5860551998
O  O165  1  0.81934000  0.68624000  0.70324000  1.0 -0.5860551998
O  O166  1  0.01700000  0.31376000  0.13310000  1.0 -0.5860551998
O  O167  1  0.18066000  0.88390000  0.86690000  1.0 -0.5860551998
O  O168  1  0.98300000  0.11610000  0.29676000  1.0 -0.5860551998
O  O169  1  0.23649000  0.19285000  0.33664000  1.0 -0.5357537125
O  O170  1  0.85621000  0.89985000  0.66336000  1.0 -0.5357537125
O  O171  1  0.14379000  0.80715000  0.04364000  1.0 -0.5357537125
O  O172  1  0.76351000  0.10015000  0.95636000  1.0 -0.5357537125
O  O173  1  0.33664000  0.23649000  0.19285000  1.0 -0.5357537125
O  O174  1  0.66336000  0.85621000  0.89985000  1.0 -0.5357537125
O  O175  1  0.04364000  0.14379000  0.80715000  1.0 -0.5357537125
O  O176  1  0.95636000  0.76351000  0.10015000  1.0 -0.5357537125
O  O177  1  0.19285000  0.33664000  0.23649000  1.0 -0.5357537125
O  O178  1  0.89985000  0.66336000  0.85621000  1.0 -0.5357537125
O  O179  1  0.80715000  0.04364000  0.14379000  1.0 -0.5357537125
O  O180  1  0.10015000  0.95636000  0.76351000  1.0 -0.5357537125
O  O181  1  0.76351000  0.80715000  0.66336000  1.0 -0.5357537125
O  O182  1  0.14379000  0.10015000  0.33664000  1.0 -0.5357537125
O  O183  1  0.85621000  0.19285000  0.95636000  1.0 -0.5357537125
O  O184  1  0.23649000  0.89985000  0.04364000  1.0 -0.5357537125
O  O185  1  0.66336000  0.76351000  0.80715000  1.0 -0.5357537125
O  O186  1  0.33664000  0.14379000  0.10015000  1.0 -0.5357537125
O  O187  1  0.95636000  0.85621000  0.19285000  1.0 -0.5357537125
O  O188  1  0.04364000  0.23649000  0.89985000  1.0 -0.5357537125
O  O189  1  0.80715000  0.66336000  0.76351000  1.0 -0.5357537125
O  O190  1  0.10015000  0.33664000  0.14379000  1.0 -0.5357537125
O  O191  1  0.19285000  0.95636000  0.85621000  1.0 -0.5357537125
O  O192  1  0.89985000  0.04364000  0.23649000  1.0 -0.5357537125
O  O193  1  0.23689000  0.09661000  0.33350000  1.0 -0.5823323483
O  O194  1  0.76311000  0.90339000  0.66650000  1.0 -0.5823323483
O  O195  1  0.23689000  0.90339000  0.14028000  1.0 -0.5823323483
O  O196  1  0.76311000  0.09661000  0.85972000  1.0 -0.5823323483
O  O197  1  0.33350000  0.23689000  0.09661000  1.0 -0.5823323483
O  O198  1  0.66650000  0.76311000  0.90339000  1.0 -0.5823323483
O  O199  1  0.14028000  0.23689000  0.90339000  1.0 -0.5823323483
O  O200  1  0.85972000  0.76311000  0.09661000  1.0 -0.5823323483
O  O201  1  0.09661000  0.33350000  0.23689000  1.0 -0.5823323483
O  O202  1  0.90339000  0.66650000  0.76311000  1.0 -0.5823323483
O  O203  1  0.90339000  0.14028000  0.23689000  1.0 -0.5823323483
O  O204  1  0.09661000  0.85972000  0.76311000  1.0 -0.5823323483
O  O205  1  0.64786000  0.25377000  0.60591000  1.0 -0.5171534314
O  O206  1  0.64786000  0.04195000  0.39409000  1.0 -0.5171534314
O  O207  1  0.35214000  0.74623000  0.39409000  1.0 -0.5171534314
O  O208  1  0.35214000  0.95805000  0.60591000  1.0 -0.5171534314
O  O209  1  0.60591000  0.64786000  0.25377000  1.0 -0.5171534314
O  O210  1  0.39409000  0.64786000  0.04195000  1.0 -0.5171534314
O  O211  1  0.39409000  0.35214000  0.74623000  1.0 -0.5171534314
O  O212  1  0.60591000  0.35214000  0.95805000  1.0 -0.5171534314
O  O213  1  0.25377000  0.60591000  0.64786000  1.0 -0.5171534314
O  O214  1  0.04195000  0.39409000  0.64786000  1.0 -0.5171534314
O  O215  1  0.74623000  0.39409000  0.35214000  1.0 -0.5171534314
O  O216  1  0.95805000  0.60591000  0.35214000  1.0 -0.5171534314
