# DDEC6 charges by PACMAN v1.1 (https://github.com/mtap-research/PACMAN-charge/)
data_YOZBIZ_ASR_pacman
_symmetry_space_group_name_H-M   'P 1'
_cell_length_a   26.11740000
_cell_length_b   26.11740000
_cell_length_c   19.49100000
_cell_angle_alpha   90.00000000
_cell_angle_beta   90.00000000
_cell_angle_gamma   120.00000000
_symmetry_Int_Tables_number   1
_chemical_formula_structural   Zn2H16C23N17O12
_chemical_formula_sum   'Zn24 H192 C276 N204 O144'
_cell_volume   11513.95782255
_cell_formula_units_Z   12
loop_
 _symmetry_equiv_pos_site_id
 _symmetry_equiv_pos_as_xyz
  1  'x, y, z'
loop_
 _atom_site_type_symbol
 _atom_site_label
 _atom_site_symmetry_multiplicity
 _atom_site_fract_x
 _atom_site_fract_y
 _atom_site_fract_z
 _atom_site_occupancy
 _atom_site_charge
Zn  Zn1  1  0.43548000  0.33209000  0.59630000  1.0 0.5889163542
Zn  Zn2  1  0.66791000  0.10339000  0.59630000  1.0 0.5889163542
Zn  Zn3  1  0.89661000  0.56452000  0.59630000  1.0 0.5889163542
Zn  Zn4  1  0.56452000  0.66791000  0.09630000  1.0 0.5889163542
Zn  Zn5  1  0.33209000  0.89661000  0.09630000  1.0 0.5889163542
Zn  Zn6  1  0.10339000  0.43548000  0.09630000  1.0 0.5889163542
Zn  Zn7  1  0.33209000  0.43548000  0.40370000  1.0 0.5889163542
Zn  Zn8  1  0.10339000  0.66791000  0.40370000  1.0 0.5889163542
Zn  Zn9  1  0.56452000  0.89661000  0.40370000  1.0 0.5889163542
Zn  Zn10  1  0.66791000  0.56452000  0.90370000  1.0 0.5889163542
Zn  Zn11  1  0.89661000  0.33209000  0.90370000  1.0 0.5889163542
Zn  Zn12  1  0.43548000  0.10339000  0.90370000  1.0 0.5889163542
Zn  Zn13  1  0.56452000  0.66791000  0.40370000  1.0 0.5889163542
Zn  Zn14  1  0.33209000  0.89661000  0.40370000  1.0 0.5889163542
Zn  Zn15  1  0.10339000  0.43548000  0.40370000  1.0 0.5889163542
Zn  Zn16  1  0.43548000  0.33209000  0.90370000  1.0 0.5889163542
Zn  Zn17  1  0.66791000  0.10339000  0.90370000  1.0 0.5889163542
Zn  Zn18  1  0.89661000  0.56452000  0.90370000  1.0 0.5889163542
Zn  Zn19  1  0.66791000  0.56452000  0.59630000  1.0 0.5889163542
Zn  Zn20  1  0.89661000  0.33209000  0.59630000  1.0 0.5889163542
Zn  Zn21  1  0.43548000  0.10339000  0.59630000  1.0 0.5889163542
Zn  Zn22  1  0.33209000  0.43548000  0.09630000  1.0 0.5889163542
Zn  Zn23  1  0.10339000  0.66791000  0.09630000  1.0 0.5889163542
Zn  Zn24  1  0.56452000  0.89661000  0.09630000  1.0 0.5889163542
H  H1  1  0.33000000  0.32870000  0.68270000  1.0 0.1441430031
H  H2  1  0.67130000  0.00130000  0.68270000  1.0 0.1441430031
H  H3  1  0.99870000  0.67000000  0.68270000  1.0 0.1441430031
H  H4  1  0.67000000  0.67130000  0.18270000  1.0 0.1441430031
H  H5  1  0.32870000  0.99870000  0.18270000  1.0 0.1441430031
H  H6  1  0.00130000  0.33000000  0.18270000  1.0 0.1441430031
H  H7  1  0.32870000  0.33000000  0.31730000  1.0 0.1441430031
H  H8  1  0.00130000  0.67130000  0.31730000  1.0 0.1441430031
H  H9  1  0.67000000  0.99870000  0.31730000  1.0 0.1441430031
H  H10  1  0.67130000  0.67000000  0.81730000  1.0 0.1441430031
H  H11  1  0.99870000  0.32870000  0.81730000  1.0 0.1441430031
H  H12  1  0.33000000  0.00130000  0.81730000  1.0 0.1441430031
H  H13  1  0.67000000  0.67130000  0.31730000  1.0 0.1441430031
H  H14  1  0.32870000  0.99870000  0.31730000  1.0 0.1441430031
H  H15  1  0.00130000  0.33000000  0.31730000  1.0 0.1441430031
H  H16  1  0.33000000  0.32870000  0.81730000  1.0 0.1441430031
H  H17  1  0.67130000  0.00130000  0.81730000  1.0 0.1441430031
H  H18  1  0.99870000  0.67000000  0.81730000  1.0 0.1441430031
H  H19  1  0.67130000  0.67000000  0.68270000  1.0 0.1441430031
H  H20  1  0.99870000  0.32870000  0.68270000  1.0 0.1441430031
H  H21  1  0.33000000  0.00130000  0.68270000  1.0 0.1441430031
H  H22  1  0.32870000  0.33000000  0.18270000  1.0 0.1441430031
H  H23  1  0.00130000  0.67130000  0.18270000  1.0 0.1441430031
H  H24  1  0.67000000  0.99870000  0.18270000  1.0 0.1441430031
H  H25  1  0.55640000  0.34580000  0.52460000  1.0 0.1079700217
H  H26  1  0.65420000  0.21060000  0.52460000  1.0 0.1079700217
H  H27  1  0.78940000  0.44360000  0.52460000  1.0 0.1079700217
H  H28  1  0.44360000  0.65420000  0.02460000  1.0 0.1079700217
H  H29  1  0.34580000  0.78940000  0.02460000  1.0 0.1079700217
H  H30  1  0.21060000  0.55640000  0.02460000  1.0 0.1079700217
H  H31  1  0.34580000  0.55640000  0.47540000  1.0 0.1079700217
H  H32  1  0.21060000  0.65420000  0.47540000  1.0 0.1079700217
H  H33  1  0.44360000  0.78940000  0.47540000  1.0 0.1079700217
H  H34  1  0.65420000  0.44360000  0.97540000  1.0 0.1079700217
H  H35  1  0.78940000  0.34580000  0.97540000  1.0 0.1079700217
H  H36  1  0.55640000  0.21060000  0.97540000  1.0 0.1079700217
H  H37  1  0.44360000  0.65420000  0.47540000  1.0 0.1079700217
H  H38  1  0.34580000  0.78940000  0.47540000  1.0 0.1079700217
H  H39  1  0.21060000  0.55640000  0.47540000  1.0 0.1079700217
H  H40  1  0.55640000  0.34580000  0.97540000  1.0 0.1079700217
H  H41  1  0.65420000  0.21060000  0.97540000  1.0 0.1079700217
H  H42  1  0.78940000  0.44360000  0.97540000  1.0 0.1079700217
H  H43  1  0.65420000  0.44360000  0.52460000  1.0 0.1079700217
H  H44  1  0.78940000  0.34580000  0.52460000  1.0 0.1079700217
H  H45  1  0.55640000  0.21060000  0.52460000  1.0 0.1079700217
H  H46  1  0.34580000  0.55640000  0.02460000  1.0 0.1079700217
H  H47  1  0.21060000  0.65420000  0.02460000  1.0 0.1079700217
H  H48  1  0.44360000  0.78940000  0.02460000  1.0 0.1079700217
H  H49  1  0.43410000  0.21700000  0.64880000  1.0 0.1284137098
H  H50  1  0.78300000  0.21710000  0.64880000  1.0 0.1284137098
H  H51  1  0.78290000  0.56590000  0.64880000  1.0 0.1284137098
H  H52  1  0.56590000  0.78300000  0.14880000  1.0 0.1284137098
H  H53  1  0.21700000  0.78290000  0.14880000  1.0 0.1284137098
H  H54  1  0.21710000  0.43410000  0.14880000  1.0 0.1284137098
H  H55  1  0.21700000  0.43410000  0.35120000  1.0 0.1284137098
H  H56  1  0.21710000  0.78300000  0.35120000  1.0 0.1284137098
H  H57  1  0.56590000  0.78290000  0.35120000  1.0 0.1284137098
H  H58  1  0.78300000  0.56590000  0.85120000  1.0 0.1284137098
H  H59  1  0.78290000  0.21700000  0.85120000  1.0 0.1284137098
H  H60  1  0.43410000  0.21710000  0.85120000  1.0 0.1284137098
H  H61  1  0.42490000  0.30360000  0.43360000  1.0 0.1501114945
H  H62  1  0.69640000  0.12130000  0.43360000  1.0 0.1501114945
H  H63  1  0.87870000  0.57510000  0.43360000  1.0 0.1501114945
H  H64  1  0.57510000  0.69640000  0.93360000  1.0 0.1501114945
H  H65  1  0.30360000  0.87870000  0.93360000  1.0 0.1501114945
H  H66  1  0.12130000  0.42490000  0.93360000  1.0 0.1501114945
H  H67  1  0.30360000  0.42490000  0.56640000  1.0 0.1501114945
H  H68  1  0.12130000  0.69640000  0.56640000  1.0 0.1501114945
H  H69  1  0.57510000  0.87870000  0.56640000  1.0 0.1501114945
H  H70  1  0.69640000  0.57510000  0.06640000  1.0 0.1501114945
H  H71  1  0.87870000  0.30360000  0.06640000  1.0 0.1501114945
H  H72  1  0.42490000  0.12130000  0.06640000  1.0 0.1501114945
H  H73  1  0.57510000  0.69640000  0.56640000  1.0 0.1501114945
H  H74  1  0.30360000  0.87870000  0.56640000  1.0 0.1501114945
H  H75  1  0.12130000  0.42490000  0.56640000  1.0 0.1501114945
H  H76  1  0.42490000  0.30360000  0.06640000  1.0 0.1501114945
H  H77  1  0.69640000  0.12130000  0.06640000  1.0 0.1501114945
H  H78  1  0.87870000  0.57510000  0.06640000  1.0 0.1501114945
H  H79  1  0.69640000  0.57510000  0.43360000  1.0 0.1501114945
H  H80  1  0.87870000  0.30360000  0.43360000  1.0 0.1501114945
H  H81  1  0.42490000  0.12130000  0.43360000  1.0 0.1501114945
H  H82  1  0.30360000  0.42490000  0.93360000  1.0 0.1501114945
H  H83  1  0.12130000  0.69640000  0.93360000  1.0 0.1501114945
H  H84  1  0.57510000  0.87870000  0.93360000  1.0 0.1501114945
H  H85  1  0.42430000  0.42430000  0.50000000  1.0 0.1079700217
H  H86  1  0.57570000  0.00000000  0.50000000  1.0 0.1079700217
H  H87  1  0.00000000  0.57570000  0.50000000  1.0 0.1079700217
H  H88  1  0.57570000  0.57570000  0.00000000  1.0 0.1079700217
H  H89  1  0.42430000  0.00000000  0.00000000  1.0 0.1079700217
H  H90  1  0.00000000  0.42430000  0.00000000  1.0 0.1079700217
H  H91  1  0.57570000  0.57570000  0.50000000  1.0 0.1079700217
H  H92  1  0.42430000  0.00000000  0.50000000  1.0 0.1079700217
H  H93  1  0.00000000  0.42430000  0.50000000  1.0 0.1079700217
H  H94  1  0.42430000  0.42430000  0.00000000  1.0 0.1079700217
H  H95  1  0.57570000  0.00000000  0.00000000  1.0 0.1079700217
H  H96  1  0.00000000  0.57570000  0.00000000  1.0 0.1079700217
H  H97  1  0.53710000  0.36420000  0.49570000  1.0 0.1156199081
H  H98  1  0.63580000  0.17290000  0.49570000  1.0 0.1156199081
H  H99  1  0.82710000  0.46290000  0.49570000  1.0 0.1156199081
H  H100  1  0.46290000  0.63580000  0.99570000  1.0 0.1156199081
H  H101  1  0.36420000  0.82710000  0.99570000  1.0 0.1156199081
H  H102  1  0.17290000  0.53710000  0.99570000  1.0 0.1156199081
H  H103  1  0.36420000  0.53710000  0.50430000  1.0 0.1156199081
H  H104  1  0.17290000  0.63580000  0.50430000  1.0 0.1156199081
H  H105  1  0.46290000  0.82710000  0.50430000  1.0 0.1156199081
H  H106  1  0.63580000  0.46290000  0.00430000  1.0 0.1156199081
H  H107  1  0.82710000  0.36420000  0.00430000  1.0 0.1156199081
H  H108  1  0.53710000  0.17290000  0.00430000  1.0 0.1156199081
H  H109  1  0.46290000  0.63580000  0.50430000  1.0 0.1156199081
H  H110  1  0.36420000  0.82710000  0.50430000  1.0 0.1156199081
H  H111  1  0.17290000  0.53710000  0.50430000  1.0 0.1156199081
H  H112  1  0.53710000  0.36420000  0.00430000  1.0 0.1156199081
H  H113  1  0.63580000  0.17290000  0.00430000  1.0 0.1156199081
H  H114  1  0.82710000  0.46290000  0.00430000  1.0 0.1156199081
H  H115  1  0.63580000  0.46290000  0.49570000  1.0 0.1156199081
H  H116  1  0.82710000  0.36420000  0.49570000  1.0 0.1156199081
H  H117  1  0.53710000  0.17290000  0.49570000  1.0 0.1156199081
H  H118  1  0.36420000  0.53710000  0.99570000  1.0 0.1156199081
H  H119  1  0.17290000  0.63580000  0.99570000  1.0 0.1156199081
H  H120  1  0.46290000  0.82710000  0.99570000  1.0 0.1156199081
H  H121  1  0.42640000  0.25740000  0.33230000  1.0 0.218783609
H  H122  1  0.74260000  0.16900000  0.33230000  1.0 0.218783609
H  H123  1  0.83100000  0.57360000  0.33230000  1.0 0.218783609
H  H124  1  0.57360000  0.74260000  0.83230000  1.0 0.218783609
H  H125  1  0.25740000  0.83100000  0.83230000  1.0 0.218783609
H  H126  1  0.16900000  0.42640000  0.83230000  1.0 0.218783609
H  H127  1  0.25740000  0.42640000  0.66770000  1.0 0.218783609
H  H128  1  0.16900000  0.74260000  0.66770000  1.0 0.218783609
H  H129  1  0.57360000  0.83100000  0.66770000  1.0 0.218783609
H  H130  1  0.74260000  0.57360000  0.16770000  1.0 0.218783609
H  H131  1  0.83100000  0.25740000  0.16770000  1.0 0.218783609
H  H132  1  0.42640000  0.16900000  0.16770000  1.0 0.218783609
H  H133  1  0.57360000  0.74260000  0.66770000  1.0 0.218783609
H  H134  1  0.25740000  0.83100000  0.66770000  1.0 0.218783609
H  H135  1  0.16900000  0.42640000  0.66770000  1.0 0.218783609
H  H136  1  0.42640000  0.25740000  0.16770000  1.0 0.218783609
H  H137  1  0.74260000  0.16900000  0.16770000  1.0 0.218783609
H  H138  1  0.83100000  0.57360000  0.16770000  1.0 0.218783609
H  H139  1  0.74260000  0.57360000  0.33230000  1.0 0.218783609
H  H140  1  0.83100000  0.25740000  0.33230000  1.0 0.218783609
H  H141  1  0.42640000  0.16900000  0.33230000  1.0 0.218783609
H  H142  1  0.25740000  0.42640000  0.83230000  1.0 0.218783609
H  H143  1  0.16900000  0.74260000  0.83230000  1.0 0.218783609
H  H144  1  0.57360000  0.83100000  0.83230000  1.0 0.218783609
H  H145  1  0.30080000  0.22360000  0.58480000  1.0 0.1501114945
H  H146  1  0.77640000  0.07720000  0.58480000  1.0 0.1501114945
H  H147  1  0.92280000  0.69920000  0.58480000  1.0 0.1501114945
H  H148  1  0.69920000  0.77640000  0.08480000  1.0 0.1501114945
H  H149  1  0.22360000  0.92280000  0.08480000  1.0 0.1501114945
H  H150  1  0.07720000  0.30080000  0.08480000  1.0 0.1501114945
H  H151  1  0.22360000  0.30080000  0.41520000  1.0 0.1501114945
H  H152  1  0.07720000  0.77640000  0.41520000  1.0 0.1501114945
H  H153  1  0.69920000  0.92280000  0.41520000  1.0 0.1501114945
H  H154  1  0.77640000  0.69920000  0.91520000  1.0 0.1501114945
H  H155  1  0.92280000  0.22360000  0.91520000  1.0 0.1501114945
H  H156  1  0.30080000  0.07720000  0.91520000  1.0 0.1501114945
H  H157  1  0.69920000  0.77640000  0.41520000  1.0 0.1501114945
H  H158  1  0.22360000  0.92280000  0.41520000  1.0 0.1501114945
H  H159  1  0.07720000  0.30080000  0.41520000  1.0 0.1501114945
H  H160  1  0.30080000  0.22360000  0.91520000  1.0 0.1501114945
H  H161  1  0.77640000  0.07720000  0.91520000  1.0 0.1501114945
H  H162  1  0.92280000  0.69920000  0.91520000  1.0 0.1501114945
H  H163  1  0.77640000  0.69920000  0.58480000  1.0 0.1501114945
H  H164  1  0.92280000  0.22360000  0.58480000  1.0 0.1501114945
H  H165  1  0.30080000  0.07720000  0.58480000  1.0 0.1501114945
H  H166  1  0.22360000  0.30080000  0.08480000  1.0 0.1501114945
H  H167  1  0.07720000  0.77640000  0.08480000  1.0 0.1501114945
H  H168  1  0.69920000  0.92280000  0.08480000  1.0 0.1501114945
H  H169  1  0.20610000  0.16970000  0.54450000  1.0 0.218783609
H  H170  1  0.83030000  0.03640000  0.54450000  1.0 0.218783609
H  H171  1  0.96360000  0.79390000  0.54450000  1.0 0.218783609
H  H172  1  0.79390000  0.83030000  0.04450000  1.0 0.218783609
H  H173  1  0.16970000  0.96360000  0.04450000  1.0 0.218783609
H  H174  1  0.03640000  0.20610000  0.04450000  1.0 0.218783609
H  H175  1  0.16970000  0.20610000  0.45550000  1.0 0.218783609
H  H176  1  0.03640000  0.83030000  0.45550000  1.0 0.218783609
H  H177  1  0.79390000  0.96360000  0.45550000  1.0 0.218783609
H  H178  1  0.83030000  0.79390000  0.95550000  1.0 0.218783609
H  H179  1  0.96360000  0.16970000  0.95550000  1.0 0.218783609
H  H180  1  0.20610000  0.03640000  0.95550000  1.0 0.218783609
H  H181  1  0.79390000  0.83030000  0.45550000  1.0 0.218783609
H  H182  1  0.16970000  0.96360000  0.45550000  1.0 0.218783609
H  H183  1  0.03640000  0.20610000  0.45550000  1.0 0.218783609
H  H184  1  0.20610000  0.16970000  0.95550000  1.0 0.218783609
H  H185  1  0.83030000  0.03640000  0.95550000  1.0 0.218783609
H  H186  1  0.96360000  0.79390000  0.95550000  1.0 0.218783609
H  H187  1  0.83030000  0.79390000  0.54450000  1.0 0.218783609
H  H188  1  0.96360000  0.16970000  0.54450000  1.0 0.218783609
H  H189  1  0.20610000  0.03640000  0.54450000  1.0 0.218783609
H  H190  1  0.16970000  0.20610000  0.04450000  1.0 0.218783609
H  H191  1  0.03640000  0.83030000  0.04450000  1.0 0.218783609
H  H192  1  0.79390000  0.96360000  0.04450000  1.0 0.218783609
C  C1  1  0.35800000  0.32640000  0.71150000  1.0 0.042353749
C  C2  1  0.67360000  0.03160000  0.71150000  1.0 0.042353749
C  C3  1  0.96840000  0.64200000  0.71150000  1.0 0.042353749
C  C4  1  0.64200000  0.67360000  0.21150000  1.0 0.042353749
C  C5  1  0.32640000  0.96840000  0.21150000  1.0 0.042353749
C  C6  1  0.03160000  0.35800000  0.21150000  1.0 0.042353749
C  C7  1  0.32640000  0.35800000  0.28850000  1.0 0.042353749
C  C8  1  0.03160000  0.67360000  0.28850000  1.0 0.042353749
C  C9  1  0.64200000  0.96840000  0.28850000  1.0 0.042353749
C  C10  1  0.67360000  0.64200000  0.78850000  1.0 0.042353749
C  C11  1  0.96840000  0.32640000  0.78850000  1.0 0.042353749
C  C12  1  0.35800000  0.03160000  0.78850000  1.0 0.042353749
C  C13  1  0.64200000  0.67360000  0.28850000  1.0 0.042353749
C  C14  1  0.32640000  0.96840000  0.28850000  1.0 0.042353749
C  C15  1  0.03160000  0.35800000  0.28850000  1.0 0.042353749
C  C16  1  0.35800000  0.32640000  0.78850000  1.0 0.042353749
C  C17  1  0.67360000  0.03160000  0.78850000  1.0 0.042353749
C  C18  1  0.96840000  0.64200000  0.78850000  1.0 0.042353749
C  C19  1  0.67360000  0.64200000  0.71150000  1.0 0.042353749
C  C20  1  0.96840000  0.32640000  0.71150000  1.0 0.042353749
C  C21  1  0.35800000  0.03160000  0.71150000  1.0 0.042353749
C  C22  1  0.32640000  0.35800000  0.21150000  1.0 0.042353749
C  C23  1  0.03160000  0.67360000  0.21150000  1.0 0.042353749
C  C24  1  0.64200000  0.96840000  0.21150000  1.0 0.042353749
C  C25  1  0.42950000  0.32020000  0.75000000  1.0 0.2867948143
C  C26  1  0.67980000  0.10930000  0.75000000  1.0 0.2867948143
C  C27  1  0.89070000  0.57050000  0.75000000  1.0 0.2867948143
C  C28  1  0.57050000  0.67980000  0.25000000  1.0 0.2867948143
C  C29  1  0.32020000  0.89070000  0.25000000  1.0 0.2867948143
C  C30  1  0.10930000  0.42950000  0.25000000  1.0 0.2867948143
C  C31  1  0.32020000  0.42950000  0.25000000  1.0 0.2867948143
C  C32  1  0.10930000  0.67980000  0.25000000  1.0 0.2867948143
C  C33  1  0.57050000  0.89070000  0.25000000  1.0 0.2867948143
C  C34  1  0.67980000  0.57050000  0.75000000  1.0 0.2867948143
C  C35  1  0.89070000  0.32020000  0.75000000  1.0 0.2867948143
C  C36  1  0.42950000  0.10930000  0.75000000  1.0 0.2867948143
C  C37  1  0.56220000  0.38280000  0.54000000  1.0 -0.0531423728
C  C38  1  0.61720000  0.17940000  0.54000000  1.0 -0.0531423728
C  C39  1  0.82060000  0.43780000  0.54000000  1.0 -0.0531423728
C  C40  1  0.43780000  0.61720000  0.04000000  1.0 -0.0531423728
C  C41  1  0.38280000  0.82060000  0.04000000  1.0 -0.0531423728
C  C42  1  0.17940000  0.56220000  0.04000000  1.0 -0.0531423728
C  C43  1  0.38280000  0.56220000  0.46000000  1.0 -0.0531423728
C  C44  1  0.17940000  0.61720000  0.46000000  1.0 -0.0531423728
C  C45  1  0.43780000  0.82060000  0.46000000  1.0 -0.0531423728
C  C46  1  0.61720000  0.43780000  0.96000000  1.0 -0.0531423728
C  C47  1  0.82060000  0.38280000  0.96000000  1.0 -0.0531423728
C  C48  1  0.56220000  0.17940000  0.96000000  1.0 -0.0531423728
C  C49  1  0.43780000  0.61720000  0.46000000  1.0 -0.0531423728
C  C50  1  0.38280000  0.82060000  0.46000000  1.0 -0.0531423728
C  C51  1  0.17940000  0.56220000  0.46000000  1.0 -0.0531423728
C  C52  1  0.56220000  0.38280000  0.96000000  1.0 -0.0531423728
C  C53  1  0.61720000  0.17940000  0.96000000  1.0 -0.0531423728
C  C54  1  0.82060000  0.43780000  0.96000000  1.0 -0.0531423728
C  C55  1  0.61720000  0.43780000  0.54000000  1.0 -0.0531423728
C  C56  1  0.82060000  0.38280000  0.54000000  1.0 -0.0531423728
C  C57  1  0.56220000  0.17940000  0.54000000  1.0 -0.0531423728
C  C58  1  0.38280000  0.56220000  0.04000000  1.0 -0.0531423728
C  C59  1  0.17940000  0.61720000  0.04000000  1.0 -0.0531423728
C  C60  1  0.43780000  0.82060000  0.04000000  1.0 -0.0531423728
C  C61  1  0.54500000  0.45500000  0.60000000  1.0 0.1603344144
C  C62  1  0.54500000  0.09000000  0.60000000  1.0 0.1603344144
C  C63  1  0.91000000  0.45500000  0.60000000  1.0 0.1603344144
C  C64  1  0.45500000  0.54500000  0.10000000  1.0 0.1603344144
C  C65  1  0.45500000  0.91000000  0.10000000  1.0 0.1603344144
C  C66  1  0.09000000  0.54500000  0.10000000  1.0 0.1603344144
C  C67  1  0.45500000  0.54500000  0.40000000  1.0 0.1603344144
C  C68  1  0.09000000  0.54500000  0.40000000  1.0 0.1603344144
C  C69  1  0.45500000  0.91000000  0.40000000  1.0 0.1603344144
C  C70  1  0.54500000  0.45500000  0.90000000  1.0 0.1603344144
C  C71  1  0.91000000  0.45500000  0.90000000  1.0 0.1603344144
C  C72  1  0.54500000  0.09000000  0.90000000  1.0 0.1603344144
C  C73  1  0.43270000  0.21640000  0.60010000  1.0 0.103302605
C  C74  1  0.78360000  0.21630000  0.60010000  1.0 0.103302605
C  C75  1  0.78370000  0.56730000  0.60010000  1.0 0.103302605
C  C76  1  0.56730000  0.78360000  0.10010000  1.0 0.103302605
C  C77  1  0.21640000  0.78370000  0.10010000  1.0 0.103302605
C  C78  1  0.21630000  0.43270000  0.10010000  1.0 0.103302605
C  C79  1  0.21640000  0.43270000  0.39990000  1.0 0.103302605
C  C80  1  0.21630000  0.78360000  0.39990000  1.0 0.103302605
C  C81  1  0.56730000  0.78370000  0.39990000  1.0 0.103302605
C  C82  1  0.78360000  0.56730000  0.89990000  1.0 0.103302605
C  C83  1  0.78370000  0.21640000  0.89990000  1.0 0.103302605
C  C84  1  0.43270000  0.21630000  0.89990000  1.0 0.103302605
C  C85  1  0.43000000  0.24160000  0.49620000  1.0 0.1501114945
C  C86  1  0.75840000  0.18840000  0.49620000  1.0 0.1501114945
C  C87  1  0.81160000  0.57000000  0.49620000  1.0 0.1501114945
C  C88  1  0.57000000  0.75840000  0.99620000  1.0 0.1501114945
C  C89  1  0.24160000  0.81160000  0.99620000  1.0 0.1501114945
C  C90  1  0.18840000  0.43000000  0.99620000  1.0 0.1501114945
C  C91  1  0.24160000  0.43000000  0.50380000  1.0 0.1501114945
C  C92  1  0.18840000  0.75840000  0.50380000  1.0 0.1501114945
C  C93  1  0.57000000  0.81160000  0.50380000  1.0 0.1501114945
C  C94  1  0.75840000  0.57000000  0.00380000  1.0 0.1501114945
C  C95  1  0.81160000  0.24160000  0.00380000  1.0 0.1501114945
C  C96  1  0.43000000  0.18840000  0.00380000  1.0 0.1501114945
C  C97  1  0.57000000  0.75840000  0.50380000  1.0 0.1501114945
C  C98  1  0.24160000  0.81160000  0.50380000  1.0 0.1501114945
C  C99  1  0.18840000  0.43000000  0.50380000  1.0 0.1501114945
C  C100  1  0.43000000  0.24160000  0.00380000  1.0 0.1501114945
C  C101  1  0.75840000  0.18840000  0.00380000  1.0 0.1501114945
C  C102  1  0.81160000  0.57000000  0.00380000  1.0 0.1501114945
C  C103  1  0.75840000  0.57000000  0.49620000  1.0 0.1501114945
C  C104  1  0.81160000  0.24160000  0.49620000  1.0 0.1501114945
C  C105  1  0.43000000  0.18840000  0.49620000  1.0 0.1501114945
C  C106  1  0.24160000  0.43000000  0.99620000  1.0 0.1501114945
C  C107  1  0.18840000  0.75840000  0.99620000  1.0 0.1501114945
C  C108  1  0.57000000  0.81160000  0.99620000  1.0 0.1501114945
C  C109  1  0.42680000  0.26820000  0.43410000  1.0 -0.2114972786
C  C110  1  0.73180000  0.15860000  0.43410000  1.0 -0.2114972786
C  C111  1  0.84140000  0.57320000  0.43410000  1.0 -0.2114972786
C  C112  1  0.57320000  0.73180000  0.93410000  1.0 -0.2114972786
C  C113  1  0.26820000  0.84140000  0.93410000  1.0 -0.2114972786
C  C114  1  0.15860000  0.42680000  0.93410000  1.0 -0.2114972786
C  C115  1  0.26820000  0.42680000  0.56590000  1.0 -0.2114972786
C  C116  1  0.15860000  0.73180000  0.56590000  1.0 -0.2114972786
C  C117  1  0.57320000  0.84140000  0.56590000  1.0 -0.2114972786
C  C118  1  0.73180000  0.57320000  0.06590000  1.0 -0.2114972786
C  C119  1  0.84140000  0.26820000  0.06590000  1.0 -0.2114972786
C  C120  1  0.42680000  0.15860000  0.06590000  1.0 -0.2114972786
C  C121  1  0.57320000  0.73180000  0.56590000  1.0 -0.2114972786
C  C122  1  0.26820000  0.84140000  0.56590000  1.0 -0.2114972786
C  C123  1  0.15860000  0.42680000  0.56590000  1.0 -0.2114972786
C  C124  1  0.42680000  0.26820000  0.06590000  1.0 -0.2114972786
C  C125  1  0.73180000  0.15860000  0.06590000  1.0 -0.2114972786
C  C126  1  0.84140000  0.57320000  0.06590000  1.0 -0.2114972786
C  C127  1  0.73180000  0.57320000  0.43410000  1.0 -0.2114972786
C  C128  1  0.84140000  0.26820000  0.43410000  1.0 -0.2114972786
C  C129  1  0.42680000  0.15860000  0.43410000  1.0 -0.2114972786
C  C130  1  0.26820000  0.42680000  0.93410000  1.0 -0.2114972786
C  C131  1  0.15860000  0.73180000  0.93410000  1.0 -0.2114972786
C  C132  1  0.57320000  0.84140000  0.93410000  1.0 -0.2114972786
C  C133  1  0.42660000  0.24000000  0.37510000  1.0 -0.0284519623
C  C134  1  0.76000000  0.18660000  0.37510000  1.0 -0.0284519623
C  C135  1  0.81340000  0.57340000  0.37510000  1.0 -0.0284519623
C  C136  1  0.57340000  0.76000000  0.87510000  1.0 -0.0284519623
C  C137  1  0.24000000  0.81340000  0.87510000  1.0 -0.0284519623
C  C138  1  0.18660000  0.42660000  0.87510000  1.0 -0.0284519623
C  C139  1  0.24000000  0.42660000  0.62490000  1.0 -0.0284519623
C  C140  1  0.18660000  0.76000000  0.62490000  1.0 -0.0284519623
C  C141  1  0.57340000  0.81340000  0.62490000  1.0 -0.0284519623
C  C142  1  0.76000000  0.57340000  0.12490000  1.0 -0.0284519623
C  C143  1  0.81340000  0.24000000  0.12490000  1.0 -0.0284519623
C  C144  1  0.42660000  0.18660000  0.12490000  1.0 -0.0284519623
C  C145  1  0.57340000  0.76000000  0.62490000  1.0 -0.0284519623
C  C146  1  0.24000000  0.81340000  0.62490000  1.0 -0.0284519623
C  C147  1  0.18660000  0.42660000  0.62490000  1.0 -0.0284519623
C  C148  1  0.42660000  0.24000000  0.12490000  1.0 -0.0284519623
C  C149  1  0.76000000  0.18660000  0.12490000  1.0 -0.0284519623
C  C150  1  0.81340000  0.57340000  0.12490000  1.0 -0.0284519623
C  C151  1  0.76000000  0.57340000  0.37510000  1.0 -0.0284519623
C  C152  1  0.81340000  0.24000000  0.37510000  1.0 -0.0284519623
C  C153  1  0.42660000  0.18660000  0.37510000  1.0 -0.0284519623
C  C154  1  0.24000000  0.42660000  0.87510000  1.0 -0.0284519623
C  C155  1  0.18660000  0.76000000  0.87510000  1.0 -0.0284519623
C  C156  1  0.57340000  0.81340000  0.87510000  1.0 -0.0284519623
C  C157  1  0.38790000  0.38790000  0.50000000  1.0 -0.0193829465
C  C158  1  0.61210000  0.00000000  0.50000000  1.0 -0.0193829465
C  C159  1  0.00000000  0.61210000  0.50000000  1.0 -0.0193829465
C  C160  1  0.61210000  0.61210000  0.00000000  1.0 -0.0193829465
C  C161  1  0.38790000  0.00000000  0.00000000  1.0 -0.0193829465
C  C162  1  0.00000000  0.38790000  0.00000000  1.0 -0.0193829465
C  C163  1  0.61210000  0.61210000  0.50000000  1.0 -0.0193829465
C  C164  1  0.38790000  0.00000000  0.50000000  1.0 -0.0193829465
C  C165  1  0.00000000  0.38790000  0.50000000  1.0 -0.0193829465
C  C166  1  0.38790000  0.38790000  0.00000000  1.0 -0.0193829465
C  C167  1  0.61210000  0.00000000  0.00000000  1.0 -0.0193829465
C  C168  1  0.00000000  0.61210000  0.00000000  1.0 -0.0193829465
C  C169  1  0.31970000  0.29770000  0.52480000  1.0 0.1603344144
C  C170  1  0.70230000  0.02200000  0.52480000  1.0 0.1603344144
C  C171  1  0.97800000  0.68030000  0.52480000  1.0 0.1603344144
C  C172  1  0.68030000  0.70230000  0.02480000  1.0 0.1603344144
C  C173  1  0.29770000  0.97800000  0.02480000  1.0 0.1603344144
C  C174  1  0.02200000  0.31970000  0.02480000  1.0 0.1603344144
C  C175  1  0.29770000  0.31970000  0.47520000  1.0 0.1603344144
C  C176  1  0.02200000  0.70230000  0.47520000  1.0 0.1603344144
C  C177  1  0.68030000  0.97800000  0.47520000  1.0 0.1603344144
C  C178  1  0.70230000  0.68030000  0.97520000  1.0 0.1603344144
C  C179  1  0.97800000  0.29770000  0.97520000  1.0 0.1603344144
C  C180  1  0.31970000  0.02200000  0.97520000  1.0 0.1603344144
C  C181  1  0.68030000  0.70230000  0.47520000  1.0 0.1603344144
C  C182  1  0.29770000  0.97800000  0.47520000  1.0 0.1603344144
C  C183  1  0.02200000  0.31970000  0.47520000  1.0 0.1603344144
C  C184  1  0.31970000  0.29770000  0.97520000  1.0 0.1603344144
C  C185  1  0.70230000  0.02200000  0.97520000  1.0 0.1603344144
C  C186  1  0.97800000  0.68030000  0.97520000  1.0 0.1603344144
C  C187  1  0.70230000  0.68030000  0.52480000  1.0 0.1603344144
C  C188  1  0.97800000  0.29770000  0.52480000  1.0 0.1603344144
C  C189  1  0.31970000  0.02200000  0.52480000  1.0 0.1603344144
C  C190  1  0.29770000  0.31970000  0.02480000  1.0 0.1603344144
C  C191  1  0.02200000  0.70230000  0.02480000  1.0 0.1603344144
C  C192  1  0.68030000  0.97800000  0.02480000  1.0 0.1603344144
C  C193  1  0.28560000  0.23920000  0.55160000  1.0 -0.1484303744
C  C194  1  0.76080000  0.04640000  0.55160000  1.0 -0.1484303744
C  C195  1  0.95360000  0.71440000  0.55160000  1.0 -0.1484303744
C  C196  1  0.71440000  0.76080000  0.05160000  1.0 -0.1484303744
C  C197  1  0.23920000  0.95360000  0.05160000  1.0 -0.1484303744
C  C198  1  0.04640000  0.28560000  0.05160000  1.0 -0.1484303744
C  C199  1  0.23920000  0.28560000  0.44840000  1.0 -0.1484303744
C  C200  1  0.04640000  0.76080000  0.44840000  1.0 -0.1484303744
C  C201  1  0.71440000  0.95360000  0.44840000  1.0 -0.1484303744
C  C202  1  0.76080000  0.71440000  0.94840000  1.0 -0.1484303744
C  C203  1  0.95360000  0.23920000  0.94840000  1.0 -0.1484303744
C  C204  1  0.28560000  0.04640000  0.94840000  1.0 -0.1484303744
C  C205  1  0.71440000  0.76080000  0.44840000  1.0 -0.1484303744
C  C206  1  0.23920000  0.95360000  0.44840000  1.0 -0.1484303744
C  C207  1  0.04640000  0.28560000  0.44840000  1.0 -0.1484303744
C  C208  1  0.28560000  0.23920000  0.94840000  1.0 -0.1484303744
C  C209  1  0.76080000  0.04640000  0.94840000  1.0 -0.1484303744
C  C210  1  0.95360000  0.71440000  0.94840000  1.0 -0.1484303744
C  C211  1  0.76080000  0.71440000  0.55160000  1.0 -0.1484303744
C  C212  1  0.95360000  0.23920000  0.55160000  1.0 -0.1484303744
C  C213  1  0.28560000  0.04640000  0.55160000  1.0 -0.1484303744
C  C214  1  0.23920000  0.28560000  0.05160000  1.0 -0.1484303744
C  C215  1  0.04640000  0.76080000  0.05160000  1.0 -0.1484303744
C  C216  1  0.71440000  0.95360000  0.05160000  1.0 -0.1484303744
C  C217  1  0.23130000  0.20830000  0.52700000  1.0 -0.0439872357
C  C218  1  0.79170000  0.02300000  0.52700000  1.0 -0.0439872357
C  C219  1  0.97700000  0.76870000  0.52700000  1.0 -0.0439872357
C  C220  1  0.76870000  0.79170000  0.02700000  1.0 -0.0439872357
C  C221  1  0.20830000  0.97700000  0.02700000  1.0 -0.0439872357
C  C222  1  0.02300000  0.23130000  0.02700000  1.0 -0.0439872357
C  C223  1  0.20830000  0.23130000  0.47300000  1.0 -0.0439872357
C  C224  1  0.02300000  0.79170000  0.47300000  1.0 -0.0439872357
C  C225  1  0.76870000  0.97700000  0.47300000  1.0 -0.0439872357
C  C226  1  0.79170000  0.76870000  0.97300000  1.0 -0.0439872357
C  C227  1  0.97700000  0.20830000  0.97300000  1.0 -0.0439872357
C  C228  1  0.23130000  0.02300000  0.97300000  1.0 -0.0439872357
C  C229  1  0.76870000  0.79170000  0.47300000  1.0 -0.0439872357
C  C230  1  0.20830000  0.97700000  0.47300000  1.0 -0.0439872357
C  C231  1  0.02300000  0.23130000  0.47300000  1.0 -0.0439872357
C  C232  1  0.23130000  0.20830000  0.97300000  1.0 -0.0439872357
C  C233  1  0.79170000  0.02300000  0.97300000  1.0 -0.0439872357
C  C234  1  0.97700000  0.76870000  0.97300000  1.0 -0.0439872357
C  C235  1  0.79170000  0.76870000  0.52700000  1.0 -0.0439872357
C  C236  1  0.97700000  0.20830000  0.52700000  1.0 -0.0439872357
C  C237  1  0.23130000  0.02300000  0.52700000  1.0 -0.0439872357
C  C238  1  0.20830000  0.23130000  0.02700000  1.0 -0.0439872357
C  C239  1  0.02300000  0.79170000  0.02700000  1.0 -0.0439872357
C  C240  1  0.76870000  0.97700000  0.02700000  1.0 -0.0439872357
C  C241  1  0.55110000  0.44890000  0.57600000  1.0 0.1724714516
C  C242  1  0.55110000  0.10220000  0.57600000  1.0 0.1724714516
C  C243  1  0.89780000  0.44890000  0.57600000  1.0 0.1724714516
C  C244  1  0.44890000  0.55110000  0.07600000  1.0 0.1724714516
C  C245  1  0.44890000  0.89780000  0.07600000  1.0 0.1724714516
C  C246  1  0.10220000  0.55110000  0.07600000  1.0 0.1724714516
C  C247  1  0.44890000  0.55110000  0.42400000  1.0 0.1724714516
C  C248  1  0.10220000  0.55110000  0.42400000  1.0 0.1724714516
C  C249  1  0.44890000  0.89780000  0.42400000  1.0 0.1724714516
C  C250  1  0.55110000  0.44890000  0.92400000  1.0 0.1724714516
C  C251  1  0.89780000  0.44890000  0.92400000  1.0 0.1724714516
C  C252  1  0.55110000  0.10220000  0.92400000  1.0 0.1724714516
C  C253  1  0.54900000  0.39790000  0.52400000  1.0 0.0535937694
C  C254  1  0.60210000  0.15110000  0.52400000  1.0 0.0535937694
C  C255  1  0.84890000  0.45100000  0.52400000  1.0 0.0535937694
C  C256  1  0.45100000  0.60210000  0.02400000  1.0 0.0535937694
C  C257  1  0.39790000  0.84890000  0.02400000  1.0 0.0535937694
C  C258  1  0.15110000  0.54900000  0.02400000  1.0 0.0535937694
C  C259  1  0.39790000  0.54900000  0.47600000  1.0 0.0535937694
C  C260  1  0.15110000  0.60210000  0.47600000  1.0 0.0535937694
C  C261  1  0.45100000  0.84890000  0.47600000  1.0 0.0535937694
C  C262  1  0.60210000  0.45100000  0.97600000  1.0 0.0535937694
C  C263  1  0.84890000  0.39790000  0.97600000  1.0 0.0535937694
C  C264  1  0.54900000  0.15110000  0.97600000  1.0 0.0535937694
C  C265  1  0.45100000  0.60210000  0.47600000  1.0 0.0535937694
C  C266  1  0.39790000  0.84890000  0.47600000  1.0 0.0535937694
C  C267  1  0.15110000  0.54900000  0.47600000  1.0 0.0535937694
C  C268  1  0.54900000  0.39790000  0.97600000  1.0 0.0535937694
C  C269  1  0.60210000  0.15110000  0.97600000  1.0 0.0535937694
C  C270  1  0.84890000  0.45100000  0.97600000  1.0 0.0535937694
C  C271  1  0.60210000  0.45100000  0.52400000  1.0 0.0535937694
C  C272  1  0.84890000  0.39790000  0.52400000  1.0 0.0535937694
C  C273  1  0.54900000  0.15110000  0.52400000  1.0 0.0535937694
C  C274  1  0.39790000  0.54900000  0.02400000  1.0 0.0535937694
C  C275  1  0.15110000  0.60210000  0.02400000  1.0 0.0535937694
C  C276  1  0.45100000  0.84890000  0.02400000  1.0 0.0535937694
N  N1  1  0.40490000  0.32240000  0.69090000  1.0 -0.3356683747
N  N2  1  0.67760000  0.08250000  0.69090000  1.0 -0.3356683747
N  N3  1  0.91750000  0.59510000  0.69090000  1.0 -0.3356683747
N  N4  1  0.59510000  0.67760000  0.19090000  1.0 -0.3356683747
N  N5  1  0.32240000  0.91750000  0.19090000  1.0 -0.3356683747
N  N6  1  0.08250000  0.40490000  0.19090000  1.0 -0.3356683747
N  N7  1  0.32240000  0.40490000  0.30910000  1.0 -0.3356683747
N  N8  1  0.08250000  0.67760000  0.30910000  1.0 -0.3356683747
N  N9  1  0.59510000  0.91750000  0.30910000  1.0 -0.3356683747
N  N10  1  0.67760000  0.59510000  0.80910000  1.0 -0.3356683747
N  N11  1  0.91750000  0.32240000  0.80910000  1.0 -0.3356683747
N  N12  1  0.40490000  0.08250000  0.80910000  1.0 -0.3356683747
N  N13  1  0.59510000  0.67760000  0.30910000  1.0 -0.3356683747
N  N14  1  0.32240000  0.91750000  0.30910000  1.0 -0.3356683747
N  N15  1  0.08250000  0.40490000  0.30910000  1.0 -0.3356683747
N  N16  1  0.40490000  0.32240000  0.80910000  1.0 -0.3356683747
N  N17  1  0.67760000  0.08250000  0.80910000  1.0 -0.3356683747
N  N18  1  0.91750000  0.59510000  0.80910000  1.0 -0.3356683747
N  N19  1  0.67760000  0.59510000  0.69090000  1.0 -0.3356683747
N  N20  1  0.91750000  0.32240000  0.69090000  1.0 -0.3356683747
N  N21  1  0.40490000  0.08250000  0.69090000  1.0 -0.3356683747
N  N22  1  0.32240000  0.40490000  0.19090000  1.0 -0.3356683747
N  N23  1  0.08250000  0.67760000  0.19090000  1.0 -0.3356683747
N  N24  1  0.59510000  0.91750000  0.19090000  1.0 -0.3356683747
N  N25  1  0.48680000  0.32260000  0.75000000  1.0 0.3301248131
N  N26  1  0.67740000  0.16420000  0.75000000  1.0 0.3301248131
N  N27  1  0.83580000  0.51320000  0.75000000  1.0 0.3301248131
N  N28  1  0.51320000  0.67740000  0.25000000  1.0 0.3301248131
N  N29  1  0.32260000  0.83580000  0.25000000  1.0 0.3301248131
N  N30  1  0.16420000  0.48680000  0.25000000  1.0 0.3301248131
N  N31  1  0.32260000  0.48680000  0.25000000  1.0 0.3301248131
N  N32  1  0.16420000  0.67740000  0.25000000  1.0 0.3301248131
N  N33  1  0.51320000  0.83580000  0.25000000  1.0 0.3301248131
N  N34  1  0.67740000  0.51320000  0.75000000  1.0 0.3301248131
N  N35  1  0.83580000  0.32260000  0.75000000  1.0 0.3301248131
N  N36  1  0.48680000  0.16420000  0.75000000  1.0 0.3301248131
N  N37  1  0.51790000  0.39380000  0.56710000  1.0 -0.0982054369
N  N38  1  0.60620000  0.12410000  0.56710000  1.0 -0.0982054369
N  N39  1  0.87590000  0.48210000  0.56710000  1.0 -0.0982054369
N  N40  1  0.48210000  0.60620000  0.06710000  1.0 -0.0982054369
N  N41  1  0.39380000  0.87590000  0.06710000  1.0 -0.0982054369
N  N42  1  0.12410000  0.51790000  0.06710000  1.0 -0.0982054369
N  N43  1  0.39380000  0.51790000  0.43290000  1.0 -0.0982054369
N  N44  1  0.12410000  0.60620000  0.43290000  1.0 -0.0982054369
N  N45  1  0.48210000  0.87590000  0.43290000  1.0 -0.0982054369
N  N46  1  0.60620000  0.48210000  0.93290000  1.0 -0.0982054369
N  N47  1  0.87590000  0.39380000  0.93290000  1.0 -0.0982054369
N  N48  1  0.51790000  0.12410000  0.93290000  1.0 -0.0982054369
N  N49  1  0.48210000  0.60620000  0.43290000  1.0 -0.0982054369
N  N50  1  0.39380000  0.87590000  0.43290000  1.0 -0.0982054369
N  N51  1  0.12410000  0.51790000  0.43290000  1.0 -0.0982054369
N  N52  1  0.51790000  0.39380000  0.93290000  1.0 -0.0982054369
N  N53  1  0.60620000  0.12410000  0.93290000  1.0 -0.0982054369
N  N54  1  0.87590000  0.48210000  0.93290000  1.0 -0.0982054369
N  N55  1  0.60620000  0.48210000  0.56710000  1.0 -0.0982054369
N  N56  1  0.87590000  0.39380000  0.56710000  1.0 -0.0982054369
N  N57  1  0.51790000  0.12410000  0.56710000  1.0 -0.0982054369
N  N58  1  0.39380000  0.51790000  0.06710000  1.0 -0.0982054369
N  N59  1  0.12410000  0.60620000  0.06710000  1.0 -0.0982054369
N  N60  1  0.48210000  0.87590000  0.06710000  1.0 -0.0982054369
N  N61  1  0.51800000  0.48200000  0.61040000  1.0 0.1501114945
N  N62  1  0.51800000  0.03600000  0.61040000  1.0 0.1501114945
N  N63  1  0.96400000  0.48200000  0.61040000  1.0 0.1501114945
N  N64  1  0.48200000  0.51800000  0.11040000  1.0 0.1501114945
N  N65  1  0.48200000  0.96400000  0.11040000  1.0 0.1501114945
N  N66  1  0.03600000  0.51800000  0.11040000  1.0 0.1501114945
N  N67  1  0.48200000  0.51800000  0.38960000  1.0 0.1501114945
N  N68  1  0.03600000  0.51800000  0.38960000  1.0 0.1501114945
N  N69  1  0.48200000  0.96400000  0.38960000  1.0 0.1501114945
N  N70  1  0.51800000  0.48200000  0.88960000  1.0 0.1501114945
N  N71  1  0.96400000  0.48200000  0.88960000  1.0 0.1501114945
N  N72  1  0.51800000  0.03600000  0.88960000  1.0 0.1501114945
N  N73  1  0.43160000  0.26020000  0.56070000  1.0 -0.3492691361
N  N74  1  0.73980000  0.17140000  0.56070000  1.0 -0.3492691361
N  N75  1  0.82860000  0.56840000  0.56070000  1.0 -0.3492691361
N  N76  1  0.56840000  0.73980000  0.06070000  1.0 -0.3492691361
N  N77  1  0.26020000  0.82860000  0.06070000  1.0 -0.3492691361
N  N78  1  0.17140000  0.43160000  0.06070000  1.0 -0.3492691361
N  N79  1  0.26020000  0.43160000  0.43930000  1.0 -0.3492691361
N  N80  1  0.17140000  0.73980000  0.43930000  1.0 -0.3492691361
N  N81  1  0.56840000  0.82860000  0.43930000  1.0 -0.3492691361
N  N82  1  0.73980000  0.56840000  0.93930000  1.0 -0.3492691361
N  N83  1  0.82860000  0.26020000  0.93930000  1.0 -0.3492691361
N  N84  1  0.43160000  0.17140000  0.93930000  1.0 -0.3492691361
N  N85  1  0.56840000  0.73980000  0.43930000  1.0 -0.3492691361
N  N86  1  0.26020000  0.82860000  0.43930000  1.0 -0.3492691361
N  N87  1  0.17140000  0.43160000  0.43930000  1.0 -0.3492691361
N  N88  1  0.43160000  0.26020000  0.93930000  1.0 -0.3492691361
N  N89  1  0.73980000  0.17140000  0.93930000  1.0 -0.3492691361
N  N90  1  0.82860000  0.56840000  0.93930000  1.0 -0.3492691361
N  N91  1  0.73980000  0.56840000  0.56070000  1.0 -0.3492691361
N  N92  1  0.82860000  0.26020000  0.56070000  1.0 -0.3492691361
N  N93  1  0.43160000  0.17140000  0.56070000  1.0 -0.3492691361
N  N94  1  0.26020000  0.43160000  0.06070000  1.0 -0.3492691361
N  N95  1  0.17140000  0.73980000  0.06070000  1.0 -0.3492691361
N  N96  1  0.56840000  0.82860000  0.06070000  1.0 -0.3492691361
N  N97  1  0.44100000  0.28100000  0.31900000  1.0 0.103302605
N  N98  1  0.71900000  0.16000000  0.31900000  1.0 0.1079700217
N  N99  1  0.84000000  0.55900000  0.31900000  1.0 0.1079700217
N  N100  1  0.55900000  0.71900000  0.81900000  1.0 0.1079700217
N  N101  1  0.28100000  0.84000000  0.81900000  1.0 0.103302605
N  N102  1  0.16000000  0.44100000  0.81900000  1.0 0.1079700217
N  N103  1  0.28100000  0.44100000  0.68100000  1.0 0.1079700217
N  N104  1  0.16000000  0.71900000  0.68100000  1.0 0.103302605
N  N105  1  0.55900000  0.84000000  0.68100000  1.0 0.1079700217
N  N106  1  0.71900000  0.55900000  0.18100000  1.0 0.103302605
N  N107  1  0.84000000  0.28100000  0.18100000  1.0 0.103302605
N  N108  1  0.44100000  0.16000000  0.18100000  1.0 0.103302605
N  N109  1  0.55900000  0.71900000  0.68100000  1.0 0.1079700217
N  N110  1  0.28100000  0.84000000  0.68100000  1.0 0.103302605
N  N111  1  0.16000000  0.44100000  0.68100000  1.0 0.1079700217
N  N112  1  0.44100000  0.28100000  0.18100000  1.0 0.103302605
N  N113  1  0.71900000  0.16000000  0.18100000  1.0 0.103302605
N  N114  1  0.84000000  0.55900000  0.18100000  1.0 0.103302605
N  N115  1  0.71900000  0.55900000  0.31900000  1.0 0.1079700217
N  N116  1  0.84000000  0.28100000  0.31900000  1.0 0.1079700217
N  N117  1  0.44100000  0.16000000  0.31900000  1.0 0.103302605
N  N118  1  0.28100000  0.44100000  0.81900000  1.0 0.1079700217
N  N119  1  0.16000000  0.71900000  0.81900000  1.0 0.1079700217
N  N120  1  0.55900000  0.84000000  0.81900000  1.0 0.1079700217
N  N121  1  0.37650000  0.33840000  0.54040000  1.0 -0.3553455444
N  N122  1  0.66160000  0.03810000  0.54040000  1.0 -0.3492691361
N  N123  1  0.96190000  0.62350000  0.54040000  1.0 -0.3553455444
N  N124  1  0.62350000  0.66160000  0.04040000  1.0 -0.3553455444
N  N125  1  0.33840000  0.96190000  0.04040000  1.0 -0.3553455444
N  N126  1  0.03810000  0.37650000  0.04040000  1.0 -0.3553455444
N  N127  1  0.33840000  0.37650000  0.45960000  1.0 -0.3553455444
N  N128  1  0.03810000  0.66160000  0.45960000  1.0 -0.3553455444
N  N129  1  0.62350000  0.96190000  0.45960000  1.0 -0.3553455444
N  N130  1  0.66160000  0.62350000  0.95960000  1.0 -0.3553455444
N  N131  1  0.96190000  0.33840000  0.95960000  1.0 -0.3553455444
N  N132  1  0.37650000  0.03810000  0.95960000  1.0 -0.3553455444
N  N133  1  0.62350000  0.66160000  0.45960000  1.0 -0.3553455444
N  N134  1  0.33840000  0.96190000  0.45960000  1.0 -0.3553455444
N  N135  1  0.03810000  0.37650000  0.45960000  1.0 -0.3553455444
N  N136  1  0.37650000  0.33840000  0.95960000  1.0 -0.3553455444
N  N137  1  0.66160000  0.03810000  0.95960000  1.0 -0.3492691361
N  N138  1  0.96190000  0.62350000  0.95960000  1.0 -0.3553455444
N  N139  1  0.66160000  0.62350000  0.54040000  1.0 -0.3553455444
N  N140  1  0.96190000  0.33840000  0.54040000  1.0 -0.3492691361
N  N141  1  0.37650000  0.03810000  0.54040000  1.0 -0.3492691361
N  N142  1  0.33840000  0.37650000  0.04040000  1.0 -0.3553455444
N  N143  1  0.03810000  0.66160000  0.04040000  1.0 -0.3553455444
N  N144  1  0.62350000  0.96190000  0.04040000  1.0 -0.3553455444
N  N145  1  0.19820000  0.13750000  0.55800000  1.0 -0.0284519623
N  N146  1  0.86250000  0.06070000  0.55800000  1.0 -0.0284519623
N  N147  1  0.93930000  0.80180000  0.55800000  1.0 -0.0284519623
N  N148  1  0.80180000  0.86250000  0.05800000  1.0 -0.0284519623
N  N149  1  0.13750000  0.93930000  0.05800000  1.0 -0.0284519623
N  N150  1  0.06070000  0.19820000  0.05800000  1.0 -0.0284519623
N  N151  1  0.13750000  0.19820000  0.44200000  1.0 -0.0284519623
N  N152  1  0.06070000  0.86250000  0.44200000  1.0 -0.0284519623
N  N153  1  0.80180000  0.93930000  0.44200000  1.0 -0.0284519623
N  N154  1  0.86250000  0.80180000  0.94200000  1.0 -0.0284519623
N  N155  1  0.93930000  0.13750000  0.94200000  1.0 -0.0284519623
N  N156  1  0.19820000  0.06070000  0.94200000  1.0 -0.0284519623
N  N157  1  0.80180000  0.86250000  0.44200000  1.0 -0.0284519623
N  N158  1  0.13750000  0.93930000  0.44200000  1.0 -0.0284519623
N  N159  1  0.06070000  0.19820000  0.44200000  1.0 -0.0284519623
N  N160  1  0.19820000  0.13750000  0.94200000  1.0 -0.0284519623
N  N161  1  0.86250000  0.06070000  0.94200000  1.0 -0.0284519623
N  N162  1  0.93930000  0.80180000  0.94200000  1.0 -0.0284519623
N  N163  1  0.86250000  0.80180000  0.55800000  1.0 -0.0284519623
N  N164  1  0.93930000  0.13750000  0.55800000  1.0 -0.0284519623
N  N165  1  0.19820000  0.06070000  0.55800000  1.0 -0.0284519623
N  N166  1  0.13750000  0.19820000  0.05800000  1.0 -0.0284519623
N  N167  1  0.06070000  0.86250000  0.05800000  1.0 -0.0284519623
N  N168  1  0.80180000  0.93930000  0.05800000  1.0 -0.0284519623
N  N169  1  0.51080000  0.40860000  0.58780000  1.0 -0.0556782232
N  N170  1  0.59140000  0.10220000  0.58780000  1.0 -0.0556782232
N  N171  1  0.89780000  0.48920000  0.58780000  1.0 -0.0556782232
N  N172  1  0.48920000  0.59140000  0.08780000  1.0 -0.0556782232
N  N173  1  0.40860000  0.89780000  0.08780000  1.0 -0.0556782232
N  N174  1  0.10220000  0.51080000  0.08780000  1.0 -0.0556782232
N  N175  1  0.40860000  0.51080000  0.41220000  1.0 -0.0556782232
N  N176  1  0.10220000  0.59140000  0.41220000  1.0 -0.0556782232
N  N177  1  0.48920000  0.89780000  0.41220000  1.0 -0.0556782232
N  N178  1  0.59140000  0.48920000  0.91220000  1.0 -0.0556782232
N  N179  1  0.89780000  0.40860000  0.91220000  1.0 -0.0556782232
N  N180  1  0.51080000  0.10220000  0.91220000  1.0 -0.0556782232
N  N181  1  0.48920000  0.59140000  0.41220000  1.0 -0.0556782232
N  N182  1  0.40860000  0.89780000  0.41220000  1.0 -0.0556782232
N  N183  1  0.10220000  0.51080000  0.41220000  1.0 -0.0556782232
N  N184  1  0.51080000  0.40860000  0.91220000  1.0 -0.0556782232
N  N185  1  0.59140000  0.10220000  0.91220000  1.0 -0.0556782232
N  N186  1  0.89780000  0.48920000  0.91220000  1.0 -0.0556782232
N  N187  1  0.59140000  0.48920000  0.58780000  1.0 -0.0556782232
N  N188  1  0.89780000  0.40860000  0.58780000  1.0 -0.0556782232
N  N189  1  0.51080000  0.10220000  0.58780000  1.0 -0.0556782232
N  N190  1  0.40860000  0.51080000  0.08780000  1.0 -0.0556782232
N  N191  1  0.10220000  0.59140000  0.08780000  1.0 -0.0556782232
N  N192  1  0.48920000  0.89780000  0.08780000  1.0 -0.0556782232
N  N193  1  0.52490000  0.47510000  0.65800000  1.0 0.0781564535
N  N194  1  0.52490000  0.04980000  0.65800000  1.0 0.0781564535
N  N195  1  0.95020000  0.47510000  0.65800000  1.0 0.0781564535
N  N196  1  0.47510000  0.52490000  0.15800000  1.0 0.0781564535
N  N197  1  0.47510000  0.95020000  0.15800000  1.0 0.0781564535
N  N198  1  0.04980000  0.52490000  0.15800000  1.0 0.0781564535
N  N199  1  0.47510000  0.52490000  0.34200000  1.0 0.0781564535
N  N200  1  0.04980000  0.52490000  0.34200000  1.0 0.0781564535
N  N201  1  0.47510000  0.95020000  0.34200000  1.0 0.0781564535
N  N202  1  0.52490000  0.47510000  0.84200000  1.0 0.0781564535
N  N203  1  0.95020000  0.47510000  0.84200000  1.0 0.0781564535
N  N204  1  0.52490000  0.04980000  0.84200000  1.0 0.0781564535
O  O1  1  0.50820000  0.32150000  0.69390000  1.0 -0.3229535045
O  O2  1  0.67850000  0.18670000  0.69390000  1.0 -0.3229535045
O  O3  1  0.81330000  0.49180000  0.69390000  1.0 -0.3229535045
O  O4  1  0.49180000  0.67850000  0.19390000  1.0 -0.3229535045
O  O5  1  0.32150000  0.81330000  0.19390000  1.0 -0.3229535045
O  O6  1  0.18670000  0.50820000  0.19390000  1.0 -0.3229535045
O  O7  1  0.32150000  0.50820000  0.30610000  1.0 -0.3229535045
O  O8  1  0.18670000  0.67850000  0.30610000  1.0 -0.3229535045
O  O9  1  0.49180000  0.81330000  0.30610000  1.0 -0.3229535045
O  O10  1  0.67850000  0.49180000  0.80610000  1.0 -0.3229535045
O  O11  1  0.81330000  0.32150000  0.80610000  1.0 -0.3229535045
O  O12  1  0.50820000  0.18670000  0.80610000  1.0 -0.3229535045
O  O13  1  0.49180000  0.67850000  0.30610000  1.0 -0.3229535045
O  O14  1  0.32150000  0.81330000  0.30610000  1.0 -0.3229535045
O  O15  1  0.18670000  0.50820000  0.30610000  1.0 -0.3229535045
O  O16  1  0.50820000  0.32150000  0.80610000  1.0 -0.3229535045
O  O17  1  0.67850000  0.18670000  0.80610000  1.0 -0.3229535045
O  O18  1  0.81330000  0.49180000  0.80610000  1.0 -0.3229535045
O  O19  1  0.67850000  0.49180000  0.69390000  1.0 -0.3229535045
O  O20  1  0.81330000  0.32150000  0.69390000  1.0 -0.3229535045
O  O21  1  0.50820000  0.18670000  0.69390000  1.0 -0.3229535045
O  O22  1  0.32150000  0.50820000  0.19390000  1.0 -0.3229535045
O  O23  1  0.18670000  0.67850000  0.19390000  1.0 -0.3229535045
O  O24  1  0.49180000  0.81330000  0.19390000  1.0 -0.3229535045
O  O25  1  0.54780000  0.53470000  0.62200000  1.0 -0.092722022
O  O26  1  0.46530000  0.01310000  0.62200000  1.0 -0.092722022
O  O27  1  0.98690000  0.45220000  0.62200000  1.0 -0.092722022
O  O28  1  0.45220000  0.46530000  0.12200000  1.0 -0.092722022
O  O29  1  0.53470000  0.98690000  0.12200000  1.0 -0.092722022
O  O30  1  0.01310000  0.54780000  0.12200000  1.0 -0.092722022
O  O31  1  0.53470000  0.54780000  0.37800000  1.0 -0.092722022
O  O32  1  0.01310000  0.46530000  0.37800000  1.0 -0.092722022
O  O33  1  0.45220000  0.98690000  0.37800000  1.0 -0.092722022
O  O34  1  0.46530000  0.45220000  0.87800000  1.0 -0.092722022
O  O35  1  0.98690000  0.53470000  0.87800000  1.0 -0.092722022
O  O36  1  0.54780000  0.01310000  0.87800000  1.0 -0.092722022
O  O37  1  0.45220000  0.46530000  0.37800000  1.0 -0.092722022
O  O38  1  0.53470000  0.98690000  0.37800000  1.0 -0.092722022
O  O39  1  0.01310000  0.54780000  0.37800000  1.0 -0.092722022
O  O40  1  0.54780000  0.53470000  0.87800000  1.0 -0.092722022
O  O41  1  0.46530000  0.01310000  0.87800000  1.0 -0.092722022
O  O42  1  0.98690000  0.45220000  0.87800000  1.0 -0.092722022
O  O43  1  0.46530000  0.45220000  0.62200000  1.0 -0.092722022
O  O44  1  0.98690000  0.53470000  0.62200000  1.0 -0.092722022
O  O45  1  0.54780000  0.01310000  0.62200000  1.0 -0.092722022
O  O46  1  0.53470000  0.54780000  0.12200000  1.0 -0.092722022
O  O47  1  0.01310000  0.46530000  0.12200000  1.0 -0.092722022
O  O48  1  0.45220000  0.98690000  0.12200000  1.0 -0.092722022
O  O49  1  0.42580000  0.31900000  0.31600000  1.0 -0.3229535045
O  O50  1  0.68100000  0.10680000  0.31600000  1.0 -0.3229535045
O  O51  1  0.89320000  0.57420000  0.31600000  1.0 -0.3229535045
O  O52  1  0.57420000  0.68100000  0.81600000  1.0 -0.3229535045
O  O53  1  0.31900000  0.89320000  0.81600000  1.0 -0.3229535045
O  O54  1  0.10680000  0.42580000  0.81600000  1.0 -0.3229535045
O  O55  1  0.31900000  0.42580000  0.68400000  1.0 -0.3229535045
O  O56  1  0.10680000  0.68100000  0.68400000  1.0 -0.3229535045
O  O57  1  0.57420000  0.89320000  0.68400000  1.0 -0.3229535045
O  O58  1  0.68100000  0.57420000  0.18400000  1.0 -0.3229535045
O  O59  1  0.89320000  0.31900000  0.18400000  1.0 -0.3229535045
O  O60  1  0.42580000  0.10680000  0.18400000  1.0 -0.3229535045
O  O61  1  0.57420000  0.68100000  0.68400000  1.0 -0.3229535045
O  O62  1  0.31900000  0.89320000  0.68400000  1.0 -0.3229535045
O  O63  1  0.10680000  0.42580000  0.68400000  1.0 -0.3229535045
O  O64  1  0.42580000  0.31900000  0.18400000  1.0 -0.3229535045
O  O65  1  0.68100000  0.10680000  0.18400000  1.0 -0.3229535045
O  O66  1  0.89320000  0.57420000  0.18400000  1.0 -0.3229535045
O  O67  1  0.68100000  0.57420000  0.31600000  1.0 -0.3229535045
O  O68  1  0.89320000  0.31900000  0.31600000  1.0 -0.3229535045
O  O69  1  0.42580000  0.10680000  0.31600000  1.0 -0.3229535045
O  O70  1  0.31900000  0.42580000  0.81600000  1.0 -0.3229535045
O  O71  1  0.10680000  0.68100000  0.81600000  1.0 -0.3229535045
O  O72  1  0.57420000  0.89320000  0.81600000  1.0 -0.3229535045
O  O73  1  0.55780000  0.52250000  0.67440000  1.0 -0.0660200166
O  O74  1  0.47750000  0.03530000  0.67440000  1.0 -0.0660200166
O  O75  1  0.96470000  0.44220000  0.67440000  1.0 -0.0660200166
O  O76  1  0.44220000  0.47750000  0.17440000  1.0 -0.0660200166
O  O77  1  0.52250000  0.96470000  0.17440000  1.0 -0.0660200166
O  O78  1  0.03530000  0.55780000  0.17440000  1.0 -0.0660200166
O  O79  1  0.52250000  0.55780000  0.32560000  1.0 -0.0660200166
O  O80  1  0.03530000  0.47750000  0.32560000  1.0 -0.0660200166
O  O81  1  0.44220000  0.96470000  0.32560000  1.0 -0.0660200166
O  O82  1  0.47750000  0.44220000  0.82560000  1.0 -0.0660200166
O  O83  1  0.96470000  0.52250000  0.82560000  1.0 -0.0660200166
O  O84  1  0.55780000  0.03530000  0.82560000  1.0 -0.0660200166
O  O85  1  0.44220000  0.47750000  0.32560000  1.0 -0.0660200166
O  O86  1  0.52250000  0.96470000  0.32560000  1.0 -0.0660200166
O  O87  1  0.03530000  0.55780000  0.32560000  1.0 -0.0660200166
O  O88  1  0.55780000  0.52250000  0.82560000  1.0 -0.0660200166
O  O89  1  0.47750000  0.03530000  0.82560000  1.0 -0.0660200166
O  O90  1  0.96470000  0.44220000  0.82560000  1.0 -0.0660200166
O  O91  1  0.47750000  0.44220000  0.67440000  1.0 -0.0660200166
O  O92  1  0.96470000  0.52250000  0.67440000  1.0 -0.0660200166
O  O93  1  0.55780000  0.03530000  0.67440000  1.0 -0.0660200166
O  O94  1  0.52250000  0.55780000  0.17440000  1.0 -0.0660200166
O  O95  1  0.03530000  0.47750000  0.17440000  1.0 -0.0660200166
O  O96  1  0.44220000  0.96470000  0.17440000  1.0 -0.0660200166
O  O97  1  0.48000000  0.29000000  0.25000000  1.0 -0.3790711981
O  O98  1  0.71000000  0.19000000  0.25000000  1.0 -0.3790711981
O  O99  1  0.81000000  0.52000000  0.25000000  1.0 -0.3790711981
O  O100  1  0.52000000  0.71000000  0.75000000  1.0 -0.3790711981
O  O101  1  0.29000000  0.81000000  0.75000000  1.0 -0.3790711981
O  O102  1  0.19000000  0.48000000  0.75000000  1.0 -0.3790711981
O  O103  1  0.29000000  0.48000000  0.75000000  1.0 -0.3790711981
O  O104  1  0.19000000  0.71000000  0.75000000  1.0 -0.3790711981
O  O105  1  0.52000000  0.81000000  0.75000000  1.0 -0.3790711981
O  O106  1  0.71000000  0.52000000  0.25000000  1.0 -0.3790711981
O  O107  1  0.81000000  0.29000000  0.25000000  1.0 -0.3790711981
O  O108  1  0.48000000  0.19000000  0.25000000  1.0 -0.3790711981
O  O109  1  0.14330000  0.11690000  0.52040000  1.0 -0.1630897704
O  O110  1  0.88310000  0.02640000  0.52040000  1.0 -0.1630897704
O  O111  1  0.97360000  0.85670000  0.52040000  1.0 -0.1630897704
O  O112  1  0.85670000  0.88310000  0.02040000  1.0 -0.1630897704
O  O113  1  0.11690000  0.97360000  0.02040000  1.0 -0.1630897704
O  O114  1  0.02640000  0.14330000  0.02040000  1.0 -0.1630897704
O  O115  1  0.11690000  0.14330000  0.47960000  1.0 -0.1630897704
O  O116  1  0.02640000  0.88310000  0.47960000  1.0 -0.1630897704
O  O117  1  0.85670000  0.97360000  0.47960000  1.0 -0.1652122857
O  O118  1  0.88310000  0.85670000  0.97960000  1.0 -0.1630897704
O  O119  1  0.97360000  0.11690000  0.97960000  1.0 -0.1630897704
O  O120  1  0.14330000  0.02640000  0.97960000  1.0 -0.1630897704
O  O121  1  0.85670000  0.88310000  0.47960000  1.0 -0.1652122857
O  O122  1  0.11690000  0.97360000  0.47960000  1.0 -0.1630897704
O  O123  1  0.02640000  0.14330000  0.47960000  1.0 -0.1652122857
O  O124  1  0.14330000  0.11690000  0.97960000  1.0 -0.1630897704
O  O125  1  0.88310000  0.02640000  0.97960000  1.0 -0.1630897704
O  O126  1  0.97360000  0.85670000  0.97960000  1.0 -0.1652122857
O  O127  1  0.88310000  0.85670000  0.52040000  1.0 -0.1652122857
O  O128  1  0.97360000  0.11690000  0.52040000  1.0 -0.1630897704
O  O129  1  0.14330000  0.02640000  0.52040000  1.0 -0.1652122857
O  O130  1  0.11690000  0.14330000  0.02040000  1.0 -0.1630897704
O  O131  1  0.02640000  0.88310000  0.02040000  1.0 -0.1630897704
O  O132  1  0.85670000  0.97360000  0.02040000  1.0 -0.1652122857
O  O133  1  0.21900000  0.10930000  0.59500000  1.0 -0.1816069505
O  O134  1  0.89070000  0.10970000  0.59500000  1.0 -0.1816069505
O  O135  1  0.89030000  0.78100000  0.59500000  1.0 -0.1816069505
O  O136  1  0.78100000  0.89070000  0.09500000  1.0 -0.1816069505
O  O137  1  0.10930000  0.89030000  0.09500000  1.0 -0.1816069505
O  O138  1  0.10970000  0.21900000  0.09500000  1.0 -0.1816069505
O  O139  1  0.10930000  0.21900000  0.40500000  1.0 -0.1816069505
O  O140  1  0.10970000  0.89070000  0.40500000  1.0 -0.1816069505
O  O141  1  0.78100000  0.89030000  0.40500000  1.0 -0.1816069505
O  O142  1  0.89070000  0.78100000  0.90500000  1.0 -0.1816069505
O  O143  1  0.89030000  0.10930000  0.90500000  1.0 -0.1816069505
O  O144  1  0.21900000  0.10970000  0.90500000  1.0 -0.1816069505
