# DDEC6 charges by PACMAN v1.1 (https://github.com/mtap-research/PACMAN-charge/)
data_YOZBIZ01_ASR_pacman
_symmetry_space_group_name_H-M   'P 1'
_cell_length_a   26.11740000
_cell_length_b   26.11740000
_cell_length_c   19.49100000
_cell_angle_alpha   90.00000000
_cell_angle_beta   90.00000000
_cell_angle_gamma   120.00000000
_symmetry_Int_Tables_number   1
_chemical_formula_structural   Zn2H16C23N17O12
_chemical_formula_sum   'Zn24 H192 C276 N204 O144'
_cell_volume   11513.95782255
_cell_formula_units_Z   12
loop_
 _symmetry_equiv_pos_site_id
 _symmetry_equiv_pos_as_xyz
  1  'x, y, z'
loop_
 _atom_site_type_symbol
 _atom_site_label
 _atom_site_symmetry_multiplicity
 _atom_site_fract_x
 _atom_site_fract_y
 _atom_site_fract_z
 _atom_site_occupancy
 _atom_site_charge
Zn  Zn1  1  0.43551000  0.33203000  0.59613000  1.0 0.587989919
Zn  Zn2  1  0.66797000  0.10348000  0.59613000  1.0 0.587989919
Zn  Zn3  1  0.89652000  0.56449000  0.59613000  1.0 0.587989919
Zn  Zn4  1  0.56449000  0.66797000  0.09613000  1.0 0.587989919
Zn  Zn5  1  0.33203000  0.89652000  0.09613000  1.0 0.587989919
Zn  Zn6  1  0.10348000  0.43551000  0.09613000  1.0 0.587989919
Zn  Zn7  1  0.33203000  0.43551000  0.40387000  1.0 0.587989919
Zn  Zn8  1  0.10348000  0.66797000  0.40387000  1.0 0.587989919
Zn  Zn9  1  0.56449000  0.89652000  0.40387000  1.0 0.587989919
Zn  Zn10  1  0.66797000  0.56449000  0.90387000  1.0 0.587989919
Zn  Zn11  1  0.89652000  0.33203000  0.90387000  1.0 0.587989919
Zn  Zn12  1  0.43551000  0.10348000  0.90387000  1.0 0.587989919
Zn  Zn13  1  0.56449000  0.66797000  0.40387000  1.0 0.587989919
Zn  Zn14  1  0.33203000  0.89652000  0.40387000  1.0 0.587989919
Zn  Zn15  1  0.10348000  0.43551000  0.40387000  1.0 0.587989919
Zn  Zn16  1  0.43551000  0.33203000  0.90387000  1.0 0.587989919
Zn  Zn17  1  0.66797000  0.10348000  0.90387000  1.0 0.587989919
Zn  Zn18  1  0.89652000  0.56449000  0.90387000  1.0 0.587989919
Zn  Zn19  1  0.66797000  0.56449000  0.59613000  1.0 0.587989919
Zn  Zn20  1  0.89652000  0.33203000  0.59613000  1.0 0.587989919
Zn  Zn21  1  0.43551000  0.10348000  0.59613000  1.0 0.587989919
Zn  Zn22  1  0.33203000  0.43551000  0.09613000  1.0 0.587989919
Zn  Zn23  1  0.10348000  0.66797000  0.09613000  1.0 0.587989919
Zn  Zn24  1  0.56449000  0.89652000  0.09613000  1.0 0.587989919
H  H1  1  0.32920000  0.32580000  0.68310000  1.0 0.1396018215
H  H2  1  0.67420000  0.00340000  0.68310000  1.0 0.1396018215
H  H3  1  0.99660000  0.67080000  0.68310000  1.0 0.1396018215
H  H4  1  0.67080000  0.67420000  0.18310000  1.0 0.1396018215
H  H5  1  0.32580000  0.99660000  0.18310000  1.0 0.1396018215
H  H6  1  0.00340000  0.32920000  0.18310000  1.0 0.1396018215
H  H7  1  0.32580000  0.32920000  0.31690000  1.0 0.1396018215
H  H8  1  0.00340000  0.67420000  0.31690000  1.0 0.1396018215
H  H9  1  0.67080000  0.99660000  0.31690000  1.0 0.1396018215
H  H10  1  0.67420000  0.67080000  0.81690000  1.0 0.1396018215
H  H11  1  0.99660000  0.32580000  0.81690000  1.0 0.1396018215
H  H12  1  0.32920000  0.00340000  0.81690000  1.0 0.1396018215
H  H13  1  0.67080000  0.67420000  0.31690000  1.0 0.1396018215
H  H14  1  0.32580000  0.99660000  0.31690000  1.0 0.1396018215
H  H15  1  0.00340000  0.32920000  0.31690000  1.0 0.1396018215
H  H16  1  0.32920000  0.32580000  0.81690000  1.0 0.1396018215
H  H17  1  0.67420000  0.00340000  0.81690000  1.0 0.1396018215
H  H18  1  0.99660000  0.67080000  0.81690000  1.0 0.1396018215
H  H19  1  0.67420000  0.67080000  0.68310000  1.0 0.1396018215
H  H20  1  0.99660000  0.32580000  0.68310000  1.0 0.1396018215
H  H21  1  0.32920000  0.00340000  0.68310000  1.0 0.1396018215
H  H22  1  0.32580000  0.32920000  0.18310000  1.0 0.1396018215
H  H23  1  0.00340000  0.67420000  0.18310000  1.0 0.1396018215
H  H24  1  0.67080000  0.99660000  0.18310000  1.0 0.1396018215
H  H25  1  0.55040000  0.33990000  0.52090000  1.0 0.1396018215
H  H26  1  0.66010000  0.21050000  0.52090000  1.0 0.1396018215
H  H27  1  0.78950000  0.44960000  0.52090000  1.0 0.1396018215
H  H28  1  0.44960000  0.66010000  0.02090000  1.0 0.1396018215
H  H29  1  0.33990000  0.78950000  0.02090000  1.0 0.1396018215
H  H30  1  0.21050000  0.55040000  0.02090000  1.0 0.1396018215
H  H31  1  0.33990000  0.55040000  0.47910000  1.0 0.1396018215
H  H32  1  0.21050000  0.66010000  0.47910000  1.0 0.1396018215
H  H33  1  0.44960000  0.78950000  0.47910000  1.0 0.1396018215
H  H34  1  0.66010000  0.44960000  0.97910000  1.0 0.1396018215
H  H35  1  0.78950000  0.33990000  0.97910000  1.0 0.1396018215
H  H36  1  0.55040000  0.21050000  0.97910000  1.0 0.1396018215
H  H37  1  0.44960000  0.66010000  0.47910000  1.0 0.1396018215
H  H38  1  0.33990000  0.78950000  0.47910000  1.0 0.1396018215
H  H39  1  0.21050000  0.55040000  0.47910000  1.0 0.1396018215
H  H40  1  0.55040000  0.33990000  0.97910000  1.0 0.1396018215
H  H41  1  0.66010000  0.21050000  0.97910000  1.0 0.1396018215
H  H42  1  0.78950000  0.44960000  0.97910000  1.0 0.1396018215
H  H43  1  0.66010000  0.44960000  0.52090000  1.0 0.1396018215
H  H44  1  0.78950000  0.33990000  0.52090000  1.0 0.1396018215
H  H45  1  0.55040000  0.21050000  0.52090000  1.0 0.1396018215
H  H46  1  0.33990000  0.55040000  0.02090000  1.0 0.1396018215
H  H47  1  0.21050000  0.66010000  0.02090000  1.0 0.1396018215
H  H48  1  0.44960000  0.78950000  0.02090000  1.0 0.1396018215
H  H49  1  0.43430000  0.21715000  0.64940000  1.0 0.1278987528
H  H50  1  0.78285000  0.21715000  0.64940000  1.0 0.1278987528
H  H51  1  0.78285000  0.56570000  0.64940000  1.0 0.1278987528
H  H52  1  0.56570000  0.78285000  0.14940000  1.0 0.1278987528
H  H53  1  0.21715000  0.78285000  0.14940000  1.0 0.1278987528
H  H54  1  0.21715000  0.43430000  0.14940000  1.0 0.1278987528
H  H55  1  0.21715000  0.43430000  0.35060000  1.0 0.1278987528
H  H56  1  0.21715000  0.78285000  0.35060000  1.0 0.1278987528
H  H57  1  0.56570000  0.78285000  0.35060000  1.0 0.1278987528
H  H58  1  0.78285000  0.56570000  0.85060000  1.0 0.1278987528
H  H59  1  0.78285000  0.21715000  0.85060000  1.0 0.1278987528
H  H60  1  0.43430000  0.21715000  0.85060000  1.0 0.1278987528
H  H61  1  0.42760000  0.30500000  0.43430000  1.0 0.1396018215
H  H62  1  0.69500000  0.12260000  0.43430000  1.0 0.1396018215
H  H63  1  0.87740000  0.57240000  0.43430000  1.0 0.1396018215
H  H64  1  0.57240000  0.69500000  0.93430000  1.0 0.1396018215
H  H65  1  0.30500000  0.87740000  0.93430000  1.0 0.1396018215
H  H66  1  0.12260000  0.42760000  0.93430000  1.0 0.1396018215
H  H67  1  0.30500000  0.42760000  0.56570000  1.0 0.1396018215
H  H68  1  0.12260000  0.69500000  0.56570000  1.0 0.1396018215
H  H69  1  0.57240000  0.87740000  0.56570000  1.0 0.1396018215
H  H70  1  0.69500000  0.57240000  0.06570000  1.0 0.1396018215
H  H71  1  0.87740000  0.30500000  0.06570000  1.0 0.1396018215
H  H72  1  0.42760000  0.12260000  0.06570000  1.0 0.1396018215
H  H73  1  0.57240000  0.69500000  0.56570000  1.0 0.1396018215
H  H74  1  0.30500000  0.87740000  0.56570000  1.0 0.1396018215
H  H75  1  0.12260000  0.42760000  0.56570000  1.0 0.1396018215
H  H76  1  0.42760000  0.30500000  0.06570000  1.0 0.1396018215
H  H77  1  0.69500000  0.12260000  0.06570000  1.0 0.1396018215
H  H78  1  0.87740000  0.57240000  0.06570000  1.0 0.1396018215
H  H79  1  0.69500000  0.57240000  0.43430000  1.0 0.1396018215
H  H80  1  0.87740000  0.30500000  0.43430000  1.0 0.1396018215
H  H81  1  0.42760000  0.12260000  0.43430000  1.0 0.1396018215
H  H82  1  0.30500000  0.42760000  0.93430000  1.0 0.1396018215
H  H83  1  0.12260000  0.69500000  0.93430000  1.0 0.1396018215
H  H84  1  0.57240000  0.87740000  0.93430000  1.0 0.1396018215
H  H85  1  0.42160000  0.42160000  0.50000000  1.0 0.1110171843
H  H86  1  0.57840000  0.00000000  0.50000000  1.0 0.1110171843
H  H87  1  0.00000000  0.57840000  0.50000000  1.0 0.1110171843
H  H88  1  0.57840000  0.57840000  0.00000000  1.0 0.1110171843
H  H89  1  0.42160000  0.00000000  0.00000000  1.0 0.1110171843
H  H90  1  0.00000000  0.42160000  0.00000000  1.0 0.1110171843
H  H91  1  0.57840000  0.57840000  0.50000000  1.0 0.1110171843
H  H92  1  0.42160000  0.00000000  0.50000000  1.0 0.1110171843
H  H93  1  0.00000000  0.42160000  0.50000000  1.0 0.1110171843
H  H94  1  0.42160000  0.42160000  0.00000000  1.0 0.1110171843
H  H95  1  0.57840000  0.00000000  0.00000000  1.0 0.1110171843
H  H96  1  0.00000000  0.57840000  0.00000000  1.0 0.1110171843
H  H97  1  0.57570000  0.41750000  0.49070000  1.0 0.1110171843
H  H98  1  0.58250000  0.15820000  0.49070000  1.0 0.1110171843
H  H99  1  0.84180000  0.42430000  0.49070000  1.0 0.1110171843
H  H100  1  0.42430000  0.58250000  0.99070000  1.0 0.1110171843
H  H101  1  0.41750000  0.84180000  0.99070000  1.0 0.1110171843
H  H102  1  0.15820000  0.57570000  0.99070000  1.0 0.1110171843
H  H103  1  0.41750000  0.57570000  0.50930000  1.0 0.1110171843
H  H104  1  0.15820000  0.58250000  0.50930000  1.0 0.1110171843
H  H105  1  0.42430000  0.84180000  0.50930000  1.0 0.1110171843
H  H106  1  0.58250000  0.42430000  0.00930000  1.0 0.1110171843
H  H107  1  0.84180000  0.41750000  0.00930000  1.0 0.1110171843
H  H108  1  0.57570000  0.15820000  0.00930000  1.0 0.1110171843
H  H109  1  0.42430000  0.58250000  0.50930000  1.0 0.1110171843
H  H110  1  0.41750000  0.84180000  0.50930000  1.0 0.1110171843
H  H111  1  0.15820000  0.57570000  0.50930000  1.0 0.1110171843
H  H112  1  0.57570000  0.41750000  0.00930000  1.0 0.1110171843
H  H113  1  0.58250000  0.15820000  0.00930000  1.0 0.1110171843
H  H114  1  0.84180000  0.42430000  0.00930000  1.0 0.1110171843
H  H115  1  0.58250000  0.42430000  0.49070000  1.0 0.1110171843
H  H116  1  0.84180000  0.41750000  0.49070000  1.0 0.1110171843
H  H117  1  0.57570000  0.15820000  0.49070000  1.0 0.1110171843
H  H118  1  0.41750000  0.57570000  0.99070000  1.0 0.1110171843
H  H119  1  0.15820000  0.58250000  0.99070000  1.0 0.1110171843
H  H120  1  0.42430000  0.84180000  0.99070000  1.0 0.1110171843
H  H121  1  0.42520000  0.25670000  0.33310000  1.0 0.2211510155
H  H122  1  0.74330000  0.16850000  0.33310000  1.0 0.2211510155
H  H123  1  0.83150000  0.57480000  0.33310000  1.0 0.2211510155
H  H124  1  0.57480000  0.74330000  0.83310000  1.0 0.2211510155
H  H125  1  0.25670000  0.83150000  0.83310000  1.0 0.2211510155
H  H126  1  0.16850000  0.42520000  0.83310000  1.0 0.2211510155
H  H127  1  0.25670000  0.42520000  0.66690000  1.0 0.2211510155
H  H128  1  0.16850000  0.74330000  0.66690000  1.0 0.2211510155
H  H129  1  0.57480000  0.83150000  0.66690000  1.0 0.2211510155
H  H130  1  0.74330000  0.57480000  0.16690000  1.0 0.2211510155
H  H131  1  0.83150000  0.25670000  0.16690000  1.0 0.2211510155
H  H132  1  0.42520000  0.16850000  0.16690000  1.0 0.2211510155
H  H133  1  0.57480000  0.74330000  0.66690000  1.0 0.2211510155
H  H134  1  0.25670000  0.83150000  0.66690000  1.0 0.2211510155
H  H135  1  0.16850000  0.42520000  0.66690000  1.0 0.2211510155
H  H136  1  0.42520000  0.25670000  0.16690000  1.0 0.2211510155
H  H137  1  0.74330000  0.16850000  0.16690000  1.0 0.2211510155
H  H138  1  0.83150000  0.57480000  0.16690000  1.0 0.2211510155
H  H139  1  0.74330000  0.57480000  0.33310000  1.0 0.2211510155
H  H140  1  0.83150000  0.25670000  0.33310000  1.0 0.2211510155
H  H141  1  0.42520000  0.16850000  0.33310000  1.0 0.2211510155
H  H142  1  0.25670000  0.42520000  0.83310000  1.0 0.2211510155
H  H143  1  0.16850000  0.74330000  0.83310000  1.0 0.2211510155
H  H144  1  0.57480000  0.83150000  0.83310000  1.0 0.2211510155
H  H145  1  0.30010000  0.22310000  0.58660000  1.0 0.1499034397
H  H146  1  0.77690000  0.07700000  0.58660000  1.0 0.1499034397
H  H147  1  0.92300000  0.69990000  0.58660000  1.0 0.1499034397
H  H148  1  0.69990000  0.77690000  0.08660000  1.0 0.1499034397
H  H149  1  0.22310000  0.92300000  0.08660000  1.0 0.1499034397
H  H150  1  0.07700000  0.30010000  0.08660000  1.0 0.1499034397
H  H151  1  0.22310000  0.30010000  0.41340000  1.0 0.1499034397
H  H152  1  0.07700000  0.77690000  0.41340000  1.0 0.1499034397
H  H153  1  0.69990000  0.92300000  0.41340000  1.0 0.1499034397
H  H154  1  0.77690000  0.69990000  0.91340000  1.0 0.1499034397
H  H155  1  0.92300000  0.22310000  0.91340000  1.0 0.1499034397
H  H156  1  0.30010000  0.07700000  0.91340000  1.0 0.1499034397
H  H157  1  0.69990000  0.77690000  0.41340000  1.0 0.1499034397
H  H158  1  0.22310000  0.92300000  0.41340000  1.0 0.1499034397
H  H159  1  0.07700000  0.30010000  0.41340000  1.0 0.1499034397
H  H160  1  0.30010000  0.22310000  0.91340000  1.0 0.1499034397
H  H161  1  0.77690000  0.07700000  0.91340000  1.0 0.1499034397
H  H162  1  0.92300000  0.69990000  0.91340000  1.0 0.1499034397
H  H163  1  0.77690000  0.69990000  0.58660000  1.0 0.1499034397
H  H164  1  0.92300000  0.22310000  0.58660000  1.0 0.1499034397
H  H165  1  0.30010000  0.07700000  0.58660000  1.0 0.1499034397
H  H166  1  0.22310000  0.30010000  0.08660000  1.0 0.1499034397
H  H167  1  0.07700000  0.77690000  0.08660000  1.0 0.1499034397
H  H168  1  0.69990000  0.92300000  0.08660000  1.0 0.1499034397
H  H169  1  0.20530000  0.16720000  0.53580000  1.0 0.2335755379
H  H170  1  0.83280000  0.03810000  0.53580000  1.0 0.2335755379
H  H171  1  0.96190000  0.79470000  0.53580000  1.0 0.2335755379
H  H172  1  0.79470000  0.83280000  0.03580000  1.0 0.2335755379
H  H173  1  0.16720000  0.96190000  0.03580000  1.0 0.2335755379
H  H174  1  0.03810000  0.20530000  0.03580000  1.0 0.2335755379
H  H175  1  0.16720000  0.20530000  0.46420000  1.0 0.2335755379
H  H176  1  0.03810000  0.83280000  0.46420000  1.0 0.2335755379
H  H177  1  0.79470000  0.96190000  0.46420000  1.0 0.2335755379
H  H178  1  0.83280000  0.79470000  0.96420000  1.0 0.2335755379
H  H179  1  0.96190000  0.16720000  0.96420000  1.0 0.2335755379
H  H180  1  0.20530000  0.03810000  0.96420000  1.0 0.2335755379
H  H181  1  0.79470000  0.83280000  0.46420000  1.0 0.2335755379
H  H182  1  0.16720000  0.96190000  0.46420000  1.0 0.2335755379
H  H183  1  0.03810000  0.20530000  0.46420000  1.0 0.2335755379
H  H184  1  0.20530000  0.16720000  0.96420000  1.0 0.2335755379
H  H185  1  0.83280000  0.03810000  0.96420000  1.0 0.2335755379
H  H186  1  0.96190000  0.79470000  0.96420000  1.0 0.2335755379
H  H187  1  0.83280000  0.79470000  0.53580000  1.0 0.2335755379
H  H188  1  0.96190000  0.16720000  0.53580000  1.0 0.2335755379
H  H189  1  0.20530000  0.03810000  0.53580000  1.0 0.2335755379
H  H190  1  0.16720000  0.20530000  0.03580000  1.0 0.2335755379
H  H191  1  0.03810000  0.83280000  0.03580000  1.0 0.2335755379
H  H192  1  0.79470000  0.96190000  0.03580000  1.0 0.2335755379
C  C1  1  0.35820000  0.32500000  0.71200000  1.0 0.0215224096
C  C2  1  0.67500000  0.03320000  0.71200000  1.0 0.0215224096
C  C3  1  0.96680000  0.64180000  0.71200000  1.0 0.0215224096
C  C4  1  0.64180000  0.67500000  0.21200000  1.0 0.0215224096
C  C5  1  0.32500000  0.96680000  0.21200000  1.0 0.0215224096
C  C6  1  0.03320000  0.35820000  0.21200000  1.0 0.0215224096
C  C7  1  0.32500000  0.35820000  0.28800000  1.0 0.0215224096
C  C8  1  0.03320000  0.67500000  0.28800000  1.0 0.0215224096
C  C9  1  0.64180000  0.96680000  0.28800000  1.0 0.0215224096
C  C10  1  0.67500000  0.64180000  0.78800000  1.0 0.0215224096
C  C11  1  0.96680000  0.32500000  0.78800000  1.0 0.0215224096
C  C12  1  0.35820000  0.03320000  0.78800000  1.0 0.0215224096
C  C13  1  0.64180000  0.67500000  0.28800000  1.0 0.0215224096
C  C14  1  0.32500000  0.96680000  0.28800000  1.0 0.0215224096
C  C15  1  0.03320000  0.35820000  0.28800000  1.0 0.0215224096
C  C16  1  0.35820000  0.32500000  0.78800000  1.0 0.0215224096
C  C17  1  0.67500000  0.03320000  0.78800000  1.0 0.0215224096
C  C18  1  0.96680000  0.64180000  0.78800000  1.0 0.0215224096
C  C19  1  0.67500000  0.64180000  0.71200000  1.0 0.0215224096
C  C20  1  0.96680000  0.32500000  0.71200000  1.0 0.0215224096
C  C21  1  0.35820000  0.03320000  0.71200000  1.0 0.0215224096
C  C22  1  0.32500000  0.35820000  0.21200000  1.0 0.0215224096
C  C23  1  0.03320000  0.67500000  0.21200000  1.0 0.0215224096
C  C24  1  0.64180000  0.96680000  0.21200000  1.0 0.0215224096
C  C25  1  0.43060000  0.32220000  0.75000000  1.0 0.2922478692
C  C26  1  0.67780000  0.10840000  0.75000000  1.0 0.2922478692
C  C27  1  0.89160000  0.56940000  0.75000000  1.0 0.2922478692
C  C28  1  0.56940000  0.67780000  0.25000000  1.0 0.2922478692
C  C29  1  0.32220000  0.89160000  0.25000000  1.0 0.2922478692
C  C30  1  0.10840000  0.43060000  0.25000000  1.0 0.2922478692
C  C31  1  0.32220000  0.43060000  0.25000000  1.0 0.2922478692
C  C32  1  0.10840000  0.67780000  0.25000000  1.0 0.2922478692
C  C33  1  0.56940000  0.89160000  0.25000000  1.0 0.2922478692
C  C34  1  0.67780000  0.56940000  0.75000000  1.0 0.2922478692
C  C35  1  0.89160000  0.32220000  0.75000000  1.0 0.2922478692
C  C36  1  0.43060000  0.10840000  0.75000000  1.0 0.2922478692
C  C37  1  0.55860000  0.37770000  0.53640000  1.0 -0.0739995631
C  C38  1  0.62230000  0.18090000  0.53640000  1.0 -0.0739995631
C  C39  1  0.81910000  0.44140000  0.53640000  1.0 -0.0739995631
C  C40  1  0.44140000  0.62230000  0.03640000  1.0 -0.0739995631
C  C41  1  0.37770000  0.81910000  0.03640000  1.0 -0.0739995631
C  C42  1  0.18090000  0.55860000  0.03640000  1.0 -0.0739995631
C  C43  1  0.37770000  0.55860000  0.46360000  1.0 -0.0739995631
C  C44  1  0.18090000  0.62230000  0.46360000  1.0 -0.0739995631
C  C45  1  0.44140000  0.81910000  0.46360000  1.0 -0.0739995631
C  C46  1  0.62230000  0.44140000  0.96360000  1.0 -0.0739995631
C  C47  1  0.81910000  0.37770000  0.96360000  1.0 -0.0739995631
C  C48  1  0.55860000  0.18090000  0.96360000  1.0 -0.0739995631
C  C49  1  0.44140000  0.62230000  0.46360000  1.0 -0.0739995631
C  C50  1  0.37770000  0.81910000  0.46360000  1.0 -0.0739995631
C  C51  1  0.18090000  0.55860000  0.46360000  1.0 -0.0739995631
C  C52  1  0.55860000  0.37770000  0.96360000  1.0 -0.0739995631
C  C53  1  0.62230000  0.18090000  0.96360000  1.0 -0.0739995631
C  C54  1  0.81910000  0.44140000  0.96360000  1.0 -0.0739995631
C  C55  1  0.62230000  0.44140000  0.53640000  1.0 -0.0739995631
C  C56  1  0.81910000  0.37770000  0.53640000  1.0 -0.0739995631
C  C57  1  0.55860000  0.18090000  0.53640000  1.0 -0.0739995631
C  C58  1  0.37770000  0.55860000  0.03640000  1.0 -0.0739995631
C  C59  1  0.18090000  0.62230000  0.03640000  1.0 -0.0739995631
C  C60  1  0.44140000  0.81910000  0.03640000  1.0 -0.0739995631
C  C61  1  0.54480000  0.45520000  0.60200000  1.0 0.157937617
C  C62  1  0.54480000  0.08960000  0.60200000  1.0 0.157937617
C  C63  1  0.91040000  0.45520000  0.60200000  1.0 0.157937617
C  C64  1  0.45520000  0.54480000  0.10200000  1.0 0.157937617
C  C65  1  0.45520000  0.91040000  0.10200000  1.0 0.157937617
C  C66  1  0.08960000  0.54480000  0.10200000  1.0 0.157937617
C  C67  1  0.45520000  0.54480000  0.39800000  1.0 0.157937617
C  C68  1  0.08960000  0.54480000  0.39800000  1.0 0.157937617
C  C69  1  0.45520000  0.91040000  0.39800000  1.0 0.157937617
C  C70  1  0.54480000  0.45520000  0.89800000  1.0 0.157937617
C  C71  1  0.91040000  0.45520000  0.89800000  1.0 0.157937617
C  C72  1  0.54480000  0.08960000  0.89800000  1.0 0.157937617
C  C73  1  0.43290000  0.21645000  0.60070000  1.0 0.0973619087
C  C74  1  0.78355000  0.21645000  0.60070000  1.0 0.0973619087
C  C75  1  0.78355000  0.56710000  0.60070000  1.0 0.0973619087
C  C76  1  0.56710000  0.78355000  0.10070000  1.0 0.0973619087
C  C77  1  0.21645000  0.78355000  0.10070000  1.0 0.0973619087
C  C78  1  0.21645000  0.43290000  0.10070000  1.0 0.0973619087
C  C79  1  0.21645000  0.43290000  0.39930000  1.0 0.0973619087
C  C80  1  0.21645000  0.78355000  0.39930000  1.0 0.0973619087
C  C81  1  0.56710000  0.78355000  0.39930000  1.0 0.0973619087
C  C82  1  0.78355000  0.56710000  0.89930000  1.0 0.0973619087
C  C83  1  0.78355000  0.21645000  0.89930000  1.0 0.0973619087
C  C84  1  0.43290000  0.21645000  0.89930000  1.0 0.0973619087
C  C85  1  0.42930000  0.24120000  0.49690000  1.0 0.1499034397
C  C86  1  0.75880000  0.18810000  0.49690000  1.0 0.1499034397
C  C87  1  0.81190000  0.57070000  0.49690000  1.0 0.1499034397
C  C88  1  0.57070000  0.75880000  0.99690000  1.0 0.1499034397
C  C89  1  0.24120000  0.81190000  0.99690000  1.0 0.1499034397
C  C90  1  0.18810000  0.42930000  0.99690000  1.0 0.1499034397
C  C91  1  0.24120000  0.42930000  0.50310000  1.0 0.1499034397
C  C92  1  0.18810000  0.75880000  0.50310000  1.0 0.1499034397
C  C93  1  0.57070000  0.81190000  0.50310000  1.0 0.1499034397
C  C94  1  0.75880000  0.57070000  0.00310000  1.0 0.1499034397
C  C95  1  0.81190000  0.24120000  0.00310000  1.0 0.1499034397
C  C96  1  0.42930000  0.18810000  0.00310000  1.0 0.1499034397
C  C97  1  0.57070000  0.75880000  0.50310000  1.0 0.1499034397
C  C98  1  0.24120000  0.81190000  0.50310000  1.0 0.1499034397
C  C99  1  0.18810000  0.42930000  0.50310000  1.0 0.1499034397
C  C100  1  0.42930000  0.24120000  0.00310000  1.0 0.1499034397
C  C101  1  0.75880000  0.18810000  0.00310000  1.0 0.1499034397
C  C102  1  0.81190000  0.57070000  0.00310000  1.0 0.1499034397
C  C103  1  0.75880000  0.57070000  0.49690000  1.0 0.1499034397
C  C104  1  0.81190000  0.24120000  0.49690000  1.0 0.1499034397
C  C105  1  0.42930000  0.18810000  0.49690000  1.0 0.1499034397
C  C106  1  0.24120000  0.42930000  0.99690000  1.0 0.1499034397
C  C107  1  0.18810000  0.75880000  0.99690000  1.0 0.1499034397
C  C108  1  0.57070000  0.81190000  0.99690000  1.0 0.1499034397
C  C109  1  0.42770000  0.26870000  0.43480000  1.0 -0.2000562318
C  C110  1  0.73130000  0.15900000  0.43480000  1.0 -0.2000562318
C  C111  1  0.84100000  0.57230000  0.43480000  1.0 -0.2000562318
C  C112  1  0.57230000  0.73130000  0.93480000  1.0 -0.2000562318
C  C113  1  0.26870000  0.84100000  0.93480000  1.0 -0.2000562318
C  C114  1  0.15900000  0.42770000  0.93480000  1.0 -0.2000562318
C  C115  1  0.26870000  0.42770000  0.56520000  1.0 -0.2000562318
C  C116  1  0.15900000  0.73130000  0.56520000  1.0 -0.2000562318
C  C117  1  0.57230000  0.84100000  0.56520000  1.0 -0.2000562318
C  C118  1  0.73130000  0.57230000  0.06520000  1.0 -0.2000562318
C  C119  1  0.84100000  0.26870000  0.06520000  1.0 -0.2000562318
C  C120  1  0.42770000  0.15900000  0.06520000  1.0 -0.2000562318
C  C121  1  0.57230000  0.73130000  0.56520000  1.0 -0.2000562318
C  C122  1  0.26870000  0.84100000  0.56520000  1.0 -0.2000562318
C  C123  1  0.15900000  0.42770000  0.56520000  1.0 -0.2000562318
C  C124  1  0.42770000  0.26870000  0.06520000  1.0 -0.2000562318
C  C125  1  0.73130000  0.15900000  0.06520000  1.0 -0.2000562318
C  C126  1  0.84100000  0.57230000  0.06520000  1.0 -0.2000562318
C  C127  1  0.73130000  0.57230000  0.43480000  1.0 -0.2000562318
C  C128  1  0.84100000  0.26870000  0.43480000  1.0 -0.2000562318
C  C129  1  0.42770000  0.15900000  0.43480000  1.0 -0.2000562318
C  C130  1  0.26870000  0.42770000  0.93480000  1.0 -0.2000562318
C  C131  1  0.15900000  0.73130000  0.93480000  1.0 -0.2000562318
C  C132  1  0.57230000  0.84100000  0.93480000  1.0 -0.2000562318
C  C133  1  0.42620000  0.23980000  0.37590000  1.0 -0.0545026621
C  C134  1  0.76020000  0.18640000  0.37590000  1.0 -0.0545026621
C  C135  1  0.81360000  0.57380000  0.37590000  1.0 -0.0545026621
C  C136  1  0.57380000  0.76020000  0.87590000  1.0 -0.0545026621
C  C137  1  0.23980000  0.81360000  0.87590000  1.0 -0.0545026621
C  C138  1  0.18640000  0.42620000  0.87590000  1.0 -0.0545026621
C  C139  1  0.23980000  0.42620000  0.62410000  1.0 -0.0545026621
C  C140  1  0.18640000  0.76020000  0.62410000  1.0 -0.0545026621
C  C141  1  0.57380000  0.81360000  0.62410000  1.0 -0.0545026621
C  C142  1  0.76020000  0.57380000  0.12410000  1.0 -0.0545026621
C  C143  1  0.81360000  0.23980000  0.12410000  1.0 -0.0545026621
C  C144  1  0.42620000  0.18640000  0.12410000  1.0 -0.0545026621
C  C145  1  0.57380000  0.76020000  0.62410000  1.0 -0.0545026621
C  C146  1  0.23980000  0.81360000  0.62410000  1.0 -0.0545026621
C  C147  1  0.18640000  0.42620000  0.62410000  1.0 -0.0545026621
C  C148  1  0.42620000  0.23980000  0.12410000  1.0 -0.0545026621
C  C149  1  0.76020000  0.18640000  0.12410000  1.0 -0.0545026621
C  C150  1  0.81360000  0.57380000  0.12410000  1.0 -0.0545026621
C  C151  1  0.76020000  0.57380000  0.37590000  1.0 -0.0545026621
C  C152  1  0.81360000  0.23980000  0.37590000  1.0 -0.0545026621
C  C153  1  0.42620000  0.18640000  0.37590000  1.0 -0.0545026621
C  C154  1  0.23980000  0.42620000  0.87590000  1.0 -0.0545026621
C  C155  1  0.18640000  0.76020000  0.87590000  1.0 -0.0545026621
C  C156  1  0.57380000  0.81360000  0.87590000  1.0 -0.0545026621
C  C157  1  0.38520000  0.38520000  0.50000000  1.0 0.0288448516
C  C158  1  0.61480000  0.00000000  0.50000000  1.0 0.0288448516
C  C159  1  0.00000000  0.61480000  0.50000000  1.0 0.0288448516
C  C160  1  0.61480000  0.61480000  0.00000000  1.0 0.0288448516
C  C161  1  0.38520000  0.00000000  0.00000000  1.0 0.0288448516
C  C162  1  0.00000000  0.38520000  0.00000000  1.0 0.0288448516
C  C163  1  0.61480000  0.61480000  0.50000000  1.0 0.0288448516
C  C164  1  0.38520000  0.00000000  0.50000000  1.0 0.0288448516
C  C165  1  0.00000000  0.38520000  0.50000000  1.0 0.0288448516
C  C166  1  0.38520000  0.38520000  0.00000000  1.0 0.0288448516
C  C167  1  0.61480000  0.00000000  0.00000000  1.0 0.0288448516
C  C168  1  0.00000000  0.61480000  0.00000000  1.0 0.0288448516
C  C169  1  0.32010000  0.29710000  0.52550000  1.0 0.1726397418
C  C170  1  0.70290000  0.02300000  0.52550000  1.0 0.1726397418
C  C171  1  0.97700000  0.67990000  0.52550000  1.0 0.1726397418
C  C172  1  0.67990000  0.70290000  0.02550000  1.0 0.1726397418
C  C173  1  0.29710000  0.97700000  0.02550000  1.0 0.1726397418
C  C174  1  0.02300000  0.32010000  0.02550000  1.0 0.1726397418
C  C175  1  0.29710000  0.32010000  0.47450000  1.0 0.1726397418
C  C176  1  0.02300000  0.70290000  0.47450000  1.0 0.1726397418
C  C177  1  0.67990000  0.97700000  0.47450000  1.0 0.1726397418
C  C178  1  0.70290000  0.67990000  0.97450000  1.0 0.1726397418
C  C179  1  0.97700000  0.29710000  0.97450000  1.0 0.1726397418
C  C180  1  0.32010000  0.02300000  0.97450000  1.0 0.1726397418
C  C181  1  0.67990000  0.70290000  0.47450000  1.0 0.1726397418
C  C182  1  0.29710000  0.97700000  0.47450000  1.0 0.1726397418
C  C183  1  0.02300000  0.32010000  0.47450000  1.0 0.1726397418
C  C184  1  0.32010000  0.29710000  0.97450000  1.0 0.1726397418
C  C185  1  0.70290000  0.02300000  0.97450000  1.0 0.1726397418
C  C186  1  0.97700000  0.67990000  0.97450000  1.0 0.1726397418
C  C187  1  0.70290000  0.67990000  0.52550000  1.0 0.1726397418
C  C188  1  0.97700000  0.29710000  0.52550000  1.0 0.1726397418
C  C189  1  0.32010000  0.02300000  0.52550000  1.0 0.1726397418
C  C190  1  0.29710000  0.32010000  0.02550000  1.0 0.1726397418
C  C191  1  0.02300000  0.70290000  0.02550000  1.0 0.1726397418
C  C192  1  0.67990000  0.97700000  0.02550000  1.0 0.1726397418
C  C193  1  0.28610000  0.23890000  0.55230000  1.0 -0.1762887437
C  C194  1  0.76110000  0.04720000  0.55230000  1.0 -0.1762887437
C  C195  1  0.95280000  0.71390000  0.55230000  1.0 -0.1762887437
C  C196  1  0.71390000  0.76110000  0.05230000  1.0 -0.1762887437
C  C197  1  0.23890000  0.95280000  0.05230000  1.0 -0.1762887437
C  C198  1  0.04720000  0.28610000  0.05230000  1.0 -0.1762887437
C  C199  1  0.23890000  0.28610000  0.44770000  1.0 -0.1762887437
C  C200  1  0.04720000  0.76110000  0.44770000  1.0 -0.1762887437
C  C201  1  0.71390000  0.95280000  0.44770000  1.0 -0.1762887437
C  C202  1  0.76110000  0.71390000  0.94770000  1.0 -0.1762887437
C  C203  1  0.95280000  0.23890000  0.94770000  1.0 -0.1762887437
C  C204  1  0.28610000  0.04720000  0.94770000  1.0 -0.1762887437
C  C205  1  0.71390000  0.76110000  0.44770000  1.0 -0.1762887437
C  C206  1  0.23890000  0.95280000  0.44770000  1.0 -0.1762887437
C  C207  1  0.04720000  0.28610000  0.44770000  1.0 -0.1762887437
C  C208  1  0.28610000  0.23890000  0.94770000  1.0 -0.1762887437
C  C209  1  0.76110000  0.04720000  0.94770000  1.0 -0.1762887437
C  C210  1  0.95280000  0.71390000  0.94770000  1.0 -0.1762887437
C  C211  1  0.76110000  0.71390000  0.55230000  1.0 -0.1762887437
C  C212  1  0.95280000  0.23890000  0.55230000  1.0 -0.1762887437
C  C213  1  0.28610000  0.04720000  0.55230000  1.0 -0.1762887437
C  C214  1  0.23890000  0.28610000  0.05230000  1.0 -0.1762887437
C  C215  1  0.04720000  0.76110000  0.05230000  1.0 -0.1762887437
C  C216  1  0.71390000  0.95280000  0.05230000  1.0 -0.1762887437
C  C217  1  0.22960000  0.20730000  0.52270000  1.0 -0.0116774035
C  C218  1  0.79270000  0.02230000  0.52270000  1.0 -0.0116774035
C  C219  1  0.97770000  0.77040000  0.52270000  1.0 -0.0116774035
C  C220  1  0.77040000  0.79270000  0.02270000  1.0 -0.0116774035
C  C221  1  0.20730000  0.97770000  0.02270000  1.0 -0.0116774035
C  C222  1  0.02230000  0.22960000  0.02270000  1.0 -0.0116774035
C  C223  1  0.20730000  0.22960000  0.47730000  1.0 -0.0116774035
C  C224  1  0.02230000  0.79270000  0.47730000  1.0 -0.0116774035
C  C225  1  0.77040000  0.97770000  0.47730000  1.0 -0.0116774035
C  C226  1  0.79270000  0.77040000  0.97730000  1.0 -0.0116774035
C  C227  1  0.97770000  0.20730000  0.97730000  1.0 -0.0116774035
C  C228  1  0.22960000  0.02230000  0.97730000  1.0 -0.0116774035
C  C229  1  0.77040000  0.79270000  0.47730000  1.0 -0.0116774035
C  C230  1  0.20730000  0.97770000  0.47730000  1.0 -0.0116774035
C  C231  1  0.02230000  0.22960000  0.47730000  1.0 -0.0116774035
C  C232  1  0.22960000  0.20730000  0.97730000  1.0 -0.0116774035
C  C233  1  0.79270000  0.02230000  0.97730000  1.0 -0.0116774035
C  C234  1  0.97770000  0.77040000  0.97730000  1.0 -0.0116774035
C  C235  1  0.79270000  0.77040000  0.52270000  1.0 -0.0116774035
C  C236  1  0.97770000  0.20730000  0.52270000  1.0 -0.0116774035
C  C237  1  0.22960000  0.02230000  0.52270000  1.0 -0.0116774035
C  C238  1  0.20730000  0.22960000  0.02270000  1.0 -0.0116774035
C  C239  1  0.02230000  0.79270000  0.02270000  1.0 -0.0116774035
C  C240  1  0.77040000  0.97770000  0.02270000  1.0 -0.0116774035
C  C241  1  0.55190000  0.44810000  0.57550000  1.0 0.1726397418
C  C242  1  0.55190000  0.10380000  0.57550000  1.0 0.1726397418
C  C243  1  0.89620000  0.44810000  0.57550000  1.0 0.1726397418
C  C244  1  0.44810000  0.55190000  0.07550000  1.0 0.1726397418
C  C245  1  0.44810000  0.89620000  0.07550000  1.0 0.1726397418
C  C246  1  0.10380000  0.55190000  0.07550000  1.0 0.1726397418
C  C247  1  0.44810000  0.55190000  0.42450000  1.0 0.1726397418
C  C248  1  0.10380000  0.55190000  0.42450000  1.0 0.1726397418
C  C249  1  0.44810000  0.89620000  0.42450000  1.0 0.1726397418
C  C250  1  0.55190000  0.44810000  0.92450000  1.0 0.1726397418
C  C251  1  0.89620000  0.44810000  0.92450000  1.0 0.1726397418
C  C252  1  0.55190000  0.10380000  0.92450000  1.0 0.1726397418
C  C253  1  0.54940000  0.39850000  0.52800000  1.0 0.0288448516
C  C254  1  0.60150000  0.15090000  0.52800000  1.0 0.0288448516
C  C255  1  0.84910000  0.45060000  0.52800000  1.0 0.0288448516
C  C256  1  0.45060000  0.60150000  0.02800000  1.0 0.0288448516
C  C257  1  0.39850000  0.84910000  0.02800000  1.0 0.0288448516
C  C258  1  0.15090000  0.54940000  0.02800000  1.0 0.0288448516
C  C259  1  0.39850000  0.54940000  0.47200000  1.0 0.0288448516
C  C260  1  0.15090000  0.60150000  0.47200000  1.0 0.0288448516
C  C261  1  0.45060000  0.84910000  0.47200000  1.0 0.0288448516
C  C262  1  0.60150000  0.45060000  0.97200000  1.0 0.0288448516
C  C263  1  0.84910000  0.39850000  0.97200000  1.0 0.0288448516
C  C264  1  0.54940000  0.15090000  0.97200000  1.0 0.0288448516
C  C265  1  0.45060000  0.60150000  0.47200000  1.0 0.0288448516
C  C266  1  0.39850000  0.84910000  0.47200000  1.0 0.0288448516
C  C267  1  0.15090000  0.54940000  0.47200000  1.0 0.0288448516
C  C268  1  0.54940000  0.39850000  0.97200000  1.0 0.0288448516
C  C269  1  0.60150000  0.15090000  0.97200000  1.0 0.0288448516
C  C270  1  0.84910000  0.45060000  0.97200000  1.0 0.0288448516
C  C271  1  0.60150000  0.45060000  0.52800000  1.0 0.0288448516
C  C272  1  0.84910000  0.39850000  0.52800000  1.0 0.0288448516
C  C273  1  0.54940000  0.15090000  0.52800000  1.0 0.0288448516
C  C274  1  0.39850000  0.54940000  0.02800000  1.0 0.0288448516
C  C275  1  0.15090000  0.60150000  0.02800000  1.0 0.0288448516
C  C276  1  0.45060000  0.84910000  0.02800000  1.0 0.0288448516
N  N1  1  0.40670000  0.32380000  0.69150000  1.0 -0.3296611291
N  N2  1  0.67620000  0.08290000  0.69150000  1.0 -0.3296611291
N  N3  1  0.91710000  0.59330000  0.69150000  1.0 -0.3296611291
N  N4  1  0.59330000  0.67620000  0.19150000  1.0 -0.3296611291
N  N5  1  0.32380000  0.91710000  0.19150000  1.0 -0.3296611291
N  N6  1  0.08290000  0.40670000  0.19150000  1.0 -0.3296611291
N  N7  1  0.32380000  0.40670000  0.30850000  1.0 -0.3296611291
N  N8  1  0.08290000  0.67620000  0.30850000  1.0 -0.3296611291
N  N9  1  0.59330000  0.91710000  0.30850000  1.0 -0.3296611291
N  N10  1  0.67620000  0.59330000  0.80850000  1.0 -0.3296611291
N  N11  1  0.91710000  0.32380000  0.80850000  1.0 -0.3296611291
N  N12  1  0.40670000  0.08290000  0.80850000  1.0 -0.3296611291
N  N13  1  0.59330000  0.67620000  0.30850000  1.0 -0.3296611291
N  N14  1  0.32380000  0.91710000  0.30850000  1.0 -0.3296611291
N  N15  1  0.08290000  0.40670000  0.30850000  1.0 -0.3296611291
N  N16  1  0.40670000  0.32380000  0.80850000  1.0 -0.3296611291
N  N17  1  0.67620000  0.08290000  0.80850000  1.0 -0.3296611291
N  N18  1  0.91710000  0.59330000  0.80850000  1.0 -0.3296611291
N  N19  1  0.67620000  0.59330000  0.69150000  1.0 -0.3296611291
N  N20  1  0.91710000  0.32380000  0.69150000  1.0 -0.3296611291
N  N21  1  0.40670000  0.08290000  0.69150000  1.0 -0.3296611291
N  N22  1  0.32380000  0.40670000  0.19150000  1.0 -0.3296611291
N  N23  1  0.08290000  0.67620000  0.19150000  1.0 -0.3296611291
N  N24  1  0.59330000  0.91710000  0.19150000  1.0 -0.3296611291
N  N25  1  0.48610000  0.32270000  0.75000000  1.0 0.2787032799
N  N26  1  0.67730000  0.16340000  0.75000000  1.0 0.2787032799
N  N27  1  0.83660000  0.51390000  0.75000000  1.0 0.2787032799
N  N28  1  0.51390000  0.67730000  0.25000000  1.0 0.2787032799
N  N29  1  0.32270000  0.83660000  0.25000000  1.0 0.2787032799
N  N30  1  0.16340000  0.48610000  0.25000000  1.0 0.2787032799
N  N31  1  0.32270000  0.48610000  0.25000000  1.0 0.2787032799
N  N32  1  0.16340000  0.67730000  0.25000000  1.0 0.2787032799
N  N33  1  0.51390000  0.83660000  0.25000000  1.0 0.2787032799
N  N34  1  0.67730000  0.51390000  0.75000000  1.0 0.2787032799
N  N35  1  0.83660000  0.32270000  0.75000000  1.0 0.2787032799
N  N36  1  0.48610000  0.16340000  0.75000000  1.0 0.2787032799
N  N37  1  0.51820000  0.39540000  0.56660000  1.0 -0.0996245889
N  N38  1  0.60460000  0.12280000  0.56660000  1.0 -0.0996245889
N  N39  1  0.87720000  0.48180000  0.56660000  1.0 -0.0996245889
N  N40  1  0.48180000  0.60460000  0.06660000  1.0 -0.0996245889
N  N41  1  0.39540000  0.87720000  0.06660000  1.0 -0.0996245889
N  N42  1  0.12280000  0.51820000  0.06660000  1.0 -0.0996245889
N  N43  1  0.39540000  0.51820000  0.43340000  1.0 -0.0996245889
N  N44  1  0.12280000  0.60460000  0.43340000  1.0 -0.0996245889
N  N45  1  0.48180000  0.87720000  0.43340000  1.0 -0.0996245889
N  N46  1  0.60460000  0.48180000  0.93340000  1.0 -0.0996245889
N  N47  1  0.87720000  0.39540000  0.93340000  1.0 -0.0996245889
N  N48  1  0.51820000  0.12280000  0.93340000  1.0 -0.0996245889
N  N49  1  0.48180000  0.60460000  0.43340000  1.0 -0.0996245889
N  N50  1  0.39540000  0.87720000  0.43340000  1.0 -0.0996245889
N  N51  1  0.12280000  0.51820000  0.43340000  1.0 -0.0996245889
N  N52  1  0.51820000  0.39540000  0.93340000  1.0 -0.0996245889
N  N53  1  0.60460000  0.12280000  0.93340000  1.0 -0.0996245889
N  N54  1  0.87720000  0.48180000  0.93340000  1.0 -0.0996245889
N  N55  1  0.60460000  0.48180000  0.56660000  1.0 -0.0996245889
N  N56  1  0.87720000  0.39540000  0.56660000  1.0 -0.0996245889
N  N57  1  0.51820000  0.12280000  0.56660000  1.0 -0.0996245889
N  N58  1  0.39540000  0.51820000  0.06660000  1.0 -0.0996245889
N  N59  1  0.12280000  0.60460000  0.06660000  1.0 -0.0996245889
N  N60  1  0.48180000  0.87720000  0.06660000  1.0 -0.0996245889
N  N61  1  0.51890000  0.48110000  0.61100000  1.0 0.1396018215
N  N62  1  0.51890000  0.03780000  0.61100000  1.0 0.1396018215
N  N63  1  0.96220000  0.48110000  0.61100000  1.0 0.1396018215
N  N64  1  0.48110000  0.51890000  0.11100000  1.0 0.1396018215
N  N65  1  0.48110000  0.96220000  0.11100000  1.0 0.1396018215
N  N66  1  0.03780000  0.51890000  0.11100000  1.0 0.1396018215
N  N67  1  0.48110000  0.51890000  0.38900000  1.0 0.1396018215
N  N68  1  0.03780000  0.51890000  0.38900000  1.0 0.1396018215
N  N69  1  0.48110000  0.96220000  0.38900000  1.0 0.1396018215
N  N70  1  0.51890000  0.48110000  0.88900000  1.0 0.1396018215
N  N71  1  0.96220000  0.48110000  0.88900000  1.0 0.1396018215
N  N72  1  0.51890000  0.03780000  0.88900000  1.0 0.1499034397
N  N73  1  0.43170000  0.26028000  0.56140000  1.0 -0.3523012026
N  N74  1  0.73972000  0.17142000  0.56140000  1.0 -0.3523012026
N  N75  1  0.82858000  0.56830000  0.56140000  1.0 -0.3523012026
N  N76  1  0.56830000  0.73972000  0.06140000  1.0 -0.3523012026
N  N77  1  0.26028000  0.82858000  0.06140000  1.0 -0.3523012026
N  N78  1  0.17142000  0.43170000  0.06140000  1.0 -0.3523012026
N  N79  1  0.26028000  0.43170000  0.43860000  1.0 -0.3523012026
N  N80  1  0.17142000  0.73972000  0.43860000  1.0 -0.3523012026
N  N81  1  0.56830000  0.82858000  0.43860000  1.0 -0.3523012026
N  N82  1  0.73972000  0.56830000  0.93860000  1.0 -0.3523012026
N  N83  1  0.82858000  0.26028000  0.93860000  1.0 -0.3523012026
N  N84  1  0.43170000  0.17142000  0.93860000  1.0 -0.3523012026
N  N85  1  0.56830000  0.73972000  0.43860000  1.0 -0.3523012026
N  N86  1  0.26028000  0.82858000  0.43860000  1.0 -0.3523012026
N  N87  1  0.17142000  0.43170000  0.43860000  1.0 -0.3523012026
N  N88  1  0.43170000  0.26028000  0.93860000  1.0 -0.3523012026
N  N89  1  0.73972000  0.17142000  0.93860000  1.0 -0.3523012026
N  N90  1  0.82858000  0.56830000  0.93860000  1.0 -0.3523012026
N  N91  1  0.73972000  0.56830000  0.56140000  1.0 -0.3523012026
N  N92  1  0.82858000  0.26028000  0.56140000  1.0 -0.3523012026
N  N93  1  0.43170000  0.17142000  0.56140000  1.0 -0.3523012026
N  N94  1  0.26028000  0.43170000  0.06140000  1.0 -0.3523012026
N  N95  1  0.17142000  0.73972000  0.06140000  1.0 -0.3523012026
N  N96  1  0.56830000  0.82858000  0.06140000  1.0 -0.3523012026
N  N97  1  0.44000000  0.27700000  0.31300000  1.0 0.157937617
N  N98  1  0.72300000  0.16300000  0.31300000  1.0 0.157937617
N  N99  1  0.83700000  0.56000000  0.31300000  1.0 0.157937617
N  N100  1  0.56000000  0.72300000  0.81300000  1.0 0.157937617
N  N101  1  0.27700000  0.83700000  0.81300000  1.0 0.157937617
N  N102  1  0.16300000  0.44000000  0.81300000  1.0 0.157937617
N  N103  1  0.27700000  0.44000000  0.68700000  1.0 0.157937617
N  N104  1  0.16300000  0.72300000  0.68700000  1.0 0.157937617
N  N105  1  0.56000000  0.83700000  0.68700000  1.0 0.157937617
N  N106  1  0.72300000  0.56000000  0.18700000  1.0 0.157937617
N  N107  1  0.83700000  0.27700000  0.18700000  1.0 0.157937617
N  N108  1  0.44000000  0.16300000  0.18700000  1.0 0.157937617
N  N109  1  0.56000000  0.72300000  0.68700000  1.0 0.157937617
N  N110  1  0.27700000  0.83700000  0.68700000  1.0 0.157937617
N  N111  1  0.16300000  0.44000000  0.68700000  1.0 0.157937617
N  N112  1  0.44000000  0.27700000  0.18700000  1.0 0.157937617
N  N113  1  0.72300000  0.16300000  0.18700000  1.0 0.157937617
N  N114  1  0.83700000  0.56000000  0.18700000  1.0 0.157937617
N  N115  1  0.72300000  0.56000000  0.31300000  1.0 0.157937617
N  N116  1  0.83700000  0.27700000  0.31300000  1.0 0.157937617
N  N117  1  0.44000000  0.16300000  0.31300000  1.0 0.157937617
N  N118  1  0.27700000  0.44000000  0.81300000  1.0 0.157937617
N  N119  1  0.16300000  0.72300000  0.81300000  1.0 0.157937617
N  N120  1  0.56000000  0.83700000  0.81300000  1.0 0.157937617
N  N121  1  0.37600000  0.33880000  0.54020000  1.0 -0.3577823327
N  N122  1  0.66120000  0.03720000  0.54020000  1.0 -0.3577823327
N  N123  1  0.96280000  0.62400000  0.54020000  1.0 -0.3577823327
N  N124  1  0.62400000  0.66120000  0.04020000  1.0 -0.3577823327
N  N125  1  0.33880000  0.96280000  0.04020000  1.0 -0.3577823327
N  N126  1  0.03720000  0.37600000  0.04020000  1.0 -0.3577823327
N  N127  1  0.33880000  0.37600000  0.45980000  1.0 -0.3577823327
N  N128  1  0.03720000  0.66120000  0.45980000  1.0 -0.3577823327
N  N129  1  0.62400000  0.96280000  0.45980000  1.0 -0.3577823327
N  N130  1  0.66120000  0.62400000  0.95980000  1.0 -0.3577823327
N  N131  1  0.96280000  0.33880000  0.95980000  1.0 -0.3577823327
N  N132  1  0.37600000  0.03720000  0.95980000  1.0 -0.3577823327
N  N133  1  0.62400000  0.66120000  0.45980000  1.0 -0.3577823327
N  N134  1  0.33880000  0.96280000  0.45980000  1.0 -0.3577823327
N  N135  1  0.03720000  0.37600000  0.45980000  1.0 -0.3577823327
N  N136  1  0.37600000  0.33880000  0.95980000  1.0 -0.3577823327
N  N137  1  0.66120000  0.03720000  0.95980000  1.0 -0.3577823327
N  N138  1  0.96280000  0.62400000  0.95980000  1.0 -0.3577823327
N  N139  1  0.66120000  0.62400000  0.54020000  1.0 -0.3577823327
N  N140  1  0.96280000  0.33880000  0.54020000  1.0 -0.3577823327
N  N141  1  0.37600000  0.03720000  0.54020000  1.0 -0.3577823327
N  N142  1  0.33880000  0.37600000  0.04020000  1.0 -0.3577823327
N  N143  1  0.03720000  0.66120000  0.04020000  1.0 -0.3577823327
N  N144  1  0.62400000  0.96280000  0.04020000  1.0 -0.3577823327
N  N145  1  0.19700000  0.14180000  0.55310000  1.0 -0.0637059136
N  N146  1  0.85820000  0.05520000  0.55310000  1.0 -0.0637059136
N  N147  1  0.94480000  0.80300000  0.55310000  1.0 -0.0637059136
N  N148  1  0.80300000  0.85820000  0.05310000  1.0 -0.0637059136
N  N149  1  0.14180000  0.94480000  0.05310000  1.0 -0.0637059136
N  N150  1  0.05520000  0.19700000  0.05310000  1.0 -0.0637059136
N  N151  1  0.14180000  0.19700000  0.44690000  1.0 -0.0637059136
N  N152  1  0.05520000  0.85820000  0.44690000  1.0 -0.0637059136
N  N153  1  0.80300000  0.94480000  0.44690000  1.0 -0.0637059136
N  N154  1  0.85820000  0.80300000  0.94690000  1.0 -0.0637059136
N  N155  1  0.94480000  0.14180000  0.94690000  1.0 -0.0637059136
N  N156  1  0.19700000  0.05520000  0.94690000  1.0 -0.0637059136
N  N157  1  0.80300000  0.85820000  0.44690000  1.0 -0.0637059136
N  N158  1  0.14180000  0.94480000  0.44690000  1.0 -0.0637059136
N  N159  1  0.05520000  0.19700000  0.44690000  1.0 -0.0637059136
N  N160  1  0.19700000  0.14180000  0.94690000  1.0 -0.0637059136
N  N161  1  0.85820000  0.05520000  0.94690000  1.0 -0.0637059136
N  N162  1  0.94480000  0.80300000  0.94690000  1.0 -0.0637059136
N  N163  1  0.85820000  0.80300000  0.55310000  1.0 -0.0637059136
N  N164  1  0.94480000  0.14180000  0.55310000  1.0 -0.0637059136
N  N165  1  0.19700000  0.05520000  0.55310000  1.0 -0.0637059136
N  N166  1  0.14180000  0.19700000  0.05310000  1.0 -0.0637059136
N  N167  1  0.05520000  0.85820000  0.05310000  1.0 -0.0637059136
N  N168  1  0.80300000  0.94480000  0.05310000  1.0 -0.0637059136
N  N169  1  0.50920000  0.40910000  0.59170000  1.0 -0.0774700492
N  N170  1  0.59090000  0.10010000  0.59170000  1.0 -0.0774700492
N  N171  1  0.89990000  0.49080000  0.59170000  1.0 -0.0774700492
N  N172  1  0.49080000  0.59090000  0.09170000  1.0 -0.0774700492
N  N173  1  0.40910000  0.89990000  0.09170000  1.0 -0.0774700492
N  N174  1  0.10010000  0.50920000  0.09170000  1.0 -0.0774700492
N  N175  1  0.40910000  0.50920000  0.40830000  1.0 -0.0774700492
N  N176  1  0.10010000  0.59090000  0.40830000  1.0 -0.0774700492
N  N177  1  0.49080000  0.89990000  0.40830000  1.0 -0.0774700492
N  N178  1  0.59090000  0.49080000  0.90830000  1.0 -0.0774700492
N  N179  1  0.89990000  0.40910000  0.90830000  1.0 -0.0774700492
N  N180  1  0.50920000  0.10010000  0.90830000  1.0 -0.0774700492
N  N181  1  0.49080000  0.59090000  0.40830000  1.0 -0.0774700492
N  N182  1  0.40910000  0.89990000  0.40830000  1.0 -0.0774700492
N  N183  1  0.10010000  0.50920000  0.40830000  1.0 -0.0774700492
N  N184  1  0.50920000  0.40910000  0.90830000  1.0 -0.0774700492
N  N185  1  0.59090000  0.10010000  0.90830000  1.0 -0.0774700492
N  N186  1  0.89990000  0.49080000  0.90830000  1.0 -0.0774700492
N  N187  1  0.59090000  0.49080000  0.59170000  1.0 -0.0774700492
N  N188  1  0.89990000  0.40910000  0.59170000  1.0 -0.0774700492
N  N189  1  0.50920000  0.10010000  0.59170000  1.0 -0.0774700492
N  N190  1  0.40910000  0.50920000  0.09170000  1.0 -0.0774700492
N  N191  1  0.10010000  0.59090000  0.09170000  1.0 -0.0774700492
N  N192  1  0.49080000  0.89990000  0.09170000  1.0 -0.0774700492
N  N193  1  0.52500000  0.47500000  0.65800000  1.0 0.0582994755
N  N194  1  0.52500000  0.05000000  0.65800000  1.0 0.0582994755
N  N195  1  0.95000000  0.47500000  0.65800000  1.0 0.0582994755
N  N196  1  0.47500000  0.52500000  0.15800000  1.0 0.0582994755
N  N197  1  0.47500000  0.95000000  0.15800000  1.0 0.0582994755
N  N198  1  0.05000000  0.52500000  0.15800000  1.0 0.0582994755
N  N199  1  0.47500000  0.52500000  0.34200000  1.0 0.0582994755
N  N200  1  0.05000000  0.52500000  0.34200000  1.0 0.0582994755
N  N201  1  0.47500000  0.95000000  0.34200000  1.0 0.0582994755
N  N202  1  0.52500000  0.47500000  0.84200000  1.0 0.0582994755
N  N203  1  0.95000000  0.47500000  0.84200000  1.0 0.0582994755
N  N204  1  0.52500000  0.05000000  0.84200000  1.0 0.0582994755
O  O1  1  0.50810000  0.32210000  0.69480000  1.0 -0.2823392475
O  O2  1  0.67790000  0.18600000  0.69480000  1.0 -0.2823392475
O  O3  1  0.81400000  0.49190000  0.69480000  1.0 -0.2823392475
O  O4  1  0.49190000  0.67790000  0.19480000  1.0 -0.2823392475
O  O5  1  0.32210000  0.81400000  0.19480000  1.0 -0.2823392475
O  O6  1  0.18600000  0.50810000  0.19480000  1.0 -0.2823392475
O  O7  1  0.32210000  0.50810000  0.30520000  1.0 -0.2823392475
O  O8  1  0.18600000  0.67790000  0.30520000  1.0 -0.2823392475
O  O9  1  0.49190000  0.81400000  0.30520000  1.0 -0.2823392475
O  O10  1  0.67790000  0.49190000  0.80520000  1.0 -0.2823392475
O  O11  1  0.81400000  0.32210000  0.80520000  1.0 -0.2823392475
O  O12  1  0.50810000  0.18600000  0.80520000  1.0 -0.2823392475
O  O13  1  0.49190000  0.67790000  0.30520000  1.0 -0.2823392475
O  O14  1  0.32210000  0.81400000  0.30520000  1.0 -0.2823392475
O  O15  1  0.18600000  0.50810000  0.30520000  1.0 -0.2823392475
O  O16  1  0.50810000  0.32210000  0.80520000  1.0 -0.2823392475
O  O17  1  0.67790000  0.18600000  0.80520000  1.0 -0.2823392475
O  O18  1  0.81400000  0.49190000  0.80520000  1.0 -0.2823392475
O  O19  1  0.67790000  0.49190000  0.69480000  1.0 -0.2823392475
O  O20  1  0.81400000  0.32210000  0.69480000  1.0 -0.2823392475
O  O21  1  0.50810000  0.18600000  0.69480000  1.0 -0.2823392475
O  O22  1  0.32210000  0.50810000  0.19480000  1.0 -0.2823392475
O  O23  1  0.18600000  0.67790000  0.19480000  1.0 -0.2823392475
O  O24  1  0.49190000  0.81400000  0.19480000  1.0 -0.2823392475
O  O25  1  0.54860000  0.53320000  0.62260000  1.0 -0.0896528859
O  O26  1  0.46680000  0.01540000  0.62260000  1.0 -0.0896528859
O  O27  1  0.98460000  0.45140000  0.62260000  1.0 -0.0896528859
O  O28  1  0.45140000  0.46680000  0.12260000  1.0 -0.0896528859
O  O29  1  0.53320000  0.98460000  0.12260000  1.0 -0.0896528859
O  O30  1  0.01540000  0.54860000  0.12260000  1.0 -0.0896528859
O  O31  1  0.53320000  0.54860000  0.37740000  1.0 -0.0896528859
O  O32  1  0.01540000  0.46680000  0.37740000  1.0 -0.0896528859
O  O33  1  0.45140000  0.98460000  0.37740000  1.0 -0.0896528859
O  O34  1  0.46680000  0.45140000  0.87740000  1.0 -0.0896528859
O  O35  1  0.98460000  0.53320000  0.87740000  1.0 -0.0896528859
O  O36  1  0.54860000  0.01540000  0.87740000  1.0 -0.0896528859
O  O37  1  0.45140000  0.46680000  0.37740000  1.0 -0.0896528859
O  O38  1  0.53320000  0.98460000  0.37740000  1.0 -0.0896528859
O  O39  1  0.01540000  0.54860000  0.37740000  1.0 -0.0896528859
O  O40  1  0.54860000  0.53320000  0.87740000  1.0 -0.0896528859
O  O41  1  0.46680000  0.01540000  0.87740000  1.0 -0.0896528859
O  O42  1  0.98460000  0.45140000  0.87740000  1.0 -0.0896528859
O  O43  1  0.46680000  0.45140000  0.62260000  1.0 -0.0896528859
O  O44  1  0.98460000  0.53320000  0.62260000  1.0 -0.0896528859
O  O45  1  0.54860000  0.01540000  0.62260000  1.0 -0.0896528859
O  O46  1  0.53320000  0.54860000  0.12260000  1.0 -0.0896528859
O  O47  1  0.01540000  0.46680000  0.12260000  1.0 -0.0896528859
O  O48  1  0.45140000  0.98460000  0.12260000  1.0 -0.0896528859
O  O49  1  0.42920000  0.31440000  0.30990000  1.0 -0.2699295902
O  O50  1  0.68560000  0.11480000  0.30990000  1.0 -0.2699295902
O  O51  1  0.88520000  0.57080000  0.30990000  1.0 -0.2699295902
O  O52  1  0.57080000  0.68560000  0.80990000  1.0 -0.2699295902
O  O53  1  0.31440000  0.88520000  0.80990000  1.0 -0.2699295902
O  O54  1  0.11480000  0.42920000  0.80990000  1.0 -0.2699295902
O  O55  1  0.31440000  0.42920000  0.69010000  1.0 -0.2699295902
O  O56  1  0.11480000  0.68560000  0.69010000  1.0 -0.2699295902
O  O57  1  0.57080000  0.88520000  0.69010000  1.0 -0.2699295902
O  O58  1  0.68560000  0.57080000  0.19010000  1.0 -0.2699295902
O  O59  1  0.88520000  0.31440000  0.19010000  1.0 -0.2699295902
O  O60  1  0.42920000  0.11480000  0.19010000  1.0 -0.2699295902
O  O61  1  0.57080000  0.68560000  0.69010000  1.0 -0.2699295902
O  O62  1  0.31440000  0.88520000  0.69010000  1.0 -0.2699295902
O  O63  1  0.11480000  0.42920000  0.69010000  1.0 -0.2699295902
O  O64  1  0.42920000  0.31440000  0.19010000  1.0 -0.2699295902
O  O65  1  0.68560000  0.11480000  0.19010000  1.0 -0.2699295902
O  O66  1  0.88520000  0.57080000  0.19010000  1.0 -0.2699295902
O  O67  1  0.68560000  0.57080000  0.30990000  1.0 -0.2699295902
O  O68  1  0.88520000  0.31440000  0.30990000  1.0 -0.2699295902
O  O69  1  0.42920000  0.11480000  0.30990000  1.0 -0.2699295902
O  O70  1  0.31440000  0.42920000  0.80990000  1.0 -0.2699295902
O  O71  1  0.11480000  0.68560000  0.80990000  1.0 -0.2699295902
O  O72  1  0.57080000  0.88520000  0.80990000  1.0 -0.2699295902
O  O73  1  0.55780000  0.52570000  0.67730000  1.0 -0.1073926761
O  O74  1  0.47430000  0.03210000  0.67730000  1.0 -0.1073926761
O  O75  1  0.96790000  0.44220000  0.67730000  1.0 -0.1073926761
O  O76  1  0.44220000  0.47430000  0.17730000  1.0 -0.1073926761
O  O77  1  0.52570000  0.96790000  0.17730000  1.0 -0.1073926761
O  O78  1  0.03210000  0.55780000  0.17730000  1.0 -0.1073926761
O  O79  1  0.52570000  0.55780000  0.32270000  1.0 -0.1073926761
O  O80  1  0.03210000  0.47430000  0.32270000  1.0 -0.1073926761
O  O81  1  0.44220000  0.96790000  0.32270000  1.0 -0.1073926761
O  O82  1  0.47430000  0.44220000  0.82270000  1.0 -0.1073926761
O  O83  1  0.96790000  0.52570000  0.82270000  1.0 -0.1073926761
O  O84  1  0.55780000  0.03210000  0.82270000  1.0 -0.1073926761
O  O85  1  0.44220000  0.47430000  0.32270000  1.0 -0.1073926761
O  O86  1  0.52570000  0.96790000  0.32270000  1.0 -0.1073926761
O  O87  1  0.03210000  0.55780000  0.32270000  1.0 -0.1073926761
O  O88  1  0.55780000  0.52570000  0.82270000  1.0 -0.1073926761
O  O89  1  0.47430000  0.03210000  0.82270000  1.0 -0.1073926761
O  O90  1  0.96790000  0.44220000  0.82270000  1.0 -0.1073926761
O  O91  1  0.47430000  0.44220000  0.67730000  1.0 -0.1073926761
O  O92  1  0.96790000  0.52570000  0.67730000  1.0 -0.1073926761
O  O93  1  0.55780000  0.03210000  0.67730000  1.0 -0.1073926761
O  O94  1  0.52570000  0.55780000  0.17730000  1.0 -0.1073926761
O  O95  1  0.03210000  0.47430000  0.17730000  1.0 -0.1073926761
O  O96  1  0.44220000  0.96790000  0.17730000  1.0 -0.1073926761
O  O97  1  0.47300000  0.28100000  0.25000000  1.0 -0.3296611291
O  O98  1  0.71900000  0.19200000  0.25000000  1.0 -0.3296611291
O  O99  1  0.80800000  0.52700000  0.25000000  1.0 -0.3296611291
O  O100  1  0.52700000  0.71900000  0.75000000  1.0 -0.3296611291
O  O101  1  0.28100000  0.80800000  0.75000000  1.0 -0.3296611291
O  O102  1  0.19200000  0.47300000  0.75000000  1.0 -0.3296611291
O  O103  1  0.28100000  0.47300000  0.75000000  1.0 -0.3296611291
O  O104  1  0.19200000  0.71900000  0.75000000  1.0 -0.3296611291
O  O105  1  0.52700000  0.80800000  0.75000000  1.0 -0.3296611291
O  O106  1  0.71900000  0.52700000  0.25000000  1.0 -0.3296611291
O  O107  1  0.80800000  0.28100000  0.25000000  1.0 -0.3296611291
O  O108  1  0.47300000  0.19200000  0.25000000  1.0 -0.3296611291
O  O109  1  0.14340000  0.11550000  0.51360000  1.0 -0.1291461276
O  O110  1  0.88450000  0.02790000  0.51360000  1.0 -0.1291461276
O  O111  1  0.97210000  0.85660000  0.51360000  1.0 -0.1291461276
O  O112  1  0.85660000  0.88450000  0.01360000  1.0 -0.1291461276
O  O113  1  0.11550000  0.97210000  0.01360000  1.0 -0.1291461276
O  O114  1  0.02790000  0.14340000  0.01360000  1.0 -0.1291461276
O  O115  1  0.11550000  0.14340000  0.48640000  1.0 -0.1291461276
O  O116  1  0.02790000  0.88450000  0.48640000  1.0 -0.1291461276
O  O117  1  0.85660000  0.97210000  0.48640000  1.0 -0.1291461276
O  O118  1  0.88450000  0.85660000  0.98640000  1.0 -0.1291461276
O  O119  1  0.97210000  0.11550000  0.98640000  1.0 -0.1291461276
O  O120  1  0.14340000  0.02790000  0.98640000  1.0 -0.1291461276
O  O121  1  0.85660000  0.88450000  0.48640000  1.0 -0.1291461276
O  O122  1  0.11550000  0.97210000  0.48640000  1.0 -0.1291461276
O  O123  1  0.02790000  0.14340000  0.48640000  1.0 -0.1291461276
O  O124  1  0.14340000  0.11550000  0.98640000  1.0 -0.1291461276
O  O125  1  0.88450000  0.02790000  0.98640000  1.0 -0.1291461276
O  O126  1  0.97210000  0.85660000  0.98640000  1.0 -0.1291461276
O  O127  1  0.88450000  0.85660000  0.51360000  1.0 -0.1291461276
O  O128  1  0.97210000  0.11550000  0.51360000  1.0 -0.1291461276
O  O129  1  0.14340000  0.02790000  0.51360000  1.0 -0.1291461276
O  O130  1  0.11550000  0.14340000  0.01360000  1.0 -0.1291461276
O  O131  1  0.02790000  0.88450000  0.01360000  1.0 -0.1291461276
O  O132  1  0.85660000  0.97210000  0.01360000  1.0 -0.1291461276
O  O133  1  0.22370000  0.11185000  0.59100000  1.0 -0.2912703875
O  O134  1  0.88815000  0.11185000  0.59100000  1.0 -0.2912703875
O  O135  1  0.88815000  0.77630000  0.59100000  1.0 -0.2912703875
O  O136  1  0.77630000  0.88815000  0.09100000  1.0 -0.2912703875
O  O137  1  0.11185000  0.88815000  0.09100000  1.0 -0.2912703875
O  O138  1  0.11185000  0.22370000  0.09100000  1.0 -0.2912703875
O  O139  1  0.11185000  0.22370000  0.40900000  1.0 -0.2912703875
O  O140  1  0.11185000  0.88815000  0.40900000  1.0 -0.2912703875
O  O141  1  0.77630000  0.88815000  0.40900000  1.0 -0.2912703875
O  O142  1  0.88815000  0.77630000  0.90900000  1.0 -0.2912703875
O  O143  1  0.88815000  0.11185000  0.90900000  1.0 -0.2912703875
O  O144  1  0.22370000  0.11185000  0.90900000  1.0 -0.2912703875
