# DDEC6 charges by PACMAN v1.1 (https://github.com/mtap-research/PACMAN-charge/)
data_YOZBOF_FSR_pacman
_symmetry_space_group_name_H-M   'P 1'
_cell_length_a   25.78900000
_cell_length_b   25.78900000
_cell_length_c   19.79700000
_cell_angle_alpha   90.00000000
_cell_angle_beta   90.00000000
_cell_angle_gamma   120.00000000
_symmetry_Int_Tables_number   1
_chemical_formula_structural   ZnH13C12N5O2
_chemical_formula_sum   'Zn24 H312 C288 N120 O48'
_cell_volume   11402.47212209
_cell_formula_units_Z   24
loop_
 _symmetry_equiv_pos_site_id
 _symmetry_equiv_pos_as_xyz
  1  'x, y, z'
loop_
 _atom_site_type_symbol
 _atom_site_label
 _atom_site_symmetry_multiplicity
 _atom_site_fract_x
 _atom_site_fract_y
 _atom_site_fract_z
 _atom_site_occupancy
 _atom_site_charge
Zn  Zn1  1  0.10032000  0.43191000  0.40215000  1.0 0.6271027736
Zn  Zn2  1  0.56809000  0.66841000  0.40215000  1.0 0.6271027736
Zn  Zn3  1  0.33159000  0.89968000  0.40215000  1.0 0.6271027736
Zn  Zn4  1  0.89968000  0.56809000  0.90215000  1.0 0.6271027736
Zn  Zn5  1  0.43191000  0.33159000  0.90215000  1.0 0.6271027736
Zn  Zn6  1  0.66841000  0.10032000  0.90215000  1.0 0.6271027736
Zn  Zn7  1  0.43191000  0.10032000  0.59785000  1.0 0.6271027736
Zn  Zn8  1  0.66841000  0.56809000  0.59785000  1.0 0.6271027736
Zn  Zn9  1  0.89968000  0.33159000  0.59785000  1.0 0.6271027736
Zn  Zn10  1  0.56809000  0.89968000  0.09785000  1.0 0.6271027736
Zn  Zn11  1  0.33159000  0.43191000  0.09785000  1.0 0.6271027736
Zn  Zn12  1  0.10032000  0.66841000  0.09785000  1.0 0.6271027736
Zn  Zn13  1  0.89968000  0.56809000  0.59785000  1.0 0.6271027736
Zn  Zn14  1  0.43191000  0.33159000  0.59785000  1.0 0.6271027736
Zn  Zn15  1  0.66841000  0.10032000  0.59785000  1.0 0.6271027736
Zn  Zn16  1  0.10032000  0.43191000  0.09785000  1.0 0.6271027736
Zn  Zn17  1  0.56809000  0.66841000  0.09785000  1.0 0.6271027736
Zn  Zn18  1  0.33159000  0.89968000  0.09785000  1.0 0.6271027736
Zn  Zn19  1  0.56809000  0.89968000  0.40215000  1.0 0.6271027736
Zn  Zn20  1  0.33159000  0.43191000  0.40215000  1.0 0.6271027736
Zn  Zn21  1  0.10032000  0.66841000  0.40215000  1.0 0.6271027736
Zn  Zn22  1  0.43191000  0.10032000  0.90215000  1.0 0.6271027736
Zn  Zn23  1  0.66841000  0.56809000  0.90215000  1.0 0.6271027736
Zn  Zn24  1  0.89968000  0.33159000  0.90215000  1.0 0.6271027736
H  H1  1  0.00000000  0.42100000  0.50000000  1.0 0.1213849647
H  H2  1  0.57900000  0.57900000  0.50000000  1.0 0.1213849647
H  H3  1  0.42100000  0.00000000  0.50000000  1.0 0.1213849647
H  H4  1  0.00000000  0.57900000  0.00000000  1.0 0.1213849647
H  H5  1  0.42100000  0.42100000  0.00000000  1.0 0.1213849647
H  H6  1  0.57900000  0.00000000  0.00000000  1.0 0.1213849647
H  H7  1  0.00000000  0.57900000  0.50000000  1.0 0.1213849647
H  H8  1  0.42100000  0.42100000  0.50000000  1.0 0.1213849647
H  H9  1  0.57900000  0.00000000  0.50000000  1.0 0.1213849647
H  H10  1  0.00000000  0.42100000  0.00000000  1.0 0.1213849647
H  H11  1  0.57900000  0.57900000  0.00000000  1.0 0.1213849647
H  H12  1  0.42100000  0.00000000  0.00000000  1.0 0.1213849647
H  H13  1  0.07560000  0.29750000  0.40900000  1.0 0.1419468688
H  H14  1  0.70250000  0.77810000  0.40900000  1.0 0.1419468688
H  H15  1  0.22190000  0.92440000  0.40900000  1.0 0.1419468688
H  H16  1  0.92440000  0.70250000  0.90900000  1.0 0.1419468688
H  H17  1  0.29750000  0.22190000  0.90900000  1.0 0.1419468688
H  H18  1  0.77810000  0.07560000  0.90900000  1.0 0.1419468688
H  H19  1  0.29750000  0.07560000  0.59100000  1.0 0.1419468688
H  H20  1  0.77810000  0.70250000  0.59100000  1.0 0.1419468688
H  H21  1  0.92440000  0.22190000  0.59100000  1.0 0.1419468688
H  H22  1  0.70250000  0.92440000  0.09100000  1.0 0.1419468688
H  H23  1  0.22190000  0.29750000  0.09100000  1.0 0.1419468688
H  H24  1  0.07560000  0.77810000  0.09100000  1.0 0.1419468688
H  H25  1  0.92440000  0.70250000  0.59100000  1.0 0.1419468688
H  H26  1  0.29750000  0.22190000  0.59100000  1.0 0.1419468688
H  H27  1  0.77810000  0.07560000  0.59100000  1.0 0.1419468688
H  H28  1  0.07560000  0.29750000  0.09100000  1.0 0.1419468688
H  H29  1  0.70250000  0.77810000  0.09100000  1.0 0.1419468688
H  H30  1  0.22190000  0.92440000  0.09100000  1.0 0.1419468688
H  H31  1  0.70250000  0.92440000  0.40900000  1.0 0.1419468688
H  H32  1  0.22190000  0.29750000  0.40900000  1.0 0.1419468688
H  H33  1  0.07560000  0.77810000  0.40900000  1.0 0.1419468688
H  H34  1  0.29750000  0.07560000  0.90900000  1.0 0.1419468688
H  H35  1  0.77810000  0.70250000  0.90900000  1.0 0.1419468688
H  H36  1  0.92440000  0.22190000  0.90900000  1.0 0.1419468688
H  H37  1  0.21700000  0.43410000  0.34940000  1.0 0.1141354527
H  H38  1  0.56590000  0.78290000  0.34940000  1.0 0.1141354527
H  H39  1  0.21710000  0.78300000  0.34940000  1.0 0.1141354527
H  H40  1  0.78300000  0.56590000  0.84940000  1.0 0.1141354527
H  H41  1  0.43410000  0.21710000  0.84940000  1.0 0.1141354527
H  H42  1  0.78290000  0.21700000  0.84940000  1.0 0.1141354527
H  H43  1  0.43410000  0.21710000  0.65060000  1.0 0.1141354527
H  H44  1  0.78300000  0.56590000  0.65060000  1.0 0.1141354527
H  H45  1  0.78290000  0.21700000  0.65060000  1.0 0.1141354527
H  H46  1  0.56590000  0.78290000  0.15060000  1.0 0.1141354527
H  H47  1  0.21700000  0.43410000  0.15060000  1.0 0.1141354527
H  H48  1  0.21710000  0.78300000  0.15060000  1.0 0.1141354527
H  H49  1  0.12000000  0.43580000  0.56100000  1.0 0.1141354527
H  H50  1  0.56420000  0.68420000  0.56100000  1.0 0.1141354527
H  H51  1  0.31580000  0.88000000  0.56100000  1.0 0.1141354527
H  H52  1  0.88000000  0.56420000  0.06100000  1.0 0.1141354527
H  H53  1  0.43580000  0.31580000  0.06100000  1.0 0.1141354527
H  H54  1  0.68420000  0.12000000  0.06100000  1.0 0.1141354527
H  H55  1  0.43580000  0.12000000  0.43900000  1.0 0.1213849647
H  H56  1  0.68420000  0.56420000  0.43900000  1.0 0.1213849647
H  H57  1  0.88000000  0.31580000  0.43900000  1.0 0.1213849647
H  H58  1  0.56420000  0.88000000  0.93900000  1.0 0.1141354527
H  H59  1  0.31580000  0.43580000  0.93900000  1.0 0.1141354527
H  H60  1  0.12000000  0.68420000  0.93900000  1.0 0.1141354527
H  H61  1  0.88000000  0.56420000  0.43900000  1.0 0.1141354527
H  H62  1  0.43580000  0.31580000  0.43900000  1.0 0.1141354527
H  H63  1  0.68420000  0.12000000  0.43900000  1.0 0.1213849647
H  H64  1  0.12000000  0.43580000  0.93900000  1.0 0.1141354527
H  H65  1  0.56420000  0.68420000  0.93900000  1.0 0.1141354527
H  H66  1  0.31580000  0.88000000  0.93900000  1.0 0.1141354527
H  H67  1  0.56420000  0.88000000  0.56100000  1.0 0.1141354527
H  H68  1  0.31580000  0.43580000  0.56100000  1.0 0.1141354527
H  H69  1  0.12000000  0.68420000  0.56100000  1.0 0.1141354527
H  H70  1  0.43580000  0.12000000  0.06100000  1.0 0.1141354527
H  H71  1  0.68420000  0.56420000  0.06100000  1.0 0.1141354527
H  H72  1  0.88000000  0.31580000  0.06100000  1.0 0.1141354527
H  H73  1  0.18490000  0.48310000  0.71000000  1.0 0.0905323771
H  H74  1  0.51690000  0.70180000  0.71000000  1.0 0.0905323771
H  H75  1  0.29820000  0.81510000  0.71000000  1.0 0.0905323771
H  H76  1  0.81510000  0.51690000  0.21000000  1.0 0.0905323771
H  H77  1  0.48310000  0.29820000  0.21000000  1.0 0.0905323771
H  H78  1  0.70180000  0.18490000  0.21000000  1.0 0.0905323771
H  H79  1  0.48310000  0.18490000  0.29000000  1.0 0.0905323771
H  H80  1  0.70180000  0.51690000  0.29000000  1.0 0.0905323771
H  H81  1  0.81510000  0.29820000  0.29000000  1.0 0.0905323771
H  H82  1  0.51690000  0.81510000  0.79000000  1.0 0.0905323771
H  H83  1  0.29820000  0.48310000  0.79000000  1.0 0.0905323771
H  H84  1  0.18490000  0.70180000  0.79000000  1.0 0.0905323771
H  H85  1  0.81510000  0.51690000  0.29000000  1.0 0.0905323771
H  H86  1  0.48310000  0.29820000  0.29000000  1.0 0.0905323771
H  H87  1  0.70180000  0.18490000  0.29000000  1.0 0.0905323771
H  H88  1  0.18490000  0.48310000  0.79000000  1.0 0.0905323771
H  H89  1  0.51690000  0.70180000  0.79000000  1.0 0.0905323771
H  H90  1  0.29820000  0.81510000  0.79000000  1.0 0.0905323771
H  H91  1  0.51690000  0.81510000  0.71000000  1.0 0.0905323771
H  H92  1  0.29820000  0.48310000  0.71000000  1.0 0.0905323771
H  H93  1  0.18490000  0.70180000  0.71000000  1.0 0.0905323771
H  H94  1  0.48310000  0.18490000  0.21000000  1.0 0.0905323771
H  H95  1  0.70180000  0.51690000  0.21000000  1.0 0.0905323771
H  H96  1  0.81510000  0.29820000  0.21000000  1.0 0.0905323771
H  H97  1  0.14110000  0.41370000  0.71040000  1.0 0.0905323771
H  H98  1  0.58630000  0.72740000  0.71040000  1.0 0.0905323771
H  H99  1  0.27260000  0.85890000  0.71040000  1.0 0.0905323771
H  H100  1  0.85890000  0.58630000  0.21040000  1.0 0.0905323771
H  H101  1  0.41370000  0.27260000  0.21040000  1.0 0.0905323771
H  H102  1  0.72740000  0.14110000  0.21040000  1.0 0.0905323771
H  H103  1  0.41370000  0.14110000  0.28960000  1.0 0.0905323771
H  H104  1  0.72740000  0.58630000  0.28960000  1.0 0.0905323771
H  H105  1  0.85890000  0.27260000  0.28960000  1.0 0.0905323771
H  H106  1  0.58630000  0.85890000  0.78960000  1.0 0.0905323771
H  H107  1  0.27260000  0.41370000  0.78960000  1.0 0.0905323771
H  H108  1  0.14110000  0.72740000  0.78960000  1.0 0.0905323771
H  H109  1  0.85890000  0.58630000  0.28960000  1.0 0.0905323771
H  H110  1  0.41370000  0.27260000  0.28960000  1.0 0.0905323771
H  H111  1  0.72740000  0.14110000  0.28960000  1.0 0.0905323771
H  H112  1  0.14110000  0.41370000  0.78960000  1.0 0.0905323771
H  H113  1  0.58630000  0.72740000  0.78960000  1.0 0.0905323771
H  H114  1  0.27260000  0.85890000  0.78960000  1.0 0.0905323771
H  H115  1  0.58630000  0.85890000  0.71040000  1.0 0.0905323771
H  H116  1  0.27260000  0.41370000  0.71040000  1.0 0.0905323771
H  H117  1  0.14110000  0.72740000  0.71040000  1.0 0.0905323771
H  H118  1  0.41370000  0.14110000  0.21040000  1.0 0.0905323771
H  H119  1  0.72740000  0.58630000  0.21040000  1.0 0.0905323771
H  H120  1  0.85890000  0.27260000  0.21040000  1.0 0.0905323771
H  H121  1  0.12730000  0.45490000  0.66480000  1.0 0.1213849647
H  H122  1  0.54510000  0.67240000  0.66480000  1.0 0.1213849647
H  H123  1  0.32760000  0.87270000  0.66480000  1.0 0.1213849647
H  H124  1  0.87270000  0.54510000  0.16480000  1.0 0.1213849647
H  H125  1  0.45490000  0.32760000  0.16480000  1.0 0.1213849647
H  H126  1  0.67240000  0.12730000  0.16480000  1.0 0.1213849647
H  H127  1  0.45490000  0.12730000  0.33520000  1.0 0.1213849647
H  H128  1  0.67240000  0.54510000  0.33520000  1.0 0.1213849647
H  H129  1  0.87270000  0.32760000  0.33520000  1.0 0.1213849647
H  H130  1  0.54510000  0.87270000  0.83520000  1.0 0.1213849647
H  H131  1  0.32760000  0.45490000  0.83520000  1.0 0.1213849647
H  H132  1  0.12730000  0.67240000  0.83520000  1.0 0.1213849647
H  H133  1  0.87270000  0.54510000  0.33520000  1.0 0.1213849647
H  H134  1  0.45490000  0.32760000  0.33520000  1.0 0.1213849647
H  H135  1  0.67240000  0.12730000  0.33520000  1.0 0.1213849647
H  H136  1  0.12730000  0.45490000  0.83520000  1.0 0.1213849647
H  H137  1  0.54510000  0.67240000  0.83520000  1.0 0.1213849647
H  H138  1  0.32760000  0.87270000  0.83520000  1.0 0.1213849647
H  H139  1  0.54510000  0.87270000  0.66480000  1.0 0.1213849647
H  H140  1  0.32760000  0.45490000  0.66480000  1.0 0.1213849647
H  H141  1  0.12730000  0.67240000  0.66480000  1.0 0.1213849647
H  H142  1  0.45490000  0.12730000  0.16480000  1.0 0.1213849647
H  H143  1  0.67240000  0.54510000  0.16480000  1.0 0.1213849647
H  H144  1  0.87270000  0.32760000  0.16480000  1.0 0.1213849647
H  H145  1  0.19500000  0.54930000  0.47260000  1.0 0.1325384192
H  H146  1  0.45070000  0.64570000  0.47260000  1.0 0.1325384192
H  H147  1  0.35430000  0.80500000  0.47260000  1.0 0.1325384192
H  H148  1  0.80500000  0.45070000  0.97260000  1.0 0.1325384192
H  H149  1  0.54930000  0.35430000  0.97260000  1.0 0.1325384192
H  H150  1  0.64570000  0.19500000  0.97260000  1.0 0.1325384192
H  H151  1  0.54930000  0.19500000  0.52740000  1.0 0.1325384192
H  H152  1  0.64570000  0.45070000  0.52740000  1.0 0.1325384192
H  H153  1  0.80500000  0.35430000  0.52740000  1.0 0.1325384192
H  H154  1  0.45070000  0.80500000  0.02740000  1.0 0.1325384192
H  H155  1  0.35430000  0.54930000  0.02740000  1.0 0.1325384192
H  H156  1  0.19500000  0.64570000  0.02740000  1.0 0.1325384192
H  H157  1  0.80500000  0.45070000  0.52740000  1.0 0.1325384192
H  H158  1  0.54930000  0.35430000  0.52740000  1.0 0.1325384192
H  H159  1  0.64570000  0.19500000  0.52740000  1.0 0.1325384192
H  H160  1  0.19500000  0.54930000  0.02740000  1.0 0.1325384192
H  H161  1  0.45070000  0.64570000  0.02740000  1.0 0.1325384192
H  H162  1  0.35430000  0.80500000  0.02740000  1.0 0.1325384192
H  H163  1  0.45070000  0.80500000  0.47260000  1.0 0.1325384192
H  H164  1  0.35430000  0.54930000  0.47260000  1.0 0.1325384192
H  H165  1  0.19500000  0.64570000  0.47260000  1.0 0.1325384192
H  H166  1  0.54930000  0.19500000  0.97260000  1.0 0.1325384192
H  H167  1  0.64570000  0.45070000  0.97260000  1.0 0.1325384192
H  H168  1  0.80500000  0.35430000  0.97260000  1.0 0.1325384192
H  H169  1  0.99800000  0.32450000  0.31150000  1.0 0.1419468688
H  H170  1  0.67550000  0.67350000  0.31150000  1.0 0.1419468688
H  H171  1  0.32650000  0.00200000  0.31150000  1.0 0.1419468688
H  H172  1  0.00200000  0.67550000  0.81150000  1.0 0.1419468688
H  H173  1  0.32450000  0.32650000  0.81150000  1.0 0.1419468688
H  H174  1  0.67350000  0.99800000  0.81150000  1.0 0.1419468688
H  H175  1  0.32450000  0.99800000  0.68850000  1.0 0.1419468688
H  H176  1  0.67350000  0.67550000  0.68850000  1.0 0.1419468688
H  H177  1  0.00200000  0.32650000  0.68850000  1.0 0.1419468688
H  H178  1  0.67550000  0.00200000  0.18850000  1.0 0.1419468688
H  H179  1  0.32650000  0.32450000  0.18850000  1.0 0.1419468688
H  H180  1  0.99800000  0.67350000  0.18850000  1.0 0.1419468688
H  H181  1  0.00200000  0.67550000  0.68850000  1.0 0.1419468688
H  H182  1  0.32450000  0.32650000  0.68850000  1.0 0.1419468688
H  H183  1  0.67350000  0.99800000  0.68850000  1.0 0.1419468688
H  H184  1  0.99800000  0.32450000  0.18850000  1.0 0.1419468688
H  H185  1  0.67550000  0.67350000  0.18850000  1.0 0.1419468688
H  H186  1  0.32650000  0.00200000  0.18850000  1.0 0.1419468688
H  H187  1  0.67550000  0.00200000  0.31150000  1.0 0.1419468688
H  H188  1  0.32650000  0.32450000  0.31150000  1.0 0.1419468688
H  H189  1  0.99800000  0.67350000  0.31150000  1.0 0.1419468688
H  H190  1  0.32450000  0.99800000  0.81150000  1.0 0.1419468688
H  H191  1  0.67350000  0.67550000  0.81150000  1.0 0.1419468688
H  H192  1  0.00200000  0.32650000  0.81150000  1.0 0.1419468688
H  H193  1  0.03500000  0.19610000  0.45770000  1.0 0.0799060526
H  H194  1  0.80390000  0.83890000  0.45770000  1.0 0.0744498037
H  H195  1  0.16110000  0.96500000  0.45770000  1.0 0.0744498037
H  H196  1  0.96500000  0.80390000  0.95770000  1.0 0.0799060526
H  H197  1  0.19610000  0.16110000  0.95770000  1.0 0.0744498037
H  H198  1  0.83890000  0.03500000  0.95770000  1.0 0.0744498037
H  H199  1  0.19610000  0.03500000  0.54230000  1.0 0.0799060526
H  H200  1  0.83890000  0.80390000  0.54230000  1.0 0.0799060526
H  H201  1  0.96500000  0.16110000  0.54230000  1.0 0.0799060526
H  H202  1  0.80390000  0.96500000  0.04230000  1.0 0.0799060526
H  H203  1  0.16110000  0.19610000  0.04230000  1.0 0.0799060526
H  H204  1  0.03500000  0.83890000  0.04230000  1.0 0.0799060526
H  H205  1  0.96500000  0.80390000  0.54230000  1.0 0.0799060526
H  H206  1  0.19610000  0.16110000  0.54230000  1.0 0.0799060526
H  H207  1  0.83890000  0.03500000  0.54230000  1.0 0.0799060526
H  H208  1  0.03500000  0.19610000  0.04230000  1.0 0.0799060526
H  H209  1  0.80390000  0.83890000  0.04230000  1.0 0.0799060526
H  H210  1  0.16110000  0.96500000  0.04230000  1.0 0.0799060526
H  H211  1  0.80390000  0.96500000  0.45770000  1.0 0.0744498037
H  H212  1  0.16110000  0.19610000  0.45770000  1.0 0.0799060526
H  H213  1  0.03500000  0.83890000  0.45770000  1.0 0.0799060526
H  H214  1  0.19610000  0.03500000  0.95770000  1.0 0.0744498037
H  H215  1  0.83890000  0.80390000  0.95770000  1.0 0.0744498037
H  H216  1  0.96500000  0.16110000  0.95770000  1.0 0.0799060526
H  H217  1  0.01980000  0.14710000  0.43350000  1.0 0.0905323771
H  H218  1  0.85290000  0.87270000  0.43350000  1.0 0.0905323771
H  H219  1  0.12730000  0.98020000  0.43350000  1.0 0.0905323771
H  H220  1  0.98020000  0.85290000  0.93350000  1.0 0.0905323771
H  H221  1  0.14710000  0.12730000  0.93350000  1.0 0.0905323771
H  H222  1  0.87270000  0.01980000  0.93350000  1.0 0.0905323771
H  H223  1  0.14710000  0.01980000  0.56650000  1.0 0.0905323771
H  H224  1  0.87270000  0.85290000  0.56650000  1.0 0.0905323771
H  H225  1  0.98020000  0.12730000  0.56650000  1.0 0.0905323771
H  H226  1  0.85290000  0.98020000  0.06650000  1.0 0.0905323771
H  H227  1  0.12730000  0.14710000  0.06650000  1.0 0.0905323771
H  H228  1  0.01980000  0.87270000  0.06650000  1.0 0.0905323771
H  H229  1  0.98020000  0.85290000  0.56650000  1.0 0.0905323771
H  H230  1  0.14710000  0.12730000  0.56650000  1.0 0.0905323771
H  H231  1  0.87270000  0.01980000  0.56650000  1.0 0.0905323771
H  H232  1  0.01980000  0.14710000  0.06650000  1.0 0.0905323771
H  H233  1  0.85290000  0.87270000  0.06650000  1.0 0.0905323771
H  H234  1  0.12730000  0.98020000  0.06650000  1.0 0.0905323771
H  H235  1  0.85290000  0.98020000  0.43350000  1.0 0.0905323771
H  H236  1  0.12730000  0.14710000  0.43350000  1.0 0.0905323771
H  H237  1  0.01980000  0.87270000  0.43350000  1.0 0.0905323771
H  H238  1  0.14710000  0.01980000  0.93350000  1.0 0.0905323771
H  H239  1  0.87270000  0.85290000  0.93350000  1.0 0.0905323771
H  H240  1  0.98020000  0.12730000  0.93350000  1.0 0.0905323771
H  H241  1  0.08680000  0.45890000  0.23870000  1.0 0.0799060526
H  H242  1  0.54110000  0.62790000  0.23870000  1.0 0.0799060526
H  H243  1  0.37210000  0.91320000  0.23870000  1.0 0.0799060526
H  H244  1  0.91320000  0.54110000  0.73870000  1.0 0.0799060526
H  H245  1  0.45890000  0.37210000  0.73870000  1.0 0.0799060526
H  H246  1  0.62790000  0.08680000  0.73870000  1.0 0.0799060526
H  H247  1  0.45890000  0.08680000  0.76130000  1.0 0.0799060526
H  H248  1  0.62790000  0.54110000  0.76130000  1.0 0.0799060526
H  H249  1  0.91320000  0.37210000  0.76130000  1.0 0.0799060526
H  H250  1  0.54110000  0.91320000  0.26130000  1.0 0.0799060526
H  H251  1  0.37210000  0.45890000  0.26130000  1.0 0.0799060526
H  H252  1  0.08680000  0.62790000  0.26130000  1.0 0.0799060526
H  H253  1  0.91320000  0.54110000  0.76130000  1.0 0.0799060526
H  H254  1  0.45890000  0.37210000  0.76130000  1.0 0.0799060526
H  H255  1  0.62790000  0.08680000  0.76130000  1.0 0.0799060526
H  H256  1  0.08680000  0.45890000  0.26130000  1.0 0.0799060526
H  H257  1  0.54110000  0.62790000  0.26130000  1.0 0.0799060526
H  H258  1  0.37210000  0.91320000  0.26130000  1.0 0.0799060526
H  H259  1  0.54110000  0.91320000  0.23870000  1.0 0.0799060526
H  H260  1  0.37210000  0.45890000  0.23870000  1.0 0.0799060526
H  H261  1  0.08680000  0.62790000  0.23870000  1.0 0.0799060526
H  H262  1  0.45890000  0.08680000  0.73870000  1.0 0.0799060526
H  H263  1  0.62790000  0.54110000  0.73870000  1.0 0.0799060526
H  H264  1  0.91320000  0.37210000  0.73870000  1.0 0.0799060526
H  H265  1  0.03000000  0.38440000  0.41700000  1.0 0.2145348026
H  H266  1  0.61560000  0.64560000  0.41700000  1.0 0.2156424962
H  H267  1  0.35440000  0.97000000  0.41700000  1.0 0.2156424962
H  H268  1  0.97000000  0.61560000  0.91700000  1.0 0.2145348026
H  H269  1  0.38440000  0.35440000  0.91700000  1.0 0.2145348026
H  H270  1  0.64560000  0.03000000  0.91700000  1.0 0.2145348026
H  H271  1  0.38440000  0.03000000  0.58300000  1.0 0.2145348026
H  H272  1  0.64560000  0.61560000  0.58300000  1.0 0.2156424962
H  H273  1  0.97000000  0.35440000  0.58300000  1.0 0.2145348026
H  H274  1  0.61560000  0.97000000  0.08300000  1.0 0.2156424962
H  H275  1  0.35440000  0.38440000  0.08300000  1.0 0.2145348026
H  H276  1  0.03000000  0.64560000  0.08300000  1.0 0.2156424962
H  H277  1  0.97000000  0.61560000  0.58300000  1.0 0.2145348026
H  H278  1  0.38440000  0.35440000  0.58300000  1.0 0.2145348026
H  H279  1  0.64560000  0.03000000  0.58300000  1.0 0.2145348026
H  H280  1  0.03000000  0.38440000  0.08300000  1.0 0.2145348026
H  H281  1  0.61560000  0.64560000  0.08300000  1.0 0.2156424962
H  H282  1  0.35440000  0.97000000  0.08300000  1.0 0.2156424962
H  H283  1  0.61560000  0.97000000  0.41700000  1.0 0.2156424962
H  H284  1  0.35440000  0.38440000  0.41700000  1.0 0.2145348026
H  H285  1  0.03000000  0.64560000  0.41700000  1.0 0.2156424962
H  H286  1  0.38440000  0.03000000  0.91700000  1.0 0.2145348026
H  H287  1  0.64560000  0.61560000  0.91700000  1.0 0.2156424962
H  H288  1  0.97000000  0.35440000  0.91700000  1.0 0.2145348026
H  H289  1  0.17890000  0.44560000  0.66690000  1.0 0.0016214861
H  H290  1  0.55440000  0.73330000  0.66690000  1.0 0.0016214861
H  H291  1  0.26670000  0.82110000  0.66690000  1.0 0.0016214861
H  H292  1  0.82110000  0.55440000  0.16690000  1.0 0.0016214861
H  H293  1  0.44560000  0.26670000  0.16690000  1.0 0.0016214861
H  H294  1  0.73330000  0.17890000  0.16690000  1.0 0.0016214861
H  H295  1  0.44560000  0.17890000  0.33310000  1.0 0.0016214861
H  H296  1  0.73330000  0.55440000  0.33310000  1.0 0.0016214861
H  H297  1  0.82110000  0.26670000  0.33310000  1.0 0.0016214861
H  H298  1  0.55440000  0.82110000  0.83310000  1.0 0.0016214861
H  H299  1  0.26670000  0.44560000  0.83310000  1.0 0.0016214861
H  H300  1  0.17890000  0.73330000  0.83310000  1.0 0.0016214861
H  H301  1  0.82110000  0.55440000  0.33310000  1.0 0.0016214861
H  H302  1  0.44560000  0.26670000  0.33310000  1.0 0.0016214861
H  H303  1  0.73330000  0.17890000  0.33310000  1.0 0.0016214861
H  H304  1  0.17890000  0.44560000  0.83310000  1.0 0.0016214861
H  H305  1  0.55440000  0.73330000  0.83310000  1.0 0.0016214861
H  H306  1  0.26670000  0.82110000  0.83310000  1.0 0.0016214861
H  H307  1  0.55440000  0.82110000  0.66690000  1.0 0.0016214861
H  H308  1  0.26670000  0.44560000  0.66690000  1.0 0.0016214861
H  H309  1  0.17890000  0.73330000  0.66690000  1.0 0.0016214861
H  H310  1  0.44560000  0.17890000  0.16690000  1.0 0.0016214861
H  H311  1  0.73330000  0.55440000  0.16690000  1.0 0.0016214861
H  H312  1  0.82110000  0.26670000  0.16690000  1.0 0.0016214861
C  C1  1  0.00000000  0.38420000  0.50000000  1.0 0.0265026668
C  C2  1  0.61580000  0.61580000  0.50000000  1.0 0.0265026668
C  C3  1  0.38420000  0.00000000  0.50000000  1.0 0.0265026668
C  C4  1  0.00000000  0.61580000  0.00000000  1.0 0.0265026668
C  C5  1  0.38420000  0.38420000  0.00000000  1.0 0.0249256175
C  C6  1  0.61580000  0.00000000  0.00000000  1.0 0.0265026668
C  C7  1  0.00000000  0.61580000  0.50000000  1.0 0.0265026668
C  C8  1  0.38420000  0.38420000  0.50000000  1.0 0.0265026668
C  C9  1  0.61580000  0.00000000  0.50000000  1.0 0.0265026668
C  C10  1  0.00000000  0.38420000  0.00000000  1.0 0.0265026668
C  C11  1  0.61580000  0.61580000  0.00000000  1.0 0.0265026668
C  C12  1  0.38420000  0.00000000  0.00000000  1.0 0.0265026668
C  C13  1  0.02210000  0.31480000  0.47300000  1.0 0.1419468688
C  C14  1  0.68520000  0.70730000  0.47300000  1.0 0.1419468688
C  C15  1  0.29270000  0.97790000  0.47300000  1.0 0.1419468688
C  C16  1  0.97790000  0.68520000  0.97300000  1.0 0.1419468688
C  C17  1  0.31480000  0.29270000  0.97300000  1.0 0.1419468688
C  C18  1  0.70730000  0.02210000  0.97300000  1.0 0.1419468688
C  C19  1  0.31480000  0.02210000  0.52700000  1.0 0.1419468688
C  C20  1  0.70730000  0.68520000  0.52700000  1.0 0.1419468688
C  C21  1  0.97790000  0.29270000  0.52700000  1.0 0.1419468688
C  C22  1  0.68520000  0.97790000  0.02700000  1.0 0.1419468688
C  C23  1  0.29270000  0.31480000  0.02700000  1.0 0.1419468688
C  C24  1  0.02210000  0.70730000  0.02700000  1.0 0.1419468688
C  C25  1  0.97790000  0.68520000  0.52700000  1.0 0.1419468688
C  C26  1  0.31480000  0.29270000  0.52700000  1.0 0.1419468688
C  C27  1  0.70730000  0.02210000  0.52700000  1.0 0.1419468688
C  C28  1  0.02210000  0.31480000  0.02700000  1.0 0.1419468688
C  C29  1  0.68520000  0.70730000  0.02700000  1.0 0.1419468688
C  C30  1  0.29270000  0.97790000  0.02700000  1.0 0.1419468688
C  C31  1  0.68520000  0.97790000  0.47300000  1.0 0.1419468688
C  C32  1  0.29270000  0.31480000  0.47300000  1.0 0.1419468688
C  C33  1  0.02210000  0.70730000  0.47300000  1.0 0.1419468688
C  C34  1  0.31480000  0.02210000  0.97300000  1.0 0.1419468688
C  C35  1  0.70730000  0.68520000  0.97300000  1.0 0.1419468688
C  C36  1  0.97790000  0.29270000  0.97300000  1.0 0.1419468688
C  C37  1  0.04640000  0.28260000  0.44400000  1.0 -0.2232034312
C  C38  1  0.71740000  0.76380000  0.44400000  1.0 -0.2232034312
C  C39  1  0.23620000  0.95360000  0.44400000  1.0 -0.2232034312
C  C40  1  0.95360000  0.71740000  0.94400000  1.0 -0.2232034312
C  C41  1  0.28260000  0.23620000  0.94400000  1.0 -0.2232034312
C  C42  1  0.76380000  0.04640000  0.94400000  1.0 -0.2232034312
C  C43  1  0.28260000  0.04640000  0.55600000  1.0 -0.2232034312
C  C44  1  0.76380000  0.71740000  0.55600000  1.0 -0.2232034312
C  C45  1  0.95360000  0.23620000  0.55600000  1.0 -0.2232034312
C  C46  1  0.71740000  0.95360000  0.05600000  1.0 -0.2232034312
C  C47  1  0.23620000  0.28260000  0.05600000  1.0 -0.2232034312
C  C48  1  0.04640000  0.76380000  0.05600000  1.0 -0.2232034312
C  C49  1  0.95360000  0.71740000  0.55600000  1.0 -0.2232034312
C  C50  1  0.28260000  0.23620000  0.55600000  1.0 -0.2232034312
C  C51  1  0.76380000  0.04640000  0.55600000  1.0 -0.2232034312
C  C52  1  0.04640000  0.28260000  0.05600000  1.0 -0.2232034312
C  C53  1  0.71740000  0.76380000  0.05600000  1.0 -0.2232034312
C  C54  1  0.23620000  0.95360000  0.05600000  1.0 -0.2232034312
C  C55  1  0.71740000  0.95360000  0.44400000  1.0 -0.2232034312
C  C56  1  0.23620000  0.28260000  0.44400000  1.0 -0.2232034312
C  C57  1  0.04640000  0.76380000  0.44400000  1.0 -0.2232034312
C  C58  1  0.28260000  0.04640000  0.94400000  1.0 -0.2232034312
C  C59  1  0.76380000  0.71740000  0.94400000  1.0 -0.2232034312
C  C60  1  0.95360000  0.23620000  0.94400000  1.0 -0.2232034312
C  C61  1  0.02120000  0.22170000  0.47430000  1.0 0.0479513311
C  C62  1  0.77830000  0.79950000  0.47430000  1.0 0.0479513311
C  C63  1  0.20050000  0.97880000  0.47430000  1.0 0.0479513311
C  C64  1  0.97880000  0.77830000  0.97430000  1.0 0.0479513311
C  C65  1  0.22170000  0.20050000  0.97430000  1.0 0.0479513311
C  C66  1  0.79950000  0.02120000  0.97430000  1.0 0.0479513311
C  C67  1  0.22170000  0.02120000  0.52570000  1.0 0.0479513311
C  C68  1  0.79950000  0.77830000  0.52570000  1.0 0.0479513311
C  C69  1  0.97880000  0.20050000  0.52570000  1.0 0.0479513311
C  C70  1  0.77830000  0.97880000  0.02570000  1.0 0.0479513311
C  C71  1  0.20050000  0.22170000  0.02570000  1.0 0.0479513311
C  C72  1  0.02120000  0.79950000  0.02570000  1.0 0.0479513311
C  C73  1  0.97880000  0.77830000  0.52570000  1.0 0.0479513311
C  C74  1  0.22170000  0.20050000  0.52570000  1.0 0.0479513311
C  C75  1  0.79950000  0.02120000  0.52570000  1.0 0.0479513311
C  C76  1  0.02120000  0.22170000  0.02570000  1.0 0.0479513311
C  C77  1  0.77830000  0.79950000  0.02570000  1.0 0.0479513311
C  C78  1  0.20050000  0.97880000  0.02570000  1.0 0.0479513311
C  C79  1  0.77830000  0.97880000  0.47430000  1.0 0.0479513311
C  C80  1  0.20050000  0.22170000  0.47430000  1.0 0.0479513311
C  C81  1  0.02120000  0.79950000  0.47430000  1.0 0.0479513311
C  C82  1  0.22170000  0.02120000  0.97430000  1.0 0.0479513311
C  C83  1  0.79950000  0.77830000  0.97430000  1.0 0.0479513311
C  C84  1  0.97880000  0.20050000  0.97430000  1.0 0.0479513311
C  C85  1  0.05000000  0.18700000  0.44200000  1.0 -0.2017139056
C  C86  1  0.81300000  0.86300000  0.44200000  1.0 -0.2017139056
C  C87  1  0.13700000  0.95000000  0.44200000  1.0 -0.2017139056
C  C88  1  0.95000000  0.81300000  0.94200000  1.0 -0.2051515319
C  C89  1  0.18700000  0.13700000  0.94200000  1.0 -0.2017139056
C  C90  1  0.86300000  0.05000000  0.94200000  1.0 -0.2017139056
C  C91  1  0.18700000  0.05000000  0.55800000  1.0 -0.2017139056
C  C92  1  0.86300000  0.81300000  0.55800000  1.0 -0.2017139056
C  C93  1  0.95000000  0.13700000  0.55800000  1.0 -0.2017139056
C  C94  1  0.81300000  0.95000000  0.05800000  1.0 -0.2017139056
C  C95  1  0.13700000  0.18700000  0.05800000  1.0 -0.2017139056
C  C96  1  0.05000000  0.86300000  0.05800000  1.0 -0.2017139056
C  C97  1  0.95000000  0.81300000  0.55800000  1.0 -0.2017139056
C  C98  1  0.18700000  0.13700000  0.55800000  1.0 -0.2017139056
C  C99  1  0.86300000  0.05000000  0.55800000  1.0 -0.2017139056
C  C100  1  0.05000000  0.18700000  0.05800000  1.0 -0.2017139056
C  C101  1  0.81300000  0.86300000  0.05800000  1.0 -0.2017139056
C  C102  1  0.13700000  0.95000000  0.05800000  1.0 -0.2017139056
C  C103  1  0.81300000  0.95000000  0.44200000  1.0 -0.2017139056
C  C104  1  0.13700000  0.18700000  0.44200000  1.0 -0.2017139056
C  C105  1  0.05000000  0.86300000  0.44200000  1.0 -0.2017139056
C  C106  1  0.18700000  0.05000000  0.94200000  1.0 -0.2017139056
C  C107  1  0.86300000  0.81300000  0.94200000  1.0 -0.2017139056
C  C108  1  0.95000000  0.13700000  0.94200000  1.0 -0.2017139056
C  C109  1  0.21610000  0.43210000  0.39740000  1.0 0.1480055811
C  C110  1  0.56790000  0.78400000  0.39740000  1.0 0.1480055811
C  C111  1  0.21600000  0.78390000  0.39740000  1.0 0.1480055811
C  C112  1  0.78390000  0.56790000  0.89740000  1.0 0.1480055811
C  C113  1  0.43210000  0.21600000  0.89740000  1.0 0.1480055811
C  C114  1  0.78400000  0.21610000  0.89740000  1.0 0.1480055811
C  C115  1  0.43210000  0.21600000  0.60260000  1.0 0.1480055811
C  C116  1  0.78390000  0.56790000  0.60260000  1.0 0.1480055811
C  C117  1  0.78400000  0.21610000  0.60260000  1.0 0.1480055811
C  C118  1  0.56790000  0.78400000  0.10260000  1.0 0.1480055811
C  C119  1  0.21610000  0.43210000  0.10260000  1.0 0.1480055811
C  C120  1  0.21600000  0.78390000  0.10260000  1.0 0.1480055811
C  C121  1  0.19020000  0.43230000  0.50150000  1.0 0.0971132796
C  C122  1  0.56770000  0.75790000  0.50150000  1.0 0.0971132796
C  C123  1  0.24210000  0.80980000  0.50150000  1.0 0.0971132796
C  C124  1  0.80980000  0.56770000  0.00150000  1.0 0.0971132796
C  C125  1  0.43230000  0.24210000  0.00150000  1.0 0.0971132796
C  C126  1  0.75790000  0.19020000  0.00150000  1.0 0.0971132796
C  C127  1  0.43230000  0.19020000  0.49850000  1.0 0.0971132796
C  C128  1  0.75790000  0.56770000  0.49850000  1.0 0.0971132796
C  C129  1  0.80980000  0.24210000  0.49850000  1.0 0.0971132796
C  C130  1  0.56770000  0.80980000  0.99850000  1.0 0.0971132796
C  C131  1  0.24210000  0.43230000  0.99850000  1.0 0.0971132796
C  C132  1  0.19020000  0.75790000  0.99850000  1.0 0.0971132796
C  C133  1  0.80980000  0.56770000  0.49850000  1.0 0.0971132796
C  C134  1  0.43230000  0.24210000  0.49850000  1.0 0.0971132796
C  C135  1  0.75790000  0.19020000  0.49850000  1.0 0.0971132796
C  C136  1  0.19020000  0.43230000  0.99850000  1.0 0.0971132796
C  C137  1  0.56770000  0.75790000  0.99850000  1.0 0.0971132796
C  C138  1  0.24210000  0.80980000  0.99850000  1.0 0.0971132796
C  C139  1  0.56770000  0.80980000  0.50150000  1.0 0.0971132796
C  C140  1  0.24210000  0.43230000  0.50150000  1.0 0.0971132796
C  C141  1  0.19020000  0.75790000  0.50150000  1.0 0.0971132796
C  C142  1  0.43230000  0.19020000  0.00150000  1.0 0.0971132796
C  C143  1  0.75790000  0.56770000  0.00150000  1.0 0.0971132796
C  C144  1  0.80980000  0.24210000  0.00150000  1.0 0.0971132796
C  C145  1  0.15710000  0.43650000  0.56170000  1.0 -0.2017139056
C  C146  1  0.56350000  0.72060000  0.56170000  1.0 -0.2017139056
C  C147  1  0.27940000  0.84290000  0.56170000  1.0 -0.2017139056
C  C148  1  0.84290000  0.56350000  0.06170000  1.0 -0.2017139056
C  C149  1  0.43650000  0.27940000  0.06170000  1.0 -0.2017139056
C  C150  1  0.72060000  0.15710000  0.06170000  1.0 -0.2017139056
C  C151  1  0.43650000  0.15710000  0.43830000  1.0 -0.2017139056
C  C152  1  0.72060000  0.56350000  0.43830000  1.0 -0.2017139056
C  C153  1  0.84290000  0.27940000  0.43830000  1.0 -0.2017139056
C  C154  1  0.56350000  0.84290000  0.93830000  1.0 -0.2017139056
C  C155  1  0.27940000  0.43650000  0.93830000  1.0 -0.2017139056
C  C156  1  0.15710000  0.72060000  0.93830000  1.0 -0.2017139056
C  C157  1  0.84290000  0.56350000  0.43830000  1.0 -0.2017139056
C  C158  1  0.43650000  0.27940000  0.43830000  1.0 -0.2017139056
C  C159  1  0.72060000  0.15710000  0.43830000  1.0 -0.2017139056
C  C160  1  0.15710000  0.43650000  0.93830000  1.0 -0.2017139056
C  C161  1  0.56350000  0.72060000  0.93830000  1.0 -0.2017139056
C  C162  1  0.27940000  0.84290000  0.93830000  1.0 -0.2017139056
C  C163  1  0.56350000  0.84290000  0.56170000  1.0 -0.2017139056
C  C164  1  0.27940000  0.43650000  0.56170000  1.0 -0.2017139056
C  C165  1  0.15710000  0.72060000  0.56170000  1.0 -0.2017139056
C  C166  1  0.43650000  0.15710000  0.06170000  1.0 -0.2017139056
C  C167  1  0.72060000  0.56350000  0.06170000  1.0 -0.2017139056
C  C168  1  0.84290000  0.27940000  0.06170000  1.0 -0.2017139056
C  C169  1  0.19400000  0.44190000  0.62450000  1.0 0.0479513311
C  C170  1  0.55810000  0.75210000  0.62450000  1.0 0.0479513311
C  C171  1  0.24790000  0.80600000  0.62450000  1.0 0.0479513311
C  C172  1  0.80600000  0.55810000  0.12450000  1.0 0.0479513311
C  C173  1  0.44190000  0.24790000  0.12450000  1.0 0.0479513311
C  C174  1  0.75210000  0.19400000  0.12450000  1.0 0.0479513311
C  C175  1  0.44190000  0.19400000  0.37550000  1.0 0.0479513311
C  C176  1  0.75210000  0.55810000  0.37550000  1.0 0.0479513311
C  C177  1  0.80600000  0.24790000  0.37550000  1.0 0.0479513311
C  C178  1  0.55810000  0.80600000  0.87550000  1.0 0.0479513311
C  C179  1  0.24790000  0.44190000  0.87550000  1.0 0.0479513311
C  C180  1  0.19400000  0.75210000  0.87550000  1.0 0.0479513311
C  C181  1  0.80600000  0.55810000  0.37550000  1.0 0.0479513311
C  C182  1  0.44190000  0.24790000  0.37550000  1.0 0.0479513311
C  C183  1  0.75210000  0.19400000  0.37550000  1.0 0.0479513311
C  C184  1  0.19400000  0.44190000  0.87550000  1.0 0.0479513311
C  C185  1  0.55810000  0.75210000  0.87550000  1.0 0.0479513311
C  C186  1  0.24790000  0.80600000  0.87550000  1.0 0.0479513311
C  C187  1  0.55810000  0.80600000  0.62450000  1.0 0.0479513311
C  C188  1  0.24790000  0.44190000  0.62450000  1.0 0.0479513311
C  C189  1  0.19400000  0.75210000  0.62450000  1.0 0.0479513311
C  C190  1  0.44190000  0.19400000  0.12450000  1.0 0.0479513311
C  C191  1  0.75210000  0.55810000  0.12450000  1.0 0.0479513311
C  C192  1  0.80600000  0.24790000  0.12450000  1.0 0.0479513311
C  C193  1  0.15800000  0.44900000  0.68300000  1.0 -0.3382724602
C  C194  1  0.55100000  0.70900000  0.68300000  1.0 -0.3382724602
C  C195  1  0.29100000  0.84200000  0.68300000  1.0 -0.3382724602
C  C196  1  0.84200000  0.55100000  0.18300000  1.0 -0.3382724602
C  C197  1  0.44900000  0.29100000  0.18300000  1.0 -0.3382724602
C  C198  1  0.70900000  0.15800000  0.18300000  1.0 -0.3382724602
C  C199  1  0.44900000  0.15800000  0.31700000  1.0 -0.3382724602
C  C200  1  0.70900000  0.55100000  0.31700000  1.0 -0.3382724602
C  C201  1  0.84200000  0.29100000  0.31700000  1.0 -0.3382724602
C  C202  1  0.55100000  0.84200000  0.81700000  1.0 -0.3382724602
C  C203  1  0.29100000  0.44900000  0.81700000  1.0 -0.3382724602
C  C204  1  0.15800000  0.70900000  0.81700000  1.0 -0.3382724602
C  C205  1  0.84200000  0.55100000  0.31700000  1.0 -0.3382724602
C  C206  1  0.44900000  0.29100000  0.31700000  1.0 -0.3382724602
C  C207  1  0.70900000  0.15800000  0.31700000  1.0 -0.3382724602
C  C208  1  0.15800000  0.44900000  0.81700000  1.0 -0.3382724602
C  C209  1  0.55100000  0.70900000  0.81700000  1.0 -0.3382724602
C  C210  1  0.29100000  0.84200000  0.81700000  1.0 -0.3382724602
C  C211  1  0.55100000  0.84200000  0.68300000  1.0 -0.3382724602
C  C212  1  0.29100000  0.44900000  0.68300000  1.0 -0.3382724602
C  C213  1  0.15800000  0.70900000  0.68300000  1.0 -0.3382724602
C  C214  1  0.44900000  0.15800000  0.18300000  1.0 -0.3382724602
C  C215  1  0.70900000  0.55100000  0.18300000  1.0 -0.3382724602
C  C216  1  0.84200000  0.29100000  0.18300000  1.0 -0.3382724602
C  C217  1  0.09170000  0.54580000  0.40870000  1.0 0.2804757915
C  C218  1  0.45420000  0.54590000  0.40870000  1.0 0.2804757915
C  C219  1  0.45410000  0.90830000  0.40870000  1.0 0.2804757915
C  C220  1  0.90830000  0.45420000  0.90870000  1.0 0.2804757915
C  C221  1  0.54580000  0.45410000  0.90870000  1.0 0.2804757915
C  C222  1  0.54590000  0.09170000  0.90870000  1.0 0.2804757915
C  C223  1  0.54590000  0.09170000  0.59130000  1.0 0.2804757915
C  C224  1  0.54580000  0.45410000  0.59130000  1.0 0.2804757915
C  C225  1  0.90830000  0.45420000  0.59130000  1.0 0.2804757915
C  C226  1  0.45410000  0.90830000  0.09130000  1.0 0.2804757915
C  C227  1  0.45420000  0.54590000  0.09130000  1.0 0.2804757915
C  C228  1  0.09170000  0.54580000  0.09130000  1.0 0.2804757915
C  C229  1  0.16420000  0.55500000  0.45420000  1.0 -0.003266413
C  C230  1  0.44500000  0.60920000  0.45420000  1.0 -0.003266413
C  C231  1  0.39080000  0.83580000  0.45420000  1.0 -0.003266413
C  C232  1  0.83580000  0.44500000  0.95420000  1.0 -0.003266413
C  C233  1  0.55500000  0.39080000  0.95420000  1.0 -0.003266413
C  C234  1  0.60920000  0.16420000  0.95420000  1.0 -0.003266413
C  C235  1  0.55500000  0.16420000  0.54580000  1.0 -0.003266413
C  C236  1  0.60920000  0.44500000  0.54580000  1.0 -0.003266413
C  C237  1  0.83580000  0.39080000  0.54580000  1.0 -0.003266413
C  C238  1  0.44500000  0.83580000  0.04580000  1.0 -0.003266413
C  C239  1  0.39080000  0.55500000  0.04580000  1.0 -0.003266413
C  C240  1  0.16420000  0.60920000  0.04580000  1.0 -0.003266413
C  C241  1  0.83580000  0.44500000  0.54580000  1.0 -0.003266413
C  C242  1  0.55500000  0.39080000  0.54580000  1.0 -0.003266413
C  C243  1  0.60920000  0.16420000  0.54580000  1.0 -0.003266413
C  C244  1  0.16420000  0.55500000  0.04580000  1.0 -0.003266413
C  C245  1  0.44500000  0.60920000  0.04580000  1.0 -0.003266413
C  C246  1  0.39080000  0.83580000  0.04580000  1.0 -0.003266413
C  C247  1  0.44500000  0.83580000  0.45420000  1.0 -0.003266413
C  C248  1  0.39080000  0.55500000  0.45420000  1.0 -0.003266413
C  C249  1  0.16420000  0.60920000  0.45420000  1.0 -0.003266413
C  C250  1  0.55500000  0.16420000  0.95420000  1.0 -0.003266413
C  C251  1  0.60920000  0.44500000  0.95420000  1.0 -0.003266413
C  C252  1  0.83580000  0.39080000  0.95420000  1.0 -0.003266413
C  C253  1  0.10620000  0.42960000  0.25000000  1.0 0.1213849647
C  C254  1  0.57040000  0.67660000  0.25000000  1.0 0.1213849647
C  C255  1  0.32340000  0.89380000  0.25000000  1.0 0.1213849647
C  C256  1  0.89380000  0.57040000  0.75000000  1.0 0.1213849647
C  C257  1  0.42960000  0.32340000  0.75000000  1.0 0.1213849647
C  C258  1  0.67660000  0.10620000  0.75000000  1.0 0.1213849647
C  C259  1  0.42960000  0.10620000  0.75000000  1.0 0.1213849647
C  C260  1  0.67660000  0.57040000  0.75000000  1.0 0.1213849647
C  C261  1  0.89380000  0.32340000  0.75000000  1.0 0.1213849647
C  C262  1  0.57040000  0.89380000  0.25000000  1.0 0.1213849647
C  C263  1  0.32340000  0.42960000  0.25000000  1.0 0.1213849647
C  C264  1  0.10620000  0.67660000  0.25000000  1.0 0.1213849647
C  C265  1  0.02850000  0.35410000  0.28380000  1.0 -0.065311838
C  C266  1  0.64590000  0.67440000  0.28380000  1.0 -0.0643977858
C  C267  1  0.32560000  0.97150000  0.28380000  1.0 -0.0643977858
C  C268  1  0.97150000  0.64590000  0.78380000  1.0 -0.0643977858
C  C269  1  0.35410000  0.32560000  0.78380000  1.0 -0.0643977858
C  C270  1  0.67440000  0.02850000  0.78380000  1.0 -0.0643977858
C  C271  1  0.35410000  0.02850000  0.71620000  1.0 -0.0643977858
C  C272  1  0.67440000  0.64590000  0.71620000  1.0 -0.0643977858
C  C273  1  0.97150000  0.32560000  0.71620000  1.0 -0.0643977858
C  C274  1  0.64590000  0.97150000  0.21620000  1.0 -0.0643977858
C  C275  1  0.32560000  0.35410000  0.21620000  1.0 -0.0643977858
C  C276  1  0.02850000  0.67440000  0.21620000  1.0 -0.0643977858
C  C277  1  0.97150000  0.64590000  0.71620000  1.0 -0.0643977858
C  C278  1  0.35410000  0.32560000  0.71620000  1.0 -0.0643977858
C  C279  1  0.67440000  0.02850000  0.71620000  1.0 -0.0643977858
C  C280  1  0.02850000  0.35410000  0.21620000  1.0 -0.0643977858
C  C281  1  0.64590000  0.67440000  0.21620000  1.0 -0.0643977858
C  C282  1  0.32560000  0.97150000  0.21620000  1.0 -0.0643977858
C  C283  1  0.64590000  0.97150000  0.28380000  1.0 -0.0643977858
C  C284  1  0.32560000  0.35410000  0.28380000  1.0 -0.0643977858
C  C285  1  0.02850000  0.67440000  0.28380000  1.0 -0.065311838
C  C286  1  0.35410000  0.02850000  0.78380000  1.0 -0.0643977858
C  C287  1  0.67440000  0.64590000  0.78380000  1.0 -0.0643977858
C  C288  1  0.97150000  0.32560000  0.78380000  1.0 -0.0643977858
N  N1  1  0.03510000  0.37130000  0.45720000  1.0 -0.2918010727
N  N2  1  0.62870000  0.66380000  0.45720000  1.0 -0.2918010727
N  N3  1  0.33620000  0.96490000  0.45720000  1.0 -0.2918010727
N  N4  1  0.96490000  0.62870000  0.95720000  1.0 -0.2918010727
N  N5  1  0.37130000  0.33620000  0.95720000  1.0 -0.2918010727
N  N6  1  0.66380000  0.03510000  0.95720000  1.0 -0.2918010727
N  N7  1  0.37130000  0.03510000  0.54280000  1.0 -0.2918010727
N  N8  1  0.66380000  0.62870000  0.54280000  1.0 -0.2918010727
N  N9  1  0.96490000  0.33620000  0.54280000  1.0 -0.2918010727
N  N10  1  0.62870000  0.96490000  0.04280000  1.0 -0.2918010727
N  N11  1  0.33620000  0.37130000  0.04280000  1.0 -0.2918010727
N  N12  1  0.03510000  0.66380000  0.04280000  1.0 -0.2918010727
N  N13  1  0.96490000  0.62870000  0.54280000  1.0 -0.2918010727
N  N14  1  0.37130000  0.33620000  0.54280000  1.0 -0.2918010727
N  N15  1  0.66380000  0.03510000  0.54280000  1.0 -0.2918010727
N  N16  1  0.03510000  0.37130000  0.04280000  1.0 -0.2918010727
N  N17  1  0.62870000  0.66380000  0.04280000  1.0 -0.2918010727
N  N18  1  0.33620000  0.96490000  0.04280000  1.0 -0.2918010727
N  N19  1  0.62870000  0.96490000  0.45720000  1.0 -0.2918010727
N  N20  1  0.33620000  0.37130000  0.45720000  1.0 -0.2918010727
N  N21  1  0.03510000  0.66380000  0.45720000  1.0 -0.2918010727
N  N22  1  0.37130000  0.03510000  0.95720000  1.0 -0.2918010727
N  N23  1  0.66380000  0.62870000  0.95720000  1.0 -0.2918010727
N  N24  1  0.96490000  0.33620000  0.95720000  1.0 -0.2918010727
N  N25  1  0.17080000  0.43060000  0.43590000  1.0 -0.3382724602
N  N26  1  0.56940000  0.74020000  0.43590000  1.0 -0.3382724602
N  N27  1  0.25980000  0.82920000  0.43590000  1.0 -0.3382724602
N  N28  1  0.82920000  0.56940000  0.93590000  1.0 -0.3382724602
N  N29  1  0.43060000  0.25980000  0.93590000  1.0 -0.3382724602
N  N30  1  0.74020000  0.17080000  0.93590000  1.0 -0.3382724602
N  N31  1  0.43060000  0.17080000  0.56410000  1.0 -0.3335131581
N  N32  1  0.74020000  0.56940000  0.56410000  1.0 -0.3335131581
N  N33  1  0.82920000  0.25980000  0.56410000  1.0 -0.3335131581
N  N34  1  0.56940000  0.82920000  0.06410000  1.0 -0.3335131581
N  N35  1  0.25980000  0.43060000  0.06410000  1.0 -0.3335131581
N  N36  1  0.17080000  0.74020000  0.06410000  1.0 -0.3335131581
N  N37  1  0.82920000  0.56940000  0.56410000  1.0 -0.3382724602
N  N38  1  0.43060000  0.25980000  0.56410000  1.0 -0.3382724602
N  N39  1  0.74020000  0.17080000  0.56410000  1.0 -0.3335131581
N  N40  1  0.17080000  0.43060000  0.06410000  1.0 -0.3382724602
N  N41  1  0.56940000  0.74020000  0.06410000  1.0 -0.3382724602
N  N42  1  0.25980000  0.82920000  0.06410000  1.0 -0.3382724602
N  N43  1  0.56940000  0.82920000  0.43590000  1.0 -0.3335131581
N  N44  1  0.25980000  0.43060000  0.43590000  1.0 -0.3335131581
N  N45  1  0.17080000  0.74020000  0.43590000  1.0 -0.3335131581
N  N46  1  0.43060000  0.17080000  0.93590000  1.0 -0.3335131581
N  N47  1  0.74020000  0.56940000  0.93590000  1.0 -0.3335131581
N  N48  1  0.82920000  0.25980000  0.93590000  1.0 -0.3335131581
N  N49  1  0.11360000  0.51170000  0.42420000  1.0 -0.3026802714
N  N50  1  0.48830000  0.60190000  0.42420000  1.0 -0.3026802714
N  N51  1  0.39810000  0.88640000  0.42420000  1.0 -0.3026802714
N  N52  1  0.88640000  0.48830000  0.92420000  1.0 -0.3026802714
N  N53  1  0.51170000  0.39810000  0.92420000  1.0 -0.3026802714
N  N54  1  0.60190000  0.11360000  0.92420000  1.0 -0.3026802714
N  N55  1  0.51170000  0.11360000  0.57580000  1.0 -0.3026802714
N  N56  1  0.60190000  0.48830000  0.57580000  1.0 -0.3026802714
N  N57  1  0.88640000  0.39810000  0.57580000  1.0 -0.3026802714
N  N58  1  0.48830000  0.88640000  0.07580000  1.0 -0.3026802714
N  N59  1  0.39810000  0.51170000  0.07580000  1.0 -0.3026802714
N  N60  1  0.11360000  0.60190000  0.07580000  1.0 -0.3026802714
N  N61  1  0.88640000  0.48830000  0.57580000  1.0 -0.3026802714
N  N62  1  0.51170000  0.39810000  0.57580000  1.0 -0.3026802714
N  N63  1  0.60190000  0.11360000  0.57580000  1.0 -0.3026802714
N  N64  1  0.11360000  0.51170000  0.07580000  1.0 -0.3026802714
N  N65  1  0.48830000  0.60190000  0.07580000  1.0 -0.3026802714
N  N66  1  0.39810000  0.88640000  0.07580000  1.0 -0.3026802714
N  N67  1  0.48830000  0.88640000  0.42420000  1.0 -0.3026802714
N  N68  1  0.39810000  0.51170000  0.42420000  1.0 -0.3026802714
N  N69  1  0.11360000  0.60190000  0.42420000  1.0 -0.3026802714
N  N70  1  0.51170000  0.11360000  0.92420000  1.0 -0.3026802714
N  N71  1  0.60190000  0.48830000  0.92420000  1.0 -0.3026802714
N  N72  1  0.88640000  0.39810000  0.92420000  1.0 -0.3026802714
N  N73  1  0.03900000  0.51940000  0.37000000  1.0 0.1937960032
N  N74  1  0.48060000  0.51960000  0.37000000  1.0 0.1937960032
N  N75  1  0.48040000  0.96100000  0.37000000  1.0 0.1937960032
N  N76  1  0.96100000  0.48060000  0.87000000  1.0 0.1937960032
N  N77  1  0.51940000  0.48040000  0.87000000  1.0 0.1937960032
N  N78  1  0.51960000  0.03900000  0.87000000  1.0 0.1966741755
N  N79  1  0.51960000  0.03900000  0.63000000  1.0 0.1966741755
N  N80  1  0.51940000  0.48040000  0.63000000  1.0 0.1937960032
N  N81  1  0.96100000  0.48060000  0.63000000  1.0 0.1937960032
N  N82  1  0.48040000  0.96100000  0.13000000  1.0 0.1937960032
N  N83  1  0.48060000  0.51960000  0.13000000  1.0 0.1966741755
N  N84  1  0.03900000  0.51940000  0.13000000  1.0 0.1966741755
N  N85  1  0.08000000  0.40420000  0.30690000  1.0 -0.2918010727
N  N86  1  0.59580000  0.67580000  0.30690000  1.0 -0.2918010727
N  N87  1  0.32420000  0.92000000  0.30690000  1.0 -0.2918010727
N  N88  1  0.92000000  0.59580000  0.80690000  1.0 -0.2918010727
N  N89  1  0.40420000  0.32420000  0.80690000  1.0 -0.2918010727
N  N90  1  0.67580000  0.08000000  0.80690000  1.0 -0.2918010727
N  N91  1  0.40420000  0.08000000  0.69310000  1.0 -0.2918010727
N  N92  1  0.67580000  0.59580000  0.69310000  1.0 -0.2918010727
N  N93  1  0.92000000  0.32420000  0.69310000  1.0 -0.2918010727
N  N94  1  0.59580000  0.92000000  0.19310000  1.0 -0.2918010727
N  N95  1  0.32420000  0.40420000  0.19310000  1.0 -0.2918010727
N  N96  1  0.08000000  0.67580000  0.19310000  1.0 -0.2918010727
N  N97  1  0.92000000  0.59580000  0.69310000  1.0 -0.2918010727
N  N98  1  0.40420000  0.32420000  0.69310000  1.0 -0.2918010727
N  N99  1  0.67580000  0.08000000  0.69310000  1.0 -0.2918010727
N  N100  1  0.08000000  0.40420000  0.19310000  1.0 -0.2918010727
N  N101  1  0.59580000  0.67580000  0.19310000  1.0 -0.2918010727
N  N102  1  0.32420000  0.92000000  0.19310000  1.0 -0.2918010727
N  N103  1  0.59580000  0.92000000  0.30690000  1.0 -0.2918010727
N  N104  1  0.32420000  0.40420000  0.30690000  1.0 -0.2918010727
N  N105  1  0.08000000  0.67580000  0.30690000  1.0 -0.2918010727
N  N106  1  0.40420000  0.08000000  0.80690000  1.0 -0.2918010727
N  N107  1  0.67580000  0.59580000  0.80690000  1.0 -0.2918010727
N  N108  1  0.92000000  0.32420000  0.80690000  1.0 -0.2918010727
N  N109  1  0.16200000  0.48660000  0.25000000  1.0 0.3232621613
N  N110  1  0.51340000  0.67540000  0.25000000  1.0 0.3232621613
N  N111  1  0.32460000  0.83800000  0.25000000  1.0 0.3232621613
N  N112  1  0.83800000  0.51340000  0.75000000  1.0 0.3232621613
N  N113  1  0.48660000  0.32460000  0.75000000  1.0 0.3232621613
N  N114  1  0.67540000  0.16200000  0.75000000  1.0 0.3232621613
N  N115  1  0.48660000  0.16200000  0.75000000  1.0 0.3232621613
N  N116  1  0.67540000  0.51340000  0.75000000  1.0 0.3232621613
N  N117  1  0.83800000  0.32460000  0.75000000  1.0 0.3232621613
N  N118  1  0.51340000  0.83800000  0.25000000  1.0 0.3232621613
N  N119  1  0.32460000  0.48660000  0.25000000  1.0 0.3232621613
N  N120  1  0.16200000  0.67540000  0.25000000  1.0 0.3232621613
O  O1  1  0.00840000  0.54530000  0.36760000  1.0 -0.3335131581
O  O2  1  0.45470000  0.46310000  0.36760000  1.0 -0.3335131581
O  O3  1  0.53690000  0.99160000  0.36760000  1.0 -0.3335131581
O  O4  1  0.99160000  0.45470000  0.86760000  1.0 -0.3335131581
O  O5  1  0.54530000  0.53690000  0.86760000  1.0 -0.3335131581
O  O6  1  0.46310000  0.00840000  0.86760000  1.0 -0.3335131581
O  O7  1  0.54530000  0.00840000  0.63240000  1.0 -0.3335131581
O  O8  1  0.46310000  0.45470000  0.63240000  1.0 -0.3335131581
O  O9  1  0.99160000  0.53690000  0.63240000  1.0 -0.3335131581
O  O10  1  0.45470000  0.99160000  0.13240000  1.0 -0.3335131581
O  O11  1  0.53690000  0.54530000  0.13240000  1.0 -0.3335131581
O  O12  1  0.00840000  0.46310000  0.13240000  1.0 -0.3335131581
O  O13  1  0.99160000  0.45470000  0.63240000  1.0 -0.3335131581
O  O14  1  0.54530000  0.53690000  0.63240000  1.0 -0.3335131581
O  O15  1  0.46310000  0.00840000  0.63240000  1.0 -0.3335131581
O  O16  1  0.00840000  0.54530000  0.13240000  1.0 -0.3335131581
O  O17  1  0.45470000  0.46310000  0.13240000  1.0 -0.3335131581
O  O18  1  0.53690000  0.99160000  0.13240000  1.0 -0.3335131581
O  O19  1  0.45470000  0.99160000  0.36760000  1.0 -0.3335131581
O  O20  1  0.53690000  0.54530000  0.36760000  1.0 -0.3335131581
O  O21  1  0.00840000  0.46310000  0.36760000  1.0 -0.3335131581
O  O22  1  0.54530000  0.00840000  0.86760000  1.0 -0.3335131581
O  O23  1  0.46310000  0.45470000  0.86760000  1.0 -0.3335131581
O  O24  1  0.99160000  0.53690000  0.86760000  1.0 -0.3335131581
O  O25  1  0.18580000  0.50850000  0.30530000  1.0 -0.3382724602
O  O26  1  0.49150000  0.67730000  0.30530000  1.0 -0.3382724602
O  O27  1  0.32270000  0.81420000  0.30530000  1.0 -0.3382724602
O  O28  1  0.81420000  0.49150000  0.80530000  1.0 -0.3382724602
O  O29  1  0.50850000  0.32270000  0.80530000  1.0 -0.3382724602
O  O30  1  0.67730000  0.18580000  0.80530000  1.0 -0.3382724602
O  O31  1  0.50850000  0.18580000  0.69470000  1.0 -0.3382724602
O  O32  1  0.67730000  0.49150000  0.69470000  1.0 -0.3382724602
O  O33  1  0.81420000  0.32270000  0.69470000  1.0 -0.3382724602
O  O34  1  0.49150000  0.81420000  0.19470000  1.0 -0.3382724602
O  O35  1  0.32270000  0.50850000  0.19470000  1.0 -0.3382724602
O  O36  1  0.18580000  0.67730000  0.19470000  1.0 -0.3382724602
O  O37  1  0.81420000  0.49150000  0.69470000  1.0 -0.3382724602
O  O38  1  0.50850000  0.32270000  0.69470000  1.0 -0.3382724602
O  O39  1  0.67730000  0.18580000  0.69470000  1.0 -0.3382724602
O  O40  1  0.18580000  0.50850000  0.19470000  1.0 -0.3382724602
O  O41  1  0.49150000  0.67730000  0.19470000  1.0 -0.3382724602
O  O42  1  0.32270000  0.81420000  0.19470000  1.0 -0.3382724602
O  O43  1  0.49150000  0.81420000  0.30530000  1.0 -0.3382724602
O  O44  1  0.32270000  0.50850000  0.30530000  1.0 -0.3382724602
O  O45  1  0.18580000  0.67730000  0.30530000  1.0 -0.3382724602
O  O46  1  0.50850000  0.18580000  0.80530000  1.0 -0.3382724602
O  O47  1  0.67730000  0.49150000  0.80530000  1.0 -0.3382724602
O  O48  1  0.81420000  0.32270000  0.80530000  1.0 -0.3382724602
