# DDEC6 charges by PACMAN v1.1 (https://github.com/mtap-research/PACMAN-charge/)
data_YOZCAS_FSR_pacman
_symmetry_space_group_name_H-M   'P 1'
_cell_length_a   25.99290000
_cell_length_b   25.99290000
_cell_length_c   19.69970000
_cell_angle_alpha   90.00000000
_cell_angle_beta   90.00000000
_cell_angle_gamma   120.00000000
_symmetry_Int_Tables_number   1
_chemical_formula_structural   ZnH7C10Br2N5O2
_chemical_formula_sum   'Zn24 H168 C240 Br48 N120 O48'
_cell_volume   11526.56002266
_cell_formula_units_Z   24
loop_
 _symmetry_equiv_pos_site_id
 _symmetry_equiv_pos_as_xyz
  1  'x, y, z'
loop_
 _atom_site_type_symbol
 _atom_site_label
 _atom_site_symmetry_multiplicity
 _atom_site_fract_x
 _atom_site_fract_y
 _atom_site_fract_z
 _atom_site_occupancy
 _atom_site_charge
Zn  Zn1  1  0.10178000  0.43387000  0.40287000  1.0 0.6776558979
Zn  Zn2  1  0.56613000  0.66791000  0.40287000  1.0 0.6776558979
Zn  Zn3  1  0.33209000  0.89822000  0.40287000  1.0 0.6776558979
Zn  Zn4  1  0.89822000  0.56613000  0.90287000  1.0 0.6776558979
Zn  Zn5  1  0.43387000  0.33209000  0.90287000  1.0 0.6776558979
Zn  Zn6  1  0.66791000  0.10178000  0.90287000  1.0 0.6776558979
Zn  Zn7  1  0.43387000  0.10178000  0.59713000  1.0 0.6776558979
Zn  Zn8  1  0.66791000  0.56613000  0.59713000  1.0 0.6776558979
Zn  Zn9  1  0.89822000  0.33209000  0.59713000  1.0 0.6776558979
Zn  Zn10  1  0.56613000  0.89822000  0.09713000  1.0 0.6776558979
Zn  Zn11  1  0.33209000  0.43387000  0.09713000  1.0 0.6776558979
Zn  Zn12  1  0.10178000  0.66791000  0.09713000  1.0 0.6776558979
Zn  Zn13  1  0.89822000  0.56613000  0.59713000  1.0 0.6776558979
Zn  Zn14  1  0.43387000  0.33209000  0.59713000  1.0 0.6776558979
Zn  Zn15  1  0.66791000  0.10178000  0.59713000  1.0 0.6776558979
Zn  Zn16  1  0.10178000  0.43387000  0.09713000  1.0 0.6776558979
Zn  Zn17  1  0.56613000  0.66791000  0.09713000  1.0 0.6776558979
Zn  Zn18  1  0.33209000  0.89822000  0.09713000  1.0 0.6776558979
Zn  Zn19  1  0.56613000  0.89822000  0.40287000  1.0 0.6776558979
Zn  Zn20  1  0.33209000  0.43387000  0.40287000  1.0 0.6776558979
Zn  Zn21  1  0.10178000  0.66791000  0.40287000  1.0 0.6776558979
Zn  Zn22  1  0.43387000  0.10178000  0.90287000  1.0 0.6776558979
Zn  Zn23  1  0.66791000  0.56613000  0.90287000  1.0 0.6776558979
Zn  Zn24  1  0.89822000  0.33209000  0.90287000  1.0 0.6776558979
H  H1  1  0.21755000  0.43510000  0.35430000  1.0 0.0999854447
H  H2  1  0.56490000  0.78245000  0.35430000  1.0 0.0999854447
H  H3  1  0.21755000  0.78245000  0.35430000  1.0 0.0999854447
H  H4  1  0.78245000  0.56490000  0.85430000  1.0 0.0999854447
H  H5  1  0.43510000  0.21755000  0.85430000  1.0 0.0999854447
H  H6  1  0.78245000  0.21755000  0.85430000  1.0 0.0999854447
H  H7  1  0.43510000  0.21755000  0.64570000  1.0 0.0999854447
H  H8  1  0.78245000  0.56490000  0.64570000  1.0 0.0999854447
H  H9  1  0.78245000  0.21755000  0.64570000  1.0 0.0999854447
H  H10  1  0.56490000  0.78245000  0.14570000  1.0 0.0999854447
H  H11  1  0.21755000  0.43510000  0.14570000  1.0 0.0999854447
H  H12  1  0.21755000  0.78245000  0.14570000  1.0 0.0999854447
H  H13  1  0.12260000  0.42830000  0.56690000  1.0 0.1297069211
H  H14  1  0.57170000  0.69430000  0.56690000  1.0 0.1297069211
H  H15  1  0.30570000  0.87740000  0.56690000  1.0 0.1297069211
H  H16  1  0.87740000  0.57170000  0.06690000  1.0 0.1297069211
H  H17  1  0.42830000  0.30570000  0.06690000  1.0 0.1297069211
H  H18  1  0.69430000  0.12260000  0.06690000  1.0 0.1297069211
H  H19  1  0.42830000  0.12260000  0.43310000  1.0 0.1297069211
H  H20  1  0.69430000  0.57170000  0.43310000  1.0 0.1297069211
H  H21  1  0.87740000  0.30570000  0.43310000  1.0 0.1297069211
H  H22  1  0.57170000  0.87740000  0.93310000  1.0 0.1297069211
H  H23  1  0.30570000  0.42830000  0.93310000  1.0 0.1297069211
H  H24  1  0.12260000  0.69430000  0.93310000  1.0 0.1297069211
H  H25  1  0.87740000  0.57170000  0.43310000  1.0 0.1297069211
H  H26  1  0.42830000  0.30570000  0.43310000  1.0 0.1297069211
H  H27  1  0.69430000  0.12260000  0.43310000  1.0 0.1297069211
H  H28  1  0.12260000  0.42830000  0.93310000  1.0 0.1297069211
H  H29  1  0.57170000  0.69430000  0.93310000  1.0 0.1297069211
H  H30  1  0.30570000  0.87740000  0.93310000  1.0 0.1297069211
H  H31  1  0.57170000  0.87740000  0.56690000  1.0 0.1297069211
H  H32  1  0.30570000  0.42830000  0.56690000  1.0 0.1297069211
H  H33  1  0.12260000  0.69430000  0.56690000  1.0 0.1297069211
H  H34  1  0.42830000  0.12260000  0.06690000  1.0 0.1297069211
H  H35  1  0.69430000  0.57170000  0.06690000  1.0 0.1297069211
H  H36  1  0.87740000  0.30570000  0.06690000  1.0 0.1297069211
H  H37  1  0.00500000  0.32670000  0.31220000  1.0 0.1297069211
H  H38  1  0.67330000  0.67830000  0.31220000  1.0 0.1297069211
H  H39  1  0.32170000  0.99500000  0.31220000  1.0 0.1297069211
H  H40  1  0.99500000  0.67330000  0.81220000  1.0 0.1297069211
H  H41  1  0.32670000  0.32170000  0.81220000  1.0 0.1297069211
H  H42  1  0.67830000  0.00500000  0.81220000  1.0 0.1297069211
H  H43  1  0.32670000  0.00500000  0.68780000  1.0 0.1297069211
H  H44  1  0.67830000  0.67330000  0.68780000  1.0 0.1297069211
H  H45  1  0.99500000  0.32170000  0.68780000  1.0 0.1297069211
H  H46  1  0.67330000  0.99500000  0.18780000  1.0 0.1297069211
H  H47  1  0.32170000  0.32670000  0.18780000  1.0 0.1297069211
H  H48  1  0.00500000  0.67830000  0.18780000  1.0 0.1297069211
H  H49  1  0.99500000  0.67330000  0.68780000  1.0 0.1297069211
H  H50  1  0.32670000  0.32170000  0.68780000  1.0 0.1297069211
H  H51  1  0.67830000  0.00500000  0.68780000  1.0 0.1297069211
H  H52  1  0.00500000  0.32670000  0.18780000  1.0 0.1297069211
H  H53  1  0.67330000  0.67830000  0.18780000  1.0 0.1297069211
H  H54  1  0.32170000  0.99500000  0.18780000  1.0 0.1297069211
H  H55  1  0.67330000  0.99500000  0.31220000  1.0 0.1297069211
H  H56  1  0.32170000  0.32670000  0.31220000  1.0 0.1297069211
H  H57  1  0.00500000  0.67830000  0.31220000  1.0 0.1297069211
H  H58  1  0.32670000  0.00500000  0.81220000  1.0 0.1297069211
H  H59  1  0.67830000  0.67330000  0.81220000  1.0 0.1297069211
H  H60  1  0.99500000  0.32170000  0.81220000  1.0 0.1297069211
H  H61  1  0.00000000  0.42040000  0.50000000  1.0 0.1095765306
H  H62  1  0.57960000  0.57960000  0.50000000  1.0 0.1095765306
H  H63  1  0.42040000  0.00000000  0.50000000  1.0 0.1095765306
H  H64  1  0.00000000  0.57960000  0.00000000  1.0 0.1095765306
H  H65  1  0.42040000  0.42040000  0.00000000  1.0 0.1095765306
H  H66  1  0.57960000  0.00000000  0.00000000  1.0 0.1095765306
H  H67  1  0.00000000  0.57960000  0.50000000  1.0 0.1095765306
H  H68  1  0.42040000  0.42040000  0.50000000  1.0 0.1095765306
H  H69  1  0.57960000  0.00000000  0.50000000  1.0 0.1095765306
H  H70  1  0.00000000  0.42040000  0.00000000  1.0 0.1095765306
H  H71  1  0.57960000  0.57960000  0.00000000  1.0 0.1095765306
H  H72  1  0.42040000  0.00000000  0.00000000  1.0 0.1095765306
H  H73  1  0.07810000  0.29900000  0.41480000  1.0 0.1365533606
H  H74  1  0.70100000  0.77910000  0.41480000  1.0 0.1365533606
H  H75  1  0.22090000  0.92190000  0.41480000  1.0 0.1365533606
H  H76  1  0.92190000  0.70100000  0.91480000  1.0 0.1365533606
H  H77  1  0.29900000  0.22090000  0.91480000  1.0 0.1365533606
H  H78  1  0.77910000  0.07810000  0.91480000  1.0 0.1365533606
H  H79  1  0.29900000  0.07810000  0.58520000  1.0 0.1365533606
H  H80  1  0.77910000  0.70100000  0.58520000  1.0 0.1365533606
H  H81  1  0.92190000  0.22090000  0.58520000  1.0 0.1365533606
H  H82  1  0.70100000  0.92190000  0.08520000  1.0 0.1365533606
H  H83  1  0.22090000  0.29900000  0.08520000  1.0 0.1365533606
H  H84  1  0.07810000  0.77910000  0.08520000  1.0 0.1365533606
H  H85  1  0.92190000  0.70100000  0.58520000  1.0 0.1365533606
H  H86  1  0.29900000  0.22090000  0.58520000  1.0 0.1365533606
H  H87  1  0.77910000  0.07810000  0.58520000  1.0 0.1365533606
H  H88  1  0.07810000  0.29900000  0.08520000  1.0 0.1365533606
H  H89  1  0.70100000  0.77910000  0.08520000  1.0 0.1365533606
H  H90  1  0.22090000  0.92190000  0.08520000  1.0 0.1365533606
H  H91  1  0.70100000  0.92190000  0.41480000  1.0 0.1365533606
H  H92  1  0.22090000  0.29900000  0.41480000  1.0 0.1365533606
H  H93  1  0.07810000  0.77910000  0.41480000  1.0 0.1365533606
H  H94  1  0.29900000  0.07810000  0.91480000  1.0 0.1365533606
H  H95  1  0.77910000  0.70100000  0.91480000  1.0 0.1365533606
H  H96  1  0.92190000  0.22090000  0.91480000  1.0 0.1365533606
H  H97  1  0.19410000  0.54640000  0.48210000  1.0 0.1297069211
H  H98  1  0.45360000  0.64770000  0.48210000  1.0 0.1297069211
H  H99  1  0.35230000  0.80590000  0.48210000  1.0 0.1297069211
H  H100  1  0.80590000  0.45360000  0.98210000  1.0 0.1297069211
H  H101  1  0.54640000  0.35230000  0.98210000  1.0 0.1297069211
H  H102  1  0.64770000  0.19410000  0.98210000  1.0 0.1297069211
H  H103  1  0.54640000  0.19410000  0.51790000  1.0 0.1297069211
H  H104  1  0.64770000  0.45360000  0.51790000  1.0 0.1297069211
H  H105  1  0.80590000  0.35230000  0.51790000  1.0 0.1297069211
H  H106  1  0.45360000  0.80590000  0.01790000  1.0 0.1297069211
H  H107  1  0.35230000  0.54640000  0.01790000  1.0 0.1297069211
H  H108  1  0.19410000  0.64770000  0.01790000  1.0 0.1297069211
H  H109  1  0.80590000  0.45360000  0.51790000  1.0 0.1297069211
H  H110  1  0.54640000  0.35230000  0.51790000  1.0 0.1297069211
H  H111  1  0.64770000  0.19410000  0.51790000  1.0 0.1297069211
H  H112  1  0.19410000  0.54640000  0.01790000  1.0 0.1297069211
H  H113  1  0.45360000  0.64770000  0.01790000  1.0 0.1297069211
H  H114  1  0.35230000  0.80590000  0.01790000  1.0 0.1297069211
H  H115  1  0.45360000  0.80590000  0.48210000  1.0 0.1297069211
H  H116  1  0.35230000  0.54640000  0.48210000  1.0 0.1297069211
H  H117  1  0.19410000  0.64770000  0.48210000  1.0 0.1297069211
H  H118  1  0.54640000  0.19410000  0.98210000  1.0 0.1297069211
H  H119  1  0.64770000  0.45360000  0.98210000  1.0 0.1297069211
H  H120  1  0.80590000  0.35230000  0.98210000  1.0 0.1297069211
H  H121  1  0.16540000  0.41390000  0.66290000  1.0 0.1365533606
H  H122  1  0.58610000  0.75150000  0.66290000  1.0 0.1365533606
H  H123  1  0.24850000  0.83460000  0.66290000  1.0 0.1365533606
H  H124  1  0.83460000  0.58610000  0.16290000  1.0 0.1365533606
H  H125  1  0.41390000  0.24850000  0.16290000  1.0 0.1365533606
H  H126  1  0.75150000  0.16540000  0.16290000  1.0 0.1365533606
H  H127  1  0.41390000  0.16540000  0.33710000  1.0 0.1365533606
H  H128  1  0.75150000  0.58610000  0.33710000  1.0 0.1365533606
H  H129  1  0.83460000  0.24850000  0.33710000  1.0 0.1365533606
H  H130  1  0.58610000  0.83460000  0.83710000  1.0 0.1365533606
H  H131  1  0.24850000  0.41390000  0.83710000  1.0 0.1365533606
H  H132  1  0.16540000  0.75150000  0.83710000  1.0 0.1365533606
H  H133  1  0.83460000  0.58610000  0.33710000  1.0 0.1365533606
H  H134  1  0.41390000  0.24850000  0.33710000  1.0 0.1365533606
H  H135  1  0.75150000  0.16540000  0.33710000  1.0 0.1365533606
H  H136  1  0.16540000  0.41390000  0.83710000  1.0 0.1365533606
H  H137  1  0.58610000  0.75150000  0.83710000  1.0 0.1365533606
H  H138  1  0.24850000  0.83460000  0.83710000  1.0 0.1365533606
H  H139  1  0.58610000  0.83460000  0.66290000  1.0 0.1365533606
H  H140  1  0.24850000  0.41390000  0.66290000  1.0 0.1365533606
H  H141  1  0.16540000  0.75150000  0.66290000  1.0 0.1365533606
H  H142  1  0.41390000  0.16540000  0.16290000  1.0 0.1365533606
H  H143  1  0.75150000  0.58610000  0.16290000  1.0 0.1365533606
H  H144  1  0.83460000  0.24850000  0.16290000  1.0 0.1365533606
H  H145  1  0.01810000  0.19540000  0.44410000  1.0 0.1503219097
H  H146  1  0.80460000  0.82270000  0.44410000  1.0 0.1503219097
H  H147  1  0.17730000  0.98190000  0.44410000  1.0 0.1503219097
H  H148  1  0.98190000  0.80460000  0.94410000  1.0 0.1503219097
H  H149  1  0.19540000  0.17730000  0.94410000  1.0 0.1503219097
H  H150  1  0.82270000  0.01810000  0.94410000  1.0 0.1503219097
H  H151  1  0.19540000  0.01810000  0.55590000  1.0 0.1503219097
H  H152  1  0.82270000  0.80460000  0.55590000  1.0 0.1503219097
H  H153  1  0.98190000  0.17730000  0.55590000  1.0 0.1503219097
H  H154  1  0.80460000  0.98190000  0.05590000  1.0 0.1503219097
H  H155  1  0.17730000  0.19540000  0.05590000  1.0 0.1503219097
H  H156  1  0.01810000  0.82270000  0.05590000  1.0 0.1503219097
H  H157  1  0.98190000  0.80460000  0.55590000  1.0 0.1503219097
H  H158  1  0.19540000  0.17730000  0.55590000  1.0 0.1503219097
H  H159  1  0.82270000  0.01810000  0.55590000  1.0 0.1503219097
H  H160  1  0.01810000  0.19540000  0.05590000  1.0 0.1503219097
H  H161  1  0.80460000  0.82270000  0.05590000  1.0 0.1503219097
H  H162  1  0.17730000  0.98190000  0.05590000  1.0 0.1503219097
H  H163  1  0.80460000  0.98190000  0.44410000  1.0 0.1503219097
H  H164  1  0.17730000  0.19540000  0.44410000  1.0 0.1503219097
H  H165  1  0.01810000  0.82270000  0.44410000  1.0 0.1503219097
H  H166  1  0.19540000  0.01810000  0.94410000  1.0 0.1503219097
H  H167  1  0.82270000  0.80460000  0.94410000  1.0 0.1503219097
H  H168  1  0.98190000  0.17730000  0.94410000  1.0 0.1503219097
C  C1  1  0.21625000  0.43250000  0.40140000  1.0 0.1739132527
C  C2  1  0.56750000  0.78375000  0.40140000  1.0 0.1739132527
C  C3  1  0.21625000  0.78375000  0.40140000  1.0 0.1739132527
C  C4  1  0.78375000  0.56750000  0.90140000  1.0 0.1739132527
C  C5  1  0.43250000  0.21625000  0.90140000  1.0 0.1739132527
C  C6  1  0.78375000  0.21625000  0.90140000  1.0 0.1739132527
C  C7  1  0.43250000  0.21625000  0.59860000  1.0 0.1739132527
C  C8  1  0.78375000  0.56750000  0.59860000  1.0 0.1739132527
C  C9  1  0.78375000  0.21625000  0.59860000  1.0 0.1739132527
C  C10  1  0.56750000  0.78375000  0.09860000  1.0 0.1739132527
C  C11  1  0.21625000  0.43250000  0.09860000  1.0 0.1739132527
C  C12  1  0.21625000  0.78375000  0.09860000  1.0 0.1739132527
C  C13  1  0.18800000  0.42790000  0.50200000  1.0 0.1297069211
C  C14  1  0.57210000  0.76010000  0.50200000  1.0 0.1297069211
C  C15  1  0.23990000  0.81200000  0.50200000  1.0 0.1297069211
C  C16  1  0.81200000  0.57210000  0.00200000  1.0 0.1297069211
C  C17  1  0.42790000  0.23990000  0.00200000  1.0 0.1297069211
C  C18  1  0.76010000  0.18800000  0.00200000  1.0 0.1297069211
C  C19  1  0.42790000  0.18800000  0.49800000  1.0 0.1297069211
C  C20  1  0.76010000  0.57210000  0.49800000  1.0 0.1297069211
C  C21  1  0.81200000  0.23990000  0.49800000  1.0 0.1297069211
C  C22  1  0.57210000  0.81200000  0.99800000  1.0 0.1297069211
C  C23  1  0.23990000  0.42790000  0.99800000  1.0 0.1297069211
C  C24  1  0.18800000  0.76010000  0.99800000  1.0 0.1297069211
C  C25  1  0.81200000  0.57210000  0.49800000  1.0 0.1297069211
C  C26  1  0.42790000  0.23990000  0.49800000  1.0 0.1297069211
C  C27  1  0.76010000  0.18800000  0.49800000  1.0 0.1297069211
C  C28  1  0.18800000  0.42790000  0.99800000  1.0 0.1297069211
C  C29  1  0.57210000  0.76010000  0.99800000  1.0 0.1297069211
C  C30  1  0.23990000  0.81200000  0.99800000  1.0 0.1297069211
C  C31  1  0.57210000  0.81200000  0.50200000  1.0 0.1297069211
C  C32  1  0.23990000  0.42790000  0.50200000  1.0 0.1297069211
C  C33  1  0.18800000  0.76010000  0.50200000  1.0 0.1297069211
C  C34  1  0.42790000  0.18800000  0.00200000  1.0 0.1297069211
C  C35  1  0.76010000  0.57210000  0.00200000  1.0 0.1297069211
C  C36  1  0.81200000  0.23990000  0.00200000  1.0 0.1297069211
C  C37  1  0.15690000  0.42550000  0.56520000  1.0 -0.1848082172
C  C38  1  0.57450000  0.73140000  0.56520000  1.0 -0.1848082172
C  C39  1  0.26860000  0.84310000  0.56520000  1.0 -0.1852945762
C  C40  1  0.84310000  0.57450000  0.06520000  1.0 -0.1848082172
C  C41  1  0.42550000  0.26860000  0.06520000  1.0 -0.1848082172
C  C42  1  0.73140000  0.15690000  0.06520000  1.0 -0.1852945762
C  C43  1  0.42550000  0.15690000  0.43480000  1.0 -0.1852945762
C  C44  1  0.73140000  0.57450000  0.43480000  1.0 -0.1848082172
C  C45  1  0.84310000  0.26860000  0.43480000  1.0 -0.1848082172
C  C46  1  0.57450000  0.84310000  0.93480000  1.0 -0.1852945762
C  C47  1  0.26860000  0.42550000  0.93480000  1.0 -0.1852945762
C  C48  1  0.15690000  0.73140000  0.93480000  1.0 -0.1852945762
C  C49  1  0.84310000  0.57450000  0.43480000  1.0 -0.1848082172
C  C50  1  0.42550000  0.26860000  0.43480000  1.0 -0.1848082172
C  C51  1  0.73140000  0.15690000  0.43480000  1.0 -0.1852945762
C  C52  1  0.15690000  0.42550000  0.93480000  1.0 -0.1852945762
C  C53  1  0.57450000  0.73140000  0.93480000  1.0 -0.1852945762
C  C54  1  0.26860000  0.84310000  0.93480000  1.0 -0.1852945762
C  C55  1  0.57450000  0.84310000  0.56520000  1.0 -0.1852945762
C  C56  1  0.26860000  0.42550000  0.56520000  1.0 -0.1848082172
C  C57  1  0.15690000  0.73140000  0.56520000  1.0 -0.1848082172
C  C58  1  0.42550000  0.15690000  0.06520000  1.0 -0.1852945762
C  C59  1  0.73140000  0.57450000  0.06520000  1.0 -0.1848082172
C  C60  1  0.84310000  0.26860000  0.06520000  1.0 -0.1852945762
C  C61  1  0.18430000  0.41880000  0.62130000  1.0 -0.1003831397
C  C62  1  0.58120000  0.76550000  0.62130000  1.0 -0.1003831397
C  C63  1  0.23450000  0.81570000  0.62130000  1.0 -0.1003831397
C  C64  1  0.81570000  0.58120000  0.12130000  1.0 -0.1003831397
C  C65  1  0.41880000  0.23450000  0.12130000  1.0 -0.1003831397
C  C66  1  0.76550000  0.18430000  0.12130000  1.0 -0.1003831397
C  C67  1  0.41880000  0.18430000  0.37870000  1.0 -0.1003831397
C  C68  1  0.76550000  0.58120000  0.37870000  1.0 -0.1003831397
C  C69  1  0.81570000  0.23450000  0.37870000  1.0 -0.1003831397
C  C70  1  0.58120000  0.81570000  0.87870000  1.0 -0.1003831397
C  C71  1  0.23450000  0.41880000  0.87870000  1.0 -0.1003831397
C  C72  1  0.18430000  0.76550000  0.87870000  1.0 -0.1003831397
C  C73  1  0.81570000  0.58120000  0.37870000  1.0 -0.1003831397
C  C74  1  0.41880000  0.23450000  0.37870000  1.0 -0.1003831397
C  C75  1  0.76550000  0.18430000  0.37870000  1.0 -0.1003831397
C  C76  1  0.18430000  0.41880000  0.87870000  1.0 -0.1003831397
C  C77  1  0.58120000  0.76550000  0.87870000  1.0 -0.1003831397
C  C78  1  0.23450000  0.81570000  0.87870000  1.0 -0.1003831397
C  C79  1  0.58120000  0.81570000  0.62130000  1.0 -0.1003831397
C  C80  1  0.23450000  0.41880000  0.62130000  1.0 -0.1003831397
C  C81  1  0.18430000  0.76550000  0.62130000  1.0 -0.1003831397
C  C82  1  0.41880000  0.18430000  0.12130000  1.0 -0.1003831397
C  C83  1  0.76550000  0.58120000  0.12130000  1.0 -0.1003831397
C  C84  1  0.81570000  0.23450000  0.12130000  1.0 -0.1003831397
C  C85  1  0.10920000  0.43180000  0.25000000  1.0 0.2701717787
C  C86  1  0.56820000  0.67740000  0.25000000  1.0 0.2701717787
C  C87  1  0.32260000  0.89080000  0.25000000  1.0 0.2701717787
C  C88  1  0.89080000  0.56820000  0.75000000  1.0 0.2701717787
C  C89  1  0.43180000  0.32260000  0.75000000  1.0 0.2701717787
C  C90  1  0.67740000  0.10920000  0.75000000  1.0 0.2701717787
C  C91  1  0.43180000  0.10920000  0.75000000  1.0 0.2701717787
C  C92  1  0.67740000  0.56820000  0.75000000  1.0 0.2701717787
C  C93  1  0.89080000  0.32260000  0.75000000  1.0 0.2701717787
C  C94  1  0.56820000  0.89080000  0.25000000  1.0 0.2701717787
C  C95  1  0.32260000  0.43180000  0.25000000  1.0 0.2701717787
C  C96  1  0.10920000  0.67740000  0.25000000  1.0 0.2701717787
C  C97  1  0.03370000  0.35640000  0.28510000  1.0 0.0056264065
C  C98  1  0.64360000  0.67730000  0.28510000  1.0 0.0056264065
C  C99  1  0.32270000  0.96630000  0.28510000  1.0 0.0056264065
C  C100  1  0.96630000  0.64360000  0.78510000  1.0 0.0056264065
C  C101  1  0.35640000  0.32270000  0.78510000  1.0 0.0056264065
C  C102  1  0.67730000  0.03370000  0.78510000  1.0 0.0056264065
C  C103  1  0.35640000  0.03370000  0.71490000  1.0 0.0056264065
C  C104  1  0.67730000  0.64360000  0.71490000  1.0 0.0056264065
C  C105  1  0.96630000  0.32270000  0.71490000  1.0 0.0056264065
C  C106  1  0.64360000  0.96630000  0.21490000  1.0 0.0056264065
C  C107  1  0.32270000  0.35640000  0.21490000  1.0 0.0056264065
C  C108  1  0.03370000  0.67730000  0.21490000  1.0 0.0056264065
C  C109  1  0.96630000  0.64360000  0.71490000  1.0 0.0056264065
C  C110  1  0.35640000  0.32270000  0.71490000  1.0 0.0056264065
C  C111  1  0.67730000  0.03370000  0.71490000  1.0 0.0056264065
C  C112  1  0.03370000  0.35640000  0.21490000  1.0 0.0056264065
C  C113  1  0.64360000  0.67730000  0.21490000  1.0 0.0056264065
C  C114  1  0.32270000  0.96630000  0.21490000  1.0 0.0056264065
C  C115  1  0.64360000  0.96630000  0.28510000  1.0 0.0056264065
C  C116  1  0.32270000  0.35640000  0.28510000  1.0 0.0056264065
C  C117  1  0.03370000  0.67730000  0.28510000  1.0 0.0056264065
C  C118  1  0.35640000  0.03370000  0.78510000  1.0 0.0056264065
C  C119  1  0.67730000  0.64360000  0.78510000  1.0 0.0056264065
C  C120  1  0.96630000  0.32270000  0.78510000  1.0 0.0056264065
C  C121  1  0.00000000  0.38460000  0.50000000  1.0 0.1365533606
C  C122  1  0.61540000  0.61540000  0.50000000  1.0 0.1365533606
C  C123  1  0.38460000  0.00000000  0.50000000  1.0 0.1365533606
C  C124  1  0.00000000  0.61540000  0.00000000  1.0 0.1365533606
C  C125  1  0.38460000  0.38460000  0.00000000  1.0 0.1365533606
C  C126  1  0.61540000  0.00000000  0.00000000  1.0 0.1365533606
C  C127  1  0.00000000  0.61540000  0.50000000  1.0 0.1365533606
C  C128  1  0.38460000  0.38460000  0.50000000  1.0 0.1365533606
C  C129  1  0.61540000  0.00000000  0.50000000  1.0 0.1365533606
C  C130  1  0.00000000  0.38460000  0.00000000  1.0 0.1365533606
C  C131  1  0.61540000  0.61540000  0.00000000  1.0 0.1365533606
C  C132  1  0.38460000  0.00000000  0.00000000  1.0 0.1365533606
C  C133  1  0.02160000  0.31640000  0.47390000  1.0 0.1503219097
C  C134  1  0.68360000  0.70520000  0.47390000  1.0 0.1503219097
C  C135  1  0.29480000  0.97840000  0.47390000  1.0 0.1503219097
C  C136  1  0.97840000  0.68360000  0.97390000  1.0 0.1503219097
C  C137  1  0.31640000  0.29480000  0.97390000  1.0 0.1503219097
C  C138  1  0.70520000  0.02160000  0.97390000  1.0 0.1503219097
C  C139  1  0.31640000  0.02160000  0.52610000  1.0 0.1503219097
C  C140  1  0.70520000  0.68360000  0.52610000  1.0 0.1503219097
C  C141  1  0.97840000  0.29480000  0.52610000  1.0 0.1503219097
C  C142  1  0.68360000  0.97840000  0.02610000  1.0 0.1503219097
C  C143  1  0.29480000  0.31640000  0.02610000  1.0 0.1503219097
C  C144  1  0.02160000  0.70520000  0.02610000  1.0 0.1503219097
C  C145  1  0.97840000  0.68360000  0.52610000  1.0 0.1503219097
C  C146  1  0.31640000  0.29480000  0.52610000  1.0 0.1503219097
C  C147  1  0.70520000  0.02160000  0.52610000  1.0 0.1503219097
C  C148  1  0.02160000  0.31640000  0.02610000  1.0 0.1503219097
C  C149  1  0.68360000  0.70520000  0.02610000  1.0 0.1503219097
C  C150  1  0.29480000  0.97840000  0.02610000  1.0 0.1503219097
C  C151  1  0.68360000  0.97840000  0.47390000  1.0 0.1503219097
C  C152  1  0.29480000  0.31640000  0.47390000  1.0 0.1503219097
C  C153  1  0.02160000  0.70520000  0.47390000  1.0 0.1503219097
C  C154  1  0.31640000  0.02160000  0.97390000  1.0 0.1503219097
C  C155  1  0.70520000  0.68360000  0.97390000  1.0 0.1503219097
C  C156  1  0.97840000  0.29480000  0.97390000  1.0 0.1503219097
C  C157  1  0.04650000  0.28370000  0.44520000  1.0 -0.2231176441
C  C158  1  0.71630000  0.76280000  0.44520000  1.0 -0.2231176441
C  C159  1  0.23720000  0.95350000  0.44520000  1.0 -0.2231176441
C  C160  1  0.95350000  0.71630000  0.94520000  1.0 -0.2231176441
C  C161  1  0.28370000  0.23720000  0.94520000  1.0 -0.2231176441
C  C162  1  0.76280000  0.04650000  0.94520000  1.0 -0.2231176441
C  C163  1  0.28370000  0.04650000  0.55480000  1.0 -0.2231176441
C  C164  1  0.76280000  0.71630000  0.55480000  1.0 -0.2231176441
C  C165  1  0.95350000  0.23720000  0.55480000  1.0 -0.2231176441
C  C166  1  0.71630000  0.95350000  0.05480000  1.0 -0.2231176441
C  C167  1  0.23720000  0.28370000  0.05480000  1.0 -0.2231176441
C  C168  1  0.04650000  0.76280000  0.05480000  1.0 -0.2231176441
C  C169  1  0.95350000  0.71630000  0.55480000  1.0 -0.2231176441
C  C170  1  0.28370000  0.23720000  0.55480000  1.0 -0.2231176441
C  C171  1  0.76280000  0.04650000  0.55480000  1.0 -0.2231176441
C  C172  1  0.04650000  0.28370000  0.05480000  1.0 -0.2231176441
C  C173  1  0.71630000  0.76280000  0.05480000  1.0 -0.2231176441
C  C174  1  0.23720000  0.95350000  0.05480000  1.0 -0.2231176441
C  C175  1  0.71630000  0.95350000  0.44520000  1.0 -0.2231176441
C  C176  1  0.23720000  0.28370000  0.44520000  1.0 -0.2231176441
C  C177  1  0.04650000  0.76280000  0.44520000  1.0 -0.2231176441
C  C178  1  0.28370000  0.04650000  0.94520000  1.0 -0.2231176441
C  C179  1  0.76280000  0.71630000  0.94520000  1.0 -0.2231176441
C  C180  1  0.95350000  0.23720000  0.94520000  1.0 -0.2231176441
C  C181  1  0.01630000  0.22470000  0.46940000  1.0 -0.0664200364
C  C182  1  0.77530000  0.79160000  0.46940000  1.0 -0.0664200364
C  C183  1  0.20840000  0.98370000  0.46940000  1.0 -0.0664200364
C  C184  1  0.98370000  0.77530000  0.96940000  1.0 -0.0664200364
C  C185  1  0.22470000  0.20840000  0.96940000  1.0 -0.0664200364
C  C186  1  0.79160000  0.01630000  0.96940000  1.0 -0.0664200364
C  C187  1  0.22470000  0.01630000  0.53060000  1.0 -0.0647055658
C  C188  1  0.79160000  0.77530000  0.53060000  1.0 -0.0664200364
C  C189  1  0.98370000  0.20840000  0.53060000  1.0 -0.0664200364
C  C190  1  0.77530000  0.98370000  0.03060000  1.0 -0.0664200364
C  C191  1  0.20840000  0.22470000  0.03060000  1.0 -0.0664200364
C  C192  1  0.01630000  0.79160000  0.03060000  1.0 -0.0664200364
C  C193  1  0.98370000  0.77530000  0.53060000  1.0 -0.0664200364
C  C194  1  0.22470000  0.20840000  0.53060000  1.0 -0.0664200364
C  C195  1  0.79160000  0.01630000  0.53060000  1.0 -0.0664200364
C  C196  1  0.01630000  0.22470000  0.03060000  1.0 -0.0664200364
C  C197  1  0.77530000  0.79160000  0.03060000  1.0 -0.0664200364
C  C198  1  0.20840000  0.98370000  0.03060000  1.0 -0.0664200364
C  C199  1  0.77530000  0.98370000  0.46940000  1.0 -0.0664200364
C  C200  1  0.20840000  0.22470000  0.46940000  1.0 -0.0664200364
C  C201  1  0.01630000  0.79160000  0.46940000  1.0 -0.0664200364
C  C202  1  0.22470000  0.01630000  0.96940000  1.0 -0.0664200364
C  C203  1  0.79160000  0.77530000  0.96940000  1.0 -0.0664200364
C  C204  1  0.98370000  0.20840000  0.96940000  1.0 -0.0664200364
C  C205  1  0.09100000  0.54550000  0.40730000  1.0 0.2820048702
C  C206  1  0.45450000  0.54550000  0.40730000  1.0 0.2820048702
C  C207  1  0.45450000  0.90900000  0.40730000  1.0 0.2820048702
C  C208  1  0.90900000  0.45450000  0.90730000  1.0 0.2820048702
C  C209  1  0.54550000  0.45450000  0.90730000  1.0 0.2820048702
C  C210  1  0.54550000  0.09100000  0.90730000  1.0 0.2820048702
C  C211  1  0.54550000  0.09100000  0.59270000  1.0 0.2820048702
C  C212  1  0.54550000  0.45450000  0.59270000  1.0 0.2820048702
C  C213  1  0.90900000  0.45450000  0.59270000  1.0 0.2820048702
C  C214  1  0.45450000  0.90900000  0.09270000  1.0 0.2820048702
C  C215  1  0.45450000  0.54550000  0.09270000  1.0 0.2820048702
C  C216  1  0.09100000  0.54550000  0.09270000  1.0 0.2820048702
C  C217  1  0.16610000  0.55410000  0.46240000  1.0 0.0156274865
C  C218  1  0.44590000  0.61200000  0.46240000  1.0 0.0156274865
C  C219  1  0.38800000  0.83390000  0.46240000  1.0 0.0156274865
C  C220  1  0.83390000  0.44590000  0.96240000  1.0 0.0156274865
C  C221  1  0.55410000  0.38800000  0.96240000  1.0 0.0156274865
C  C222  1  0.61200000  0.16610000  0.96240000  1.0 0.0156274865
C  C223  1  0.55410000  0.16610000  0.53760000  1.0 0.0156274865
C  C224  1  0.61200000  0.44590000  0.53760000  1.0 0.0156274865
C  C225  1  0.83390000  0.38800000  0.53760000  1.0 0.0156274865
C  C226  1  0.44590000  0.83390000  0.03760000  1.0 0.0156274865
C  C227  1  0.38800000  0.55410000  0.03760000  1.0 0.0156274865
C  C228  1  0.16610000  0.61200000  0.03760000  1.0 0.0156274865
C  C229  1  0.83390000  0.44590000  0.53760000  1.0 0.0156274865
C  C230  1  0.55410000  0.38800000  0.53760000  1.0 0.0156274865
C  C231  1  0.61200000  0.16610000  0.53760000  1.0 0.0156274865
C  C232  1  0.16610000  0.55410000  0.03760000  1.0 0.0156274865
C  C233  1  0.44590000  0.61200000  0.03760000  1.0 0.0156274865
C  C234  1  0.38800000  0.83390000  0.03760000  1.0 0.0156274865
C  C235  1  0.44590000  0.83390000  0.46240000  1.0 0.0156274865
C  C236  1  0.38800000  0.55410000  0.46240000  1.0 0.0156274865
C  C237  1  0.16610000  0.61200000  0.46240000  1.0 0.0156274865
C  C238  1  0.55410000  0.16610000  0.96240000  1.0 0.0156274865
C  C239  1  0.61200000  0.44590000  0.96240000  1.0 0.0156274865
C  C240  1  0.83390000  0.38800000  0.96240000  1.0 0.0156274865
Br  Br1  1  0.13240000  0.41600000  0.70110000  1.0 -0.0942222664
Br  Br2  1  0.58400000  0.71640000  0.70110000  1.0 -0.0942222664
Br  Br3  1  0.28360000  0.86760000  0.70110000  1.0 -0.0942222664
Br  Br4  1  0.86760000  0.58400000  0.20110000  1.0 -0.0942222664
Br  Br5  1  0.41600000  0.28360000  0.20110000  1.0 -0.0942222664
Br  Br6  1  0.71640000  0.13240000  0.20110000  1.0 -0.0942222664
Br  Br7  1  0.41600000  0.13240000  0.29890000  1.0 -0.0942222664
Br  Br8  1  0.71640000  0.58400000  0.29890000  1.0 -0.0942222664
Br  Br9  1  0.86760000  0.28360000  0.29890000  1.0 -0.0942222664
Br  Br10  1  0.58400000  0.86760000  0.79890000  1.0 -0.0942222664
Br  Br11  1  0.28360000  0.41600000  0.79890000  1.0 -0.0942222664
Br  Br12  1  0.13240000  0.71640000  0.79890000  1.0 -0.0942222664
Br  Br13  1  0.86760000  0.58400000  0.29890000  1.0 -0.0942222664
Br  Br14  1  0.41600000  0.28360000  0.29890000  1.0 -0.0942222664
Br  Br15  1  0.71640000  0.13240000  0.29890000  1.0 -0.0942222664
Br  Br16  1  0.13240000  0.41600000  0.79890000  1.0 -0.0942222664
Br  Br17  1  0.58400000  0.71640000  0.79890000  1.0 -0.0942222664
Br  Br18  1  0.28360000  0.86760000  0.79890000  1.0 -0.0942222664
Br  Br19  1  0.58400000  0.86760000  0.70110000  1.0 -0.0942222664
Br  Br20  1  0.28360000  0.41600000  0.70110000  1.0 -0.0942222664
Br  Br21  1  0.13240000  0.71640000  0.70110000  1.0 -0.0942222664
Br  Br22  1  0.41600000  0.13240000  0.20110000  1.0 -0.0942222664
Br  Br23  1  0.71640000  0.58400000  0.20110000  1.0 -0.0942222664
Br  Br24  1  0.86760000  0.28360000  0.20110000  1.0 -0.0942222664
Br  Br25  1  0.03710000  0.16840000  0.44590000  1.0 -0.1166230065
Br  Br26  1  0.83160000  0.86870000  0.44590000  1.0 -0.1166230065
Br  Br27  1  0.13130000  0.96290000  0.44590000  1.0 -0.1140212022
Br  Br28  1  0.96290000  0.83160000  0.94590000  1.0 -0.1166230065
Br  Br29  1  0.16840000  0.13130000  0.94590000  1.0 -0.1166230065
Br  Br30  1  0.86870000  0.03710000  0.94590000  1.0 -0.1166230065
Br  Br31  1  0.16840000  0.03710000  0.55410000  1.0 -0.1166230065
Br  Br32  1  0.86870000  0.83160000  0.55410000  1.0 -0.1166230065
Br  Br33  1  0.96290000  0.13130000  0.55410000  1.0 -0.1166230065
Br  Br34  1  0.83160000  0.96290000  0.05410000  1.0 -0.1140212022
Br  Br35  1  0.13130000  0.16840000  0.05410000  1.0 -0.1166230065
Br  Br36  1  0.03710000  0.86870000  0.05410000  1.0 -0.1140212022
Br  Br37  1  0.96290000  0.83160000  0.55410000  1.0 -0.1166230065
Br  Br38  1  0.16840000  0.13130000  0.55410000  1.0 -0.1166230065
Br  Br39  1  0.86870000  0.03710000  0.55410000  1.0 -0.1166230065
Br  Br40  1  0.03710000  0.16840000  0.05410000  1.0 -0.1140212022
Br  Br41  1  0.83160000  0.86870000  0.05410000  1.0 -0.1140212022
Br  Br42  1  0.13130000  0.96290000  0.05410000  1.0 -0.1140212022
Br  Br43  1  0.83160000  0.96290000  0.44590000  1.0 -0.1166230065
Br  Br44  1  0.13130000  0.16840000  0.44590000  1.0 -0.1166230065
Br  Br45  1  0.03710000  0.86870000  0.44590000  1.0 -0.1166230065
Br  Br46  1  0.16840000  0.03710000  0.94590000  1.0 -0.1166230065
Br  Br47  1  0.86870000  0.83160000  0.94590000  1.0 -0.1166230065
Br  Br48  1  0.96290000  0.13130000  0.94590000  1.0 -0.1166230065
N  N1  1  0.17160000  0.43050000  0.43590000  1.0 -0.3419013398
N  N2  1  0.56950000  0.74110000  0.43590000  1.0 -0.3419013398
N  N3  1  0.25890000  0.82840000  0.43590000  1.0 -0.3419013398
N  N4  1  0.82840000  0.56950000  0.93590000  1.0 -0.3419013398
N  N5  1  0.43050000  0.25890000  0.93590000  1.0 -0.3419013398
N  N6  1  0.74110000  0.17160000  0.93590000  1.0 -0.3419013398
N  N7  1  0.43050000  0.17160000  0.56410000  1.0 -0.3419013398
N  N8  1  0.74110000  0.56950000  0.56410000  1.0 -0.3419013398
N  N9  1  0.82840000  0.25890000  0.56410000  1.0 -0.3419013398
N  N10  1  0.56950000  0.82840000  0.06410000  1.0 -0.3419013398
N  N11  1  0.25890000  0.43050000  0.06410000  1.0 -0.3419013398
N  N12  1  0.17160000  0.74110000  0.06410000  1.0 -0.3419013398
N  N13  1  0.82840000  0.56950000  0.56410000  1.0 -0.3419013398
N  N14  1  0.43050000  0.25890000  0.56410000  1.0 -0.3419013398
N  N15  1  0.74110000  0.17160000  0.56410000  1.0 -0.3419013398
N  N16  1  0.17160000  0.43050000  0.06410000  1.0 -0.3419013398
N  N17  1  0.56950000  0.74110000  0.06410000  1.0 -0.3419013398
N  N18  1  0.25890000  0.82840000  0.06410000  1.0 -0.3419013398
N  N19  1  0.56950000  0.82840000  0.43590000  1.0 -0.3419013398
N  N20  1  0.25890000  0.43050000  0.43590000  1.0 -0.3419013398
N  N21  1  0.17160000  0.74110000  0.43590000  1.0 -0.3419013398
N  N22  1  0.43050000  0.17160000  0.93590000  1.0 -0.3419013398
N  N23  1  0.74110000  0.56950000  0.93590000  1.0 -0.3419013398
N  N24  1  0.82840000  0.25890000  0.93590000  1.0 -0.3419013398
N  N25  1  0.08220000  0.40650000  0.30830000  1.0 -0.3115526272
N  N26  1  0.59350000  0.67570000  0.30830000  1.0 -0.3115526272
N  N27  1  0.32430000  0.91780000  0.30830000  1.0 -0.3115526272
N  N28  1  0.91780000  0.59350000  0.80830000  1.0 -0.3115526272
N  N29  1  0.40650000  0.32430000  0.80830000  1.0 -0.3115526272
N  N30  1  0.67570000  0.08220000  0.80830000  1.0 -0.3115526272
N  N31  1  0.40650000  0.08220000  0.69170000  1.0 -0.3115526272
N  N32  1  0.67570000  0.59350000  0.69170000  1.0 -0.3115526272
N  N33  1  0.91780000  0.32430000  0.69170000  1.0 -0.3115526272
N  N34  1  0.59350000  0.91780000  0.19170000  1.0 -0.3115526272
N  N35  1  0.32430000  0.40650000  0.19170000  1.0 -0.3115526272
N  N36  1  0.08220000  0.67570000  0.19170000  1.0 -0.3115526272
N  N37  1  0.91780000  0.59350000  0.69170000  1.0 -0.3115526272
N  N38  1  0.40650000  0.32430000  0.69170000  1.0 -0.3115526272
N  N39  1  0.67570000  0.08220000  0.69170000  1.0 -0.3115526272
N  N40  1  0.08220000  0.40650000  0.19170000  1.0 -0.3115526272
N  N41  1  0.59350000  0.67570000  0.19170000  1.0 -0.3115526272
N  N42  1  0.32430000  0.91780000  0.19170000  1.0 -0.3115526272
N  N43  1  0.59350000  0.91780000  0.30830000  1.0 -0.3115526272
N  N44  1  0.32430000  0.40650000  0.30830000  1.0 -0.3115526272
N  N45  1  0.08220000  0.67570000  0.30830000  1.0 -0.3115526272
N  N46  1  0.40650000  0.08220000  0.80830000  1.0 -0.3115526272
N  N47  1  0.67570000  0.59350000  0.80830000  1.0 -0.3115526272
N  N48  1  0.91780000  0.32430000  0.80830000  1.0 -0.3115526272
N  N49  1  0.16350000  0.48730000  0.25000000  1.0 0.4633172972
N  N50  1  0.51270000  0.67620000  0.25000000  1.0 0.4633172972
N  N51  1  0.32380000  0.83650000  0.25000000  1.0 0.4633172972
N  N52  1  0.83650000  0.51270000  0.75000000  1.0 0.4633172972
N  N53  1  0.48730000  0.32380000  0.75000000  1.0 0.4633172972
N  N54  1  0.67620000  0.16350000  0.75000000  1.0 0.4633172972
N  N55  1  0.48730000  0.16350000  0.75000000  1.0 0.4633172972
N  N56  1  0.67620000  0.51270000  0.75000000  1.0 0.4633172972
N  N57  1  0.83650000  0.32380000  0.75000000  1.0 0.4633172972
N  N58  1  0.51270000  0.83650000  0.25000000  1.0 0.4633172972
N  N59  1  0.32380000  0.48730000  0.25000000  1.0 0.4633172972
N  N60  1  0.16350000  0.67620000  0.25000000  1.0 0.4633172972
N  N61  1  0.03650000  0.37440000  0.45790000  1.0 -0.367178023
N  N62  1  0.62560000  0.66210000  0.45790000  1.0 -0.367178023
N  N63  1  0.33790000  0.96350000  0.45790000  1.0 -0.367178023
N  N64  1  0.96350000  0.62560000  0.95790000  1.0 -0.367178023
N  N65  1  0.37440000  0.33790000  0.95790000  1.0 -0.367178023
N  N66  1  0.66210000  0.03650000  0.95790000  1.0 -0.367178023
N  N67  1  0.37440000  0.03650000  0.54210000  1.0 -0.367178023
N  N68  1  0.66210000  0.62560000  0.54210000  1.0 -0.367178023
N  N69  1  0.96350000  0.33790000  0.54210000  1.0 -0.367178023
N  N70  1  0.62560000  0.96350000  0.04210000  1.0 -0.367178023
N  N71  1  0.33790000  0.37440000  0.04210000  1.0 -0.367178023
N  N72  1  0.03650000  0.66210000  0.04210000  1.0 -0.367178023
N  N73  1  0.96350000  0.62560000  0.54210000  1.0 -0.367178023
N  N74  1  0.37440000  0.33790000  0.54210000  1.0 -0.367178023
N  N75  1  0.66210000  0.03650000  0.54210000  1.0 -0.367178023
N  N76  1  0.03650000  0.37440000  0.04210000  1.0 -0.367178023
N  N77  1  0.62560000  0.66210000  0.04210000  1.0 -0.367178023
N  N78  1  0.33790000  0.96350000  0.04210000  1.0 -0.367178023
N  N79  1  0.62560000  0.96350000  0.45790000  1.0 -0.367178023
N  N80  1  0.33790000  0.37440000  0.45790000  1.0 -0.367178023
N  N81  1  0.03650000  0.66210000  0.45790000  1.0 -0.367178023
N  N82  1  0.37440000  0.03650000  0.95790000  1.0 -0.367178023
N  N83  1  0.66210000  0.62560000  0.95790000  1.0 -0.367178023
N  N84  1  0.96350000  0.33790000  0.95790000  1.0 -0.367178023
N  N85  1  0.11440000  0.51380000  0.42620000  1.0 -0.3245661335
N  N86  1  0.48620000  0.60060000  0.42620000  1.0 -0.3245661335
N  N87  1  0.39940000  0.88560000  0.42620000  1.0 -0.3245661335
N  N88  1  0.88560000  0.48620000  0.92620000  1.0 -0.3277864521
N  N89  1  0.51380000  0.39940000  0.92620000  1.0 -0.3245661335
N  N90  1  0.60060000  0.11440000  0.92620000  1.0 -0.3277864521
N  N91  1  0.51380000  0.11440000  0.57380000  1.0 -0.3245661335
N  N92  1  0.60060000  0.48620000  0.57380000  1.0 -0.3245661335
N  N93  1  0.88560000  0.39940000  0.57380000  1.0 -0.3245661335
N  N94  1  0.48620000  0.88560000  0.07380000  1.0 -0.3245661335
N  N95  1  0.39940000  0.51380000  0.07380000  1.0 -0.3245661335
N  N96  1  0.11440000  0.60060000  0.07380000  1.0 -0.3245661335
N  N97  1  0.88560000  0.48620000  0.57380000  1.0 -0.3245661335
N  N98  1  0.51380000  0.39940000  0.57380000  1.0 -0.3245661335
N  N99  1  0.60060000  0.11440000  0.57380000  1.0 -0.3245661335
N  N100  1  0.11440000  0.51380000  0.07380000  1.0 -0.3245661335
N  N101  1  0.48620000  0.60060000  0.07380000  1.0 -0.3245661335
N  N102  1  0.39940000  0.88560000  0.07380000  1.0 -0.3245661335
N  N103  1  0.48620000  0.88560000  0.42620000  1.0 -0.3245661335
N  N104  1  0.39940000  0.51380000  0.42620000  1.0 -0.3245661335
N  N105  1  0.11440000  0.60060000  0.42620000  1.0 -0.3245661335
N  N106  1  0.51380000  0.11440000  0.92620000  1.0 -0.3277864521
N  N107  1  0.60060000  0.48620000  0.92620000  1.0 -0.3245661335
N  N108  1  0.88560000  0.39940000  0.92620000  1.0 -0.3245661335
N  N109  1  0.03920000  0.51960000  0.37270000  1.0 0.4124595595
N  N110  1  0.48040000  0.51960000  0.37270000  1.0 0.4124595595
N  N111  1  0.48040000  0.96080000  0.37270000  1.0 0.4124595595
N  N112  1  0.96080000  0.48040000  0.87270000  1.0 0.4124595595
N  N113  1  0.51960000  0.48040000  0.87270000  1.0 0.4124595595
N  N114  1  0.51960000  0.03920000  0.87270000  1.0 0.4124595595
N  N115  1  0.51960000  0.03920000  0.62730000  1.0 0.4124595595
N  N116  1  0.51960000  0.48040000  0.62730000  1.0 0.4124595595
N  N117  1  0.96080000  0.48040000  0.62730000  1.0 0.4124595595
N  N118  1  0.48040000  0.96080000  0.12730000  1.0 0.4124595595
N  N119  1  0.48040000  0.51960000  0.12730000  1.0 0.4124595595
N  N120  1  0.03920000  0.51960000  0.12730000  1.0 0.4124595595
O  O1  1  0.18570000  0.51070000  0.30440000  1.0 -0.3046878057
O  O2  1  0.48930000  0.67500000  0.30440000  1.0 -0.3115526272
O  O3  1  0.32500000  0.81430000  0.30440000  1.0 -0.3115526272
O  O4  1  0.81430000  0.48930000  0.80440000  1.0 -0.3046878057
O  O5  1  0.51070000  0.32500000  0.80440000  1.0 -0.3046878057
O  O6  1  0.67500000  0.18570000  0.80440000  1.0 -0.3046878057
O  O7  1  0.51070000  0.18570000  0.69560000  1.0 -0.3046878057
O  O8  1  0.67500000  0.48930000  0.69560000  1.0 -0.3046878057
O  O9  1  0.81430000  0.32500000  0.69560000  1.0 -0.3046878057
O  O10  1  0.48930000  0.81430000  0.19560000  1.0 -0.3115526272
O  O11  1  0.32500000  0.51070000  0.19560000  1.0 -0.3115526272
O  O12  1  0.18570000  0.67500000  0.19560000  1.0 -0.3115526272
O  O13  1  0.81430000  0.48930000  0.69560000  1.0 -0.3046878057
O  O14  1  0.51070000  0.32500000  0.69560000  1.0 -0.3046878057
O  O15  1  0.67500000  0.18570000  0.69560000  1.0 -0.3046878057
O  O16  1  0.18570000  0.51070000  0.19560000  1.0 -0.3046878057
O  O17  1  0.48930000  0.67500000  0.19560000  1.0 -0.3115526272
O  O18  1  0.32500000  0.81430000  0.19560000  1.0 -0.3115526272
O  O19  1  0.48930000  0.81430000  0.30440000  1.0 -0.3115526272
O  O20  1  0.32500000  0.51070000  0.30440000  1.0 -0.3046878057
O  O21  1  0.18570000  0.67500000  0.30440000  1.0 -0.3046878057
O  O22  1  0.51070000  0.18570000  0.80440000  1.0 -0.3046878057
O  O23  1  0.67500000  0.48930000  0.80440000  1.0 -0.3046878057
O  O24  1  0.81430000  0.32500000  0.80440000  1.0 -0.3046878057
O  O25  1  0.01500000  0.46570000  0.36020000  1.0 -0.3277864521
O  O26  1  0.53430000  0.54930000  0.36020000  1.0 -0.3277864521
O  O27  1  0.45070000  0.98500000  0.36020000  1.0 -0.3277864521
O  O28  1  0.98500000  0.53430000  0.86020000  1.0 -0.3277864521
O  O29  1  0.46570000  0.45070000  0.86020000  1.0 -0.3277864521
O  O30  1  0.54930000  0.01500000  0.86020000  1.0 -0.3277864521
O  O31  1  0.46570000  0.01500000  0.63980000  1.0 -0.3277864521
O  O32  1  0.54930000  0.53430000  0.63980000  1.0 -0.3277864521
O  O33  1  0.98500000  0.45070000  0.63980000  1.0 -0.3277864521
O  O34  1  0.53430000  0.98500000  0.13980000  1.0 -0.3277864521
O  O35  1  0.45070000  0.46570000  0.13980000  1.0 -0.3277864521
O  O36  1  0.01500000  0.54930000  0.13980000  1.0 -0.3277864521
O  O37  1  0.98500000  0.53430000  0.63980000  1.0 -0.3277864521
O  O38  1  0.46570000  0.45070000  0.63980000  1.0 -0.3277864521
O  O39  1  0.54930000  0.01500000  0.63980000  1.0 -0.3277864521
O  O40  1  0.01500000  0.46570000  0.13980000  1.0 -0.3277864521
O  O41  1  0.53430000  0.54930000  0.13980000  1.0 -0.3277864521
O  O42  1  0.45070000  0.98500000  0.13980000  1.0 -0.3277864521
O  O43  1  0.53430000  0.98500000  0.36020000  1.0 -0.3277864521
O  O44  1  0.45070000  0.46570000  0.36020000  1.0 -0.3277864521
O  O45  1  0.01500000  0.54930000  0.36020000  1.0 -0.3277864521
O  O46  1  0.46570000  0.01500000  0.86020000  1.0 -0.3277864521
O  O47  1  0.54930000  0.53430000  0.86020000  1.0 -0.3277864521
O  O48  1  0.98500000  0.45070000  0.86020000  1.0 -0.3277864521
