# DDEC6 charges by PACMAN v1.1 (https://github.com/mtap-research/PACMAN-charge/)
data_YOZCEW_ASR_pacman
_symmetry_space_group_name_H-M   'P 1'
_cell_length_a   26.44220000
_cell_length_b   26.44220000
_cell_length_c   18.97030000
_cell_angle_alpha   90.00000000
_cell_angle_beta   90.00000000
_cell_angle_gamma   120.00000000
_symmetry_Int_Tables_number   1
_chemical_formula_structural   ZnH8C10(N3O)2
_chemical_formula_sum   'Zn24 H192 C240 N144 O48'
_cell_volume   11486.82493327
_cell_formula_units_Z   24
loop_
 _symmetry_equiv_pos_site_id
 _symmetry_equiv_pos_as_xyz
  1  'x, y, z'
loop_
 _atom_site_type_symbol
 _atom_site_label
 _atom_site_symmetry_multiplicity
 _atom_site_fract_x
 _atom_site_fract_y
 _atom_site_fract_z
 _atom_site_occupancy
 _atom_site_charge
Zn  Zn1  1  0.10599000  0.43877000  0.40927000  1.0 0.6223507695
Zn  Zn2  1  0.56123000  0.66722000  0.40927000  1.0 0.6223507695
Zn  Zn3  1  0.33278000  0.89401000  0.40927000  1.0 0.6223507695
Zn  Zn4  1  0.89401000  0.56123000  0.90927000  1.0 0.6223507695
Zn  Zn5  1  0.43877000  0.33278000  0.90927000  1.0 0.6223507695
Zn  Zn6  1  0.66722000  0.10599000  0.90927000  1.0 0.6223507695
Zn  Zn7  1  0.43877000  0.10599000  0.59073000  1.0 0.6223507695
Zn  Zn8  1  0.66722000  0.56123000  0.59073000  1.0 0.6223507695
Zn  Zn9  1  0.89401000  0.33278000  0.59073000  1.0 0.6223507695
Zn  Zn10  1  0.56123000  0.89401000  0.09073000  1.0 0.6223507695
Zn  Zn11  1  0.33278000  0.43877000  0.09073000  1.0 0.6223507695
Zn  Zn12  1  0.10599000  0.66722000  0.09073000  1.0 0.6223507695
Zn  Zn13  1  0.89401000  0.56123000  0.59073000  1.0 0.6223507695
Zn  Zn14  1  0.43877000  0.33278000  0.59073000  1.0 0.6223507695
Zn  Zn15  1  0.66722000  0.10599000  0.59073000  1.0 0.6223507695
Zn  Zn16  1  0.10599000  0.43877000  0.09073000  1.0 0.6223507695
Zn  Zn17  1  0.56123000  0.66722000  0.09073000  1.0 0.6223507695
Zn  Zn18  1  0.33278000  0.89401000  0.09073000  1.0 0.6223507695
Zn  Zn19  1  0.56123000  0.89401000  0.40927000  1.0 0.6223507695
Zn  Zn20  1  0.33278000  0.43877000  0.40927000  1.0 0.6223507695
Zn  Zn21  1  0.10599000  0.66722000  0.40927000  1.0 0.6223507695
Zn  Zn22  1  0.43877000  0.10599000  0.90927000  1.0 0.6223507695
Zn  Zn23  1  0.66722000  0.56123000  0.90927000  1.0 0.6223507695
Zn  Zn24  1  0.89401000  0.33278000  0.90927000  1.0 0.6223507695
H  H1  1  0.00000000  0.41820000  0.50000000  1.0 0.1095759554
H  H2  1  0.58180000  0.58180000  0.50000000  1.0 0.1095759554
H  H3  1  0.41820000  0.00000000  0.50000000  1.0 0.1095759554
H  H4  1  0.00000000  0.58180000  0.00000000  1.0 0.1095759554
H  H5  1  0.41820000  0.41820000  0.00000000  1.0 0.1095759554
H  H6  1  0.58180000  0.00000000  0.00000000  1.0 0.1095759554
H  H7  1  0.00000000  0.58180000  0.50000000  1.0 0.1095759554
H  H8  1  0.41820000  0.41820000  0.50000000  1.0 0.1095759554
H  H9  1  0.58180000  0.00000000  0.50000000  1.0 0.1095759554
H  H10  1  0.00000000  0.41820000  0.00000000  1.0 0.1095759554
H  H11  1  0.58180000  0.58180000  0.00000000  1.0 0.1095759554
H  H12  1  0.41820000  0.00000000  0.00000000  1.0 0.1095759554
H  H13  1  0.22190000  0.44380000  0.35880000  1.0 0.1095759554
H  H14  1  0.55620000  0.77810000  0.35880000  1.0 0.1095759554
H  H15  1  0.22190000  0.77810000  0.35880000  1.0 0.1095759554
H  H16  1  0.77810000  0.55620000  0.85880000  1.0 0.1095759554
H  H17  1  0.44380000  0.22190000  0.85880000  1.0 0.1095759554
H  H18  1  0.77810000  0.22190000  0.85880000  1.0 0.1095759554
H  H19  1  0.44380000  0.22190000  0.64120000  1.0 0.1095759554
H  H20  1  0.77810000  0.55620000  0.64120000  1.0 0.1095759554
H  H21  1  0.77810000  0.22190000  0.64120000  1.0 0.1095759554
H  H22  1  0.55620000  0.77810000  0.14120000  1.0 0.1095759554
H  H23  1  0.22190000  0.44380000  0.14120000  1.0 0.1095759554
H  H24  1  0.22190000  0.77810000  0.14120000  1.0 0.1095759554
H  H25  1  0.00410000  0.34300000  0.31570000  1.0 0.1188543555
H  H26  1  0.65700000  0.66110000  0.31570000  1.0 0.1188543555
H  H27  1  0.33890000  0.99590000  0.31570000  1.0 0.1188543555
H  H28  1  0.99590000  0.65700000  0.81570000  1.0 0.1188543555
H  H29  1  0.34300000  0.33890000  0.81570000  1.0 0.1188543555
H  H30  1  0.66110000  0.00410000  0.81570000  1.0 0.1188543555
H  H31  1  0.34300000  0.00410000  0.68430000  1.0 0.1188543555
H  H32  1  0.66110000  0.65700000  0.68430000  1.0 0.1188543555
H  H33  1  0.99590000  0.33890000  0.68430000  1.0 0.1188543555
H  H34  1  0.65700000  0.99590000  0.18430000  1.0 0.1188543555
H  H35  1  0.33890000  0.34300000  0.18430000  1.0 0.1188543555
H  H36  1  0.00410000  0.66110000  0.18430000  1.0 0.1188543555
H  H37  1  0.99590000  0.65700000  0.68430000  1.0 0.1188543555
H  H38  1  0.34300000  0.33890000  0.68430000  1.0 0.1188543555
H  H39  1  0.66110000  0.00410000  0.68430000  1.0 0.1188543555
H  H40  1  0.00410000  0.34300000  0.18430000  1.0 0.1188543555
H  H41  1  0.65700000  0.66110000  0.18430000  1.0 0.1188543555
H  H42  1  0.33890000  0.99590000  0.18430000  1.0 0.1188543555
H  H43  1  0.65700000  0.99590000  0.31570000  1.0 0.1188543555
H  H44  1  0.33890000  0.34300000  0.31570000  1.0 0.1188543555
H  H45  1  0.00410000  0.66110000  0.31570000  1.0 0.1188543555
H  H46  1  0.34300000  0.00410000  0.81570000  1.0 0.1188543555
H  H47  1  0.66110000  0.65700000  0.81570000  1.0 0.1188543555
H  H48  1  0.99590000  0.33890000  0.81570000  1.0 0.1188543555
H  H49  1  0.01260000  0.28780000  0.43100000  1.0 0.0890444786
H  H50  1  0.71220000  0.72480000  0.43100000  1.0 0.0890444786
H  H51  1  0.27520000  0.98740000  0.43100000  1.0 0.0890444786
H  H52  1  0.98740000  0.71220000  0.93100000  1.0 0.0890444786
H  H53  1  0.28780000  0.27520000  0.93100000  1.0 0.0890444786
H  H54  1  0.72480000  0.01260000  0.93100000  1.0 0.0890444786
H  H55  1  0.28780000  0.01260000  0.56900000  1.0 0.0890444786
H  H56  1  0.72480000  0.71220000  0.56900000  1.0 0.0890444786
H  H57  1  0.98740000  0.27520000  0.56900000  1.0 0.0890444786
H  H58  1  0.71220000  0.98740000  0.06900000  1.0 0.0890444786
H  H59  1  0.27520000  0.28780000  0.06900000  1.0 0.0890444786
H  H60  1  0.01260000  0.72480000  0.06900000  1.0 0.0890444786
H  H61  1  0.98740000  0.71220000  0.56900000  1.0 0.0890444786
H  H62  1  0.28780000  0.27520000  0.56900000  1.0 0.0890444786
H  H63  1  0.72480000  0.01260000  0.56900000  1.0 0.0890444786
H  H64  1  0.01260000  0.28780000  0.06900000  1.0 0.0890444786
H  H65  1  0.71220000  0.72480000  0.06900000  1.0 0.0890444786
H  H66  1  0.27520000  0.98740000  0.06900000  1.0 0.0890444786
H  H67  1  0.71220000  0.98740000  0.43100000  1.0 0.0890444786
H  H68  1  0.27520000  0.28780000  0.43100000  1.0 0.0890444786
H  H69  1  0.01260000  0.72480000  0.43100000  1.0 0.0890444786
H  H70  1  0.28780000  0.01260000  0.93100000  1.0 0.0890444786
H  H71  1  0.72480000  0.71220000  0.93100000  1.0 0.0890444786
H  H72  1  0.98740000  0.27520000  0.93100000  1.0 0.0890444786
H  H73  1  0.06820000  0.32060000  0.49790000  1.0 0.0830344498
H  H74  1  0.67940000  0.74760000  0.49790000  1.0 0.0830344498
H  H75  1  0.25240000  0.93180000  0.49790000  1.0 0.0830344498
H  H76  1  0.93180000  0.67940000  0.99790000  1.0 0.0830344498
H  H77  1  0.32060000  0.25240000  0.99790000  1.0 0.0830344498
H  H78  1  0.74760000  0.06820000  0.99790000  1.0 0.0830344498
H  H79  1  0.32060000  0.06820000  0.50210000  1.0 0.0830344498
H  H80  1  0.74760000  0.67940000  0.50210000  1.0 0.0830344498
H  H81  1  0.93180000  0.25240000  0.50210000  1.0 0.0830344498
H  H82  1  0.67940000  0.93180000  0.00210000  1.0 0.0830344498
H  H83  1  0.25240000  0.32060000  0.00210000  1.0 0.0830344498
H  H84  1  0.06820000  0.74760000  0.00210000  1.0 0.0830344498
H  H85  1  0.93180000  0.67940000  0.50210000  1.0 0.0830344498
H  H86  1  0.32060000  0.25240000  0.50210000  1.0 0.0830344498
H  H87  1  0.74760000  0.06820000  0.50210000  1.0 0.0830344498
H  H88  1  0.06820000  0.32060000  0.00210000  1.0 0.0830344498
H  H89  1  0.67940000  0.74760000  0.00210000  1.0 0.0830344498
H  H90  1  0.25240000  0.93180000  0.00210000  1.0 0.0830344498
H  H91  1  0.67940000  0.93180000  0.49790000  1.0 0.0830344498
H  H92  1  0.25240000  0.32060000  0.49790000  1.0 0.0830344498
H  H93  1  0.06820000  0.74760000  0.49790000  1.0 0.0830344498
H  H94  1  0.32060000  0.06820000  0.99790000  1.0 0.0830344498
H  H95  1  0.74760000  0.67940000  0.99790000  1.0 0.0830344498
H  H96  1  0.93180000  0.25240000  0.99790000  1.0 0.0830344498
H  H97  1  0.15200000  0.39660000  0.54450000  1.0 0.0830344498
H  H98  1  0.60340000  0.75540000  0.54450000  1.0 0.0830344498
H  H99  1  0.24460000  0.84800000  0.54450000  1.0 0.0830344498
H  H100  1  0.84800000  0.60340000  0.04450000  1.0 0.0830344498
H  H101  1  0.39660000  0.24460000  0.04450000  1.0 0.0830344498
H  H102  1  0.75540000  0.15200000  0.04450000  1.0 0.0830344498
H  H103  1  0.39660000  0.15200000  0.45550000  1.0 0.0830344498
H  H104  1  0.75540000  0.60340000  0.45550000  1.0 0.0830344498
H  H105  1  0.84800000  0.24460000  0.45550000  1.0 0.0830344498
H  H106  1  0.60340000  0.84800000  0.95550000  1.0 0.0830344498
H  H107  1  0.24460000  0.39660000  0.95550000  1.0 0.0830344498
H  H108  1  0.15200000  0.75540000  0.95550000  1.0 0.0830344498
H  H109  1  0.84800000  0.60340000  0.45550000  1.0 0.0830344498
H  H110  1  0.39660000  0.24460000  0.45550000  1.0 0.0830344498
H  H111  1  0.75540000  0.15200000  0.45550000  1.0 0.0830344498
H  H112  1  0.15200000  0.39660000  0.95550000  1.0 0.0830344498
H  H113  1  0.60340000  0.75540000  0.95550000  1.0 0.0830344498
H  H114  1  0.24460000  0.84800000  0.95550000  1.0 0.0830344498
H  H115  1  0.60340000  0.84800000  0.54450000  1.0 0.0830344498
H  H116  1  0.24460000  0.39660000  0.54450000  1.0 0.0830344498
H  H117  1  0.15200000  0.75540000  0.54450000  1.0 0.0830344498
H  H118  1  0.39660000  0.15200000  0.04450000  1.0 0.0830344498
H  H119  1  0.75540000  0.60340000  0.04450000  1.0 0.0830344498
H  H120  1  0.84800000  0.24460000  0.04450000  1.0 0.0830344498
H  H121  1  0.17310000  0.43800000  0.55360000  1.0 0.0890444786
H  H122  1  0.56200000  0.73510000  0.55360000  1.0 0.0890444786
H  H123  1  0.26490000  0.82690000  0.55360000  1.0 0.0890444786
H  H124  1  0.82690000  0.56200000  0.05360000  1.0 0.0890444786
H  H125  1  0.43800000  0.26490000  0.05360000  1.0 0.0890444786
H  H126  1  0.73510000  0.17310000  0.05360000  1.0 0.0890444786
H  H127  1  0.43800000  0.17310000  0.44640000  1.0 0.0890444786
H  H128  1  0.73510000  0.56200000  0.44640000  1.0 0.0890444786
H  H129  1  0.82690000  0.26490000  0.44640000  1.0 0.0890444786
H  H130  1  0.56200000  0.82690000  0.94640000  1.0 0.0890444786
H  H131  1  0.26490000  0.43800000  0.94640000  1.0 0.0890444786
H  H132  1  0.17310000  0.73510000  0.94640000  1.0 0.0890444786
H  H133  1  0.82690000  0.56200000  0.44640000  1.0 0.0890444786
H  H134  1  0.43800000  0.26490000  0.44640000  1.0 0.0890444786
H  H135  1  0.73510000  0.17310000  0.44640000  1.0 0.0890444786
H  H136  1  0.17310000  0.43800000  0.94640000  1.0 0.0890444786
H  H137  1  0.56200000  0.73510000  0.94640000  1.0 0.0890444786
H  H138  1  0.26490000  0.82690000  0.94640000  1.0 0.0890444786
H  H139  1  0.56200000  0.82690000  0.55360000  1.0 0.0890444786
H  H140  1  0.26490000  0.43800000  0.55360000  1.0 0.0890444786
H  H141  1  0.17310000  0.73510000  0.55360000  1.0 0.0890444786
H  H142  1  0.43800000  0.17310000  0.05360000  1.0 0.0890444786
H  H143  1  0.73510000  0.56200000  0.05360000  1.0 0.0890444786
H  H144  1  0.82690000  0.26490000  0.05360000  1.0 0.0890444786
H  H145  1  0.19760000  0.55000000  0.48400000  1.0 0.0951690199
H  H146  1  0.45000000  0.64760000  0.48400000  1.0 0.0951690199
H  H147  1  0.35240000  0.80240000  0.48400000  1.0 0.0951690199
H  H148  1  0.80240000  0.45000000  0.98400000  1.0 0.0951690199
H  H149  1  0.55000000  0.35240000  0.98400000  1.0 0.0951690199
H  H150  1  0.64760000  0.19760000  0.98400000  1.0 0.0951690199
H  H151  1  0.55000000  0.19760000  0.51600000  1.0 0.0951690199
H  H152  1  0.64760000  0.45000000  0.51600000  1.0 0.0951690199
H  H153  1  0.80240000  0.35240000  0.51600000  1.0 0.0951690199
H  H154  1  0.45000000  0.80240000  0.01600000  1.0 0.0951690199
H  H155  1  0.35240000  0.55000000  0.01600000  1.0 0.0951690199
H  H156  1  0.19760000  0.64760000  0.01600000  1.0 0.0951690199
H  H157  1  0.80240000  0.45000000  0.51600000  1.0 0.0951690199
H  H158  1  0.55000000  0.35240000  0.51600000  1.0 0.0951690199
H  H159  1  0.64760000  0.19760000  0.51600000  1.0 0.0951690199
H  H160  1  0.19760000  0.55000000  0.01600000  1.0 0.0951690199
H  H161  1  0.45000000  0.64760000  0.01600000  1.0 0.0951690199
H  H162  1  0.35240000  0.80240000  0.01600000  1.0 0.0951690199
H  H163  1  0.45000000  0.80240000  0.48400000  1.0 0.0951690199
H  H164  1  0.35240000  0.55000000  0.48400000  1.0 0.0951690199
H  H165  1  0.19760000  0.64760000  0.48400000  1.0 0.0951690199
H  H166  1  0.55000000  0.19760000  0.98400000  1.0 0.0951690199
H  H167  1  0.64760000  0.45000000  0.98400000  1.0 0.0951690199
H  H168  1  0.80240000  0.35240000  0.98400000  1.0 0.0951690199
H  H169  1  0.10990000  0.50870000  0.55150000  1.0 0.1095759554
H  H170  1  0.49130000  0.60120000  0.55150000  1.0 0.1095759554
H  H171  1  0.39880000  0.89010000  0.55150000  1.0 0.1095759554
H  H172  1  0.89010000  0.49130000  0.05150000  1.0 0.1095759554
H  H173  1  0.50870000  0.39880000  0.05150000  1.0 0.1095759554
H  H174  1  0.60120000  0.10990000  0.05150000  1.0 0.1095759554
H  H175  1  0.50870000  0.10990000  0.44850000  1.0 0.1095759554
H  H176  1  0.60120000  0.49130000  0.44850000  1.0 0.1095759554
H  H177  1  0.89010000  0.39880000  0.44850000  1.0 0.1095759554
H  H178  1  0.49130000  0.89010000  0.94850000  1.0 0.1095759554
H  H179  1  0.39880000  0.50870000  0.94850000  1.0 0.1095759554
H  H180  1  0.10990000  0.60120000  0.94850000  1.0 0.1095759554
H  H181  1  0.89010000  0.49130000  0.44850000  1.0 0.1095759554
H  H182  1  0.50870000  0.39880000  0.44850000  1.0 0.1095759554
H  H183  1  0.60120000  0.10990000  0.44850000  1.0 0.1095759554
H  H184  1  0.10990000  0.50870000  0.94850000  1.0 0.1095759554
H  H185  1  0.49130000  0.60120000  0.94850000  1.0 0.1095759554
H  H186  1  0.39880000  0.89010000  0.94850000  1.0 0.1095759554
H  H187  1  0.49130000  0.89010000  0.55150000  1.0 0.1095759554
H  H188  1  0.39880000  0.50870000  0.55150000  1.0 0.1095759554
H  H189  1  0.10990000  0.60120000  0.55150000  1.0 0.1095759554
H  H190  1  0.50870000  0.10990000  0.05150000  1.0 0.1095759554
H  H191  1  0.60120000  0.49130000  0.05150000  1.0 0.1095759554
H  H192  1  0.89010000  0.39880000  0.05150000  1.0 0.1095759554
C  C1  1  0.00000000  0.38300000  0.50000000  1.0 -0.0035782029
C  C2  1  0.61700000  0.61700000  0.50000000  1.0 -0.0035782029
C  C3  1  0.38300000  0.00000000  0.50000000  1.0 -0.0035782029
C  C4  1  0.00000000  0.61700000  0.00000000  1.0 -0.0035782029
C  C5  1  0.38300000  0.38300000  0.00000000  1.0 -0.0035782029
C  C6  1  0.61700000  0.00000000  0.00000000  1.0 -0.0035782029
C  C7  1  0.00000000  0.61700000  0.50000000  1.0 -0.0035782029
C  C8  1  0.38300000  0.38300000  0.50000000  1.0 -0.0035782029
C  C9  1  0.61700000  0.00000000  0.50000000  1.0 -0.0035782029
C  C10  1  0.00000000  0.38300000  0.00000000  1.0 -0.0035782029
C  C11  1  0.61700000  0.61700000  0.00000000  1.0 -0.0035782029
C  C12  1  0.38300000  0.00000000  0.00000000  1.0 -0.0035782029
C  C13  1  0.01280000  0.31290000  0.46550000  1.0 -0.009378318
C  C14  1  0.68710000  0.69990000  0.46550000  1.0 -0.009378318
C  C15  1  0.30010000  0.98720000  0.46550000  1.0 -0.009378318
C  C16  1  0.98720000  0.68710000  0.96550000  1.0 -0.009378318
C  C17  1  0.31290000  0.30010000  0.96550000  1.0 -0.009378318
C  C18  1  0.69990000  0.01280000  0.96550000  1.0 -0.009378318
C  C19  1  0.31290000  0.01280000  0.53450000  1.0 -0.009378318
C  C20  1  0.69990000  0.68710000  0.53450000  1.0 -0.009378318
C  C21  1  0.98720000  0.30010000  0.53450000  1.0 -0.009378318
C  C22  1  0.68710000  0.98720000  0.03450000  1.0 -0.009378318
C  C23  1  0.30010000  0.31290000  0.03450000  1.0 -0.009378318
C  C24  1  0.01280000  0.69990000  0.03450000  1.0 -0.009378318
C  C25  1  0.98720000  0.68710000  0.53450000  1.0 -0.009378318
C  C26  1  0.31290000  0.30010000  0.53450000  1.0 -0.009378318
C  C27  1  0.69990000  0.01280000  0.53450000  1.0 -0.009378318
C  C28  1  0.01280000  0.31290000  0.03450000  1.0 -0.009378318
C  C29  1  0.68710000  0.69990000  0.03450000  1.0 -0.009378318
C  C30  1  0.30010000  0.98720000  0.03450000  1.0 -0.009378318
C  C31  1  0.68710000  0.98720000  0.46550000  1.0 -0.009378318
C  C32  1  0.30010000  0.31290000  0.46550000  1.0 -0.009378318
C  C33  1  0.01280000  0.69990000  0.46550000  1.0 -0.009378318
C  C34  1  0.31290000  0.01280000  0.96550000  1.0 -0.009378318
C  C35  1  0.69990000  0.68710000  0.96550000  1.0 -0.009378318
C  C36  1  0.98720000  0.30010000  0.96550000  1.0 -0.009378318
C  C37  1  0.21935000  0.43870000  0.40750000  1.0 -0.0316163483
C  C38  1  0.56130000  0.78065000  0.40750000  1.0 -0.0316163483
C  C39  1  0.21935000  0.78065000  0.40750000  1.0 -0.0316163483
C  C40  1  0.78065000  0.56130000  0.90750000  1.0 -0.0316163483
C  C41  1  0.43870000  0.21935000  0.90750000  1.0 -0.0316163483
C  C42  1  0.78065000  0.21935000  0.90750000  1.0 -0.0316163483
C  C43  1  0.43870000  0.21935000  0.59250000  1.0 -0.0316163483
C  C44  1  0.78065000  0.56130000  0.59250000  1.0 -0.0316163483
C  C45  1  0.78065000  0.21935000  0.59250000  1.0 -0.0316163483
C  C46  1  0.56130000  0.78065000  0.09250000  1.0 -0.0316163483
C  C47  1  0.21935000  0.43870000  0.09250000  1.0 -0.0316163483
C  C48  1  0.21935000  0.78065000  0.09250000  1.0 -0.0316163483
C  C49  1  0.17940000  0.41030000  0.50830000  1.0 -0.0316163483
C  C50  1  0.58970000  0.76910000  0.50830000  1.0 -0.0316163483
C  C51  1  0.23090000  0.82060000  0.50830000  1.0 -0.0316163483
C  C52  1  0.82060000  0.58970000  0.00830000  1.0 -0.0316163483
C  C53  1  0.41030000  0.23090000  0.00830000  1.0 -0.0316163483
C  C54  1  0.76910000  0.17940000  0.00830000  1.0 -0.0316163483
C  C55  1  0.41030000  0.17940000  0.49170000  1.0 -0.0316163483
C  C56  1  0.76910000  0.58970000  0.49170000  1.0 -0.0316163483
C  C57  1  0.82060000  0.23090000  0.49170000  1.0 -0.0316163483
C  C58  1  0.58970000  0.82060000  0.99170000  1.0 -0.0316163483
C  C59  1  0.23090000  0.41030000  0.99170000  1.0 -0.0316163483
C  C60  1  0.17940000  0.76910000  0.99170000  1.0 -0.0316163483
C  C61  1  0.82060000  0.58970000  0.49170000  1.0 -0.0316163483
C  C62  1  0.41030000  0.23090000  0.49170000  1.0 -0.0316163483
C  C63  1  0.76910000  0.17940000  0.49170000  1.0 -0.0316163483
C  C64  1  0.17940000  0.41030000  0.99170000  1.0 -0.0316163483
C  C65  1  0.58970000  0.76910000  0.99170000  1.0 -0.0316163483
C  C66  1  0.23090000  0.82060000  0.99170000  1.0 -0.0316163483
C  C67  1  0.58970000  0.82060000  0.50830000  1.0 -0.0316163483
C  C68  1  0.23090000  0.41030000  0.50830000  1.0 -0.0316163483
C  C69  1  0.17940000  0.76910000  0.50830000  1.0 -0.0316163483
C  C70  1  0.41030000  0.17940000  0.00830000  1.0 -0.0316163483
C  C71  1  0.76910000  0.58970000  0.00830000  1.0 -0.0316163483
C  C72  1  0.82060000  0.23090000  0.00830000  1.0 -0.0316163483
C  C73  1  0.14810000  0.41460000  0.56800000  1.0 -0.1121188396
C  C74  1  0.58540000  0.73350000  0.56800000  1.0 -0.1121188396
C  C75  1  0.26650000  0.85190000  0.56800000  1.0 -0.1121188396
C  C76  1  0.85190000  0.58540000  0.06800000  1.0 -0.1121188396
C  C77  1  0.41460000  0.26650000  0.06800000  1.0 -0.1121188396
C  C78  1  0.73350000  0.14810000  0.06800000  1.0 -0.1121188396
C  C79  1  0.41460000  0.14810000  0.43200000  1.0 -0.1121188396
C  C80  1  0.73350000  0.58540000  0.43200000  1.0 -0.1121188396
C  C81  1  0.85190000  0.26650000  0.43200000  1.0 -0.1121188396
C  C82  1  0.58540000  0.85190000  0.93200000  1.0 -0.1121188396
C  C83  1  0.26650000  0.41460000  0.93200000  1.0 -0.1121188396
C  C84  1  0.14810000  0.73350000  0.93200000  1.0 -0.1121188396
C  C85  1  0.85190000  0.58540000  0.43200000  1.0 -0.1121188396
C  C86  1  0.41460000  0.26650000  0.43200000  1.0 -0.1121188396
C  C87  1  0.73350000  0.14810000  0.43200000  1.0 -0.1121188396
C  C88  1  0.14810000  0.41460000  0.93200000  1.0 -0.1121188396
C  C89  1  0.58540000  0.73350000  0.93200000  1.0 -0.1121188396
C  C90  1  0.26650000  0.85190000  0.93200000  1.0 -0.1121188396
C  C91  1  0.58540000  0.85190000  0.56800000  1.0 -0.1121188396
C  C92  1  0.26650000  0.41460000  0.56800000  1.0 -0.1121188396
C  C93  1  0.14810000  0.73350000  0.56800000  1.0 -0.1121188396
C  C94  1  0.41460000  0.14810000  0.06800000  1.0 -0.1121188396
C  C95  1  0.73350000  0.58540000  0.06800000  1.0 -0.1121188396
C  C96  1  0.85190000  0.26650000  0.06800000  1.0 -0.1121188396
C  C97  1  0.10170000  0.55085000  0.41130000  1.0 0.2090252884
C  C98  1  0.44915000  0.55085000  0.41130000  1.0 0.2090252884
C  C99  1  0.44915000  0.89830000  0.41130000  1.0 0.2090252884
C  C100  1  0.89830000  0.44915000  0.91130000  1.0 0.2090252884
C  C101  1  0.55085000  0.44915000  0.91130000  1.0 0.2090252884
C  C102  1  0.55085000  0.10170000  0.91130000  1.0 0.2090252884
C  C103  1  0.55085000  0.10170000  0.58870000  1.0 0.2090252884
C  C104  1  0.55085000  0.44915000  0.58870000  1.0 0.2090252884
C  C105  1  0.89830000  0.44915000  0.58870000  1.0 0.2090252884
C  C106  1  0.44915000  0.89830000  0.08870000  1.0 0.2090252884
C  C107  1  0.44915000  0.55085000  0.08870000  1.0 0.2090252884
C  C108  1  0.10170000  0.55085000  0.08870000  1.0 0.2090252884
C  C109  1  0.11210000  0.53040000  0.51180000  1.0 -0.0630619495
C  C110  1  0.46960000  0.58170000  0.51180000  1.0 -0.0630619495
C  C111  1  0.41830000  0.88790000  0.51180000  1.0 -0.0630619495
C  C112  1  0.88790000  0.46960000  0.01180000  1.0 -0.0630619495
C  C113  1  0.53040000  0.41830000  0.01180000  1.0 -0.0630619495
C  C114  1  0.58170000  0.11210000  0.01180000  1.0 -0.0630619495
C  C115  1  0.53040000  0.11210000  0.48820000  1.0 -0.0630619495
C  C116  1  0.58170000  0.46960000  0.48820000  1.0 -0.0630619495
C  C117  1  0.88790000  0.41830000  0.48820000  1.0 -0.0630619495
C  C118  1  0.46960000  0.88790000  0.98820000  1.0 -0.0630619495
C  C119  1  0.41830000  0.53040000  0.98820000  1.0 -0.0630619495
C  C120  1  0.11210000  0.58170000  0.98820000  1.0 -0.0630619495
C  C121  1  0.88790000  0.46960000  0.48820000  1.0 -0.0630619495
C  C122  1  0.53040000  0.41830000  0.48820000  1.0 -0.0630619495
C  C123  1  0.58170000  0.11210000  0.48820000  1.0 -0.0630619495
C  C124  1  0.11210000  0.53040000  0.98820000  1.0 -0.0630619495
C  C125  1  0.46960000  0.58170000  0.98820000  1.0 -0.0630619495
C  C126  1  0.41830000  0.88790000  0.98820000  1.0 -0.0630619495
C  C127  1  0.46960000  0.88790000  0.51180000  1.0 -0.0630619495
C  C128  1  0.41830000  0.53040000  0.51180000  1.0 -0.0630619495
C  C129  1  0.11210000  0.58170000  0.51180000  1.0 -0.0630619495
C  C130  1  0.53040000  0.11210000  0.01180000  1.0 -0.0630619495
C  C131  1  0.58170000  0.46960000  0.01180000  1.0 -0.0630619495
C  C132  1  0.88790000  0.41830000  0.01180000  1.0 -0.0630619495
C  C133  1  0.11030000  0.44060000  0.25000000  1.0 0.2669293878
C  C134  1  0.55940000  0.66970000  0.25000000  1.0 0.2669293878
C  C135  1  0.33030000  0.88970000  0.25000000  1.0 0.2669293878
C  C136  1  0.88970000  0.55940000  0.75000000  1.0 0.2669293878
C  C137  1  0.44060000  0.33030000  0.75000000  1.0 0.2669293878
C  C138  1  0.66970000  0.11030000  0.75000000  1.0 0.2669293878
C  C139  1  0.44060000  0.11030000  0.75000000  1.0 0.2669293878
C  C140  1  0.66970000  0.55940000  0.75000000  1.0 0.2669293878
C  C141  1  0.88970000  0.33030000  0.75000000  1.0 0.2669293878
C  C142  1  0.55940000  0.88970000  0.25000000  1.0 0.2669293878
C  C143  1  0.33030000  0.44060000  0.25000000  1.0 0.2669293878
C  C144  1  0.11030000  0.66970000  0.25000000  1.0 0.2669293878
C  C145  1  0.03390000  0.37000000  0.28700000  1.0 0.0105002823
C  C146  1  0.63000000  0.66390000  0.28700000  1.0 0.0105002823
C  C147  1  0.33610000  0.96610000  0.28700000  1.0 0.0105002823
C  C148  1  0.96610000  0.63000000  0.78700000  1.0 0.0105002823
C  C149  1  0.37000000  0.33610000  0.78700000  1.0 0.0105002823
C  C150  1  0.66390000  0.03390000  0.78700000  1.0 0.0105002823
C  C151  1  0.37000000  0.03390000  0.71300000  1.0 0.0105002823
C  C152  1  0.66390000  0.63000000  0.71300000  1.0 0.0105002823
C  C153  1  0.96610000  0.33610000  0.71300000  1.0 0.0105002823
C  C154  1  0.63000000  0.96610000  0.21300000  1.0 0.0105002823
C  C155  1  0.33610000  0.37000000  0.21300000  1.0 0.0105002823
C  C156  1  0.03390000  0.66390000  0.21300000  1.0 0.0105002823
C  C157  1  0.96610000  0.63000000  0.71300000  1.0 0.0105002823
C  C158  1  0.37000000  0.33610000  0.71300000  1.0 0.0105002823
C  C159  1  0.66390000  0.03390000  0.71300000  1.0 0.0105002823
C  C160  1  0.03390000  0.37000000  0.21300000  1.0 0.0105002823
C  C161  1  0.63000000  0.66390000  0.21300000  1.0 0.0105002823
C  C162  1  0.33610000  0.96610000  0.21300000  1.0 0.0105002823
C  C163  1  0.63000000  0.96610000  0.28700000  1.0 0.0105002823
C  C164  1  0.33610000  0.37000000  0.28700000  1.0 0.0105002823
C  C165  1  0.03390000  0.66390000  0.28700000  1.0 0.0105002823
C  C166  1  0.37000000  0.03390000  0.78700000  1.0 0.0105002823
C  C167  1  0.66390000  0.63000000  0.78700000  1.0 0.0105002823
C  C168  1  0.96610000  0.33610000  0.78700000  1.0 0.0105002823
C  C169  1  0.03910000  0.33000000  0.49110000  1.0 0.0177308354
C  C170  1  0.67000000  0.70910000  0.49110000  1.0 0.0177308354
C  C171  1  0.29090000  0.96090000  0.49110000  1.0 0.0177308354
C  C172  1  0.96090000  0.67000000  0.99110000  1.0 0.0177308354
C  C173  1  0.33000000  0.29090000  0.99110000  1.0 0.0177308354
C  C174  1  0.70910000  0.03910000  0.99110000  1.0 0.0177308354
C  C175  1  0.33000000  0.03910000  0.50890000  1.0 0.0177308354
C  C176  1  0.70910000  0.67000000  0.50890000  1.0 0.0177308354
C  C177  1  0.96090000  0.29090000  0.50890000  1.0 0.0177308354
C  C178  1  0.67000000  0.96090000  0.00890000  1.0 0.0177308354
C  C179  1  0.29090000  0.33000000  0.00890000  1.0 0.0177308354
C  C180  1  0.03910000  0.70910000  0.00890000  1.0 0.0177308354
C  C181  1  0.96090000  0.67000000  0.50890000  1.0 0.0177308354
C  C182  1  0.33000000  0.29090000  0.50890000  1.0 0.0177308354
C  C183  1  0.70910000  0.03910000  0.50890000  1.0 0.0177308354
C  C184  1  0.03910000  0.33000000  0.00890000  1.0 0.0177308354
C  C185  1  0.67000000  0.70910000  0.00890000  1.0 0.0177308354
C  C186  1  0.29090000  0.96090000  0.00890000  1.0 0.0177308354
C  C187  1  0.67000000  0.96090000  0.49110000  1.0 0.0177308354
C  C188  1  0.29090000  0.33000000  0.49110000  1.0 0.0177308354
C  C189  1  0.03910000  0.70910000  0.49110000  1.0 0.0177308354
C  C190  1  0.33000000  0.03910000  0.99110000  1.0 0.0177308354
C  C191  1  0.70910000  0.67000000  0.99110000  1.0 0.0177308354
C  C192  1  0.96090000  0.29090000  0.99110000  1.0 0.0177308354
C  C193  1  0.19290000  0.43690000  0.51370000  1.0 -0.009378318
C  C194  1  0.56310000  0.75600000  0.51370000  1.0 -0.009378318
C  C195  1  0.24400000  0.80710000  0.51370000  1.0 -0.009378318
C  C196  1  0.80710000  0.56310000  0.01370000  1.0 -0.009378318
C  C197  1  0.43690000  0.24400000  0.01370000  1.0 -0.009378318
C  C198  1  0.75600000  0.19290000  0.01370000  1.0 -0.009378318
C  C199  1  0.43690000  0.19290000  0.48630000  1.0 -0.009378318
C  C200  1  0.75600000  0.56310000  0.48630000  1.0 -0.009378318
C  C201  1  0.80710000  0.24400000  0.48630000  1.0 -0.009378318
C  C202  1  0.56310000  0.80710000  0.98630000  1.0 -0.009378318
C  C203  1  0.24400000  0.43690000  0.98630000  1.0 -0.009378318
C  C204  1  0.19290000  0.75600000  0.98630000  1.0 -0.009378318
C  C205  1  0.80710000  0.56310000  0.48630000  1.0 -0.009378318
C  C206  1  0.43690000  0.24400000  0.48630000  1.0 -0.009378318
C  C207  1  0.75600000  0.19290000  0.48630000  1.0 -0.009378318
C  C208  1  0.19290000  0.43690000  0.98630000  1.0 -0.009378318
C  C209  1  0.56310000  0.75600000  0.98630000  1.0 -0.009378318
C  C210  1  0.24400000  0.80710000  0.98630000  1.0 -0.009378318
C  C211  1  0.56310000  0.80710000  0.51370000  1.0 -0.009378318
C  C212  1  0.24400000  0.43690000  0.51370000  1.0 -0.009378318
C  C213  1  0.19290000  0.75600000  0.51370000  1.0 -0.009378318
C  C214  1  0.43690000  0.19290000  0.01370000  1.0 -0.009378318
C  C215  1  0.75600000  0.56310000  0.01370000  1.0 -0.009378318
C  C216  1  0.80710000  0.24400000  0.01370000  1.0 -0.009378318
C  C217  1  0.16780000  0.55600000  0.46780000  1.0 0.0105002823
C  C218  1  0.44400000  0.61180000  0.46780000  1.0 0.0105002823
C  C219  1  0.38820000  0.83220000  0.46780000  1.0 0.0105002823
C  C220  1  0.83220000  0.44400000  0.96780000  1.0 0.0105002823
C  C221  1  0.55600000  0.38820000  0.96780000  1.0 0.0105002823
C  C222  1  0.61180000  0.16780000  0.96780000  1.0 0.0105002823
C  C223  1  0.55600000  0.16780000  0.53220000  1.0 0.0105002823
C  C224  1  0.61180000  0.44400000  0.53220000  1.0 0.0105002823
C  C225  1  0.83220000  0.38820000  0.53220000  1.0 0.0105002823
C  C226  1  0.44400000  0.83220000  0.03220000  1.0 0.0105002823
C  C227  1  0.38820000  0.55600000  0.03220000  1.0 0.0105002823
C  C228  1  0.16780000  0.61180000  0.03220000  1.0 0.0105002823
C  C229  1  0.83220000  0.44400000  0.53220000  1.0 0.0105002823
C  C230  1  0.55600000  0.38820000  0.53220000  1.0 0.0105002823
C  C231  1  0.61180000  0.16780000  0.53220000  1.0 0.0105002823
C  C232  1  0.16780000  0.55600000  0.03220000  1.0 0.0105002823
C  C233  1  0.44400000  0.61180000  0.03220000  1.0 0.0105002823
C  C234  1  0.38820000  0.83220000  0.03220000  1.0 0.0105002823
C  C235  1  0.44400000  0.83220000  0.46780000  1.0 0.0105002823
C  C236  1  0.38820000  0.55600000  0.46780000  1.0 0.0105002823
C  C237  1  0.16780000  0.61180000  0.46780000  1.0 0.0105002823
C  C238  1  0.55600000  0.16780000  0.96780000  1.0 0.0105002823
C  C239  1  0.61180000  0.44400000  0.96780000  1.0 0.0105002823
C  C240  1  0.83220000  0.38820000  0.96780000  1.0 0.0105002823
N  N1  1  0.03950000  0.37670000  0.46480000  1.0 -0.2262344239
N  N2  1  0.62330000  0.66280000  0.46480000  1.0 -0.2262344239
N  N3  1  0.33720000  0.96050000  0.46480000  1.0 -0.2262344239
N  N4  1  0.96050000  0.62330000  0.96480000  1.0 -0.2262344239
N  N5  1  0.37670000  0.33720000  0.96480000  1.0 -0.2262344239
N  N6  1  0.66280000  0.03950000  0.96480000  1.0 -0.2262344239
N  N7  1  0.37670000  0.03950000  0.53520000  1.0 -0.2262344239
N  N8  1  0.66280000  0.62330000  0.53520000  1.0 -0.2262344239
N  N9  1  0.96050000  0.33720000  0.53520000  1.0 -0.2262344239
N  N10  1  0.62330000  0.96050000  0.03520000  1.0 -0.2262344239
N  N11  1  0.33720000  0.37670000  0.03520000  1.0 -0.2262344239
N  N12  1  0.03950000  0.66280000  0.03520000  1.0 -0.2262344239
N  N13  1  0.96050000  0.62330000  0.53520000  1.0 -0.2262344239
N  N14  1  0.37670000  0.33720000  0.53520000  1.0 -0.2262344239
N  N15  1  0.66280000  0.03950000  0.53520000  1.0 -0.2262344239
N  N16  1  0.03950000  0.37670000  0.03520000  1.0 -0.2262344239
N  N17  1  0.62330000  0.66280000  0.03520000  1.0 -0.2262344239
N  N18  1  0.33720000  0.96050000  0.03520000  1.0 -0.2262344239
N  N19  1  0.62330000  0.96050000  0.46480000  1.0 -0.2262344239
N  N20  1  0.33720000  0.37670000  0.46480000  1.0 -0.2262344239
N  N21  1  0.03950000  0.66280000  0.46480000  1.0 -0.2262344239
N  N22  1  0.37670000  0.03950000  0.96480000  1.0 -0.2262344239
N  N23  1  0.66280000  0.62330000  0.96480000  1.0 -0.2262344239
N  N24  1  0.96050000  0.33720000  0.96480000  1.0 -0.2262344239
N  N25  1  0.17470000  0.43480000  0.44380000  1.0 -0.2636080424
N  N26  1  0.56520000  0.73990000  0.44380000  1.0 -0.2636080424
N  N27  1  0.26010000  0.82530000  0.44380000  1.0 -0.2636080424
N  N28  1  0.82530000  0.56520000  0.94380000  1.0 -0.2636080424
N  N29  1  0.43480000  0.26010000  0.94380000  1.0 -0.2636080424
N  N30  1  0.73990000  0.17470000  0.94380000  1.0 -0.2636080424
N  N31  1  0.43480000  0.17470000  0.55620000  1.0 -0.2636080424
N  N32  1  0.73990000  0.56520000  0.55620000  1.0 -0.2636080424
N  N33  1  0.82530000  0.26010000  0.55620000  1.0 -0.2636080424
N  N34  1  0.56520000  0.82530000  0.05620000  1.0 -0.2636080424
N  N35  1  0.26010000  0.43480000  0.05620000  1.0 -0.2636080424
N  N36  1  0.17470000  0.73990000  0.05620000  1.0 -0.2636080424
N  N37  1  0.82530000  0.56520000  0.55620000  1.0 -0.2636080424
N  N38  1  0.43480000  0.26010000  0.55620000  1.0 -0.2636080424
N  N39  1  0.73990000  0.17470000  0.55620000  1.0 -0.2636080424
N  N40  1  0.17470000  0.43480000  0.05620000  1.0 -0.2636080424
N  N41  1  0.56520000  0.73990000  0.05620000  1.0 -0.2636080424
N  N42  1  0.26010000  0.82530000  0.05620000  1.0 -0.2636080424
N  N43  1  0.56520000  0.82530000  0.44380000  1.0 -0.2636080424
N  N44  1  0.26010000  0.43480000  0.44380000  1.0 -0.2636080424
N  N45  1  0.17470000  0.73990000  0.44380000  1.0 -0.2636080424
N  N46  1  0.43480000  0.17470000  0.94380000  1.0 -0.2636080424
N  N47  1  0.73990000  0.56520000  0.94380000  1.0 -0.2636080424
N  N48  1  0.82530000  0.26010000  0.94380000  1.0 -0.2636080424
N  N49  1  0.11780000  0.42700000  0.61890000  1.0 -0.1567056591
N  N50  1  0.57300000  0.69080000  0.61890000  1.0 -0.1567056591
N  N51  1  0.30920000  0.88220000  0.61890000  1.0 -0.1567056591
N  N52  1  0.88220000  0.57300000  0.11890000  1.0 -0.1567056591
N  N53  1  0.42700000  0.30920000  0.11890000  1.0 -0.1567056591
N  N54  1  0.69080000  0.11780000  0.11890000  1.0 -0.1567056591
N  N55  1  0.42700000  0.11780000  0.38110000  1.0 -0.1567056591
N  N56  1  0.69080000  0.57300000  0.38110000  1.0 -0.1567056591
N  N57  1  0.88220000  0.30920000  0.38110000  1.0 -0.1567056591
N  N58  1  0.57300000  0.88220000  0.88110000  1.0 -0.1567056591
N  N59  1  0.30920000  0.42700000  0.88110000  1.0 -0.1567056591
N  N60  1  0.11780000  0.69080000  0.88110000  1.0 -0.1567056591
N  N61  1  0.88220000  0.57300000  0.38110000  1.0 -0.1567056591
N  N62  1  0.42700000  0.30920000  0.38110000  1.0 -0.1567056591
N  N63  1  0.69080000  0.11780000  0.38110000  1.0 -0.1567056591
N  N64  1  0.11780000  0.42700000  0.88110000  1.0 -0.1567056591
N  N65  1  0.57300000  0.69080000  0.88110000  1.0 -0.1567056591
N  N66  1  0.30920000  0.88220000  0.88110000  1.0 -0.1567056591
N  N67  1  0.57300000  0.88220000  0.61890000  1.0 -0.1567056591
N  N68  1  0.30920000  0.42700000  0.61890000  1.0 -0.1567056591
N  N69  1  0.11780000  0.69080000  0.61890000  1.0 -0.1567056591
N  N70  1  0.42700000  0.11780000  0.11890000  1.0 -0.1567056591
N  N71  1  0.69080000  0.57300000  0.11890000  1.0 -0.1567056591
N  N72  1  0.88220000  0.30920000  0.11890000  1.0 -0.1567056591
N  N73  1  0.11610000  0.51510000  0.43980000  1.0 -0.271068546
N  N74  1  0.48490000  0.60100000  0.43980000  1.0 -0.271068546
N  N75  1  0.39900000  0.88390000  0.43980000  1.0 -0.271068546
N  N76  1  0.88390000  0.48490000  0.93980000  1.0 -0.271068546
N  N77  1  0.51510000  0.39900000  0.93980000  1.0 -0.271068546
N  N78  1  0.60100000  0.11610000  0.93980000  1.0 -0.271068546
N  N79  1  0.51510000  0.11610000  0.56020000  1.0 -0.271068546
N  N80  1  0.60100000  0.48490000  0.56020000  1.0 -0.271068546
N  N81  1  0.88390000  0.39900000  0.56020000  1.0 -0.271068546
N  N82  1  0.48490000  0.88390000  0.06020000  1.0 -0.271068546
N  N83  1  0.39900000  0.51510000  0.06020000  1.0 -0.271068546
N  N84  1  0.11610000  0.60100000  0.06020000  1.0 -0.271068546
N  N85  1  0.88390000  0.48490000  0.56020000  1.0 -0.271068546
N  N86  1  0.51510000  0.39900000  0.56020000  1.0 -0.271068546
N  N87  1  0.60100000  0.11610000  0.56020000  1.0 -0.271068546
N  N88  1  0.11610000  0.51510000  0.06020000  1.0 -0.271068546
N  N89  1  0.48490000  0.60100000  0.06020000  1.0 -0.271068546
N  N90  1  0.39900000  0.88390000  0.06020000  1.0 -0.271068546
N  N91  1  0.48490000  0.88390000  0.43980000  1.0 -0.271068546
N  N92  1  0.39900000  0.51510000  0.43980000  1.0 -0.271068546
N  N93  1  0.11610000  0.60100000  0.43980000  1.0 -0.271068546
N  N94  1  0.51510000  0.11610000  0.93980000  1.0 -0.271068546
N  N95  1  0.60100000  0.48490000  0.93980000  1.0 -0.271068546
N  N96  1  0.88390000  0.39900000  0.93980000  1.0 -0.271068546
N  N97  1  0.03870000  0.51935000  0.37470000  1.0 0.5001387842
N  N98  1  0.48065000  0.51935000  0.37470000  1.0 0.5001387842
N  N99  1  0.48065000  0.96130000  0.37470000  1.0 0.5001387842
N  N100  1  0.96130000  0.48065000  0.87470000  1.0 0.5001387842
N  N101  1  0.51935000  0.48065000  0.87470000  1.0 0.5001387842
N  N102  1  0.51935000  0.03870000  0.87470000  1.0 0.5001387842
N  N103  1  0.51935000  0.03870000  0.62530000  1.0 0.5001387842
N  N104  1  0.51935000  0.48065000  0.62530000  1.0 0.5001387842
N  N105  1  0.96130000  0.48065000  0.62530000  1.0 0.5001387842
N  N106  1  0.48065000  0.96130000  0.12530000  1.0 0.5001387842
N  N107  1  0.48065000  0.51935000  0.12530000  1.0 0.5001387842
N  N108  1  0.03870000  0.51935000  0.12530000  1.0 0.5001387842
N  N109  1  0.08350000  0.41500000  0.30890000  1.0 -0.3006573123
N  N110  1  0.58500000  0.66850000  0.30890000  1.0 -0.3006573123
N  N111  1  0.33150000  0.91650000  0.30890000  1.0 -0.3006573123
N  N112  1  0.91650000  0.58500000  0.80890000  1.0 -0.3006573123
N  N113  1  0.41500000  0.33150000  0.80890000  1.0 -0.3006573123
N  N114  1  0.66850000  0.08350000  0.80890000  1.0 -0.3006573123
N  N115  1  0.41500000  0.08350000  0.69110000  1.0 -0.3006573123
N  N116  1  0.66850000  0.58500000  0.69110000  1.0 -0.3006573123
N  N117  1  0.91650000  0.33150000  0.69110000  1.0 -0.3006573123
N  N118  1  0.58500000  0.91650000  0.19110000  1.0 -0.3006573123
N  N119  1  0.33150000  0.41500000  0.19110000  1.0 -0.3006573123
N  N120  1  0.08350000  0.66850000  0.19110000  1.0 -0.3006573123
N  N121  1  0.91650000  0.58500000  0.69110000  1.0 -0.3006573123
N  N122  1  0.41500000  0.33150000  0.69110000  1.0 -0.3006573123
N  N123  1  0.66850000  0.08350000  0.69110000  1.0 -0.3006573123
N  N124  1  0.08350000  0.41500000  0.19110000  1.0 -0.3006573123
N  N125  1  0.58500000  0.66850000  0.19110000  1.0 -0.3006573123
N  N126  1  0.33150000  0.91650000  0.19110000  1.0 -0.3006573123
N  N127  1  0.58500000  0.91650000  0.30890000  1.0 -0.3006573123
N  N128  1  0.33150000  0.41500000  0.30890000  1.0 -0.3006573123
N  N129  1  0.08350000  0.66850000  0.30890000  1.0 -0.3006573123
N  N130  1  0.41500000  0.08350000  0.80890000  1.0 -0.3006573123
N  N131  1  0.66850000  0.58500000  0.80890000  1.0 -0.3006573123
N  N132  1  0.91650000  0.33150000  0.80890000  1.0 -0.3006573123
N  N133  1  0.16460000  0.49350000  0.25000000  1.0 0.4382467913
N  N134  1  0.50650000  0.67110000  0.25000000  1.0 0.4382467913
N  N135  1  0.32890000  0.83540000  0.25000000  1.0 0.4382467913
N  N136  1  0.83540000  0.50650000  0.75000000  1.0 0.4347750592
N  N137  1  0.49350000  0.32890000  0.75000000  1.0 0.4382467913
N  N138  1  0.67110000  0.16460000  0.75000000  1.0 0.4382467913
N  N139  1  0.49350000  0.16460000  0.75000000  1.0 0.4382467913
N  N140  1  0.67110000  0.50650000  0.75000000  1.0 0.4382467913
N  N141  1  0.83540000  0.32890000  0.75000000  1.0 0.4382467913
N  N142  1  0.50650000  0.83540000  0.25000000  1.0 0.4382467913
N  N143  1  0.32890000  0.49350000  0.25000000  1.0 0.4382467913
N  N144  1  0.16460000  0.67110000  0.25000000  1.0 0.4382467913
O  O1  1  0.01360000  0.54870000  0.36820000  1.0 -0.3748054322
O  O2  1  0.45130000  0.46490000  0.36820000  1.0 -0.3748054322
O  O3  1  0.53510000  0.98640000  0.36820000  1.0 -0.3748054322
O  O4  1  0.98640000  0.45130000  0.86820000  1.0 -0.3748054322
O  O5  1  0.54870000  0.53510000  0.86820000  1.0 -0.3748054322
O  O6  1  0.46490000  0.01360000  0.86820000  1.0 -0.3748054322
O  O7  1  0.54870000  0.01360000  0.63180000  1.0 -0.3748054322
O  O8  1  0.46490000  0.45130000  0.63180000  1.0 -0.3748054322
O  O9  1  0.98640000  0.53510000  0.63180000  1.0 -0.375651027
O  O10  1  0.45130000  0.98640000  0.13180000  1.0 -0.3748054322
O  O11  1  0.53510000  0.54870000  0.13180000  1.0 -0.3748054322
O  O12  1  0.01360000  0.46490000  0.13180000  1.0 -0.3748054322
O  O13  1  0.98640000  0.45130000  0.63180000  1.0 -0.3748054322
O  O14  1  0.54870000  0.53510000  0.63180000  1.0 -0.3748054322
O  O15  1  0.46490000  0.01360000  0.63180000  1.0 -0.3748054322
O  O16  1  0.01360000  0.54870000  0.13180000  1.0 -0.3748054322
O  O17  1  0.45130000  0.46490000  0.13180000  1.0 -0.3748054322
O  O18  1  0.53510000  0.98640000  0.13180000  1.0 -0.3748054322
O  O19  1  0.45130000  0.98640000  0.36820000  1.0 -0.3748054322
O  O20  1  0.53510000  0.54870000  0.36820000  1.0 -0.3748054322
O  O21  1  0.01360000  0.46490000  0.36820000  1.0 -0.3748054322
O  O22  1  0.54870000  0.01360000  0.86820000  1.0 -0.3748054322
O  O23  1  0.46490000  0.45130000  0.86820000  1.0 -0.3748054322
O  O24  1  0.98640000  0.53510000  0.86820000  1.0 -0.375651027
O  O25  1  0.18606000  0.51473000  0.30720000  1.0 -0.3091398517
O  O26  1  0.48527000  0.67133000  0.30720000  1.0 -0.3091398517
O  O27  1  0.32867000  0.81394000  0.30720000  1.0 -0.3091398517
O  O28  1  0.81394000  0.48527000  0.80720000  1.0 -0.3091398517
O  O29  1  0.51473000  0.32867000  0.80720000  1.0 -0.3091398517
O  O30  1  0.67133000  0.18606000  0.80720000  1.0 -0.3091398517
O  O31  1  0.51473000  0.18606000  0.69280000  1.0 -0.3091398517
O  O32  1  0.67133000  0.48527000  0.69280000  1.0 -0.3091398517
O  O33  1  0.81394000  0.32867000  0.69280000  1.0 -0.3091398517
O  O34  1  0.48527000  0.81394000  0.19280000  1.0 -0.3091398517
O  O35  1  0.32867000  0.51473000  0.19280000  1.0 -0.3091398517
O  O36  1  0.18606000  0.67133000  0.19280000  1.0 -0.3091398517
O  O37  1  0.81394000  0.48527000  0.69280000  1.0 -0.3091398517
O  O38  1  0.51473000  0.32867000  0.69280000  1.0 -0.3091398517
O  O39  1  0.67133000  0.18606000  0.69280000  1.0 -0.3091398517
O  O40  1  0.18606000  0.51473000  0.19280000  1.0 -0.3091398517
O  O41  1  0.48527000  0.67133000  0.19280000  1.0 -0.3091398517
O  O42  1  0.32867000  0.81394000  0.19280000  1.0 -0.3091398517
O  O43  1  0.48527000  0.81394000  0.30720000  1.0 -0.3091398517
O  O44  1  0.32867000  0.51473000  0.30720000  1.0 -0.3091398517
O  O45  1  0.18606000  0.67133000  0.30720000  1.0 -0.3091398517
O  O46  1  0.51473000  0.18606000  0.80720000  1.0 -0.3091398517
O  O47  1  0.67133000  0.48527000  0.80720000  1.0 -0.3091398517
O  O48  1  0.81394000  0.32867000  0.80720000  1.0 -0.3091398517
