# DDEC6 charges by PACMAN v1.1 (https://github.com/mtap-research/PACMAN-charge/)
data_YOZNOS_FSR_pacman
_symmetry_space_group_name_H-M   'P 1'
_cell_length_a   18.61620000
_cell_length_b   18.61620000
_cell_length_c   18.61620000
_cell_angle_alpha   60.00000000
_cell_angle_beta   60.00000000
_cell_angle_gamma   60.00000000
_symmetry_Int_Tables_number   1
_chemical_formula_structural   CuH2C8O5
_chemical_formula_sum   'Cu12 H24 C96 O60'
_cell_volume   4562.02972172
_cell_formula_units_Z   12
loop_
 _symmetry_equiv_pos_site_id
 _symmetry_equiv_pos_as_xyz
  1  'x, y, z'
loop_
 _atom_site_type_symbol
 _atom_site_label
 _atom_site_symmetry_multiplicity
 _atom_site_fract_x
 _atom_site_fract_y
 _atom_site_fract_z
 _atom_site_occupancy
 _atom_site_charge
Cu  Cu1  1  0.00000000  0.00000000  0.57004000  1.0 0.8443698464
Cu  Cu2  1  0.57004000  0.42996000  0.00000000  1.0 0.8453340654
Cu  Cu3  1  0.00000000  0.00000000  0.42996000  1.0 0.8443698464
Cu  Cu4  1  0.42996000  0.57004000  0.00000000  1.0 0.8443698464
Cu  Cu5  1  0.00000000  0.57004000  0.00000000  1.0 0.8443698464
Cu  Cu6  1  0.42996000  0.00000000  0.57004000  1.0 0.8443698464
Cu  Cu7  1  0.00000000  0.42996000  0.57004000  1.0 0.8443698464
Cu  Cu8  1  0.57004000  0.00000000  0.00000000  1.0 0.8443698464
Cu  Cu9  1  0.57004000  0.00000000  0.42996000  1.0 0.8443698464
Cu  Cu10  1  0.42996000  0.00000000  0.00000000  1.0 0.8443698464
Cu  Cu11  1  0.00000000  0.42996000  0.00000000  1.0 0.8443698464
Cu  Cu12  1  0.00000000  0.57004000  0.42996000  1.0 0.8443698464
H  H1  1  0.27160000  0.96980000  0.27160000  1.0 0.1391303364
H  H2  1  0.51300000  0.72840000  0.72840000  1.0 0.1391303364
H  H3  1  0.96980000  0.27160000  0.48700000  1.0 0.1391303364
H  H4  1  0.72840000  0.51300000  0.03020000  1.0 0.1391303364
H  H5  1  0.03020000  0.51300000  0.72840000  1.0 0.1391303364
H  H6  1  0.48700000  0.27160000  0.96980000  1.0 0.1391303364
H  H7  1  0.72840000  0.72840000  0.51300000  1.0 0.1391303364
H  H8  1  0.03020000  0.72840000  0.51300000  1.0 0.1391303364
H  H9  1  0.27160000  0.48700000  0.27160000  1.0 0.1391303364
H  H10  1  0.51300000  0.72840000  0.03020000  1.0 0.1391303364
H  H11  1  0.27160000  0.27160000  0.96980000  1.0 0.1391303364
H  H12  1  0.96980000  0.27160000  0.27160000  1.0 0.1391303364
H  H13  1  0.27160000  0.96980000  0.48700000  1.0 0.1391303364
H  H14  1  0.48700000  0.96980000  0.27160000  1.0 0.1391303364
H  H15  1  0.27160000  0.48700000  0.96980000  1.0 0.1391303364
H  H16  1  0.27160000  0.27160000  0.48700000  1.0 0.1391303364
H  H17  1  0.96980000  0.48700000  0.27160000  1.0 0.1391303364
H  H18  1  0.48700000  0.27160000  0.27160000  1.0 0.1391303364
H  H19  1  0.72840000  0.03020000  0.51300000  1.0 0.1391303364
H  H20  1  0.03020000  0.72840000  0.72840000  1.0 0.1391303364
H  H21  1  0.51300000  0.03020000  0.72840000  1.0 0.1391303364
H  H22  1  0.72840000  0.72840000  0.03020000  1.0 0.1391303364
H  H23  1  0.72840000  0.51300000  0.72840000  1.0 0.1391303364
H  H24  1  0.72840000  0.03020000  0.72840000  1.0 0.1391303364
C  C1  1  0.25719000  0.96987000  0.38647000  1.0 -0.0312461821
C  C2  1  0.61353000  0.61353000  0.74281000  1.0 -0.0312461821
C  C3  1  0.96987000  0.25719000  0.38647000  1.0 -0.0312461821
C  C4  1  0.61353000  0.61353000  0.03013000  1.0 -0.0312461821
C  C5  1  0.03013000  0.61353000  0.74281000  1.0 -0.0312461821
C  C6  1  0.38647000  0.38647000  0.96987000  1.0 -0.0312461821
C  C7  1  0.61353000  0.74281000  0.61353000  1.0 -0.0312461821
C  C8  1  0.03013000  0.61353000  0.61353000  1.0 -0.0312461821
C  C9  1  0.38647000  0.38647000  0.25719000  1.0 -0.0312461821
C  C10  1  0.61353000  0.74281000  0.03013000  1.0 -0.0312461821
C  C11  1  0.38647000  0.25719000  0.96987000  1.0 -0.0312461821
C  C12  1  0.96987000  0.38647000  0.25719000  1.0 -0.0312461821
C  C13  1  0.38647000  0.96987000  0.38647000  1.0 -0.0312461821
C  C14  1  0.38647000  0.96987000  0.25719000  1.0 -0.0312461821
C  C15  1  0.25719000  0.38647000  0.96987000  1.0 -0.0312461821
C  C16  1  0.25719000  0.38647000  0.38647000  1.0 -0.0312461821
C  C17  1  0.96987000  0.38647000  0.38647000  1.0 -0.0312461821
C  C18  1  0.38647000  0.25719000  0.38647000  1.0 -0.0312461821
C  C19  1  0.74281000  0.03013000  0.61353000  1.0 -0.0312461821
C  C20  1  0.03013000  0.74281000  0.61353000  1.0 -0.0312461821
C  C21  1  0.61353000  0.03013000  0.61353000  1.0 -0.0312461821
C  C22  1  0.74281000  0.61353000  0.03013000  1.0 -0.0312461821
C  C23  1  0.74281000  0.61353000  0.61353000  1.0 -0.0312461821
C  C24  1  0.61353000  0.03013000  0.74281000  1.0 -0.0312461821
C  C25  1  0.16226000  0.97586000  0.43094000  1.0 0.5793750484
C  C26  1  0.56906000  0.56906000  0.83774000  1.0 0.5793750484
C  C27  1  0.97586000  0.16226000  0.43094000  1.0 0.5793750484
C  C28  1  0.56906000  0.56906000  0.02414000  1.0 0.5793750484
C  C29  1  0.02414000  0.56906000  0.83774000  1.0 0.5793750484
C  C30  1  0.43094000  0.43094000  0.97586000  1.0 0.5793750484
C  C31  1  0.56906000  0.83774000  0.56906000  1.0 0.5793750484
C  C32  1  0.02414000  0.56906000  0.56906000  1.0 0.5793750484
C  C33  1  0.43094000  0.43094000  0.16226000  1.0 0.5793750484
C  C34  1  0.56906000  0.83774000  0.02414000  1.0 0.5793750484
C  C35  1  0.43094000  0.16226000  0.97586000  1.0 0.5793750484
C  C36  1  0.97586000  0.43094000  0.16226000  1.0 0.5793750484
C  C37  1  0.43094000  0.97586000  0.43094000  1.0 0.5793750484
C  C38  1  0.43094000  0.97586000  0.16226000  1.0 0.5793750484
C  C39  1  0.16226000  0.43094000  0.97586000  1.0 0.5793750484
C  C40  1  0.16226000  0.43094000  0.43094000  1.0 0.5793750484
C  C41  1  0.97586000  0.43094000  0.43094000  1.0 0.5793750484
C  C42  1  0.43094000  0.16226000  0.43094000  1.0 0.5793750484
C  C43  1  0.83774000  0.02414000  0.56906000  1.0 0.5793750484
C  C44  1  0.02414000  0.83774000  0.56906000  1.0 0.5793750484
C  C45  1  0.56906000  0.02414000  0.56906000  1.0 0.5793750484
C  C46  1  0.83774000  0.56906000  0.02414000  1.0 0.5793750484
C  C47  1  0.83774000  0.56906000  0.56906000  1.0 0.5793750484
C  C48  1  0.56906000  0.02414000  0.83774000  1.0 0.5793750484
C  C49  1  0.30044000  0.96988000  0.30044000  1.0 -0.0857220781
C  C50  1  0.57076000  0.69956000  0.69956000  1.0 -0.0857220781
C  C51  1  0.96988000  0.30044000  0.42924000  1.0 -0.0843216878
C  C52  1  0.69956000  0.57076000  0.03012000  1.0 -0.0857220781
C  C53  1  0.03012000  0.57076000  0.69956000  1.0 -0.0857220781
C  C54  1  0.42924000  0.30044000  0.96988000  1.0 -0.0843216878
C  C55  1  0.69956000  0.69956000  0.57076000  1.0 -0.0857220781
C  C56  1  0.03012000  0.69956000  0.57076000  1.0 -0.0857220781
C  C57  1  0.30044000  0.42924000  0.30044000  1.0 -0.0843216878
C  C58  1  0.57076000  0.69956000  0.03012000  1.0 -0.0857220781
C  C59  1  0.30044000  0.30044000  0.96988000  1.0 -0.0843216878
C  C60  1  0.96988000  0.30044000  0.30044000  1.0 -0.0857220781
C  C61  1  0.30044000  0.96988000  0.42924000  1.0 -0.0857220781
C  C62  1  0.42924000  0.96988000  0.30044000  1.0 -0.0857220781
C  C63  1  0.30044000  0.42924000  0.96988000  1.0 -0.0843216878
C  C64  1  0.30044000  0.30044000  0.42924000  1.0 -0.0857220781
C  C65  1  0.96988000  0.42924000  0.30044000  1.0 -0.0843216878
C  C66  1  0.42924000  0.30044000  0.30044000  1.0 -0.0857220781
C  C67  1  0.69956000  0.03012000  0.57076000  1.0 -0.0857220781
C  C68  1  0.03012000  0.69956000  0.69956000  1.0 -0.0857220781
C  C69  1  0.57076000  0.03012000  0.69956000  1.0 -0.0857220781
C  C70  1  0.69956000  0.69956000  0.03012000  1.0 -0.0857220781
C  C71  1  0.69956000  0.57076000  0.69956000  1.0 -0.0857220781
C  C72  1  0.69956000  0.03012000  0.69956000  1.0 -0.0857220781
C  C73  1  0.05560000  0.94440000  0.73200000  1.0 0.0877790794
C  C74  1  0.73200000  0.26800000  0.94440000  1.0 0.0877790794
C  C75  1  0.94440000  0.05560000  0.26800000  1.0 0.0877790794
C  C76  1  0.26800000  0.73200000  0.05560000  1.0 0.0877790794
C  C77  1  0.05560000  0.73200000  0.94440000  1.0 0.0877790794
C  C78  1  0.26800000  0.73200000  0.94440000  1.0 0.0877790794
C  C79  1  0.26800000  0.94440000  0.73200000  1.0 0.0877790794
C  C80  1  0.05560000  0.26800000  0.73200000  1.0 0.0877790794
C  C81  1  0.73200000  0.26800000  0.05560000  1.0 0.0877790794
C  C82  1  0.73200000  0.94440000  0.05560000  1.0 0.0877790794
C  C83  1  0.73200000  0.05560000  0.94440000  1.0 0.0877790794
C  C84  1  0.94440000  0.73200000  0.05560000  1.0 0.0877790794
C  C85  1  0.73200000  0.94440000  0.26800000  1.0 0.0877790794
C  C86  1  0.26800000  0.94440000  0.05560000  1.0 0.0877790794
C  C87  1  0.05560000  0.26800000  0.94440000  1.0 0.0877790794
C  C88  1  0.05560000  0.73200000  0.26800000  1.0 0.0877790794
C  C89  1  0.94440000  0.26800000  0.73200000  1.0 0.0877790794
C  C90  1  0.26800000  0.05560000  0.73200000  1.0 0.0877790794
C  C91  1  0.94440000  0.05560000  0.73200000  1.0 0.0877790794
C  C92  1  0.05560000  0.94440000  0.26800000  1.0 0.0877790794
C  C93  1  0.73200000  0.05560000  0.26800000  1.0 0.0839430217
C  C94  1  0.94440000  0.26800000  0.05560000  1.0 0.0877790794
C  C95  1  0.94440000  0.73200000  0.26800000  1.0 0.0877790794
C  C96  1  0.26800000  0.05560000  0.94440000  1.0 0.0877790794
O  O1  1  0.12592000  0.97936000  0.50758000  1.0 -0.5122721147
O  O2  1  0.61286000  0.49242000  0.87408000  1.0 -0.5122721147
O  O3  1  0.97936000  0.12592000  0.38714000  1.0 -0.5122721147
O  O4  1  0.49242000  0.61286000  0.02064000  1.0 -0.5122721147
O  O5  1  0.02064000  0.61286000  0.87408000  1.0 -0.5122721147
O  O6  1  0.38714000  0.50758000  0.97936000  1.0 -0.5122721147
O  O7  1  0.49242000  0.87408000  0.61286000  1.0 -0.5122721147
O  O8  1  0.02064000  0.49242000  0.61286000  1.0 -0.5122721147
O  O9  1  0.50758000  0.38714000  0.12592000  1.0 -0.5122721147
O  O10  1  0.61286000  0.87408000  0.02064000  1.0 -0.5122721147
O  O11  1  0.50758000  0.12592000  0.97936000  1.0 -0.5122721147
O  O12  1  0.97936000  0.50758000  0.12592000  1.0 -0.5122721147
O  O13  1  0.50758000  0.97936000  0.38714000  1.0 -0.5122721147
O  O14  1  0.38714000  0.97936000  0.12592000  1.0 -0.5122721147
O  O15  1  0.12592000  0.38714000  0.97936000  1.0 -0.5122721147
O  O16  1  0.12592000  0.50758000  0.38714000  1.0 -0.5122721147
O  O17  1  0.97936000  0.38714000  0.50758000  1.0 -0.5122721147
O  O18  1  0.38714000  0.12592000  0.50758000  1.0 -0.5122721147
O  O19  1  0.87408000  0.02064000  0.61286000  1.0 -0.5122721147
O  O20  1  0.02064000  0.87408000  0.49242000  1.0 -0.5122721147
O  O21  1  0.61286000  0.02064000  0.49242000  1.0 -0.5122721147
O  O22  1  0.87408000  0.49242000  0.02064000  1.0 -0.5122721147
O  O23  1  0.87408000  0.61286000  0.49242000  1.0 -0.5122721147
O  O24  1  0.49242000  0.02064000  0.87408000  1.0 -0.5122721147
O  O25  1  0.87408000  0.02064000  0.49242000  1.0 -0.5122721147
O  O26  1  0.38714000  0.50758000  0.12592000  1.0 -0.5122721147
O  O27  1  0.02064000  0.87408000  0.61286000  1.0 -0.5122721147
O  O28  1  0.50758000  0.38714000  0.97936000  1.0 -0.5122721147
O  O29  1  0.97936000  0.38714000  0.12592000  1.0 -0.5122721147
O  O30  1  0.61286000  0.49242000  0.02064000  1.0 -0.5122721147
O  O31  1  0.50758000  0.12592000  0.38714000  1.0 -0.5122721147
O  O32  1  0.97936000  0.50758000  0.38714000  1.0 -0.5122721147
O  O33  1  0.49242000  0.61286000  0.87408000  1.0 -0.5122721147
O  O34  1  0.38714000  0.12592000  0.97936000  1.0 -0.5122721147
O  O35  1  0.49242000  0.87408000  0.02064000  1.0 -0.5122721147
O  O36  1  0.02064000  0.49242000  0.87408000  1.0 -0.5122721147
O  O37  1  0.49242000  0.02064000  0.61286000  1.0 -0.5122721147
O  O38  1  0.61286000  0.02064000  0.87408000  1.0 -0.5122721147
O  O39  1  0.87408000  0.61286000  0.02064000  1.0 -0.5122721147
O  O40  1  0.87408000  0.49242000  0.61286000  1.0 -0.5122721147
O  O41  1  0.02064000  0.61286000  0.49242000  1.0 -0.5122721147
O  O42  1  0.61286000  0.87408000  0.49242000  1.0 -0.5122721147
O  O43  1  0.12592000  0.97936000  0.38714000  1.0 -0.5122721147
O  O44  1  0.97936000  0.12592000  0.50758000  1.0 -0.5122721147
O  O45  1  0.38714000  0.97936000  0.50758000  1.0 -0.5122721147
O  O46  1  0.12592000  0.50758000  0.97936000  1.0 -0.5122721147
O  O47  1  0.12592000  0.38714000  0.50758000  1.0 -0.5122721147
O  O48  1  0.50758000  0.97936000  0.12592000  1.0 -0.5122721147
O  O49  1  0.00000000  0.00000000  0.68724000  1.0 -0.1761847075
O  O50  1  0.68724000  0.31276000  0.00000000  1.0 -0.1761847075
O  O51  1  0.00000000  0.00000000  0.31276000  1.0 -0.1761847075
O  O52  1  0.31276000  0.68724000  0.00000000  1.0 -0.173081788
O  O53  1  0.00000000  0.68724000  0.00000000  1.0 -0.173081788
O  O54  1  0.31276000  0.00000000  0.68724000  1.0 -0.173081788
O  O55  1  0.00000000  0.31276000  0.68724000  1.0 -0.1761847075
O  O56  1  0.68724000  0.00000000  0.00000000  1.0 -0.173081788
O  O57  1  0.68724000  0.00000000  0.31276000  1.0 -0.173081788
O  O58  1  0.31276000  0.00000000  0.00000000  1.0 -0.173081788
O  O59  1  0.00000000  0.31276000  0.00000000  1.0 -0.1761847075
O  O60  1  0.00000000  0.68724000  0.31276000  1.0 -0.173081788
