# DDEC6 charges by PACMAN v1.1 (https://github.com/mtap-research/PACMAN-charge/)
data_YOZPAG_ASR_pacman
_symmetry_space_group_name_H-M   'P 1'
_cell_length_a   18.59770000
_cell_length_b   18.59770000
_cell_length_c   18.59770000
_cell_angle_alpha   60.00000000
_cell_angle_beta   60.00000000
_cell_angle_gamma   60.00000000
_symmetry_Int_Tables_number   1
_chemical_formula_structural   CuH2(C3O2)2
_chemical_formula_sum   'Cu12 H24 C72 O48'
_cell_volume   4548.44257071
_cell_formula_units_Z   12
loop_
 _symmetry_equiv_pos_site_id
 _symmetry_equiv_pos_as_xyz
  1  'x, y, z'
loop_
 _atom_site_type_symbol
 _atom_site_label
 _atom_site_symmetry_multiplicity
 _atom_site_fract_x
 _atom_site_fract_y
 _atom_site_fract_z
 _atom_site_occupancy
 _atom_site_charge
Cu  Cu1  1  0.00000000  0.00000000  0.56884000  1.0 0.8501693572
Cu  Cu2  1  0.56884000  0.43116000  0.00000000  1.0 0.8501693572
Cu  Cu3  1  0.00000000  0.00000000  0.43116000  1.0 0.8501693572
Cu  Cu4  1  0.43116000  0.56884000  0.00000000  1.0 0.8501693572
Cu  Cu5  1  0.00000000  0.56884000  0.00000000  1.0 0.8501693572
Cu  Cu6  1  0.43116000  0.00000000  0.56884000  1.0 0.8501693572
Cu  Cu7  1  0.00000000  0.43116000  0.56884000  1.0 0.8501693572
Cu  Cu8  1  0.56884000  0.00000000  0.00000000  1.0 0.8501693572
Cu  Cu9  1  0.56884000  0.00000000  0.43116000  1.0 0.8501693572
Cu  Cu10  1  0.43116000  0.00000000  0.00000000  1.0 0.8501693572
Cu  Cu11  1  0.00000000  0.43116000  0.00000000  1.0 0.8501693572
Cu  Cu12  1  0.00000000  0.56884000  0.43116000  1.0 0.8501693572
H  H1  1  0.27150000  0.96970000  0.27150000  1.0 0.1379513508
H  H2  1  0.51270000  0.72850000  0.72850000  1.0 0.1379513508
H  H3  1  0.96970000  0.27150000  0.48730000  1.0 0.1379513508
H  H4  1  0.72850000  0.51270000  0.03030000  1.0 0.1379513508
H  H5  1  0.03030000  0.51270000  0.72850000  1.0 0.1379513508
H  H6  1  0.48730000  0.27150000  0.96970000  1.0 0.1379513508
H  H7  1  0.72850000  0.72850000  0.51270000  1.0 0.1379513508
H  H8  1  0.03030000  0.72850000  0.51270000  1.0 0.1379513508
H  H9  1  0.27150000  0.48730000  0.27150000  1.0 0.1379513508
H  H10  1  0.51270000  0.72850000  0.03030000  1.0 0.1379513508
H  H11  1  0.27150000  0.27150000  0.96970000  1.0 0.1379513508
H  H12  1  0.96970000  0.27150000  0.27150000  1.0 0.1379513508
H  H13  1  0.27150000  0.96970000  0.48730000  1.0 0.1379513508
H  H14  1  0.48730000  0.96970000  0.27150000  1.0 0.1379513508
H  H15  1  0.27150000  0.48730000  0.96970000  1.0 0.1379513508
H  H16  1  0.27150000  0.27150000  0.48730000  1.0 0.1379513508
H  H17  1  0.96970000  0.48730000  0.27150000  1.0 0.1379513508
H  H18  1  0.48730000  0.27150000  0.27150000  1.0 0.1379513508
H  H19  1  0.72850000  0.03030000  0.51270000  1.0 0.1379513508
H  H20  1  0.03030000  0.72850000  0.72850000  1.0 0.1379513508
H  H21  1  0.51270000  0.03030000  0.72850000  1.0 0.1379513508
H  H22  1  0.72850000  0.72850000  0.03030000  1.0 0.1379513508
H  H23  1  0.72850000  0.51270000  0.72850000  1.0 0.1379513508
H  H24  1  0.72850000  0.03030000  0.72850000  1.0 0.1379513508
C  C1  1  0.25680000  0.97060000  0.38630000  1.0 -0.028575205
C  C2  1  0.61370000  0.61370000  0.74320000  1.0 -0.028575205
C  C3  1  0.97060000  0.25680000  0.38630000  1.0 -0.028575205
C  C4  1  0.61370000  0.61370000  0.02940000  1.0 -0.028575205
C  C5  1  0.02940000  0.61370000  0.74320000  1.0 -0.028575205
C  C6  1  0.38630000  0.38630000  0.97060000  1.0 -0.028575205
C  C7  1  0.61370000  0.74320000  0.61370000  1.0 -0.028575205
C  C8  1  0.02940000  0.61370000  0.61370000  1.0 -0.028575205
C  C9  1  0.38630000  0.38630000  0.25680000  1.0 -0.028575205
C  C10  1  0.61370000  0.74320000  0.02940000  1.0 -0.028575205
C  C11  1  0.38630000  0.25680000  0.97060000  1.0 -0.028575205
C  C12  1  0.97060000  0.38630000  0.25680000  1.0 -0.028575205
C  C13  1  0.38630000  0.97060000  0.38630000  1.0 -0.028575205
C  C14  1  0.38630000  0.97060000  0.25680000  1.0 -0.028575205
C  C15  1  0.25680000  0.38630000  0.97060000  1.0 -0.028575205
C  C16  1  0.25680000  0.38630000  0.38630000  1.0 -0.028575205
C  C17  1  0.97060000  0.38630000  0.38630000  1.0 -0.028575205
C  C18  1  0.38630000  0.25680000  0.38630000  1.0 -0.028575205
C  C19  1  0.74320000  0.02940000  0.61370000  1.0 -0.028575205
C  C20  1  0.02940000  0.74320000  0.61370000  1.0 -0.028575205
C  C21  1  0.61370000  0.02940000  0.61370000  1.0 -0.028575205
C  C22  1  0.74320000  0.61370000  0.02940000  1.0 -0.028575205
C  C23  1  0.74320000  0.61370000  0.61370000  1.0 -0.028575205
C  C24  1  0.61370000  0.02940000  0.74320000  1.0 -0.028575205
C  C25  1  0.16180000  0.97640000  0.43090000  1.0 0.5819322755
C  C26  1  0.56910000  0.56910000  0.83820000  1.0 0.5819322755
C  C27  1  0.97640000  0.16180000  0.43090000  1.0 0.5819322755
C  C28  1  0.56910000  0.56910000  0.02360000  1.0 0.5819322755
C  C29  1  0.02360000  0.56910000  0.83820000  1.0 0.5819322755
C  C30  1  0.43090000  0.43090000  0.97640000  1.0 0.5819322755
C  C31  1  0.56910000  0.83820000  0.56910000  1.0 0.5819322755
C  C32  1  0.02360000  0.56910000  0.56910000  1.0 0.5819322755
C  C33  1  0.43090000  0.43090000  0.16180000  1.0 0.5819322755
C  C34  1  0.56910000  0.83820000  0.02360000  1.0 0.5819322755
C  C35  1  0.43090000  0.16180000  0.97640000  1.0 0.5819322755
C  C36  1  0.97640000  0.43090000  0.16180000  1.0 0.5819322755
C  C37  1  0.43090000  0.97640000  0.43090000  1.0 0.5819322755
C  C38  1  0.43090000  0.97640000  0.16180000  1.0 0.5819322755
C  C39  1  0.16180000  0.43090000  0.97640000  1.0 0.5819322755
C  C40  1  0.16180000  0.43090000  0.43090000  1.0 0.5819322755
C  C41  1  0.97640000  0.43090000  0.43090000  1.0 0.5819322755
C  C42  1  0.43090000  0.16180000  0.43090000  1.0 0.5819322755
C  C43  1  0.83820000  0.02360000  0.56910000  1.0 0.5819322755
C  C44  1  0.02360000  0.83820000  0.56910000  1.0 0.5819322755
C  C45  1  0.56910000  0.02360000  0.56910000  1.0 0.5819322755
C  C46  1  0.83820000  0.56910000  0.02360000  1.0 0.5819322755
C  C47  1  0.83820000  0.56910000  0.56910000  1.0 0.5819322755
C  C48  1  0.56910000  0.02360000  0.83820000  1.0 0.5819322755
C  C49  1  0.30019000  0.97019000  0.30019000  1.0 -0.0839085591
C  C50  1  0.57057000  0.69981000  0.69981000  1.0 -0.0839085591
C  C51  1  0.97019000  0.30019000  0.42943000  1.0 -0.0839085591
C  C52  1  0.69981000  0.57057000  0.02981000  1.0 -0.0839085591
C  C53  1  0.02981000  0.57057000  0.69981000  1.0 -0.0839085591
C  C54  1  0.42943000  0.30019000  0.97019000  1.0 -0.0839085591
C  C55  1  0.69981000  0.69981000  0.57057000  1.0 -0.0839085591
C  C56  1  0.02981000  0.69981000  0.57057000  1.0 -0.0839085591
C  C57  1  0.30019000  0.42943000  0.30019000  1.0 -0.0839085591
C  C58  1  0.57057000  0.69981000  0.02981000  1.0 -0.0839085591
C  C59  1  0.30019000  0.30019000  0.97019000  1.0 -0.0839085591
C  C60  1  0.97019000  0.30019000  0.30019000  1.0 -0.0839085591
C  C61  1  0.30019000  0.97019000  0.42943000  1.0 -0.0839085591
C  C62  1  0.42943000  0.97019000  0.30019000  1.0 -0.0839085591
C  C63  1  0.30019000  0.42943000  0.97019000  1.0 -0.0839085591
C  C64  1  0.30019000  0.30019000  0.42943000  1.0 -0.0839085591
C  C65  1  0.97019000  0.42943000  0.30019000  1.0 -0.0839085591
C  C66  1  0.42943000  0.30019000  0.30019000  1.0 -0.0839085591
C  C67  1  0.69981000  0.02981000  0.57057000  1.0 -0.0839085591
C  C68  1  0.02981000  0.69981000  0.69981000  1.0 -0.0839085591
C  C69  1  0.57057000  0.02981000  0.69981000  1.0 -0.0839085591
C  C70  1  0.69981000  0.69981000  0.02981000  1.0 -0.0839085591
C  C71  1  0.69981000  0.57057000  0.69981000  1.0 -0.0839085591
C  C72  1  0.69981000  0.02981000  0.69981000  1.0 -0.0839085591
O  O1  1  0.12564000  0.97904000  0.50774000  1.0 -0.5162813827
O  O2  1  0.61242000  0.49226000  0.87436000  1.0 -0.5162813827
O  O3  1  0.97904000  0.12564000  0.38758000  1.0 -0.5162813827
O  O4  1  0.49226000  0.61242000  0.02096000  1.0 -0.5162813827
O  O5  1  0.02096000  0.61242000  0.87436000  1.0 -0.5162813827
O  O6  1  0.38758000  0.50774000  0.97904000  1.0 -0.5162813827
O  O7  1  0.49226000  0.87436000  0.61242000  1.0 -0.5162813827
O  O8  1  0.02096000  0.49226000  0.61242000  1.0 -0.5162813827
O  O9  1  0.50774000  0.38758000  0.12564000  1.0 -0.5162813827
O  O10  1  0.61242000  0.87436000  0.02096000  1.0 -0.5162813827
O  O11  1  0.50774000  0.12564000  0.97904000  1.0 -0.5162813827
O  O12  1  0.97904000  0.50774000  0.12564000  1.0 -0.5162813827
O  O13  1  0.50774000  0.97904000  0.38758000  1.0 -0.5162813827
O  O14  1  0.38758000  0.97904000  0.12564000  1.0 -0.5162813827
O  O15  1  0.12564000  0.38758000  0.97904000  1.0 -0.5162813827
O  O16  1  0.12564000  0.50774000  0.38758000  1.0 -0.5162813827
O  O17  1  0.97904000  0.38758000  0.50774000  1.0 -0.5162813827
O  O18  1  0.38758000  0.12564000  0.50774000  1.0 -0.5162813827
O  O19  1  0.87436000  0.02096000  0.61242000  1.0 -0.5162813827
O  O20  1  0.02096000  0.87436000  0.49226000  1.0 -0.5162813827
O  O21  1  0.61242000  0.02096000  0.49226000  1.0 -0.5162813827
O  O22  1  0.87436000  0.49226000  0.02096000  1.0 -0.5162813827
O  O23  1  0.87436000  0.61242000  0.49226000  1.0 -0.5162813827
O  O24  1  0.49226000  0.02096000  0.87436000  1.0 -0.5162813827
O  O25  1  0.87436000  0.02096000  0.49226000  1.0 -0.5162813827
O  O26  1  0.38758000  0.50774000  0.12564000  1.0 -0.5162813827
O  O27  1  0.02096000  0.87436000  0.61242000  1.0 -0.5162813827
O  O28  1  0.50774000  0.38758000  0.97904000  1.0 -0.5162813827
O  O29  1  0.97904000  0.38758000  0.12564000  1.0 -0.5162813827
O  O30  1  0.61242000  0.49226000  0.02096000  1.0 -0.5162813827
O  O31  1  0.50774000  0.12564000  0.38758000  1.0 -0.5162813827
O  O32  1  0.97904000  0.50774000  0.38758000  1.0 -0.5162813827
O  O33  1  0.49226000  0.61242000  0.87436000  1.0 -0.5162813827
O  O34  1  0.38758000  0.12564000  0.97904000  1.0 -0.5162813827
O  O35  1  0.49226000  0.87436000  0.02096000  1.0 -0.5162813827
O  O36  1  0.02096000  0.49226000  0.87436000  1.0 -0.5162813827
O  O37  1  0.49226000  0.02096000  0.61242000  1.0 -0.5162813827
O  O38  1  0.61242000  0.02096000  0.87436000  1.0 -0.5162813827
O  O39  1  0.87436000  0.61242000  0.02096000  1.0 -0.5162813827
O  O40  1  0.87436000  0.49226000  0.61242000  1.0 -0.5162813827
O  O41  1  0.02096000  0.61242000  0.49226000  1.0 -0.5162813827
O  O42  1  0.61242000  0.87436000  0.49226000  1.0 -0.5162813827
O  O43  1  0.12564000  0.97904000  0.38758000  1.0 -0.5144039923
O  O44  1  0.97904000  0.12564000  0.50774000  1.0 -0.5162813827
O  O45  1  0.38758000  0.97904000  0.50774000  1.0 -0.5162813827
O  O46  1  0.12564000  0.50774000  0.97904000  1.0 -0.5162813827
O  O47  1  0.12564000  0.38758000  0.50774000  1.0 -0.5162813827
O  O48  1  0.50774000  0.97904000  0.12564000  1.0 -0.5162813827
