# DDEC6 charges by PACMAN v1.1 (https://github.com/mtap-research/PACMAN-charge/)
data_YOZYOD_ASR_pacman
_symmetry_space_group_name_H-M   'P 1'
_cell_length_a   12.38580000
_cell_length_b   12.38580000
_cell_length_c   16.30900000
_cell_angle_alpha   77.43260000
_cell_angle_beta   102.56700000
_cell_angle_gamma   84.44030000
_symmetry_Int_Tables_number   1
_chemical_formula_structural   Zn3H14(C2O)16
_chemical_formula_sum   'Zn6 H28 C64 O32'
_cell_volume   2356.00976778
_cell_formula_units_Z   2
loop_
 _symmetry_equiv_pos_site_id
 _symmetry_equiv_pos_as_xyz
  1  'x, y, z'
loop_
 _atom_site_type_symbol
 _atom_site_label
 _atom_site_symmetry_multiplicity
 _atom_site_fract_x
 _atom_site_fract_y
 _atom_site_fract_z
 _atom_site_occupancy
 _atom_site_charge
Zn  Zn1  1  0.80278000  0.92178000  0.63549000  1.0 0.9374394041
Zn  Zn2  1  0.92178000  0.80278000  0.86451000  1.0 0.9374394041
Zn  Zn3  1  0.19722000  0.07822000  0.36451000  1.0 0.9374394041
Zn  Zn4  1  0.07822000  0.19722000  0.13549000  1.0 0.9374394041
Zn  Zn5  1  0.50000000  0.00000000  0.50000000  1.0 1.0356747431
Zn  Zn6  1  0.00000000  0.50000000  0.00000000  1.0 1.0356747431
H  H1  1  0.39260000  0.76440000  0.99370000  1.0 0.3681107906
H  H2  1  0.76440000  0.39260000  0.50630000  1.0 0.3681107906
H  H3  1  0.60740000  0.23560000  0.00630000  1.0 0.3681107906
H  H4  1  0.23560000  0.60740000  0.49370000  1.0 0.3681107906
H  H5  1  0.56790000  0.20270000  0.34260000  1.0 0.111745685
H  H6  1  0.20270000  0.56790000  0.15740000  1.0 0.111745685
H  H7  1  0.43210000  0.79730000  0.65740000  1.0 0.111745685
H  H8  1  0.79730000  0.43210000  0.84260000  1.0 0.111745685
H  H9  1  0.75580000  0.29620000  0.17250000  1.0 0.1272675454
H  H10  1  0.29620000  0.75580000  0.32750000  1.0 0.1272675454
H  H11  1  0.24420000  0.70380000  0.82750000  1.0 0.1272675454
H  H12  1  0.70380000  0.24420000  0.67250000  1.0 0.1272675454
H  H13  1  0.89540000  0.08760000  0.40600000  1.0 0.1404822056
H  H14  1  0.08760000  0.89540000  0.09400000  1.0 0.1404822056
H  H15  1  0.10460000  0.91240000  0.59400000  1.0 0.1404822056
H  H16  1  0.91240000  0.10460000  0.90600000  1.0 0.1404822056
H  H17  1  0.42910000  0.23570000  0.20730000  1.0 0.1272675454
H  H18  1  0.23570000  0.42910000  0.29270000  1.0 0.1272675454
H  H19  1  0.57090000  0.76430000  0.79270000  1.0 0.1272675454
H  H20  1  0.76430000  0.57090000  0.70730000  1.0 0.1272675454
H  H21  1  0.29360000  0.52960000  0.03860000  1.0 0.1272675454
H  H22  1  0.52960000  0.29360000  0.46140000  1.0 0.1272675454
H  H23  1  0.70640000  0.47040000  0.96140000  1.0 0.1272675454
H  H24  1  0.47040000  0.70640000  0.53860000  1.0 0.1272675454
H  H25  1  0.62080000  0.46920000  0.15160000  1.0 0.1230929714
H  H26  1  0.46920000  0.62080000  0.34840000  1.0 0.1230929714
H  H27  1  0.37920000  0.53080000  0.84840000  1.0 0.1230929714
H  H28  1  0.53080000  0.37920000  0.65160000  1.0 0.1230929714
C  C1  1  0.72030000  0.06930000  0.47260000  1.0 0.5985210013
C  C2  1  0.06930000  0.72030000  0.02740000  1.0 0.5985210013
C  C3  1  0.27970000  0.93070000  0.52740000  1.0 0.5985210013
C  C4  1  0.93070000  0.27970000  0.97260000  1.0 0.5985210013
C  C5  1  0.73030000  0.13330000  0.38590000  1.0 -0.0256773059
C  C6  1  0.13330000  0.73030000  0.11410000  1.0 -0.0256773059
C  C7  1  0.26970000  0.86670000  0.61410000  1.0 -0.0256773059
C  C8  1  0.86670000  0.26970000  0.88590000  1.0 -0.0256773059
C  C9  1  0.63640000  0.19960000  0.32790000  1.0 -0.1400674156
C  C10  1  0.19960000  0.63640000  0.17210000  1.0 -0.1400674156
C  C11  1  0.36360000  0.80040000  0.67210000  1.0 -0.1400674156
C  C12  1  0.80040000  0.36360000  0.82790000  1.0 -0.1400674156
C  C13  1  0.64380000  0.26220000  0.24670000  1.0 0.0768268552
C  C14  1  0.26220000  0.64380000  0.25330000  1.0 0.0768268552
C  C15  1  0.35620000  0.73780000  0.75330000  1.0 0.0768268552
C  C16  1  0.73780000  0.35620000  0.74670000  1.0 0.0768268552
C  C17  1  0.74890000  0.25610000  0.22590000  1.0 -0.1481012593
C  C18  1  0.25610000  0.74890000  0.27410000  1.0 -0.1481012593
C  C19  1  0.25110000  0.74390000  0.77410000  1.0 -0.1481012593
C  C20  1  0.74390000  0.25110000  0.72590000  1.0 -0.1481012593
C  C21  1  0.84210000  0.18950000  0.28570000  1.0 -0.0256773059
C  C22  1  0.18950000  0.84210000  0.21430000  1.0 -0.0256773059
C  C23  1  0.15790000  0.81050000  0.71430000  1.0 -0.0256773059
C  C24  1  0.81050000  0.15790000  0.78570000  1.0 -0.0256773059
C  C25  1  0.83240000  0.13000000  0.36580000  1.0 -0.1093048615
C  C26  1  0.13000000  0.83240000  0.13420000  1.0 -0.1093048615
C  C27  1  0.16760000  0.87000000  0.63420000  1.0 -0.1093048615
C  C28  1  0.87000000  0.16760000  0.86580000  1.0 -0.1093048615
C  C29  1  0.95400000  0.17960000  0.26470000  1.0 0.6069091183
C  C30  1  0.17960000  0.95400000  0.23530000  1.0 0.6069091183
C  C31  1  0.04600000  0.82040000  0.73530000  1.0 0.6069091183
C  C32  1  0.82040000  0.04600000  0.76470000  1.0 0.6069091183
C  C33  1  0.54330000  0.33810000  0.18740000  1.0 0.0586986241
C  C34  1  0.33810000  0.54330000  0.31260000  1.0 0.0586986241
C  C35  1  0.45670000  0.66190000  0.81260000  1.0 0.0586986241
C  C36  1  0.66190000  0.45670000  0.68740000  1.0 0.0586986241
C  C37  1  0.43770000  0.30530000  0.17600000  1.0 -0.1400674156
C  C38  1  0.30530000  0.43770000  0.32400000  1.0 -0.1400674156
C  C39  1  0.56230000  0.69470000  0.82400000  1.0 -0.1400674156
C  C40  1  0.69470000  0.56230000  0.67600000  1.0 -0.1400674156
C  C41  1  0.34490000  0.37510000  0.11870000  1.0 -0.0125613118
C  C42  1  0.37510000  0.34490000  0.38130000  1.0 -0.0125613118
C  C43  1  0.65510000  0.62490000  0.88130000  1.0 -0.0125613118
C  C44  1  0.62490000  0.65510000  0.61870000  1.0 -0.0125613118
C  C45  1  0.35550000  0.48230000  0.07680000  1.0 -0.1093048615
C  C46  1  0.48230000  0.35550000  0.42320000  1.0 -0.1093048615
C  C47  1  0.64450000  0.51770000  0.92320000  1.0 -0.1093048615
C  C48  1  0.51770000  0.64450000  0.57680000  1.0 -0.1093048615
C  C49  1  0.45840000  0.51880000  0.09210000  1.0 -0.046915524
C  C50  1  0.51880000  0.45840000  0.40790000  1.0 -0.046915524
C  C51  1  0.54160000  0.48120000  0.90790000  1.0 -0.046915524
C  C52  1  0.48120000  0.54160000  0.59210000  1.0 -0.046915524
C  C53  1  0.55100000  0.44560000  0.14470000  1.0 -0.1340357143
C  C54  1  0.44560000  0.55100000  0.35530000  1.0 -0.1340357143
C  C55  1  0.44900000  0.55440000  0.85530000  1.0 -0.1340357143
C  C56  1  0.55440000  0.44900000  0.64470000  1.0 -0.1340357143
C  C57  1  0.23160000  0.33720000  0.10620000  1.0 0.5859113854
C  C58  1  0.33720000  0.23160000  0.39380000  1.0 0.5859113854
C  C59  1  0.76840000  0.66280000  0.89380000  1.0 0.5859113854
C  C60  1  0.66280000  0.76840000  0.60620000  1.0 0.5859113854
C  C61  1  0.47330000  0.63570000  0.05560000  1.0 0.5445806307
C  C62  1  0.63570000  0.47330000  0.44440000  1.0 0.5445806307
C  C63  1  0.52670000  0.36430000  0.94440000  1.0 0.5445806307
C  C64  1  0.36430000  0.52670000  0.55560000  1.0 0.5445806307
O  O1  1  0.80579000  0.99959000  0.51880000  1.0 -0.5191940444
O  O2  1  0.99959000  0.80579000  0.98120000  1.0 -0.5191940444
O  O3  1  0.19421000  0.00041000  0.48120000  1.0 -0.5191940444
O  O4  1  0.00041000  0.19421000  0.01880000  1.0 -0.5191940444
O  O5  1  0.63269000  0.08549000  0.49540000  1.0 -0.5577088374
O  O6  1  0.08549000  0.63269000  0.00460000  1.0 -0.5577088374
O  O7  1  0.36731000  0.91451000  0.50460000  1.0 -0.5577088374
O  O8  1  0.91451000  0.36731000  0.99540000  1.0 -0.5577088374
O  O9  1  0.22389000  0.24489000  0.15030000  1.0 -0.5191940444
O  O10  1  0.24489000  0.22389000  0.34970000  1.0 -0.5191940444
O  O11  1  0.77611000  0.75511000  0.84970000  1.0 -0.5191940444
O  O12  1  0.75511000  0.77611000  0.65030000  1.0 -0.5191940444
O  O13  1  0.15350000  0.39690000  0.05080000  1.0 -0.5577088374
O  O14  1  0.39690000  0.15350000  0.44920000  1.0 -0.5577088374
O  O15  1  0.84650000  0.60310000  0.94920000  1.0 -0.5577088374
O  O16  1  0.60310000  0.84650000  0.55080000  1.0 -0.5577088374
O  O17  1  0.38170000  0.69910000  0.00500000  1.0 -0.439997122
O  O18  1  0.69910000  0.38170000  0.49500000  1.0 -0.439997122
O  O19  1  0.61830000  0.30090000  0.99500000  1.0 -0.439997122
O  O20  1  0.30090000  0.61830000  0.50500000  1.0 -0.439997122
O  O21  1  0.56260000  0.66960000  0.07280000  1.0 -0.4846078533
O  O22  1  0.66960000  0.56260000  0.42720000  1.0 -0.486531623
O  O23  1  0.43740000  0.33040000  0.92720000  1.0 -0.486531623
O  O24  1  0.33040000  0.43740000  0.57280000  1.0 -0.486531623
O  O25  1  0.96028000  0.23188000  0.19150000  1.0 -0.5401960689
O  O26  1  0.23188000  0.96028000  0.30850000  1.0 -0.5401960689
O  O27  1  0.03972000  0.76812000  0.80850000  1.0 -0.5401960689
O  O28  1  0.76812000  0.03972000  0.69150000  1.0 -0.5401960689
O  O29  1  0.03340000  0.12060000  0.32340000  1.0 -0.5401960689
O  O30  1  0.12060000  0.03340000  0.17660000  1.0 -0.5401960689
O  O31  1  0.96660000  0.87940000  0.67660000  1.0 -0.5401960689
O  O32  1  0.87940000  0.96660000  0.82340000  1.0 -0.5401960689
