# DDEC6 charges by PACMAN v1.1 (https://github.com/mtap-research/PACMAN-charge/)
data_YUBGOU_FSR_pacman
_symmetry_space_group_name_H-M   'P 1'
_cell_length_a   18.35610000
_cell_length_b   17.60690000
_cell_length_c   24.64040000
_cell_angle_alpha   90.00000000
_cell_angle_beta   92.61100000
_cell_angle_gamma   90.00000000
_symmetry_Int_Tables_number   1
_chemical_formula_structural   Zn3H40C68N4O19
_chemical_formula_sum   'Zn12 H160 C272 N16 O76'
_cell_volume   7955.36235514
_cell_formula_units_Z   4
loop_
 _symmetry_equiv_pos_site_id
 _symmetry_equiv_pos_as_xyz
  1  'x, y, z'
loop_
 _atom_site_type_symbol
 _atom_site_label
 _atom_site_symmetry_multiplicity
 _atom_site_fract_x
 _atom_site_fract_y
 _atom_site_fract_z
 _atom_site_occupancy
 _atom_site_charge
Zn  Zn1  1  0.76900000  0.37891000  0.38346000  1.0 0.8393392124
Zn  Zn2  1  0.23099000  0.11253000  0.36980000  1.0 0.8337910035
Zn  Zn3  1  0.23240000  0.99448000  0.24026000  1.0 1.0749041298
Zn  Zn4  1  0.23100000  0.87891000  0.11654000  1.0 0.8393392124
Zn  Zn5  1  0.76901000  0.61253000  0.13020000  1.0 0.8337910035
Zn  Zn6  1  0.76760000  0.49448000  0.25974000  1.0 1.0749041298
Zn  Zn7  1  0.23100000  0.62109000  0.61654000  1.0 0.8393392124
Zn  Zn8  1  0.76901000  0.88747000  0.63020000  1.0 0.8337910035
Zn  Zn9  1  0.76760000  0.00552000  0.75974000  1.0 1.0749041298
Zn  Zn10  1  0.76900000  0.12109000  0.88346000  1.0 0.8393392124
Zn  Zn11  1  0.23099000  0.38747000  0.86980000  1.0 0.8337910035
Zn  Zn12  1  0.23240000  0.50552000  0.74026000  1.0 1.0749041298
H  H1  1  0.59407000  0.93618000  0.12349000  1.0 0.1390728942
H  H2  1  0.47322000  0.89922000  0.11001000  1.0 0.1122848474
H  H3  1  0.35467000  0.61777000  0.46444000  1.0 0.1201263995
H  H4  1  0.45991000  0.17133000  0.55046000  1.0 0.1482111948
H  H5  1  0.47270000  0.37196000  0.20611000  1.0 0.1294762712
H  H6  1  0.72958000  0.14698000  0.59801000  1.0 0.1201263995
H  H7  1  0.77229000  0.08725000  0.56443000  1.0 0.1201263995
H  H8  1  0.76639000  0.27218000  0.57322000  1.0 0.1390728942
H  H9  1  0.68494000  0.29718000  0.18177000  1.0 0.1201263995
H  H10  1  0.22792000  0.41148000  0.54032000  1.0 0.1294762712
H  H11  1  0.26611000  0.35242000  0.57983000  1.0 0.1294762712
H  H12  1  0.52989000  0.32911000  0.55612000  1.0 0.1482111948
H  H13  1  0.78762000  0.36308000  0.50740000  1.0 0.1122848474
H  H14  1  0.64189000  0.88348000  0.47633000  1.0 0.1390728942
H  H15  1  0.41098000  0.55284000  0.12305000  1.0 0.1390728942
H  H16  1  0.59734000  0.41004000  0.20869000  1.0 0.1201263995
H  H17  1  0.88523000  0.64132000  0.33918000  1.0 0.1294762712
H  H18  1  0.52486000  0.59368000  0.11394000  1.0 0.1201263995
H  H19  1  0.75071000  0.16464000  0.31001000  1.0 0.1201263995
H  H20  1  0.41138000  0.07936000  0.20058000  1.0 0.1201263995
H  H21  1  0.53401000  0.11357000  0.21717000  1.0 0.1390728942
H  H22  1  0.36149000  0.30348000  0.13362000  1.0 0.1482111948
H  H23  1  0.72337000  0.06222000  0.26372000  1.0 0.1482111948
H  H24  1  0.06471000  0.99044000  0.44257000  1.0 0.1201263995
H  H25  1  0.63293000  0.18770000  0.13952000  1.0 0.1482111948
H  H26  1  0.32151000  0.19221000  0.17374000  1.0 0.1294762712
H  H27  1  0.23997000  0.32073000  0.29058000  1.0 0.1122848474
H  H28  1  0.79600000  0.20656000  0.40046000  1.0 0.1122848474
H  H29  1  0.75133000  0.11363000  0.45637000  1.0 0.1294762712
H  H30  1  0.19385000  0.13862000  0.49151000  1.0 0.1294762712
H  H31  1  0.93466000  0.74590000  0.38700000  1.0 0.1294762712
H  H32  1  0.29495000  0.42985000  0.25850000  1.0 0.1294762712
H  H33  1  0.92327000  0.51809000  0.47434000  1.0 0.1201263995
H  H34  1  0.18937000  0.24390000  0.54155000  1.0 0.1482111948
H  H35  1  0.06716000  0.74398000  0.36385000  1.0 0.1294762712
H  H36  1  0.99786000  0.61457000  0.50855000  1.0 0.1390728942
H  H37  1  0.28447000  0.36757000  0.43765000  1.0 0.1390728942
H  H38  1  0.12225000  0.84895000  0.32288000  1.0 0.1294762712
H  H39  1  0.26357000  0.25953000  0.38181000  1.0 0.1201263995
H  H40  1  0.02170000  0.88037000  0.49055000  1.0 0.1390728942
H  H41  1  0.40593000  0.43618000  0.37651000  1.0 0.1390728942
H  H42  1  0.52678000  0.39922000  0.38999000  1.0 0.1122848474
H  H43  1  0.64533000  0.11777000  0.03556000  1.0 0.1201263995
H  H44  1  0.54009000  0.67133000  0.94954000  1.0 0.1482111948
H  H45  1  0.52730000  0.87196000  0.29389000  1.0 0.1294762712
H  H46  1  0.27042000  0.64698000  0.90199000  1.0 0.1201263995
H  H47  1  0.22771000  0.58725000  0.93557000  1.0 0.1201263995
H  H48  1  0.23361000  0.77218000  0.92678000  1.0 0.1390728942
H  H49  1  0.31506000  0.79718000  0.31823000  1.0 0.1201263995
H  H50  1  0.77208000  0.91148000  0.95968000  1.0 0.1294762712
H  H51  1  0.73389000  0.85242000  0.92017000  1.0 0.1294762712
H  H52  1  0.47011000  0.82911000  0.94388000  1.0 0.1482111948
H  H53  1  0.21238000  0.86308000  0.99260000  1.0 0.1122848474
H  H54  1  0.35811000  0.38348000  0.02367000  1.0 0.1390728942
H  H55  1  0.58902000  0.05284000  0.37695000  1.0 0.1390728942
H  H56  1  0.40266000  0.91004000  0.29131000  1.0 0.1201263995
H  H57  1  0.11477000  0.14132000  0.16082000  1.0 0.1294762712
H  H58  1  0.47514000  0.09368000  0.38606000  1.0 0.1201263995
H  H59  1  0.24929000  0.66464000  0.18999000  1.0 0.1201263995
H  H60  1  0.58862000  0.57936000  0.29942000  1.0 0.1201263995
H  H61  1  0.46599000  0.61357000  0.28283000  1.0 0.1390728942
H  H62  1  0.63851000  0.80348000  0.36638000  1.0 0.1482111948
H  H63  1  0.27663000  0.56222000  0.23628000  1.0 0.1482111948
H  H64  1  0.93529000  0.49044000  0.05743000  1.0 0.1201263995
H  H65  1  0.36707000  0.68770000  0.36048000  1.0 0.1482111948
H  H66  1  0.67849000  0.69221000  0.32626000  1.0 0.1294762712
H  H67  1  0.76003000  0.82073000  0.20942000  1.0 0.1122848474
H  H68  1  0.20400000  0.70656000  0.09954000  1.0 0.1122848474
H  H69  1  0.24867000  0.61363000  0.04363000  1.0 0.1294762712
H  H70  1  0.80615000  0.63862000  0.00849000  1.0 0.1294762712
H  H71  1  0.06534000  0.24590000  0.11300000  1.0 0.1294762712
H  H72  1  0.70505000  0.92985000  0.24150000  1.0 0.1294762712
H  H73  1  0.07673000  0.01809000  0.02566000  1.0 0.1201263995
H  H74  1  0.81063000  0.74390000  0.95845000  1.0 0.1482111948
H  H75  1  0.93284000  0.24398000  0.13615000  1.0 0.1294762712
H  H76  1  0.00214000  0.11457000  0.99145000  1.0 0.1390728942
H  H77  1  0.71553000  0.86757000  0.06235000  1.0 0.1390728942
H  H78  1  0.87775000  0.34895000  0.17712000  1.0 0.1294762712
H  H79  1  0.73643000  0.75953000  0.11819000  1.0 0.1201263995
H  H80  1  0.97830000  0.38037000  0.00945000  1.0 0.1390728942
H  H81  1  0.40593000  0.06382000  0.87651000  1.0 0.1390728942
H  H82  1  0.52678000  0.10078000  0.88999000  1.0 0.1122848474
H  H83  1  0.64533000  0.38223000  0.53556000  1.0 0.1201263995
H  H84  1  0.54009000  0.82867000  0.44954000  1.0 0.1482111948
H  H85  1  0.52730000  0.62804000  0.79389000  1.0 0.1294762712
H  H86  1  0.27042000  0.85302000  0.40199000  1.0 0.1201263995
H  H87  1  0.22771000  0.91275000  0.43557000  1.0 0.1201263995
H  H88  1  0.23361000  0.72782000  0.42678000  1.0 0.1390728942
H  H89  1  0.31506000  0.70282000  0.81823000  1.0 0.1201263995
H  H90  1  0.77208000  0.58852000  0.45968000  1.0 0.1294762712
H  H91  1  0.73389000  0.64758000  0.42017000  1.0 0.1294762712
H  H92  1  0.47011000  0.67089000  0.44388000  1.0 0.1482111948
H  H93  1  0.21238000  0.63692000  0.49260000  1.0 0.1122848474
H  H94  1  0.35811000  0.11652000  0.52367000  1.0 0.1390728942
H  H95  1  0.58902000  0.44716000  0.87695000  1.0 0.1390728942
H  H96  1  0.40266000  0.58996000  0.79131000  1.0 0.1201263995
H  H97  1  0.11477000  0.35868000  0.66082000  1.0 0.1294762712
H  H98  1  0.47514000  0.40632000  0.88606000  1.0 0.1201263995
H  H99  1  0.24929000  0.83536000  0.68999000  1.0 0.1201263995
H  H100  1  0.58862000  0.92064000  0.79942000  1.0 0.1201263995
H  H101  1  0.46599000  0.88643000  0.78283000  1.0 0.1390728942
H  H102  1  0.63851000  0.69652000  0.86638000  1.0 0.1482111948
H  H103  1  0.27663000  0.93778000  0.73628000  1.0 0.1482111948
H  H104  1  0.93529000  0.00956000  0.55743000  1.0 0.1201263995
H  H105  1  0.36707000  0.81230000  0.86048000  1.0 0.1482111948
H  H106  1  0.67849000  0.80779000  0.82626000  1.0 0.1294762712
H  H107  1  0.76003000  0.67927000  0.70942000  1.0 0.1122848474
H  H108  1  0.20400000  0.79344000  0.59954000  1.0 0.1122848474
H  H109  1  0.24867000  0.88637000  0.54363000  1.0 0.1294762712
H  H110  1  0.80615000  0.86138000  0.50849000  1.0 0.1294762712
H  H111  1  0.06534000  0.25410000  0.61300000  1.0 0.1294762712
H  H112  1  0.70505000  0.57015000  0.74150000  1.0 0.1294762712
H  H113  1  0.07673000  0.48191000  0.52566000  1.0 0.1201263995
H  H114  1  0.81063000  0.75610000  0.45845000  1.0 0.1482111948
H  H115  1  0.93284000  0.25602000  0.63615000  1.0 0.1294762712
H  H116  1  0.00214000  0.38543000  0.49145000  1.0 0.1390728942
H  H117  1  0.71553000  0.63243000  0.56235000  1.0 0.1390728942
H  H118  1  0.87775000  0.15105000  0.67712000  1.0 0.1294762712
H  H119  1  0.73643000  0.74047000  0.61819000  1.0 0.1201263995
H  H120  1  0.97830000  0.11963000  0.50945000  1.0 0.1390728942
H  H121  1  0.59407000  0.56382000  0.62349000  1.0 0.1390728942
H  H122  1  0.47322000  0.60078000  0.61001000  1.0 0.1122848474
H  H123  1  0.35467000  0.88223000  0.96444000  1.0 0.1201263995
H  H124  1  0.45991000  0.32867000  0.05046000  1.0 0.1482111948
H  H125  1  0.47270000  0.12804000  0.70611000  1.0 0.1294762712
H  H126  1  0.72958000  0.35302000  0.09801000  1.0 0.1201263995
H  H127  1  0.77229000  0.41275000  0.06443000  1.0 0.1201263995
H  H128  1  0.76639000  0.22782000  0.07322000  1.0 0.1390728942
H  H129  1  0.68494000  0.20282000  0.68177000  1.0 0.1201263995
H  H130  1  0.22792000  0.08852000  0.04032000  1.0 0.1294762712
H  H131  1  0.26611000  0.14758000  0.07983000  1.0 0.1294762712
H  H132  1  0.52989000  0.17089000  0.05612000  1.0 0.1482111948
H  H133  1  0.78762000  0.13692000  0.00740000  1.0 0.1122848474
H  H134  1  0.64189000  0.61652000  0.97633000  1.0 0.1390728942
H  H135  1  0.41098000  0.94716000  0.62305000  1.0 0.1390728942
H  H136  1  0.59734000  0.08996000  0.70869000  1.0 0.1201263995
H  H137  1  0.88523000  0.85868000  0.83918000  1.0 0.1294762712
H  H138  1  0.52486000  0.90632000  0.61394000  1.0 0.1201263995
H  H139  1  0.75071000  0.33536000  0.81001000  1.0 0.1201263995
H  H140  1  0.41138000  0.42064000  0.70058000  1.0 0.1201263995
H  H141  1  0.53401000  0.38643000  0.71717000  1.0 0.1390728942
H  H142  1  0.36149000  0.19652000  0.63362000  1.0 0.1482111948
H  H143  1  0.72337000  0.43778000  0.76372000  1.0 0.1482111948
H  H144  1  0.06471000  0.50956000  0.94257000  1.0 0.1201263995
H  H145  1  0.63293000  0.31230000  0.63952000  1.0 0.1482111948
H  H146  1  0.32151000  0.30779000  0.67374000  1.0 0.1294762712
H  H147  1  0.23997000  0.17927000  0.79058000  1.0 0.1122848474
H  H148  1  0.79600000  0.29344000  0.90046000  1.0 0.1122848474
H  H149  1  0.75133000  0.38637000  0.95637000  1.0 0.1294762712
H  H150  1  0.19385000  0.36138000  0.99151000  1.0 0.1294762712
H  H151  1  0.93466000  0.75410000  0.88700000  1.0 0.1294762712
H  H152  1  0.29495000  0.07015000  0.75850000  1.0 0.1294762712
H  H153  1  0.92327000  0.98191000  0.97434000  1.0 0.1201263995
H  H154  1  0.18937000  0.25610000  0.04155000  1.0 0.1482111948
H  H155  1  0.06716000  0.75602000  0.86385000  1.0 0.1294762712
H  H156  1  0.99786000  0.88543000  0.00855000  1.0 0.1390728942
H  H157  1  0.28447000  0.13243000  0.93765000  1.0 0.1390728942
H  H158  1  0.12225000  0.65105000  0.82288000  1.0 0.1294762712
H  H159  1  0.26357000  0.24047000  0.88181000  1.0 0.1201263995
H  H160  1  0.02170000  0.61963000  0.99055000  1.0 0.1390728942
C  C1  1  0.53090000  0.01870000  0.50770000  1.0 0.0345665588
C  C2  1  0.40070000  0.52470000  0.49580000  1.0 -0.0581544812
C  C3  1  0.52950000  0.08730000  0.53310000  1.0 -0.0522561748
C  C4  1  0.57320000  0.03190000  0.16950000  1.0 0.2917299428
C  C5  1  0.67000000  0.01060000  0.51870000  1.0 0.4213757672
C  C6  1  0.42540000  0.98200000  0.15620000  1.0 -0.1122956454
C  C7  1  0.72900000  0.24770000  0.24740000  1.0 -0.0975071556
C  C8  1  0.40110000  0.37240000  0.54610000  1.0 0.4213757672
C  C9  1  0.55700000  0.96420000  0.13850000  1.0 -0.2445911543
C  C10  1  0.46960000  0.40920000  0.53290000  1.0 -0.0522561748
C  C11  1  0.32700000  0.48870000  0.50470000  1.0 0.4408404091
C  C12  1  0.57410000  0.51050000  0.15970000  1.0 -0.0292827302
C  C13  1  0.48430000  0.94160000  0.13140000  1.0 -0.0816069641
C  C14  1  0.65350000  0.53240000  0.15680000  1.0 0.563143736
C  C15  1  0.39810000  0.59200000  0.47230000  1.0 -0.0816069641
C  C16  1  0.59820000  0.12580000  0.55010000  1.0 0.4333681622
C  C17  1  0.60110000  0.97690000  0.50330000  1.0 -0.0816069641
C  C18  1  0.46450000  0.48080000  0.50720000  1.0 0.0345665588
C  C19  1  0.75140000  0.18590000  0.52160000  1.0 0.1482111948
C  C20  1  0.25190000  0.31540000  0.50500000  1.0 0.1390728942
C  C21  1  0.28220000  0.24460000  0.23900000  1.0 -0.0292827302
C  C22  1  0.90240000  0.56460000  0.40110000  1.0 -0.0581544812
C  C23  1  0.46180000  0.12260000  0.53600000  1.0 -0.0931742902
C  C24  1  0.86790000  0.49620000  0.37710000  1.0 0.5697705605
C  C25  1  0.48460000  0.41790000  0.19010000  1.0 -0.2310048594
C  C26  1  0.73330000  0.12440000  0.56230000  1.0 -0.1328670225
C  C27  1  0.42990000  0.45870000  0.16840000  1.0 0.2598503091
C  C28  1  0.76520000  0.25850000  0.53670000  1.0 -0.1919509574
C  C29  1  0.69120000  0.25040000  0.19890000  1.0 -0.0581544812
C  C30  1  0.26640000  0.37380000  0.54360000  1.0 -0.1385380022
C  C31  1  0.75690000  0.31510000  0.27310000  1.0 0.563143736
C  C32  1  0.53030000  0.37730000  0.54060000  1.0 -0.0714975848
C  C33  1  0.77790000  0.31340000  0.49650000  1.0 0.1044968449
C  C34  1  0.59840000  0.90940000  0.48060000  1.0 -0.0714975848
C  C35  1  0.44880000  0.52490000  0.13960000  1.0 -0.2089743415
C  C36  1  0.56060000  0.43820000  0.19090000  1.0 -0.0714975848
C  C37  1  0.90500000  0.63560000  0.37440000  1.0 -0.0816069641
C  C38  1  0.51630000  0.55030000  0.13420000  1.0 -0.0931742902
C  C39  1  0.24540000  0.17010000  0.25930000  1.0 0.563143736
C  C40  1  0.35090000  0.95720000  0.14700000  1.0 0.5697705605
C  C41  1  0.73280000  0.16900000  0.27420000  1.0 -0.0522561748
C  C42  1  0.44750000  0.04940000  0.18620000  1.0 -0.0387324608
C  C43  1  0.52150000  0.07250000  0.19500000  1.0 -0.2594099633
C  C44  1  0.34090000  0.30570000  0.16740000  1.0 -0.2089743415
C  C45  1  0.71190000  0.10930000  0.24860000  1.0 -0.1829627166
C  C46  1  0.06830000  0.94150000  0.42880000  1.0 -0.0931742902
C  C47  1  0.65980000  0.18260000  0.17220000  1.0 -0.2310048594
C  C48  1  0.66960000  0.11190000  0.19480000  1.0 0.2781694093
C  C49  1  0.31570000  0.23900000  0.19060000  1.0 -0.0816069641
C  C50  1  0.33600000  0.37470000  0.19300000  1.0 0.2383278095
C  C51  1  0.26970000  0.31720000  0.26110000  1.0 -0.0931742902
C  C52  1  0.77910000  0.22100000  0.43390000  1.0 0.0425508235
C  C53  1  0.75910000  0.16330000  0.46810000  1.0 -0.1744895308
C  C54  1  0.20960000  0.18500000  0.47820000  1.0 0.0501976692
C  C55  1  0.93790000  0.69750000  0.40200000  1.0 -0.2089743415
C  C56  1  0.04930000  0.80670000  0.43100000  1.0 0.2103776754
C  C57  1  0.97220000  0.68710000  0.44750000  1.0 0.2103776754
C  C58  1  0.29920000  0.38320000  0.24120000  1.0 -0.2089743415
C  C59  1  0.93130000  0.56110000  0.45350000  1.0 -0.0816069641
C  C60  1  0.21520000  0.24740000  0.51010000  1.0 -0.2310048594
C  C61  1  0.07130000  0.79140000  0.38040000  1.0 -0.2089743415
C  C62  1  0.97170000  0.62000000  0.47560000  1.0 -0.1999159894
C  C63  1  0.26650000  0.32280000  0.45190000  1.0 -0.2501703046
C  C64  1  0.10080000  0.85520000  0.35610000  1.0 -0.0931742902
C  C65  1  0.25140000  0.25340000  0.41780000  1.0 0.1294762712
C  C66  1  0.13960000  0.99480000  0.35200000  1.0 0.5799192646
C  C67  1  0.04220000  0.87630000  0.45690000  1.0 -0.2089743415
C  C68  1  0.10010000  0.92620000  0.37820000  1.0 -0.0292827302
C  C69  1  0.46910000  0.51870000  0.99230000  1.0 0.0345665588
C  C70  1  0.59930000  0.02470000  0.00420000  1.0 -0.0581544812
C  C71  1  0.47050000  0.58730000  0.96690000  1.0 -0.0522561748
C  C72  1  0.42680000  0.53190000  0.33050000  1.0 0.2917299428
C  C73  1  0.33000000  0.51060000  0.98130000  1.0 0.4213757672
C  C74  1  0.57460000  0.48200000  0.34380000  1.0 -0.1122956454
C  C75  1  0.27100000  0.74770000  0.25260000  1.0 -0.0975071556
C  C76  1  0.59890000  0.87240000  0.95390000  1.0 0.4213757672
C  C77  1  0.44300000  0.46420000  0.36150000  1.0 -0.2445911543
C  C78  1  0.53040000  0.90920000  0.96710000  1.0 -0.0522561748
C  C79  1  0.67300000  0.98870000  0.99530000  1.0 0.4408404091
C  C80  1  0.42590000  0.01050000  0.34030000  1.0 -0.0292827302
C  C81  1  0.51570000  0.44160000  0.36860000  1.0 -0.0816069641
C  C82  1  0.34650000  0.03240000  0.34320000  1.0 0.563143736
C  C83  1  0.60190000  0.09200000  0.02770000  1.0 -0.0816069641
C  C84  1  0.40180000  0.62580000  0.94990000  1.0 0.4333681622
C  C85  1  0.39890000  0.47690000  0.99670000  1.0 -0.0816069641
C  C86  1  0.53550000  0.98080000  0.99280000  1.0 0.0345665588
C  C87  1  0.24860000  0.68590000  0.97840000  1.0 0.1482111948
C  C88  1  0.74810000  0.81540000  0.99500000  1.0 0.1390728942
C  C89  1  0.71780000  0.74460000  0.26100000  1.0 -0.0292827302
C  C90  1  0.09760000  0.06460000  0.09890000  1.0 -0.0581544812
C  C91  1  0.53820000  0.62260000  0.96400000  1.0 -0.0931742902
C  C92  1  0.13210000  0.99620000  0.12290000  1.0 0.5697705605
C  C93  1  0.51540000  0.91790000  0.30990000  1.0 -0.2310048594
C  C94  1  0.26670000  0.62440000  0.93770000  1.0 -0.1328670225
C  C95  1  0.57010000  0.95870000  0.33160000  1.0 0.2598503091
C  C96  1  0.23480000  0.75850000  0.96330000  1.0 -0.1919509574
C  C97  1  0.30880000  0.75040000  0.30110000  1.0 -0.0581544812
C  C98  1  0.73360000  0.87380000  0.95640000  1.0 -0.1385380022
C  C99  1  0.24310000  0.81510000  0.22690000  1.0 0.563143736
C  C100  1  0.46970000  0.87730000  0.95940000  1.0 -0.0714975848
C  C101  1  0.22210000  0.81340000  0.00350000  1.0 0.1044968449
C  C102  1  0.40160000  0.40940000  0.01940000  1.0 -0.0714975848
C  C103  1  0.55120000  0.02490000  0.36040000  1.0 -0.2089743415
C  C104  1  0.43940000  0.93820000  0.30910000  1.0 -0.0714975848
C  C105  1  0.09500000  0.13560000  0.12560000  1.0 -0.0816069641
C  C106  1  0.48370000  0.05030000  0.36580000  1.0 -0.0931742902
C  C107  1  0.75460000  0.67010000  0.24070000  1.0 0.563143736
C  C108  1  0.64910000  0.45720000  0.35300000  1.0 0.5697705605
C  C109  1  0.26720000  0.66900000  0.22580000  1.0 -0.0522561748
C  C110  1  0.55250000  0.54940000  0.31380000  1.0 -0.0387324608
C  C111  1  0.47850000  0.57250000  0.30500000  1.0 -0.2594099633
C  C112  1  0.65910000  0.80570000  0.33260000  1.0 -0.2089743415
C  C113  1  0.28810000  0.60930000  0.25140000  1.0 -0.1829627166
C  C114  1  0.93170000  0.44150000  0.07120000  1.0 -0.0931742902
C  C115  1  0.34020000  0.68260000  0.32780000  1.0 -0.2310048594
C  C116  1  0.33040000  0.61190000  0.30520000  1.0 0.2781694093
C  C117  1  0.68430000  0.73900000  0.30940000  1.0 -0.0816069641
C  C118  1  0.66400000  0.87470000  0.30700000  1.0 0.2383278095
C  C119  1  0.73030000  0.81720000  0.23890000  1.0 -0.0931742902
C  C120  1  0.22090000  0.72100000  0.06610000  1.0 0.0425508235
C  C121  1  0.24090000  0.66330000  0.03190000  1.0 -0.1744895308
C  C122  1  0.79040000  0.68500000  0.02180000  1.0 0.0501976692
C  C123  1  0.06210000  0.19750000  0.09800000  1.0 -0.2089743415
C  C124  1  0.95070000  0.30670000  0.06900000  1.0 0.2103776754
C  C125  1  0.02780000  0.18710000  0.05250000  1.0 0.2103776754
C  C126  1  0.70080000  0.88320000  0.25880000  1.0 -0.2089743415
C  C127  1  0.06870000  0.06110000  0.04650000  1.0 -0.0816069641
C  C128  1  0.78480000  0.74740000  0.98990000  1.0 -0.2310048594
C  C129  1  0.92870000  0.29140000  0.11960000  1.0 -0.2089743415
C  C130  1  0.02830000  0.12000000  0.02440000  1.0 -0.1999159894
C  C131  1  0.73350000  0.82280000  0.04810000  1.0 -0.2501703046
C  C132  1  0.89920000  0.35520000  0.14390000  1.0 -0.0931742902
C  C133  1  0.74860000  0.75340000  0.08220000  1.0 0.1294762712
C  C134  1  0.86040000  0.49480000  0.14800000  1.0 0.5799192646
C  C135  1  0.95780000  0.37630000  0.04310000  1.0 -0.2089743415
C  C136  1  0.89990000  0.42620000  0.12180000  1.0 -0.0292827302
C  C137  1  0.46910000  0.98130000  0.49230000  1.0 0.0345665588
C  C138  1  0.59930000  0.47530000  0.50420000  1.0 -0.0581544812
C  C139  1  0.47050000  0.91270000  0.46690000  1.0 -0.0522561748
C  C140  1  0.42680000  0.96810000  0.83050000  1.0 0.2917299428
C  C141  1  0.33000000  0.98940000  0.48130000  1.0 0.4213757672
C  C142  1  0.57460000  0.01800000  0.84380000  1.0 -0.1122956454
C  C143  1  0.27100000  0.75230000  0.75260000  1.0 -0.0975071556
C  C144  1  0.59890000  0.62760000  0.45390000  1.0 0.4213757672
C  C145  1  0.44300000  0.03580000  0.86150000  1.0 -0.2445911543
C  C146  1  0.53040000  0.59080000  0.46710000  1.0 -0.0522561748
C  C147  1  0.67300000  0.51130000  0.49530000  1.0 0.4408404091
C  C148  1  0.42590000  0.48950000  0.84030000  1.0 -0.0292827302
C  C149  1  0.51570000  0.05840000  0.86860000  1.0 -0.0816069641
C  C150  1  0.34650000  0.46760000  0.84320000  1.0 0.563143736
C  C151  1  0.60190000  0.40800000  0.52770000  1.0 -0.0816069641
C  C152  1  0.40180000  0.87420000  0.44990000  1.0 0.4333681622
C  C153  1  0.39890000  0.02310000  0.49670000  1.0 -0.0816069641
C  C154  1  0.53550000  0.51920000  0.49280000  1.0 0.0345665588
C  C155  1  0.24860000  0.81410000  0.47840000  1.0 0.1482111948
C  C156  1  0.74810000  0.68460000  0.49500000  1.0 0.1390728942
C  C157  1  0.71780000  0.75540000  0.76100000  1.0 -0.0292827302
C  C158  1  0.09760000  0.43540000  0.59890000  1.0 -0.0581544812
C  C159  1  0.53820000  0.87740000  0.46400000  1.0 -0.0931742902
C  C160  1  0.13210000  0.50380000  0.62290000  1.0 0.5697705605
C  C161  1  0.51540000  0.58210000  0.80990000  1.0 -0.2310048594
C  C162  1  0.26670000  0.87560000  0.43770000  1.0 -0.1328670225
C  C163  1  0.57010000  0.54130000  0.83160000  1.0 0.2598503091
C  C164  1  0.23480000  0.74150000  0.46330000  1.0 -0.1919509574
C  C165  1  0.30880000  0.74960000  0.80110000  1.0 -0.0581544812
C  C166  1  0.73360000  0.62620000  0.45640000  1.0 -0.1385380022
C  C167  1  0.24310000  0.68490000  0.72690000  1.0 0.563143736
C  C168  1  0.46970000  0.62270000  0.45940000  1.0 -0.0714975848
C  C169  1  0.22210000  0.68660000  0.50350000  1.0 0.1044968449
C  C170  1  0.40160000  0.09060000  0.51940000  1.0 -0.0714975848
C  C171  1  0.55120000  0.47510000  0.86040000  1.0 -0.2089743415
C  C172  1  0.43940000  0.56180000  0.80910000  1.0 -0.0714975848
C  C173  1  0.09500000  0.36440000  0.62560000  1.0 -0.0816069641
C  C174  1  0.48370000  0.44970000  0.86580000  1.0 -0.0931742902
C  C175  1  0.75460000  0.82990000  0.74070000  1.0 0.563143736
C  C176  1  0.64910000  0.04280000  0.85300000  1.0 0.5697705605
C  C177  1  0.26720000  0.83100000  0.72580000  1.0 -0.0522561748
C  C178  1  0.55250000  0.95060000  0.81380000  1.0 -0.0387324608
C  C179  1  0.47850000  0.92750000  0.80500000  1.0 -0.2594099633
C  C180  1  0.65910000  0.69430000  0.83260000  1.0 -0.2089743415
C  C181  1  0.28810000  0.89070000  0.75140000  1.0 -0.1829627166
C  C182  1  0.93170000  0.05850000  0.57120000  1.0 -0.0931742902
C  C183  1  0.34020000  0.81740000  0.82780000  1.0 -0.2310048594
C  C184  1  0.33040000  0.88810000  0.80520000  1.0 0.2781694093
C  C185  1  0.68430000  0.76100000  0.80940000  1.0 -0.0816069641
C  C186  1  0.66400000  0.62530000  0.80700000  1.0 0.2383278095
C  C187  1  0.73030000  0.68280000  0.73890000  1.0 -0.0931742902
C  C188  1  0.22090000  0.77900000  0.56610000  1.0 0.0425508235
C  C189  1  0.24090000  0.83670000  0.53190000  1.0 -0.1744895308
C  C190  1  0.79040000  0.81500000  0.52180000  1.0 0.0501976692
C  C191  1  0.06210000  0.30250000  0.59800000  1.0 -0.2089743415
C  C192  1  0.95070000  0.19330000  0.56900000  1.0 0.2103776754
C  C193  1  0.02780000  0.31290000  0.55250000  1.0 0.2103776754
C  C194  1  0.70080000  0.61680000  0.75880000  1.0 -0.2089743415
C  C195  1  0.06870000  0.43890000  0.54650000  1.0 -0.0816069641
C  C196  1  0.78480000  0.75260000  0.48990000  1.0 -0.2310048594
C  C197  1  0.92870000  0.20860000  0.61960000  1.0 -0.2089743415
C  C198  1  0.02830000  0.38000000  0.52440000  1.0 -0.1999159894
C  C199  1  0.73350000  0.67720000  0.54810000  1.0 -0.2501703046
C  C200  1  0.89920000  0.14480000  0.64390000  1.0 -0.0931742902
C  C201  1  0.74860000  0.74660000  0.58220000  1.0 0.1294762712
C  C202  1  0.86040000  0.00520000  0.64800000  1.0 0.5799192646
C  C203  1  0.95780000  0.12370000  0.54310000  1.0 -0.2089743415
C  C204  1  0.89990000  0.07380000  0.62180000  1.0 -0.0292827302
C  C205  1  0.53090000  0.48130000  0.00770000  1.0 0.0345665588
C  C206  1  0.40070000  0.97530000  0.99580000  1.0 -0.0581544812
C  C207  1  0.52950000  0.41270000  0.03310000  1.0 -0.0522561748
C  C208  1  0.57320000  0.46810000  0.66950000  1.0 0.2917299428
C  C209  1  0.67000000  0.48940000  0.01870000  1.0 0.4213757672
C  C210  1  0.42540000  0.51800000  0.65620000  1.0 -0.1122956454
C  C211  1  0.72900000  0.25230000  0.74740000  1.0 -0.0975071556
C  C212  1  0.40110000  0.12760000  0.04610000  1.0 0.4213757672
C  C213  1  0.55700000  0.53580000  0.63850000  1.0 -0.2445911543
C  C214  1  0.46960000  0.09080000  0.03290000  1.0 -0.0522561748
C  C215  1  0.32700000  0.01130000  0.00470000  1.0 0.4408404091
C  C216  1  0.57410000  0.98950000  0.65970000  1.0 -0.0292827302
C  C217  1  0.48430000  0.55840000  0.63140000  1.0 -0.0816069641
C  C218  1  0.65350000  0.96760000  0.65680000  1.0 0.563143736
C  C219  1  0.39810000  0.90800000  0.97230000  1.0 -0.0816069641
C  C220  1  0.59820000  0.37420000  0.05010000  1.0 0.4333681622
C  C221  1  0.60110000  0.52310000  0.00330000  1.0 -0.0816069641
C  C222  1  0.46450000  0.01920000  0.00720000  1.0 0.0345665588
C  C223  1  0.75140000  0.31410000  0.02160000  1.0 0.1482111948
C  C224  1  0.25190000  0.18460000  0.00500000  1.0 0.1390728942
C  C225  1  0.28220000  0.25540000  0.73900000  1.0 -0.0292827302
C  C226  1  0.90240000  0.93540000  0.90110000  1.0 -0.0581544812
C  C227  1  0.46180000  0.37740000  0.03600000  1.0 -0.0931742902
C  C228  1  0.86790000  0.00380000  0.87710000  1.0 0.5697705605
C  C229  1  0.48460000  0.08210000  0.69010000  1.0 -0.2310048594
C  C230  1  0.73330000  0.37560000  0.06230000  1.0 -0.1328670225
C  C231  1  0.42990000  0.04130000  0.66840000  1.0 0.2598503091
C  C232  1  0.76520000  0.24150000  0.03670000  1.0 -0.1919509574
C  C233  1  0.69120000  0.24960000  0.69890000  1.0 -0.0581544812
C  C234  1  0.26640000  0.12620000  0.04360000  1.0 -0.1385380022
C  C235  1  0.75690000  0.18490000  0.77310000  1.0 0.563143736
C  C236  1  0.53030000  0.12270000  0.04060000  1.0 -0.0714975848
C  C237  1  0.77790000  0.18660000  0.99650000  1.0 0.1044968449
C  C238  1  0.59840000  0.59060000  0.98060000  1.0 -0.0714975848
C  C239  1  0.44880000  0.97510000  0.63960000  1.0 -0.2089743415
C  C240  1  0.56060000  0.06180000  0.69090000  1.0 -0.0714975848
C  C241  1  0.90500000  0.86440000  0.87440000  1.0 -0.0816069641
C  C242  1  0.51630000  0.94970000  0.63420000  1.0 -0.0931742902
C  C243  1  0.24540000  0.32990000  0.75930000  1.0 0.563143736
C  C244  1  0.35090000  0.54280000  0.64700000  1.0 0.5697705605
C  C245  1  0.73280000  0.33100000  0.77420000  1.0 -0.0522561748
C  C246  1  0.44750000  0.45060000  0.68620000  1.0 -0.0387324608
C  C247  1  0.52150000  0.42750000  0.69500000  1.0 -0.2594099633
C  C248  1  0.34090000  0.19430000  0.66740000  1.0 -0.2089743415
C  C249  1  0.71190000  0.39070000  0.74860000  1.0 -0.1829627166
C  C250  1  0.06830000  0.55850000  0.92880000  1.0 -0.0931742902
C  C251  1  0.65980000  0.31740000  0.67220000  1.0 -0.2310048594
C  C252  1  0.66960000  0.38810000  0.69480000  1.0 0.2781694093
C  C253  1  0.31570000  0.26100000  0.69060000  1.0 -0.0816069641
C  C254  1  0.33600000  0.12530000  0.69300000  1.0 0.2383278095
C  C255  1  0.26970000  0.18280000  0.76110000  1.0 -0.0931742902
C  C256  1  0.77910000  0.27900000  0.93390000  1.0 0.0425508235
C  C257  1  0.75910000  0.33670000  0.96810000  1.0 -0.1744895308
C  C258  1  0.20960000  0.31500000  0.97820000  1.0 0.0501976692
C  C259  1  0.93790000  0.80250000  0.90200000  1.0 -0.2089743415
C  C260  1  0.04930000  0.69330000  0.93100000  1.0 0.2103776754
C  C261  1  0.97220000  0.81290000  0.94750000  1.0 0.2103776754
C  C262  1  0.29920000  0.11680000  0.74120000  1.0 -0.2089743415
C  C263  1  0.93130000  0.93890000  0.95350000  1.0 -0.0816069641
C  C264  1  0.21520000  0.25260000  0.01010000  1.0 -0.2310048594
C  C265  1  0.07130000  0.70860000  0.88040000  1.0 -0.2089743415
C  C266  1  0.97170000  0.88000000  0.97560000  1.0 -0.1999159894
C  C267  1  0.26650000  0.17720000  0.95190000  1.0 -0.2501703046
C  C268  1  0.10080000  0.64480000  0.85610000  1.0 -0.0931742902
C  C269  1  0.25140000  0.24660000  0.91780000  1.0 0.1294762712
C  C270  1  0.13960000  0.50520000  0.85200000  1.0 0.5799192646
C  C271  1  0.04220000  0.62370000  0.95690000  1.0 -0.2089743415
C  C272  1  0.10010000  0.57380000  0.87820000  1.0 -0.0292827302
N  N1  1  0.66590000  0.08740000  0.54680000  1.0 -0.1919509574
N  N2  1  0.33950000  0.41230000  0.53600000  1.0 -0.1829627166
N  N3  1  0.77680000  0.29780000  0.44440000  1.0 -0.2310048594
N  N4  1  0.22760000  0.19320000  0.42690000  1.0 -0.1122956454
N  N5  1  0.33410000  0.58740000  0.95320000  1.0 -0.1919509574
N  N6  1  0.66050000  0.91230000  0.96400000  1.0 -0.1829627166
N  N7  1  0.22320000  0.79780000  0.05560000  1.0 -0.2310048594
N  N8  1  0.77240000  0.69320000  0.07310000  1.0 -0.1122956454
N  N9  1  0.33410000  0.91260000  0.45320000  1.0 -0.1919509574
N  N10  1  0.66050000  0.58770000  0.46400000  1.0 -0.1829627166
N  N11  1  0.22320000  0.70220000  0.55560000  1.0 -0.2310048594
N  N12  1  0.77240000  0.80680000  0.57310000  1.0 -0.1122956454
N  N13  1  0.66590000  0.41260000  0.04680000  1.0 -0.1919509574
N  N14  1  0.33950000  0.08770000  0.03600000  1.0 -0.1829627166
N  N15  1  0.77680000  0.20220000  0.94440000  1.0 -0.2310048594
N  N16  1  0.22760000  0.30680000  0.92690000  1.0 -0.1122956454
O  O1  1  0.84480000  0.45230000  0.40890000  1.0 -0.4983906067
O  O2  1  0.40040000  0.31420000  0.56970000  1.0 -0.4168816945
O  O3  1  0.73440000  0.98850000  0.51080000  1.0 -0.4983906067
O  O4  1  0.26660000  0.51260000  0.49250000  1.0 -0.4282121004
O  O5  1  0.60130000  0.18810000  0.57210000  1.0 -0.450651887
O  O6  1  0.22220000  0.18290000  0.31000000  1.0 -0.6099877945
O  O7  1  0.33300000  0.90370000  0.11630000  1.0 -0.5235437594
O  O8  1  0.15850000  0.04050000  0.38490000  1.0 -0.4740359402
O  O9  1  0.64410000  0.04620000  0.17300000  1.0 -0.2089743415
O  O10  1  0.66550000  0.58390000  0.12430000  1.0 -0.5235437594
O  O11  1  0.77890000  0.30650000  0.32460000  1.0 -0.5715924791
O  O12  1  0.35830000  0.44460000  0.16920000  1.0 -0.2089743415
O  O13  1  0.85950000  0.49270000  0.32460000  1.0 -0.5802137247
O  O14  1  0.71270000  0.50130000  0.18790000  1.0 -0.6735023847
O  O15  1  0.75630000  0.37220000  0.24930000  1.0 -0.450651887
O  O16  1  0.24600000  0.11720000  0.23460000  1.0 -0.4282121004
O  O17  1  0.14180000  0.99020000  0.29720000  1.0 -0.5894563339
O  O18  1  0.01120000  0.75270000  0.47070000  1.0 -0.2445911543
O  O19  1  0.31320000  0.98780000  0.18270000  1.0 -0.5802137247
O  O20  1  0.15520000  0.95230000  0.09110000  1.0 -0.4983906067
O  O21  1  0.59960000  0.81420000  0.93030000  1.0 -0.4168816945
O  O22  1  0.26560000  0.48850000  0.98920000  1.0 -0.4983906067
O  O23  1  0.73340000  0.01260000  0.00750000  1.0 -0.4282121004
O  O24  1  0.39870000  0.68810000  0.92790000  1.0 -0.450651887
O  O25  1  0.77780000  0.68290000  0.19000000  1.0 -0.6099877945
O  O26  1  0.66700000  0.40370000  0.38370000  1.0 -0.5235437594
O  O27  1  0.84150000  0.54050000  0.11510000  1.0 -0.4740359402
O  O28  1  0.35590000  0.54620000  0.32700000  1.0 -0.2089743415
O  O29  1  0.33450000  0.08390000  0.37570000  1.0 -0.5235437594
O  O30  1  0.22110000  0.80650000  0.17540000  1.0 -0.5715924791
O  O31  1  0.64170000  0.94460000  0.33080000  1.0 -0.2089743415
O  O32  1  0.14050000  0.99270000  0.17540000  1.0 -0.5802137247
O  O33  1  0.28730000  0.00130000  0.31210000  1.0 -0.6735023847
O  O34  1  0.24370000  0.87220000  0.25070000  1.0 -0.450651887
O  O35  1  0.75400000  0.61720000  0.26540000  1.0 -0.4351511142
O  O36  1  0.85820000  0.49020000  0.20280000  1.0 -0.5894563339
O  O37  1  0.98880000  0.25270000  0.02930000  1.0 -0.2445911543
O  O38  1  0.68680000  0.48780000  0.31730000  1.0 -0.5802137247
O  O39  1  0.15520000  0.54770000  0.59110000  1.0 -0.4983906067
O  O40  1  0.59960000  0.68580000  0.43030000  1.0 -0.4168816945
O  O41  1  0.26560000  0.01150000  0.48920000  1.0 -0.4983906067
O  O42  1  0.73340000  0.48740000  0.50750000  1.0 -0.4282121004
O  O43  1  0.39870000  0.81190000  0.42790000  1.0 -0.450651887
O  O44  1  0.77780000  0.81710000  0.69000000  1.0 -0.6099877945
O  O45  1  0.66700000  0.09630000  0.88370000  1.0 -0.5235437594
O  O46  1  0.84150000  0.95950000  0.61510000  1.0 -0.4740359402
O  O47  1  0.35590000  0.95380000  0.82700000  1.0 -0.2089743415
O  O48  1  0.33450000  0.41610000  0.87570000  1.0 -0.5235437594
O  O49  1  0.22110000  0.69350000  0.67540000  1.0 -0.5715924791
O  O50  1  0.64170000  0.55540000  0.83080000  1.0 -0.2089743415
O  O51  1  0.14050000  0.50730000  0.67540000  1.0 -0.5802137247
O  O52  1  0.28730000  0.49870000  0.81210000  1.0 -0.6735023847
O  O53  1  0.24370000  0.62780000  0.75070000  1.0 -0.450651887
O  O54  1  0.75400000  0.88280000  0.76540000  1.0 -0.4351511142
O  O55  1  0.85820000  0.00980000  0.70280000  1.0 -0.5894563339
O  O56  1  0.98880000  0.24730000  0.52930000  1.0 -0.2445911543
O  O57  1  0.68680000  0.01220000  0.81730000  1.0 -0.5802137247
O  O58  1  0.84480000  0.04770000  0.90890000  1.0 -0.4983906067
O  O59  1  0.40040000  0.18580000  0.06970000  1.0 -0.4168816945
O  O60  1  0.73440000  0.51150000  0.01080000  1.0 -0.4983906067
O  O61  1  0.26660000  0.98740000  0.99250000  1.0 -0.4282121004
O  O62  1  0.60130000  0.31190000  0.07210000  1.0 -0.450651887
O  O63  1  0.22220000  0.31710000  0.81000000  1.0 -0.6099877945
O  O64  1  0.33300000  0.59630000  0.61630000  1.0 -0.5235437594
O  O65  1  0.15850000  0.45950000  0.88490000  1.0 -0.4740359402
O  O66  1  0.64410000  0.45380000  0.67300000  1.0 -0.2089743415
O  O67  1  0.66550000  0.91610000  0.62430000  1.0 -0.5235437594
O  O68  1  0.77890000  0.19350000  0.82460000  1.0 -0.5715924791
O  O69  1  0.35830000  0.05540000  0.66920000  1.0 -0.2089743415
O  O70  1  0.85950000  0.00730000  0.82460000  1.0 -0.5802137247
O  O71  1  0.71270000  0.99870000  0.68790000  1.0 -0.6735023847
O  O72  1  0.75630000  0.12780000  0.74930000  1.0 -0.450651887
O  O73  1  0.24600000  0.38280000  0.73460000  1.0 -0.4282121004
O  O74  1  0.14180000  0.50980000  0.79720000  1.0 -0.5894563339
O  O75  1  0.01120000  0.74730000  0.97070000  1.0 -0.2501703046
O  O76  1  0.31320000  0.51220000  0.68270000  1.0 -0.5802137247
