# DDEC6 charges by PACMAN v1.1 (https://github.com/mtap-research/PACMAN-charge/)
data_YUJNIB_ASR_pacman
_symmetry_space_group_name_H-M   'P 1'
_cell_length_a   17.50900000
_cell_length_b   9.27320000
_cell_length_c   18.42850000
_cell_angle_alpha   90.00000000
_cell_angle_beta   106.03100000
_cell_angle_gamma   90.00000000
_symmetry_Int_Tables_number   1
_chemical_formula_structural   SrH2C2N4O3
_chemical_formula_sum   'Sr16 H32 C32 N64 O48'
_cell_volume   2875.77660415
_cell_formula_units_Z   16
loop_
 _symmetry_equiv_pos_site_id
 _symmetry_equiv_pos_as_xyz
  1  'x, y, z'
loop_
 _atom_site_type_symbol
 _atom_site_label
 _atom_site_symmetry_multiplicity
 _atom_site_fract_x
 _atom_site_fract_y
 _atom_site_fract_z
 _atom_site_occupancy
 _atom_site_charge
Sr  Sr1  1  0.86693000  0.33710000  0.67482000  1.0 1.2574032915
Sr  Sr2  1  0.13307000  0.83710000  0.82518000  1.0 1.2530596825
Sr  Sr3  1  0.13307000  0.66290000  0.32518000  1.0 1.2530596825
Sr  Sr4  1  0.86693000  0.16290000  0.17482000  1.0 1.2574032915
Sr  Sr5  1  0.62233000  0.84124000  0.82380000  1.0 1.2574032915
Sr  Sr6  1  0.37767000  0.34124000  0.67620000  1.0 1.2574032915
Sr  Sr7  1  0.37767000  0.15876000  0.17620000  1.0 1.2574032915
Sr  Sr8  1  0.62233000  0.65876000  0.32380000  1.0 1.2574032915
Sr  Sr9  1  0.58818000  0.50478000  0.67343000  1.0 1.3080060753
Sr  Sr10  1  0.41182000  0.00478000  0.82657000  1.0 1.3080060753
Sr  Sr11  1  0.41182000  0.49522000  0.32657000  1.0 1.3080060753
Sr  Sr12  1  0.58818000  0.99522000  0.17343000  1.0 1.3080060753
Sr  Sr13  1  0.07572000  0.50248000  0.66326000  1.0 1.3592233929
Sr  Sr14  1  0.92428000  0.00248000  0.83674000  1.0 1.3592233929
Sr  Sr15  1  0.92428000  0.49752000  0.33674000  1.0 1.3592233929
Sr  Sr16  1  0.07572000  0.99752000  0.16326000  1.0 1.3592233929
H  H1  1  0.91390000  0.00810000  0.66540000  1.0 0.3337842199
H  H2  1  0.08610000  0.50810000  0.83460000  1.0 0.3337842199
H  H3  1  0.08610000  0.99190000  0.33460000  1.0 0.3337842199
H  H4  1  0.91390000  0.49190000  0.16540000  1.0 0.3337842199
H  H5  1  0.84330000  0.01340000  0.67930000  1.0 0.2971232506
H  H6  1  0.15670000  0.51340000  0.82070000  1.0 0.2971232506
H  H7  1  0.15670000  0.98660000  0.32070000  1.0 0.2971232506
H  H8  1  0.84330000  0.48660000  0.17930000  1.0 0.2971232506
H  H9  1  0.94950000  0.33333333  0.83220000  1.0 0.4008624899
H  H10  1  0.05050000  0.83333000  0.66780000  1.0 0.4008624899
H  H11  1  0.05050000  0.66666667  0.16780000  1.0 0.4008624899
H  H12  1  0.94950000  0.16667000  0.33220000  1.0 0.4008624899
H  H13  1  0.85250000  0.32010000  0.83460000  1.0 0.3403297896
H  H14  1  0.14750000  0.82010000  0.66540000  1.0 0.3403297896
H  H15  1  0.14750000  0.67990000  0.16540000  1.0 0.3403297896
H  H16  1  0.85250000  0.17990000  0.33460000  1.0 0.3403297896
H  H17  1  0.65720000  0.49950000  0.85440000  1.0 0.2677894431
H  H18  1  0.34280000  0.99950000  0.64560000  1.0 0.2677894431
H  H19  1  0.34280000  0.50050000  0.14560000  1.0 0.2677894431
H  H20  1  0.65720000  0.00050000  0.35440000  1.0 0.2677894431
H  H21  1  0.58740000  0.54880000  0.84450000  1.0 0.2820111784
H  H22  1  0.41260000  0.04880000  0.65550000  1.0 0.2820111784
H  H23  1  0.41260000  0.45120000  0.15550000  1.0 0.2820111784
H  H24  1  0.58740000  0.95120000  0.34450000  1.0 0.2820111784
H  H25  1  0.56870000  0.84840000  0.65040000  1.0 0.3403297896
H  H26  1  0.43130000  0.34840000  0.84960000  1.0 0.3403297896
H  H27  1  0.43130000  0.15160000  0.34960000  1.0 0.3403297896
H  H28  1  0.56870000  0.65160000  0.15040000  1.0 0.3403297896
H  H29  1  0.64500000  0.81620000  0.66720000  1.0 0.3161961707
H  H30  1  0.35500000  0.31620000  0.83280000  1.0 0.3161961707
H  H31  1  0.35500000  0.18380000  0.33280000  1.0 0.3161961707
H  H32  1  0.64500000  0.68380000  0.16720000  1.0 0.3161961707
C  C1  1  0.85579000  0.66985000  0.75888000  1.0 0.1434587716
C  C2  1  0.14421000  0.16985000  0.74112000  1.0 0.1434587716
C  C3  1  0.14421000  0.33015000  0.24112000  1.0 0.1434587716
C  C4  1  0.85579000  0.83015000  0.25888000  1.0 0.1434587716
C  C5  1  0.93622000  0.67487000  0.74414000  1.0 0.5785876485
C  C6  1  0.06378000  0.17487000  0.75586000  1.0 0.5785876485
C  C7  1  0.06378000  0.32513000  0.25586000  1.0 0.5785876485
C  C8  1  0.93622000  0.82513000  0.24414000  1.0 0.5785876485
C  C9  1  0.64569000  0.17451000  0.76016000  1.0 0.1289685863
C  C10  1  0.35431000  0.67451000  0.73984000  1.0 0.1289685863
C  C11  1  0.35431000  0.82549000  0.23984000  1.0 0.1289685863
C  C12  1  0.64569000  0.32549000  0.26016000  1.0 0.1289685863
C  C13  1  0.56504000  0.18564000  0.76908000  1.0 0.5785876485
C  C14  1  0.43496000  0.68564000  0.73092000  1.0 0.5785876485
C  C15  1  0.43496000  0.81436000  0.23092000  1.0 0.5785876485
C  C16  1  0.56504000  0.31436000  0.26908000  1.0 0.5785876485
C  C17  1  0.64314000  0.58344000  0.50962000  1.0 0.1434587716
C  C18  1  0.35686000  0.08344000  0.99038000  1.0 0.1434587716
C  C19  1  0.35686000  0.41656000  0.49038000  1.0 0.1434587716
C  C20  1  0.64314000  0.91656000  0.00962000  1.0 0.1434587716
C  C21  1  0.55816000  0.62661000  0.48633000  1.0 0.5679599616
C  C22  1  0.44184000  0.12661000  0.01367000  1.0 0.5679599616
C  C23  1  0.44184000  0.37339000  0.51367000  1.0 0.5679599616
C  C24  1  0.55816000  0.87339000  0.98633000  1.0 0.5679599616
C  C25  1  0.84647000  0.23692000  0.48718000  1.0 0.149719515
C  C26  1  0.15353000  0.73692000  0.01282000  1.0 0.149719515
C  C27  1  0.15353000  0.76308000  0.51282000  1.0 0.149719515
C  C28  1  0.84647000  0.26308000  0.98718000  1.0 0.149719515
C  C29  1  0.92425000  0.32357000  0.50958000  1.0 0.5873340937
C  C30  1  0.07575000  0.82357000  0.99042000  1.0 0.5873340937
C  C31  1  0.07575000  0.67643000  0.49042000  1.0 0.5873340937
C  C32  1  0.92425000  0.17643000  0.00958000  1.0 0.5873340937
N  N1  1  0.80639000  0.55793000  0.73760000  1.0 -0.2811265615
N  N2  1  0.19361000  0.05793000  0.76240000  1.0 -0.2811265615
N  N3  1  0.19361000  0.44207000  0.26240000  1.0 -0.2811265615
N  N4  1  0.80639000  0.94207000  0.23760000  1.0 -0.2811265615
N  N5  1  0.74178000  0.59583000  0.75851000  1.0 -0.1090782517
N  N6  1  0.25822000  0.09583000  0.74149000  1.0 -0.1090782517
N  N7  1  0.25822000  0.40417000  0.24149000  1.0 -0.1090782517
N  N8  1  0.74178000  0.90417000  0.25851000  1.0 -0.1090782517
N  N9  1  0.75408000  0.72612000  0.79151000  1.0 -0.1159613458
N  N10  1  0.24592000  0.22612000  0.70849000  1.0 -0.1090782517
N  N11  1  0.24592000  0.27388000  0.20849000  1.0 -0.1159613458
N  N12  1  0.75408000  0.77388000  0.29151000  1.0 -0.1159613458
N  N13  1  0.82648000  0.77387000  0.79246000  1.0 -0.3064422677
N  N14  1  0.17352000  0.27387000  0.70754000  1.0 -0.3064422677
N  N15  1  0.17352000  0.22613000  0.20754000  1.0 -0.3064422677
N  N16  1  0.82648000  0.72613000  0.29246000  1.0 -0.3064422677
N  N17  1  0.67541000  0.26593000  0.72063000  1.0 -0.2811265615
N  N18  1  0.32459000  0.76593000  0.77937000  1.0 -0.2811265615
N  N19  1  0.32459000  0.73407000  0.27937000  1.0 -0.2811265615
N  N20  1  0.67541000  0.23407000  0.22063000  1.0 -0.2811265615
N  N21  1  0.75007000  0.21809000  0.72662000  1.0 -0.1090782517
N  N22  1  0.24993000  0.71809000  0.77338000  1.0 -0.1090782517
N  N23  1  0.24993000  0.78191000  0.27338000  1.0 -0.1090782517
N  N24  1  0.75007000  0.28191000  0.22662000  1.0 -0.1090782517
N  N25  1  0.76295000  0.10335000  0.77045000  1.0 -0.0985118826
N  N26  1  0.23705000  0.60335000  0.72955000  1.0 -0.0985118826
N  N27  1  0.23705000  0.89665000  0.22955000  1.0 -0.0985118826
N  N28  1  0.76295000  0.39665000  0.27045000  1.0 -0.0985118826
N  N29  1  0.69827000  0.07135000  0.79203000  1.0 -0.2931115654
N  N30  1  0.30173000  0.57135000  0.70797000  1.0 -0.2931115654
N  N31  1  0.30173000  0.92865000  0.20797000  1.0 -0.2931115654
N  N32  1  0.69827000  0.42865000  0.29203000  1.0 -0.2931115654
N  N33  1  0.67896000  0.52450000  0.57594000  1.0 -0.3064422677
N  N34  1  0.32104000  0.02450000  0.92406000  1.0 -0.3064422677
N  N35  1  0.32104000  0.47550000  0.42406000  1.0 -0.3064422677
N  N36  1  0.67896000  0.97550000  0.07594000  1.0 -0.3011003581
N  N37  1  0.75437000  0.50611000  0.57347000  1.0 -0.1090782517
N  N38  1  0.24563000  0.00611000  0.92653000  1.0 -0.0985118826
N  N39  1  0.24563000  0.49389000  0.42653000  1.0 -0.1090782517
N  N40  1  0.75437000  0.99389000  0.07347000  1.0 -0.1090782517
N  N41  1  0.76268000  0.55498000  0.50954000  1.0 -0.0731245754
N  N42  1  0.23732000  0.05498000  0.99046000  1.0 -0.0731245754
N  N43  1  0.23732000  0.44502000  0.49046000  1.0 -0.0731245754
N  N44  1  0.76268000  0.94502000  0.00954000  1.0 -0.0731245754
N  N45  1  0.69223000  0.60510000  0.46748000  1.0 -0.3158313436
N  N46  1  0.30777000  0.10510000  0.03252000  1.0 -0.3158313436
N  N47  1  0.30777000  0.39490000  0.53252000  1.0 -0.3158313436
N  N48  1  0.69223000  0.89490000  0.96748000  1.0 -0.3158313436
N  N49  1  0.80687000  0.20690000  0.53623000  1.0 -0.3011003581
N  N50  1  0.19313000  0.70690000  0.96377000  1.0 -0.3011003581
N  N51  1  0.19313000  0.79310000  0.46377000  1.0 -0.3011003581
N  N52  1  0.80687000  0.29310000  0.03623000  1.0 -0.3011003581
N  N53  1  0.74353000  0.12943000  0.49659000  1.0 -0.0985118826
N  N54  1  0.25647000  0.62943000  0.00341000  1.0 -0.0985118826
N  N55  1  0.25647000  0.87057000  0.50341000  1.0 -0.0985118826
N  N56  1  0.74353000  0.37057000  0.99659000  1.0 -0.0985118826
N  N57  1  0.74803000  0.11446000  0.42696000  1.0 -0.0985118826
N  N58  1  0.25197000  0.61446000  0.07304000  1.0 -0.0985118826
N  N59  1  0.25197000  0.88554000  0.57304000  1.0 -0.0985118826
N  N60  1  0.74803000  0.38554000  0.92696000  1.0 -0.0985118826
N  N61  1  0.81337000  0.18230000  0.42032000  1.0 -0.228189255
N  N62  1  0.18663000  0.68230000  0.07968000  1.0 -0.228189255
N  N63  1  0.18663000  0.81770000  0.57968000  1.0 -0.228189255
N  N64  1  0.81337000  0.31770000  0.92032000  1.0 -0.228189255
O  O1  1  0.95270000  0.57550000  0.70490000  1.0 -0.6001897481
O  O2  1  0.04730000  0.07550000  0.79510000  1.0 -0.6001897481
O  O3  1  0.04730000  0.42450000  0.29510000  1.0 -0.6001897481
O  O4  1  0.95270000  0.92450000  0.20490000  1.0 -0.6001897481
O  O5  1  0.98020000  0.77920000  0.77490000  1.0 -0.6172575382
O  O6  1  0.01980000  0.27920000  0.72510000  1.0 -0.6172575382
O  O7  1  0.01980000  0.22080000  0.22510000  1.0 -0.6172575382
O  O8  1  0.98020000  0.72080000  0.27490000  1.0 -0.6172575382
O  O9  1  0.52460000  0.29340000  0.74140000  1.0 -0.5896632997
O  O10  1  0.47540000  0.79340000  0.75860000  1.0 -0.5896632997
O  O11  1  0.47540000  0.70660000  0.25860000  1.0 -0.5896632997
O  O12  1  0.52460000  0.20660000  0.24140000  1.0 -0.5896632997
O  O13  1  0.54190000  0.08200000  0.80270000  1.0 -0.6001897481
O  O14  1  0.45810000  0.58200000  0.69730000  1.0 -0.6058636931
O  O15  1  0.45810000  0.91800000  0.19730000  1.0 -0.6058636931
O  O16  1  0.54190000  0.41800000  0.30270000  1.0 -0.6058636931
O  O17  1  0.52350000  0.63630000  0.53660000  1.0 -0.5380503712
O  O18  1  0.47650000  0.13630000  0.96340000  1.0 -0.5380503712
O  O19  1  0.47650000  0.36370000  0.46340000  1.0 -0.5380503712
O  O20  1  0.52350000  0.86370000  0.03660000  1.0 -0.5380503712
O  O21  1  0.52810000  0.65120000  0.41660000  1.0 -0.6058636931
O  O22  1  0.47190000  0.15120000  0.08340000  1.0 -0.6058636931
O  O23  1  0.47190000  0.34880000  0.58340000  1.0 -0.6058636931
O  O24  1  0.52810000  0.84880000  0.91660000  1.0 -0.6058636931
O  O25  1  0.94490000  0.37140000  0.57560000  1.0 -0.6001897481
O  O26  1  0.05510000  0.87140000  0.92440000  1.0 -0.6001897481
O  O27  1  0.05510000  0.62860000  0.42440000  1.0 -0.6001897481
O  O28  1  0.94490000  0.12860000  0.07560000  1.0 -0.6001897481
O  O29  1  0.95960000  0.33780000  0.45970000  1.0 -0.569387841
O  O30  1  0.04040000  0.83780000  0.04030000  1.0 -0.569387841
O  O31  1  0.04040000  0.66220000  0.54030000  1.0 -0.569387841
O  O32  1  0.95960000  0.16220000  0.95970000  1.0 -0.569387841
O  O33  1  0.88134000  0.04789000  0.68957000  1.0 -0.6532473889
O  O34  1  0.11866000  0.54789000  0.81043000  1.0 -0.6532473889
O  O35  1  0.11866000  0.95211000  0.31043000  1.0 -0.6532473889
O  O36  1  0.88134000  0.45211000  0.18957000  1.0 -0.6532473889
O  O37  1  0.90765000  0.28822000  0.81766000  1.0 -0.8025073585
O  O38  1  0.09235000  0.78822000  0.68234000  1.0 -0.8025073585
O  O39  1  0.09235000  0.71178000  0.18234000  1.0 -0.8025073585
O  O40  1  0.90765000  0.21178000  0.31766000  1.0 -0.8025073585
O  O41  1  0.61558000  0.56116000  0.82672000  1.0 -0.6367219565
O  O42  1  0.38442000  0.06116000  0.67328000  1.0 -0.6367219565
O  O43  1  0.38442000  0.43884000  0.17328000  1.0 -0.6367219565
O  O44  1  0.61558000  0.93884000  0.32672000  1.0 -0.6367219565
O  O45  1  0.60965000  0.79527000  0.68195000  1.0 -0.6993127641
O  O46  1  0.39035000  0.29527000  0.81805000  1.0 -0.6993127641
O  O47  1  0.39035000  0.20473000  0.31805000  1.0 -0.6993127641
O  O48  1  0.60965000  0.70473000  0.18195000  1.0 -0.6993127641
