# DDEC6 charges by PACMAN v1.1 (https://github.com/mtap-research/PACMAN-charge/)
data_YUKLEY_ion_pacman
_symmetry_space_group_name_H-M   'P 1'
_cell_length_a   16.80900000
_cell_length_b   16.80900000
_cell_length_c   32.92200000
_cell_angle_alpha   88.61290000
_cell_angle_beta   91.38710000
_cell_angle_gamma   126.55900000
_symmetry_Int_Tables_number   1
_chemical_formula_structural   InFeH36C52N5O9
_chemical_formula_sum   'In4 Fe4 H144 C208 N20 O36'
_cell_volume   7468.92095703
_cell_formula_units_Z   4
loop_
 _symmetry_equiv_pos_site_id
 _symmetry_equiv_pos_as_xyz
  1  'x, y, z'
loop_
 _atom_site_type_symbol
 _atom_site_label
 _atom_site_symmetry_multiplicity
 _atom_site_fract_x
 _atom_site_fract_y
 _atom_site_fract_z
 _atom_site_occupancy
 _atom_site_charge
In  In1  1  0.17784000  0.76364000  0.22410000  1.0 1.3124706108
In  In2  1  0.23636000  0.82216000  0.72410000  1.0 1.3124706108
In  In3  1  0.76364000  0.17784000  0.27590000  1.0 1.3124706108
In  In4  1  0.82216000  0.23636000  0.77590000  1.0 1.3124706108
Fe  Fe1  1  0.71420000  0.80800000  0.47610000  1.0 0.7011717965
Fe  Fe2  1  0.19200000  0.28580000  0.97610000  1.0 0.7011717965
Fe  Fe3  1  0.80800000  0.71420000  0.02390000  1.0 0.7011717965
Fe  Fe4  1  0.28580000  0.19200000  0.52390000  1.0 0.7011717965
H  H1  1  0.03650000  0.85190000  0.51720000  1.0 0.128731953
H  H2  1  0.04260000  0.93900000  0.37340000  1.0 0.1218209041
H  H3  1  0.43710000  0.83050000  0.43000000  1.0 0.128731953
H  H4  1  0.02640000  0.82900000  0.44300000  1.0 0.128731953
H  H5  1  0.12680000  0.92260000  0.32520000  1.0 0.1218209041
H  H6  1  0.16550000  0.98950000  0.62500000  1.0 0.128731953
H  H7  1  0.28310000  0.65630000  0.33160000  1.0 0.1218209041
H  H8  1  0.82150000  0.87150000  0.62490000  1.0 0.128731953
H  H9  1  0.31510000  0.69910000  0.61770000  1.0 0.128731953
H  H10  1  0.63540000  0.78260000  0.32180000  1.0 0.128731953
H  H11  1  0.93780000  0.70740000  0.65050000  1.0 0.1133728353
H  H12  1  0.60980000  0.92920000  0.33490000  1.0 0.1390901615
H  H13  1  0.50530000  0.91910000  0.28550000  1.0 0.128731953
H  H14  1  0.84260000  0.71960000  0.60330000  1.0 0.1218209041
H  H15  1  0.44330000  0.84850000  0.50340000  1.0 0.128731953
H  H16  1  0.90590000  0.63470000  0.31600000  1.0 0.1218209041
H  H17  1  0.77730000  0.77950000  0.32700000  1.0 0.128731953
H  H18  1  0.61810000  0.99250000  0.58970000  1.0 0.1218209041
H  H19  1  0.82210000  0.65390000  0.36520000  1.0 0.1218209041
H  H20  1  0.52340000  0.98080000  0.64160000  1.0 0.128731953
H  H21  1  0.38720000  0.66700000  0.37980000  1.0 0.1218209041
H  H22  1  0.41720000  0.70380000  0.56940000  1.0 0.1218209041
H  H23  1  0.67350000  0.86670000  0.62230000  1.0 0.128731953
H  H24  1  0.07290000  0.99570000  0.57510000  1.0 0.128731953
H  H25  1  0.14810000  0.96350000  0.01720000  1.0 0.128731953
H  H26  1  0.06100000  0.95740000  0.87340000  1.0 0.1218209041
H  H27  1  0.16950000  0.56290000  0.93000000  1.0 0.128731953
H  H28  1  0.17100000  0.97360000  0.94300000  1.0 0.128731953
H  H29  1  0.07740000  0.87320000  0.82520000  1.0 0.1218209041
H  H30  1  0.01050000  0.83450000  0.12500000  1.0 0.128731953
H  H31  1  0.34370000  0.71690000  0.83160000  1.0 0.1218209041
H  H32  1  0.12850000  0.17850000  0.12490000  1.0 0.128731953
H  H33  1  0.30090000  0.68490000  0.11770000  1.0 0.128731953
H  H34  1  0.21740000  0.36460000  0.82180000  1.0 0.128731953
H  H35  1  0.29260000  0.06220000  0.15050000  1.0 0.1133728353
H  H36  1  0.07080000  0.39020000  0.83490000  1.0 0.1390901615
H  H37  1  0.08090000  0.49470000  0.78550000  1.0 0.128731953
H  H38  1  0.28040000  0.15740000  0.10330000  1.0 0.1218209041
H  H39  1  0.15150000  0.55670000  0.00340000  1.0 0.128731953
H  H40  1  0.36530000  0.09410000  0.81600000  1.0 0.1218209041
H  H41  1  0.22050000  0.22270000  0.82700000  1.0 0.128731953
H  H42  1  0.00750000  0.38190000  0.08970000  1.0 0.1218209041
H  H43  1  0.34610000  0.17790000  0.86520000  1.0 0.1218209041
H  H44  1  0.01920000  0.47660000  0.14160000  1.0 0.128731953
H  H45  1  0.33300000  0.61280000  0.87980000  1.0 0.1218209041
H  H46  1  0.29620000  0.58280000  0.06940000  1.0 0.1218209041
H  H47  1  0.13330000  0.32650000  0.12230000  1.0 0.128731953
H  H48  1  0.00430000  0.92710000  0.07510000  1.0 0.128731953
H  H49  1  0.85190000  0.03650000  0.98280000  1.0 0.128731953
H  H50  1  0.93900000  0.04260000  0.12660000  1.0 0.1218209041
H  H51  1  0.83050000  0.43710000  0.07000000  1.0 0.128731953
H  H52  1  0.82900000  0.02640000  0.05700000  1.0 0.128731953
H  H53  1  0.92260000  0.12680000  0.17480000  1.0 0.1218209041
H  H54  1  0.98950000  0.16550000  0.87500000  1.0 0.128731953
H  H55  1  0.65630000  0.28310000  0.16840000  1.0 0.1218209041
H  H56  1  0.87150000  0.82150000  0.87510000  1.0 0.128731953
H  H57  1  0.69910000  0.31510000  0.88230000  1.0 0.128731953
H  H58  1  0.78260000  0.63540000  0.17820000  1.0 0.128731953
H  H59  1  0.70740000  0.93780000  0.84950000  1.0 0.1133728353
H  H60  1  0.92920000  0.60980000  0.16510000  1.0 0.1390901615
H  H61  1  0.91910000  0.50530000  0.21450000  1.0 0.128731953
H  H62  1  0.71960000  0.84260000  0.89670000  1.0 0.1218209041
H  H63  1  0.84850000  0.44330000  0.99660000  1.0 0.128731953
H  H64  1  0.63470000  0.90590000  0.18400000  1.0 0.1218209041
H  H65  1  0.77950000  0.77730000  0.17300000  1.0 0.128731953
H  H66  1  0.99250000  0.61810000  0.91030000  1.0 0.1218209041
H  H67  1  0.65390000  0.82210000  0.13480000  1.0 0.1218209041
H  H68  1  0.98080000  0.52340000  0.85840000  1.0 0.128731953
H  H69  1  0.66700000  0.38720000  0.12020000  1.0 0.1218209041
H  H70  1  0.70380000  0.41720000  0.93060000  1.0 0.1218209041
H  H71  1  0.86670000  0.67350000  0.87770000  1.0 0.128731953
H  H72  1  0.99570000  0.07290000  0.92490000  1.0 0.128731953
H  H73  1  0.96350000  0.14810000  0.48280000  1.0 0.128731953
H  H74  1  0.95740000  0.06100000  0.62660000  1.0 0.1218209041
H  H75  1  0.56290000  0.16950000  0.57000000  1.0 0.128731953
H  H76  1  0.97360000  0.17100000  0.55700000  1.0 0.128731953
H  H77  1  0.87320000  0.07740000  0.67480000  1.0 0.1218209041
H  H78  1  0.83450000  0.01050000  0.37500000  1.0 0.128731953
H  H79  1  0.71690000  0.34370000  0.66840000  1.0 0.1218209041
H  H80  1  0.17850000  0.12850000  0.37510000  1.0 0.128731953
H  H81  1  0.68490000  0.30090000  0.38230000  1.0 0.128731953
H  H82  1  0.36460000  0.21740000  0.67820000  1.0 0.128731953
H  H83  1  0.06220000  0.29260000  0.34950000  1.0 0.1133728353
H  H84  1  0.39020000  0.07080000  0.66510000  1.0 0.1390901615
H  H85  1  0.49470000  0.08090000  0.71450000  1.0 0.128731953
H  H86  1  0.15740000  0.28040000  0.39670000  1.0 0.1218209041
H  H87  1  0.55670000  0.15150000  0.49660000  1.0 0.128731953
H  H88  1  0.09410000  0.36530000  0.68400000  1.0 0.1218209041
H  H89  1  0.22270000  0.22050000  0.67300000  1.0 0.128731953
H  H90  1  0.38190000  0.00750000  0.41030000  1.0 0.1218209041
H  H91  1  0.17790000  0.34610000  0.63480000  1.0 0.1218209041
H  H92  1  0.47660000  0.01920000  0.35840000  1.0 0.128731953
H  H93  1  0.61280000  0.33300000  0.62020000  1.0 0.1218209041
H  H94  1  0.58280000  0.29620000  0.43060000  1.0 0.1218209041
H  H95  1  0.32650000  0.13330000  0.37770000  1.0 0.128731953
H  H96  1  0.92710000  0.00430000  0.42490000  1.0 0.128731953
H  H97  1  0.49940000  0.01600000  0.78770000  1.0 0.1133728353
H  H98  1  0.43130000  0.91410000  0.81010000  1.0 0.1015837813
H  H99  1  0.62310000  0.99270000  0.79370000  1.0 0.2813032676
H  H100  1  0.54910000  0.89230000  0.80750000  1.0 0.2667818923
H  H101  1  0.53420000  0.95140000  0.73620000  1.0 0.1133728353
H  H102  1  0.48260000  0.84300000  0.75220000  1.0 0.1015837813
H  H103  1  0.60190000  0.88550000  0.70820000  1.0 0.128731953
H  H104  1  0.62820000  0.86460000  0.75130000  1.0 0.128731953
H  H105  1  0.68100000  0.97400000  0.73590000  1.0 0.1518373796
H  H106  1  0.48340000  0.03980000  0.85420000  1.0 0.128731953
H  H107  1  0.59450000  0.08470000  0.84630000  1.0 0.1518373796
H  H108  1  0.52590000  0.98230000  0.86880000  1.0 0.128731953
H  H109  1  0.01600000  0.49940000  0.71230000  1.0 0.1218209041
H  H110  1  0.91410000  0.43130000  0.68990000  1.0 0.1015837813
H  H111  1  0.99270000  0.62310000  0.70630000  1.0 0.2813032676
H  H112  1  0.89230000  0.54910000  0.69250000  1.0 0.2667818923
H  H113  1  0.95140000  0.53420000  0.76380000  1.0 0.1133728353
H  H114  1  0.84300000  0.48260000  0.74780000  1.0 0.1015837813
H  H115  1  0.88550000  0.60190000  0.79180000  1.0 0.128731953
H  H116  1  0.86460000  0.62820000  0.74870000  1.0 0.128731953
H  H117  1  0.97400000  0.68100000  0.76410000  1.0 0.1518373796
H  H118  1  0.03980000  0.48340000  0.64580000  1.0 0.128731953
H  H119  1  0.08470000  0.59450000  0.65370000  1.0 0.1518373796
H  H120  1  0.98230000  0.52590000  0.63120000  1.0 0.128731953
H  H121  1  0.50060000  0.98400000  0.21230000  1.0 0.1133728353
H  H122  1  0.56870000  0.08590000  0.18990000  1.0 0.1015837813
H  H123  1  0.37690000  0.00730000  0.20630000  1.0 0.2813032676
H  H124  1  0.45090000  0.10770000  0.19250000  1.0 0.2667818923
H  H125  1  0.46580000  0.04860000  0.26380000  1.0 0.1133728353
H  H126  1  0.51740000  0.15700000  0.24780000  1.0 0.1015837813
H  H127  1  0.39810000  0.11450000  0.29180000  1.0 0.128731953
H  H128  1  0.37180000  0.13540000  0.24870000  1.0 0.128731953
H  H129  1  0.31900000  0.02600000  0.26410000  1.0 0.1518373796
H  H130  1  0.51660000  0.96020000  0.14580000  1.0 0.128731953
H  H131  1  0.40550000  0.91530000  0.15370000  1.0 0.1518373796
H  H132  1  0.47410000  0.01770000  0.13120000  1.0 0.128731953
H  H133  1  0.98400000  0.50060000  0.28770000  1.0 0.1133728353
H  H134  1  0.08590000  0.56870000  0.31010000  1.0 0.1015837813
H  H135  1  0.00730000  0.37690000  0.29370000  1.0 0.2813032676
H  H136  1  0.10770000  0.45090000  0.30750000  1.0 0.2667818923
H  H137  1  0.04860000  0.46580000  0.23620000  1.0 0.1133728353
H  H138  1  0.15700000  0.51740000  0.25220000  1.0 0.1015837813
H  H139  1  0.11450000  0.39810000  0.20820000  1.0 0.128731953
H  H140  1  0.13540000  0.37180000  0.25130000  1.0 0.128731953
H  H141  1  0.02600000  0.31900000  0.23590000  1.0 0.1518373796
H  H142  1  0.96020000  0.51660000  0.35420000  1.0 0.128731953
H  H143  1  0.91530000  0.40550000  0.34630000  1.0 0.1518373796
H  H144  1  0.01770000  0.47410000  0.36880000  1.0 0.128731953
C  C1  1  0.12580000  0.83960000  0.67250000  1.0 0.540171798
C  C2  1  0.98950000  0.84650000  0.49950000  1.0 -0.1816735115
C  C3  1  0.90990000  0.85090000  0.51000000  1.0 0.1867766191
C  C4  1  0.31500000  0.78160000  0.27130000  1.0 0.5289073496
C  C5  1  0.07810000  0.76910000  0.28200000  1.0 0.5289073496
C  C6  1  0.01390000  0.87730000  0.36190000  1.0 -0.1480804524
C  C7  1  0.48150000  0.83150000  0.44780000  1.0 -0.1958531927
C  C8  1  0.98330000  0.83290000  0.45850000  1.0 -0.1816735115
C  C9  1  0.34690000  0.82910000  0.66750000  1.0 0.5289073496
C  C10  1  0.06440000  0.86740000  0.33270000  1.0 -0.0895402733
C  C11  1  0.10140000  0.93380000  0.61970000  1.0 -0.0895402733
C  C12  1  0.06330000  0.84650000  0.64190000  1.0 -0.0229062153
C  C13  1  0.34920000  0.71120000  0.33210000  1.0 -0.1079223308
C  C14  1  0.40990000  0.83810000  0.63450000  1.0 -0.0304834455
C  C15  1  0.78660000  0.86620000  0.60150000  1.0 -0.188603521
C  C16  1  0.59180000  0.84740000  0.54350000  1.0 -0.0754626856
C  C17  1  0.94870000  0.85610000  0.58370000  1.0 0.0881978456
C  C18  1  0.37770000  0.75750000  0.61300000  1.0 -0.0895402733
C  C19  1  0.81040000  0.85920000  0.56120000  1.0 0.1728017215
C  C20  1  0.90000000  0.82560000  0.44380000  1.0 0.1518373796
C  C21  1  0.57510000  0.80890000  0.39700000  1.0 -0.0641947779
C  C22  1  0.86580000  0.80860000  0.40360000  1.0 -0.0406291279
C  C23  1  0.38420000  0.78580000  0.30290000  1.0 -0.0229062153
C  C24  1  0.67090000  0.79030000  0.34540000  1.0 -0.1729615797
C  C25  1  0.96490000  0.76550000  0.63550000  1.0 -0.120091638
C  C26  1  0.54360000  0.87460000  0.33440000  1.0 -0.1295084584
C  C27  1  0.50900000  0.80120000  0.36390000  1.0 0.0799000595
C  C28  1  0.02580000  0.77780000  0.31410000  1.0 -0.0470794964
C  C29  1  0.48160000  0.86820000  0.30460000  1.0 -0.0895402733
C  C30  1  0.90880000  0.77260000  0.60690000  1.0 -0.1401524423
C  C31  1  0.88730000  0.85870000  0.54970000  1.0 -0.0675835557
C  C32  1  0.52920000  0.84820000  0.57430000  1.0 0.0799000595
C  C33  1  0.48470000  0.84170000  0.48810000  1.0 -0.1816735115
C  C34  1  0.93410000  0.69690000  0.32700000  1.0 -0.0895402733
C  C35  1  0.92160000  0.79780000  0.37440000  1.0 0.0698742193
C  C36  1  0.74870000  0.78850000  0.34850000  1.0 -0.188603521
C  C37  1  0.55880000  0.93180000  0.59590000  1.0 -0.1401524423
C  C38  1  0.88380000  0.70900000  0.35700000  1.0 -0.1480804524
C  C39  1  0.55620000  0.82220000  0.43650000  1.0 0.1728017215
C  C40  1  0.67530000  0.85650000  0.55870000  1.0 0.1816622295
C  C41  1  0.50080000  0.92520000  0.62630000  1.0 -0.1035663973
C  C42  1  0.41080000  0.71860000  0.36110000  1.0 -0.1401524423
C  C43  1  0.43860000  0.76120000  0.58320000  1.0 -0.1480804524
C  C44  1  0.78160000  0.80260000  0.38910000  1.0 0.1728017215
C  C45  1  0.56490000  0.84010000  0.50300000  1.0 0.1816622295
C  C46  1  0.65200000  0.80660000  0.38570000  1.0 0.1585687358
C  C47  1  0.70490000  0.86390000  0.60010000  1.0 -0.188603521
C  C48  1  0.04610000  0.93810000  0.59050000  1.0 -0.1295084584
C  C49  1  0.16040000  0.87420000  0.17250000  1.0 0.540171798
C  C50  1  0.15350000  0.01050000  0.99950000  1.0 -0.1816735115
C  C51  1  0.14910000  0.09010000  0.01000000  1.0 0.1867766191
C  C52  1  0.21840000  0.68500000  0.77130000  1.0 0.5289073496
C  C53  1  0.23090000  0.92190000  0.78200000  1.0 0.5289073496
C  C54  1  0.12270000  0.98610000  0.86190000  1.0 -0.1480804524
C  C55  1  0.16850000  0.51850000  0.94780000  1.0 -0.1958531927
C  C56  1  0.16710000  0.01670000  0.95850000  1.0 -0.1816735115
C  C57  1  0.17090000  0.65310000  0.16750000  1.0 0.5289073496
C  C58  1  0.13260000  0.93560000  0.83270000  1.0 -0.0895402733
C  C59  1  0.06620000  0.89860000  0.11970000  1.0 -0.0895402733
C  C60  1  0.15350000  0.93670000  0.14190000  1.0 -0.0229062153
C  C61  1  0.28880000  0.65080000  0.83210000  1.0 -0.1079223308
C  C62  1  0.16190000  0.59010000  0.13450000  1.0 -0.0304834455
C  C63  1  0.13380000  0.21340000  0.10150000  1.0 -0.188603521
C  C64  1  0.15260000  0.40820000  0.04350000  1.0 -0.0675835557
C  C65  1  0.14390000  0.05130000  0.08370000  1.0 0.0881978456
C  C66  1  0.24250000  0.62230000  0.11300000  1.0 -0.0895402733
C  C67  1  0.14080000  0.18960000  0.06120000  1.0 0.1728017215
C  C68  1  0.17440000  0.10000000  0.94380000  1.0 0.1518373796
C  C69  1  0.19110000  0.42490000  0.89700000  1.0 -0.0641947779
C  C70  1  0.19140000  0.13420000  0.90360000  1.0 -0.0406291279
C  C71  1  0.21420000  0.61580000  0.80290000  1.0 -0.0229062153
C  C72  1  0.20970000  0.32910000  0.84540000  1.0 -0.1729615797
C  C73  1  0.23450000  0.03510000  0.13550000  1.0 -0.120091638
C  C74  1  0.12540000  0.45640000  0.83440000  1.0 -0.1295084584
C  C75  1  0.19880000  0.49100000  0.86390000  1.0 0.0799000595
C  C76  1  0.22220000  0.97420000  0.81410000  1.0 -0.0470794964
C  C77  1  0.13180000  0.51840000  0.80460000  1.0 -0.0895402733
C  C78  1  0.22740000  0.09120000  0.10690000  1.0 -0.1401524423
C  C79  1  0.14130000  0.11270000  0.04970000  1.0 -0.0641947779
C  C80  1  0.15180000  0.47080000  0.07430000  1.0 0.0799000595
C  C81  1  0.15830000  0.51530000  0.98810000  1.0 -0.1816735115
C  C82  1  0.30310000  0.06590000  0.82700000  1.0 -0.0895402733
C  C83  1  0.20220000  0.07840000  0.87440000  1.0 0.0698742193
C  C84  1  0.21150000  0.25130000  0.84850000  1.0 -0.188603521
C  C85  1  0.06820000  0.44120000  0.09590000  1.0 -0.1401524423
C  C86  1  0.29100000  0.11620000  0.85700000  1.0 -0.1480804524
C  C87  1  0.17780000  0.44380000  0.93650000  1.0 0.1728017215
C  C88  1  0.14350000  0.32470000  0.05870000  1.0 0.1816622295
C  C89  1  0.07480000  0.49920000  0.12630000  1.0 -0.1035663973
C  C90  1  0.28140000  0.58920000  0.86110000  1.0 -0.1401524423
C  C91  1  0.23880000  0.56140000  0.08320000  1.0 -0.1480804524
C  C92  1  0.19740000  0.21840000  0.88910000  1.0 0.1728017215
C  C93  1  0.15990000  0.43510000  0.00300000  1.0 0.1816622295
C  C94  1  0.19340000  0.34800000  0.88570000  1.0 0.1585687358
C  C95  1  0.13610000  0.29510000  0.10010000  1.0 -0.188603521
C  C96  1  0.06190000  0.95390000  0.09050000  1.0 -0.1295084584
C  C97  1  0.83960000  0.12580000  0.82750000  1.0 0.540171798
C  C98  1  0.84650000  0.98950000  0.00050000  1.0 -0.1816735115
C  C99  1  0.85090000  0.90990000  0.99000000  1.0 0.1867766191
C  C100  1  0.78160000  0.31500000  0.22870000  1.0 0.5289073496
C  C101  1  0.76910000  0.07810000  0.21800000  1.0 0.5289073496
C  C102  1  0.87730000  0.01390000  0.13810000  1.0 -0.1480804524
C  C103  1  0.83150000  0.48150000  0.05220000  1.0 -0.188603521
C  C104  1  0.83290000  0.98330000  0.04150000  1.0 -0.1816735115
C  C105  1  0.82910000  0.34690000  0.83250000  1.0 0.5289073496
C  C106  1  0.86740000  0.06440000  0.16730000  1.0 -0.0895402733
C  C107  1  0.93380000  0.10140000  0.88030000  1.0 -0.0895402733
C  C108  1  0.84650000  0.06330000  0.85810000  1.0 -0.0229062153
C  C109  1  0.71120000  0.34920000  0.16790000  1.0 -0.1079223308
C  C110  1  0.83810000  0.40990000  0.86550000  1.0 -0.0304834455
C  C111  1  0.86620000  0.78660000  0.89850000  1.0 -0.188603521
C  C112  1  0.84740000  0.59180000  0.95650000  1.0 -0.0754626856
C  C113  1  0.85610000  0.94870000  0.91630000  1.0 0.0881978456
C  C114  1  0.75750000  0.37770000  0.88700000  1.0 -0.0895402733
C  C115  1  0.85920000  0.81040000  0.93880000  1.0 0.1728017215
C  C116  1  0.82560000  0.90000000  0.05620000  1.0 0.1518373796
C  C117  1  0.80890000  0.57510000  0.10300000  1.0 -0.0641947779
C  C118  1  0.80860000  0.86580000  0.09640000  1.0 -0.0406291279
C  C119  1  0.78580000  0.38420000  0.19710000  1.0 -0.0229062153
C  C120  1  0.79030000  0.67090000  0.15460000  1.0 -0.1729615797
C  C121  1  0.76550000  0.96490000  0.86450000  1.0 -0.120091638
C  C122  1  0.87460000  0.54360000  0.16560000  1.0 -0.1295084584
C  C123  1  0.80120000  0.50900000  0.13610000  1.0 0.0799000595
C  C124  1  0.77780000  0.02580000  0.18590000  1.0 -0.0470794964
C  C125  1  0.86820000  0.48160000  0.19540000  1.0 -0.0895402733
C  C126  1  0.77260000  0.90880000  0.89310000  1.0 -0.1401524423
C  C127  1  0.85870000  0.88730000  0.95030000  1.0 -0.0675835557
C  C128  1  0.84820000  0.52920000  0.92570000  1.0 0.0799000595
C  C129  1  0.84170000  0.48470000  0.01190000  1.0 -0.1816735115
C  C130  1  0.69690000  0.93410000  0.17300000  1.0 -0.0895402733
C  C131  1  0.79780000  0.92160000  0.12560000  1.0 0.0698742193
C  C132  1  0.78850000  0.74870000  0.15150000  1.0 -0.188603521
C  C133  1  0.93180000  0.55880000  0.90410000  1.0 -0.1401524423
C  C134  1  0.70900000  0.88380000  0.14300000  1.0 -0.1480804524
C  C135  1  0.82220000  0.55620000  0.06350000  1.0 0.1728017215
C  C136  1  0.85650000  0.67530000  0.94130000  1.0 0.1816622295
C  C137  1  0.92520000  0.50080000  0.87370000  1.0 -0.1035663973
C  C138  1  0.71860000  0.41080000  0.13890000  1.0 -0.1401524423
C  C139  1  0.76120000  0.43860000  0.91680000  1.0 -0.1480804524
C  C140  1  0.80260000  0.78160000  0.11090000  1.0 0.1728017215
C  C141  1  0.84010000  0.56490000  0.99700000  1.0 0.1816622295
C  C142  1  0.80660000  0.65200000  0.11430000  1.0 0.1585687358
C  C143  1  0.86390000  0.70490000  0.89990000  1.0 -0.188603521
C  C144  1  0.93810000  0.04610000  0.90950000  1.0 -0.1295084584
C  C145  1  0.87420000  0.16040000  0.32750000  1.0 0.540171798
C  C146  1  0.01050000  0.15350000  0.50050000  1.0 -0.1816735115
C  C147  1  0.09010000  0.14910000  0.49000000  1.0 0.1867766191
C  C148  1  0.68500000  0.21840000  0.72870000  1.0 0.5289073496
C  C149  1  0.92190000  0.23090000  0.71800000  1.0 0.5289073496
C  C150  1  0.98610000  0.12270000  0.63810000  1.0 -0.1480804524
C  C151  1  0.51850000  0.16850000  0.55220000  1.0 -0.1958531927
C  C152  1  0.01670000  0.16710000  0.54150000  1.0 -0.1816735115
C  C153  1  0.65310000  0.17090000  0.33250000  1.0 0.5289073496
C  C154  1  0.93560000  0.13260000  0.66730000  1.0 -0.0895402733
C  C155  1  0.89860000  0.06620000  0.38030000  1.0 -0.0895402733
C  C156  1  0.93670000  0.15350000  0.35810000  1.0 -0.0229062153
C  C157  1  0.65080000  0.28880000  0.66790000  1.0 -0.1079223308
C  C158  1  0.59010000  0.16190000  0.36550000  1.0 -0.0304834455
C  C159  1  0.21340000  0.13380000  0.39850000  1.0 -0.188603521
C  C160  1  0.40820000  0.15260000  0.45650000  1.0 -0.0754626856
C  C161  1  0.05130000  0.14390000  0.41630000  1.0 0.0881978456
C  C162  1  0.62230000  0.24250000  0.38700000  1.0 -0.0895402733
C  C163  1  0.18960000  0.14080000  0.43880000  1.0 0.1728017215
C  C164  1  0.10000000  0.17440000  0.55620000  1.0 0.1518373796
C  C165  1  0.42490000  0.19110000  0.60300000  1.0 -0.0641947779
C  C166  1  0.13420000  0.19140000  0.59640000  1.0 -0.0406291279
C  C167  1  0.61580000  0.21420000  0.69710000  1.0 -0.0229062153
C  C168  1  0.32910000  0.20970000  0.65460000  1.0 -0.1729615797
C  C169  1  0.03510000  0.23450000  0.36450000  1.0 -0.120091638
C  C170  1  0.45640000  0.12540000  0.66560000  1.0 -0.1295084584
C  C171  1  0.49100000  0.19880000  0.63610000  1.0 0.0799000595
C  C172  1  0.97420000  0.22220000  0.68590000  1.0 -0.0470794964
C  C173  1  0.51840000  0.13180000  0.69540000  1.0 -0.0895402733
C  C174  1  0.09120000  0.22740000  0.39310000  1.0 -0.1401524423
C  C175  1  0.11270000  0.14130000  0.45030000  1.0 -0.0675835557
C  C176  1  0.47080000  0.15180000  0.42570000  1.0 0.0799000595
C  C177  1  0.51530000  0.15830000  0.51190000  1.0 -0.1816735115
C  C178  1  0.06590000  0.30310000  0.67300000  1.0 -0.0895402733
C  C179  1  0.07840000  0.20220000  0.62560000  1.0 0.0698742193
C  C180  1  0.25130000  0.21150000  0.65150000  1.0 -0.188603521
C  C181  1  0.44120000  0.06820000  0.40410000  1.0 -0.1401524423
C  C182  1  0.11620000  0.29100000  0.64300000  1.0 -0.1480804524
C  C183  1  0.44380000  0.17780000  0.56350000  1.0 0.1728017215
C  C184  1  0.32470000  0.14350000  0.44130000  1.0 0.1816622295
C  C185  1  0.49920000  0.07480000  0.37370000  1.0 -0.1035663973
C  C186  1  0.58920000  0.28140000  0.63890000  1.0 -0.1401524423
C  C187  1  0.56140000  0.23880000  0.41680000  1.0 -0.1480804524
C  C188  1  0.21840000  0.19740000  0.61090000  1.0 0.1728017215
C  C189  1  0.43510000  0.15990000  0.49700000  1.0 0.1816622295
C  C190  1  0.34800000  0.19340000  0.61430000  1.0 0.1585687358
C  C191  1  0.29510000  0.13610000  0.39990000  1.0 -0.188603521
C  C192  1  0.95390000  0.06190000  0.40950000  1.0 -0.1295084584
C  C193  1  0.49930000  0.97270000  0.80780000  1.0 -0.0406291279
C  C194  1  0.54410000  0.90990000  0.75310000  1.0 0.0109422986
C  C195  1  0.61980000  0.90820000  0.73570000  1.0 -0.4204160314
C  C196  1  0.52790000  0.02410000  0.84790000  1.0 -0.3989403437
C  C197  1  0.97270000  0.49930000  0.69220000  1.0 -0.0406291279
C  C198  1  0.90990000  0.54410000  0.74690000  1.0 0.0109422986
C  C199  1  0.90820000  0.61980000  0.76430000  1.0 -0.4204160314
C  C200  1  0.02410000  0.52790000  0.65210000  1.0 -0.3989403437
C  C201  1  0.50070000  0.02730000  0.19220000  1.0 -0.0406291279
C  C202  1  0.45590000  0.09010000  0.24690000  1.0 0.0109422986
C  C203  1  0.38020000  0.09180000  0.26430000  1.0 -0.4204160314
C  C204  1  0.47210000  0.97590000  0.15210000  1.0 -0.3989403437
C  C205  1  0.02730000  0.50070000  0.30780000  1.0 -0.0406291279
C  C206  1  0.09010000  0.45590000  0.25310000  1.0 0.0109422986
C  C207  1  0.09180000  0.38020000  0.23570000  1.0 -0.4204160314
C  C208  1  0.97590000  0.47210000  0.34790000  1.0 -0.3989403437
N  N1  1  0.85560000  0.83940000  0.47590000  1.0 -0.3780886348
N  N2  1  0.60740000  0.82940000  0.47120000  1.0 -0.360785291
N  N3  1  0.74150000  0.85470000  0.53510000  1.0 -0.3680583652
N  N4  1  0.72140000  0.81280000  0.41190000  1.0 -0.360785291
N  N5  1  0.16060000  0.14440000  0.97590000  1.0 -0.3780886348
N  N6  1  0.17060000  0.39260000  0.97120000  1.0 -0.360785291
N  N7  1  0.14530000  0.25850000  0.03510000  1.0 -0.3680583652
N  N8  1  0.18720000  0.27860000  0.91190000  1.0 -0.360785291
N  N9  1  0.83940000  0.85560000  0.02410000  1.0 -0.3780886348
N  N10  1  0.82940000  0.60740000  0.02880000  1.0 -0.360785291
N  N11  1  0.85470000  0.74150000  0.96490000  1.0 -0.3680583652
N  N12  1  0.81280000  0.72140000  0.08810000  1.0 -0.360785291
N  N13  1  0.14440000  0.16060000  0.52410000  1.0 -0.3780886348
N  N14  1  0.39260000  0.17060000  0.52880000  1.0 -0.360785291
N  N15  1  0.25850000  0.14530000  0.46490000  1.0 -0.3680583652
N  N16  1  0.27860000  0.18720000  0.58810000  1.0 -0.360785291
N  N17  1  0.55890000  0.94110000  0.79120000  1.0 -0.1816735115
N  N18  1  0.94110000  0.55890000  0.70880000  1.0 -0.1816735115
N  N19  1  0.44110000  0.05890000  0.20880000  1.0 -0.1816735115
N  N20  1  0.05890000  0.44110000  0.29120000  1.0 -0.1816735115
O  O1  1  0.22580000  0.70020000  0.26940000  1.0 -0.5632379021
O  O2  1  0.34010000  0.85370000  0.24910000  1.0 -0.5190659604
O  O3  1  0.21250000  0.91330000  0.68020000  1.0 -0.5190659604
O  O4  1  0.25930000  0.75430000  0.67090000  1.0 -0.510203604
O  O5  1  0.38190000  0.90030000  0.69200000  1.0 -0.5190659604
O  O6  1  0.16390000  0.84470000  0.27290000  1.0 -0.5314862173
O  O7  1  0.08920000  0.75660000  0.69040000  1.0 -0.5632379021
O  O8  1  0.03940000  0.68920000  0.26370000  1.0 -0.510203604
O  O9  1  0.62690000  0.63910000  0.48700000  1.0 -0.1729615797
O  O10  1  0.29980000  0.77420000  0.76940000  1.0 -0.5632379021
O  O11  1  0.14630000  0.65990000  0.74910000  1.0 -0.5190659604
O  O12  1  0.08670000  0.78750000  0.18020000  1.0 -0.5190659604
O  O13  1  0.24570000  0.74070000  0.17090000  1.0 -0.510203604
O  O14  1  0.09970000  0.61810000  0.19200000  1.0 -0.5190659604
O  O15  1  0.15530000  0.83610000  0.77290000  1.0 -0.5314862173
O  O16  1  0.24340000  0.91080000  0.19040000  1.0 -0.5632379021
O  O17  1  0.31080000  0.96060000  0.76370000  1.0 -0.510203604
O  O18  1  0.36090000  0.37310000  0.98700000  1.0 -0.1816735115
O  O19  1  0.70020000  0.22580000  0.23060000  1.0 -0.5632379021
O  O20  1  0.85370000  0.34010000  0.25090000  1.0 -0.5190659604
O  O21  1  0.91330000  0.21250000  0.81980000  1.0 -0.5190659604
O  O22  1  0.75430000  0.25930000  0.82910000  1.0 -0.510203604
O  O23  1  0.90030000  0.38190000  0.80800000  1.0 -0.5190659604
O  O24  1  0.84470000  0.16390000  0.22710000  1.0 -0.5314862173
O  O25  1  0.75660000  0.08920000  0.80960000  1.0 -0.5632379021
O  O26  1  0.68920000  0.03940000  0.23630000  1.0 -0.510203604
O  O27  1  0.63910000  0.62690000  0.01300000  1.0 -0.1729615797
O  O28  1  0.77420000  0.29980000  0.73060000  1.0 -0.5632379021
O  O29  1  0.65990000  0.14630000  0.75090000  1.0 -0.5190659604
O  O30  1  0.78750000  0.08670000  0.31980000  1.0 -0.5190659604
O  O31  1  0.74070000  0.24570000  0.32910000  1.0 -0.510203604
O  O32  1  0.61810000  0.09970000  0.30800000  1.0 -0.5190659604
O  O33  1  0.83610000  0.15530000  0.72710000  1.0 -0.5314862173
O  O34  1  0.91080000  0.24340000  0.30960000  1.0 -0.5632379021
O  O35  1  0.96060000  0.31080000  0.73630000  1.0 -0.510203604
O  O36  1  0.37310000  0.36090000  0.51300000  1.0 -0.1729615797
