# DDEC6 charges by PACMAN v1.1 (https://github.com/mtap-research/PACMAN-charge/)
data_YULVAF_ion_pacman
_symmetry_space_group_name_H-M   'P 1'
_cell_length_a   15.03700000
_cell_length_b   19.16700000
_cell_length_c   46.36750000
_cell_angle_alpha   90.00000000
_cell_angle_beta   90.00000000
_cell_angle_gamma   90.00000000
_symmetry_Int_Tables_number   1
_chemical_formula_structural   Zn3H120C136(NO13)2
_chemical_formula_sum   'Zn12 H480 C544 N8 O104'
_cell_volume   13363.77094478
_cell_formula_units_Z   4
loop_
 _symmetry_equiv_pos_site_id
 _symmetry_equiv_pos_as_xyz
  1  'x, y, z'
loop_
 _atom_site_type_symbol
 _atom_site_label
 _atom_site_symmetry_multiplicity
 _atom_site_fract_x
 _atom_site_fract_y
 _atom_site_fract_z
 _atom_site_occupancy
 _atom_site_charge
Zn  Zn1  1  0.90859000  0.31205000  0.00365000  1.0 0.8883036642
Zn  Zn2  1  0.40859000  0.18795000  0.49635000  1.0 0.8845743009
Zn  Zn3  1  0.59141000  0.31205000  0.99635000  1.0 0.8883036642
Zn  Zn4  1  0.09141000  0.18795000  0.50365000  1.0 0.8845743009
Zn  Zn5  1  0.09141000  0.68795000  0.99635000  1.0 0.8883036642
Zn  Zn6  1  0.59141000  0.81205000  0.50365000  1.0 0.8883036642
Zn  Zn7  1  0.40859000  0.68795000  0.00365000  1.0 0.8845743009
Zn  Zn8  1  0.90859000  0.81205000  0.49635000  1.0 0.8883036642
Zn  Zn9  1  0.25000000  0.37691000  0.50000000  1.0 0.8883036642
Zn  Zn10  1  0.75000000  0.12309000  0.00000000  1.0 0.8883036642
Zn  Zn11  1  0.75000000  0.62309000  0.50000000  1.0 0.8883036642
Zn  Zn12  1  0.25000000  0.87691000  0.00000000  1.0 0.8883036642
H  H1  1  0.73078000  0.36673000  0.07499000  1.0 0.1208229821
H  H2  1  0.75960000  0.44320000  0.06715000  1.0 0.1208229821
H  H3  1  0.85233000  0.41979000  0.15332000  1.0 0.1411155994
H  H4  1  0.64707000  0.44261000  0.09873000  1.0 0.1316967874
H  H5  1  0.50227000  0.46827000  0.11640000  1.0 0.1411155994
H  H6  1  0.48589000  0.48270000  0.14926000  1.0 0.1411155994
H  H7  1  0.51997000  0.54276000  0.12914000  1.0 0.1470371865
H  H8  1  0.77151000  0.51061000  0.20941000  1.0 0.1411155994
H  H9  1  0.76171000  0.43008000  0.21439000  1.0 0.1411155994
H  H10  1  0.84820000  0.45997000  0.20011000  1.0 0.1316967874
H  H11  1  0.58917000  0.60262000  0.17046000  1.0 0.1208229821
H  H12  1  0.51399000  0.48640000  0.25385000  1.0 0.108808862
H  H13  1  0.59738000  0.43199000  0.21929000  1.0 0.1208229821
H  H14  1  0.38319000  0.90687000  0.04877000  1.0 0.1316967874
H  H15  1  0.45063000  0.92064000  0.02373000  1.0 0.1411155994
H  H16  1  0.60945000  0.88667000  0.09808000  1.0 0.1411155994
H  H17  1  0.36036000  0.82686000  0.08093000  1.0 0.1411155994
H  H18  1  0.27115000  0.77139000  0.11583000  1.0 0.1470371865
H  H19  1  0.31965000  0.73065000  0.14057000  1.0 0.1411155994
H  H20  1  0.28260000  0.80585000  0.14627000  1.0 0.1411155994
H  H21  1  0.60959000  0.86798000  0.16942000  1.0 0.1470371865
H  H22  1  0.65325000  0.80346000  0.15421000  1.0 0.1470371865
H  H23  1  0.67108000  0.87889000  0.14249000  1.0 0.1316967874
H  H24  1  0.41330000  0.86746000  0.19231000  1.0 0.1208229821
H  H25  1  0.40828000  0.81886000  0.23750000  1.0 0.108808862
H  H26  1  0.51212000  0.68926000  0.16058000  1.0 0.1208229821
H  H27  1  0.10585000  0.49620000  0.43611000  1.0 0.1208229821
H  H28  1  0.02476000  0.45400000  0.44813000  1.0 0.1316967874
H  H29  1  0.03609000  0.42834000  0.35610000  1.0 0.1470371865
H  H30  1  0.23039000  0.45783000  0.41306000  1.0 0.1208229821
H  H31  1  0.37515000  0.48068000  0.39941000  1.0 0.1411155994
H  H32  1  0.40276000  0.47720000  0.36684000  1.0 0.1411155994
H  H33  1  0.37055000  0.54793000  0.38022000  1.0 0.1411155994
H  H34  1  0.13769000  0.50752000  0.29761000  1.0 0.1411155994
H  H35  1  0.12053000  0.42685000  0.29729000  1.0 0.1411155994
H  H36  1  0.04710000  0.47764000  0.30891000  1.0 0.1411155994
H  H37  1  0.28782000  0.43754000  0.29077000  1.0 0.1208229821
H  H38  1  0.37516000  0.48784000  0.25705000  1.0 0.1208229821
H  H39  1  0.31390000  0.60464000  0.34125000  1.0 0.108808862
H  H40  1  0.47934000  0.97991000  0.44303000  1.0 0.1316967874
H  H41  1  0.42145000  0.99338000  0.47053000  1.0 0.1411155994
H  H42  1  0.28118000  0.91803000  0.40320000  1.0 0.1316967874
H  H43  1  0.51457000  0.84161000  0.42974000  1.0 0.1411155994
H  H44  1  0.60141000  0.76988000  0.40090000  1.0 0.1470371865
H  H45  1  0.55251000  0.72769000  0.37666000  1.0 0.1411155994
H  H46  1  0.60434000  0.79613000  0.36889000  1.0 0.1411155994
H  H47  1  0.29592000  0.88653000  0.33304000  1.0 0.1470371865
H  H48  1  0.24705000  0.82163000  0.34617000  1.0 0.1411155994
H  H49  1  0.22506000  0.89675000  0.35748000  1.0 0.1316967874
H  H50  1  0.38279000  0.69552000  0.34994000  1.0 0.1208229821
H  H51  1  0.48869000  0.81892000  0.27181000  1.0 0.108808862
H  H52  1  0.48148000  0.87053000  0.31651000  1.0 0.1208229821
H  H53  1  0.23078000  0.13327000  0.42501000  1.0 0.1208229821
H  H54  1  0.25960000  0.05680000  0.43285000  1.0 0.1208229821
H  H55  1  0.35233000  0.08021000  0.34668000  1.0 0.1470371865
H  H56  1  0.14707000  0.05739000  0.40127000  1.0 0.1316967874
H  H57  1  0.00227000  0.03173000  0.38360000  1.0 0.1411155994
H  H58  1  0.98589000  0.01730000  0.35074000  1.0 0.1411155994
H  H59  1  0.01997000  0.95724000  0.37086000  1.0 0.1470371865
H  H60  1  0.27151000  0.98939000  0.29059000  1.0 0.1411155994
H  H61  1  0.26171000  0.06992000  0.28561000  1.0 0.1411155994
H  H62  1  0.34820000  0.04003000  0.29989000  1.0 0.1316967874
H  H63  1  0.08917000  0.89738000  0.32954000  1.0 0.1208229821
H  H64  1  0.01399000  0.01360000  0.24615000  1.0 0.108808862
H  H65  1  0.09738000  0.06801000  0.28071000  1.0 0.1208229821
H  H66  1  0.88319000  0.59313000  0.45123000  1.0 0.1316967874
H  H67  1  0.95063000  0.57936000  0.47627000  1.0 0.1411155994
H  H68  1  0.10945000  0.61333000  0.40192000  1.0 0.1411155994
H  H69  1  0.86036000  0.67314000  0.41907000  1.0 0.1411155994
H  H70  1  0.77115000  0.72861000  0.38417000  1.0 0.1470371865
H  H71  1  0.81965000  0.76935000  0.35943000  1.0 0.1411155994
H  H72  1  0.78260000  0.69415000  0.35373000  1.0 0.1411155994
H  H73  1  0.10959000  0.63202000  0.33058000  1.0 0.1470371865
H  H74  1  0.15325000  0.69654000  0.34579000  1.0 0.1470371865
H  H75  1  0.17108000  0.62111000  0.35751000  1.0 0.1316967874
H  H76  1  0.91330000  0.63254000  0.30769000  1.0 0.1208229821
H  H77  1  0.90828000  0.68114000  0.26250000  1.0 0.108808862
H  H78  1  0.01212000  0.81074000  0.33942000  1.0 0.1208229821
H  H79  1  0.60585000  0.00380000  0.06389000  1.0 0.1208229821
H  H80  1  0.52476000  0.04600000  0.05187000  1.0 0.1316967874
H  H81  1  0.53609000  0.07166000  0.14390000  1.0 0.1470371865
H  H82  1  0.73039000  0.04217000  0.08694000  1.0 0.1208229821
H  H83  1  0.87515000  0.01932000  0.10059000  1.0 0.1411155994
H  H84  1  0.90276000  0.02280000  0.13316000  1.0 0.1411155994
H  H85  1  0.87055000  0.95207000  0.11978000  1.0 0.1411155994
H  H86  1  0.63769000  0.99248000  0.20239000  1.0 0.1411155994
H  H87  1  0.62053000  0.07315000  0.20271000  1.0 0.1411155994
H  H88  1  0.54710000  0.02236000  0.19109000  1.0 0.1411155994
H  H89  1  0.78782000  0.06246000  0.20923000  1.0 0.1208229821
H  H90  1  0.87516000  0.01216000  0.24295000  1.0 0.1208229821
H  H91  1  0.81390000  0.89536000  0.15875000  1.0 0.108808862
H  H92  1  0.97934000  0.52009000  0.05697000  1.0 0.1316967874
H  H93  1  0.92145000  0.50662000  0.02947000  1.0 0.1411155994
H  H94  1  0.78118000  0.58197000  0.09680000  1.0 0.1316967874
H  H95  1  0.01457000  0.65839000  0.07026000  1.0 0.1411155994
H  H96  1  0.10141000  0.73012000  0.09910000  1.0 0.1470371865
H  H97  1  0.05251000  0.77231000  0.12334000  1.0 0.1411155994
H  H98  1  0.10434000  0.70387000  0.13111000  1.0 0.1411155994
H  H99  1  0.79592000  0.61347000  0.16696000  1.0 0.1470371865
H  H100  1  0.74705000  0.67837000  0.15383000  1.0 0.1411155994
H  H101  1  0.72506000  0.60325000  0.14252000  1.0 0.1316967874
H  H102  1  0.88279000  0.80448000  0.15006000  1.0 0.1208229821
H  H103  1  0.98869000  0.68108000  0.22819000  1.0 0.108808862
H  H104  1  0.98148000  0.62947000  0.18349000  1.0 0.1208229821
H  H105  1  0.76922000  0.36673000  0.92501000  1.0 0.1208229821
H  H106  1  0.74040000  0.44320000  0.93285000  1.0 0.1208229821
H  H107  1  0.64767000  0.41979000  0.84668000  1.0 0.1470371865
H  H108  1  0.85293000  0.44261000  0.90127000  1.0 0.1316967874
H  H109  1  0.99773000  0.46827000  0.88360000  1.0 0.1411155994
H  H110  1  0.01411000  0.48270000  0.85074000  1.0 0.1411155994
H  H111  1  0.98003000  0.54276000  0.87086000  1.0 0.1411155994
H  H112  1  0.72849000  0.51061000  0.79059000  1.0 0.1411155994
H  H113  1  0.73829000  0.43008000  0.78561000  1.0 0.1411155994
H  H114  1  0.65180000  0.45997000  0.79989000  1.0 0.1316967874
H  H115  1  0.91083000  0.60262000  0.82954000  1.0 0.1208229821
H  H116  1  0.98601000  0.48640000  0.74615000  1.0 0.108808862
H  H117  1  0.90262000  0.43199000  0.78071000  1.0 0.1208229821
H  H118  1  0.11681000  0.90687000  0.95123000  1.0 0.1316967874
H  H119  1  0.04937000  0.92064000  0.97627000  1.0 0.1411155994
H  H120  1  0.89055000  0.88667000  0.90192000  1.0 0.1411155994
H  H121  1  0.13964000  0.82686000  0.91907000  1.0 0.1411155994
H  H122  1  0.22885000  0.77139000  0.88417000  1.0 0.1470371865
H  H123  1  0.18035000  0.73065000  0.85943000  1.0 0.1411155994
H  H124  1  0.21740000  0.80585000  0.85373000  1.0 0.1411155994
H  H125  1  0.89041000  0.86798000  0.83058000  1.0 0.1470371865
H  H126  1  0.84675000  0.80346000  0.84579000  1.0 0.1470371865
H  H127  1  0.82892000  0.87889000  0.85751000  1.0 0.1316967874
H  H128  1  0.08670000  0.86746000  0.80769000  1.0 0.1208229821
H  H129  1  0.09172000  0.81886000  0.76250000  1.0 0.108808862
H  H130  1  0.98788000  0.68926000  0.83942000  1.0 0.1208229821
H  H131  1  0.39415000  0.49620000  0.56389000  1.0 0.1208229821
H  H132  1  0.47524000  0.45400000  0.55187000  1.0 0.1316967874
H  H133  1  0.46391000  0.42834000  0.64390000  1.0 0.1470371865
H  H134  1  0.26961000  0.45783000  0.58694000  1.0 0.1208229821
H  H135  1  0.12485000  0.48068000  0.60059000  1.0 0.1411155994
H  H136  1  0.09724000  0.47720000  0.63316000  1.0 0.1411155994
H  H137  1  0.12945000  0.54793000  0.61978000  1.0 0.1411155994
H  H138  1  0.36231000  0.50752000  0.70239000  1.0 0.1411155994
H  H139  1  0.37947000  0.42685000  0.70271000  1.0 0.1411155994
H  H140  1  0.45290000  0.47764000  0.69109000  1.0 0.1411155994
H  H141  1  0.21218000  0.43754000  0.70923000  1.0 0.1208229821
H  H142  1  0.12484000  0.48784000  0.74295000  1.0 0.1208229821
H  H143  1  0.18610000  0.60464000  0.65875000  1.0 0.108808862
H  H144  1  0.02066000  0.97991000  0.55697000  1.0 0.1316967874
H  H145  1  0.07855000  0.99338000  0.52947000  1.0 0.1411155994
H  H146  1  0.21882000  0.91803000  0.59680000  1.0 0.1316967874
H  H147  1  0.98543000  0.84161000  0.57026000  1.0 0.1316967874
H  H148  1  0.89859000  0.76988000  0.59910000  1.0 0.1470371865
H  H149  1  0.94749000  0.72769000  0.62334000  1.0 0.1411155994
H  H150  1  0.89566000  0.79613000  0.63111000  1.0 0.1411155994
H  H151  1  0.20408000  0.88653000  0.66696000  1.0 0.1470371865
H  H152  1  0.25295000  0.82163000  0.65383000  1.0 0.1411155994
H  H153  1  0.27494000  0.89675000  0.64252000  1.0 0.1316967874
H  H154  1  0.11721000  0.69552000  0.65006000  1.0 0.1208229821
H  H155  1  0.01131000  0.81892000  0.72819000  1.0 0.108808862
H  H156  1  0.01852000  0.87053000  0.68349000  1.0 0.1208229821
H  H157  1  0.26922000  0.13327000  0.57499000  1.0 0.1208229821
H  H158  1  0.24040000  0.05680000  0.56715000  1.0 0.1208229821
H  H159  1  0.14767000  0.08021000  0.65332000  1.0 0.1470371865
H  H160  1  0.35293000  0.05739000  0.59873000  1.0 0.1316967874
H  H161  1  0.49773000  0.03173000  0.61640000  1.0 0.1411155994
H  H162  1  0.51411000  0.01730000  0.64926000  1.0 0.1411155994
H  H163  1  0.48003000  0.95724000  0.62914000  1.0 0.1411155994
H  H164  1  0.22849000  0.98939000  0.70941000  1.0 0.1411155994
H  H165  1  0.23829000  0.06992000  0.71439000  1.0 0.1411155994
H  H166  1  0.15180000  0.04003000  0.70011000  1.0 0.1316967874
H  H167  1  0.41083000  0.89738000  0.67046000  1.0 0.1208229821
H  H168  1  0.48601000  0.01360000  0.75385000  1.0 0.108808862
H  H169  1  0.40262000  0.06801000  0.71929000  1.0 0.1208229821
H  H170  1  0.61681000  0.59313000  0.54877000  1.0 0.1316967874
H  H171  1  0.54937000  0.57936000  0.52373000  1.0 0.1411155994
H  H172  1  0.39055000  0.61333000  0.59808000  1.0 0.1411155994
H  H173  1  0.63964000  0.67314000  0.58093000  1.0 0.1411155994
H  H174  1  0.72885000  0.72861000  0.61583000  1.0 0.1470371865
H  H175  1  0.68035000  0.76935000  0.64057000  1.0 0.1411155994
H  H176  1  0.71740000  0.69415000  0.64627000  1.0 0.1411155994
H  H177  1  0.39041000  0.63202000  0.66942000  1.0 0.1470371865
H  H178  1  0.34675000  0.69654000  0.65421000  1.0 0.1470371865
H  H179  1  0.32892000  0.62111000  0.64249000  1.0 0.1316967874
H  H180  1  0.58670000  0.63254000  0.69231000  1.0 0.1208229821
H  H181  1  0.59172000  0.68114000  0.73750000  1.0 0.108808862
H  H182  1  0.48788000  0.81074000  0.66058000  1.0 0.1208229821
H  H183  1  0.89415000  0.00380000  0.93611000  1.0 0.1208229821
H  H184  1  0.97524000  0.04600000  0.94813000  1.0 0.1316967874
H  H185  1  0.96391000  0.07166000  0.85610000  1.0 0.1470371865
H  H186  1  0.76961000  0.04217000  0.91306000  1.0 0.1208229821
H  H187  1  0.62485000  0.01932000  0.89941000  1.0 0.1411155994
H  H188  1  0.59724000  0.02280000  0.86684000  1.0 0.1411155994
H  H189  1  0.62945000  0.95207000  0.88022000  1.0 0.1411155994
H  H190  1  0.86231000  0.99248000  0.79761000  1.0 0.1411155994
H  H191  1  0.87947000  0.07315000  0.79729000  1.0 0.1411155994
H  H192  1  0.95290000  0.02236000  0.80891000  1.0 0.1411155994
H  H193  1  0.71218000  0.06246000  0.79077000  1.0 0.1208229821
H  H194  1  0.62484000  0.01216000  0.75705000  1.0 0.1208229821
H  H195  1  0.68610000  0.89536000  0.84125000  1.0 0.108808862
H  H196  1  0.52066000  0.52009000  0.94303000  1.0 0.1316967874
H  H197  1  0.57855000  0.50662000  0.97053000  1.0 0.1411155994
H  H198  1  0.71882000  0.58197000  0.90320000  1.0 0.1316967874
H  H199  1  0.48543000  0.65839000  0.92974000  1.0 0.1411155994
H  H200  1  0.39859000  0.73012000  0.90090000  1.0 0.1470371865
H  H201  1  0.44749000  0.77231000  0.87666000  1.0 0.1411155994
H  H202  1  0.39566000  0.70387000  0.86889000  1.0 0.1411155994
H  H203  1  0.70408000  0.61347000  0.83304000  1.0 0.1470371865
H  H204  1  0.75295000  0.67837000  0.84617000  1.0 0.1411155994
H  H205  1  0.77494000  0.60325000  0.85748000  1.0 0.1316967874
H  H206  1  0.61721000  0.80448000  0.84994000  1.0 0.1208229821
H  H207  1  0.51131000  0.68108000  0.77181000  1.0 0.108808862
H  H208  1  0.51852000  0.62947000  0.81651000  1.0 0.1208229821
H  H209  1  0.26922000  0.63327000  0.92501000  1.0 0.1208229821
H  H210  1  0.24040000  0.55680000  0.93285000  1.0 0.1208229821
H  H211  1  0.14767000  0.58021000  0.84668000  1.0 0.1470371865
H  H212  1  0.35293000  0.55739000  0.90127000  1.0 0.1316967874
H  H213  1  0.49773000  0.53173000  0.88360000  1.0 0.1411155994
H  H214  1  0.51411000  0.51730000  0.85074000  1.0 0.1411155994
H  H215  1  0.48003000  0.45724000  0.87086000  1.0 0.1411155994
H  H216  1  0.22849000  0.48939000  0.79059000  1.0 0.1411155994
H  H217  1  0.23829000  0.56992000  0.78561000  1.0 0.1411155994
H  H218  1  0.15180000  0.54003000  0.79989000  1.0 0.1316967874
H  H219  1  0.41083000  0.39738000  0.82954000  1.0 0.1208229821
H  H220  1  0.48601000  0.51360000  0.74615000  1.0 0.108808862
H  H221  1  0.40262000  0.56801000  0.78071000  1.0 0.1208229821
H  H222  1  0.61681000  0.09313000  0.95123000  1.0 0.1316967874
H  H223  1  0.54937000  0.07936000  0.97627000  1.0 0.1411155994
H  H224  1  0.39055000  0.11333000  0.90192000  1.0 0.1470371865
H  H225  1  0.63964000  0.17314000  0.91907000  1.0 0.1411155994
H  H226  1  0.72885000  0.22861000  0.88417000  1.0 0.1470371865
H  H227  1  0.68035000  0.26935000  0.85943000  1.0 0.1411155994
H  H228  1  0.71740000  0.19415000  0.85373000  1.0 0.1411155994
H  H229  1  0.39041000  0.13202000  0.83058000  1.0 0.1470371865
H  H230  1  0.34675000  0.19654000  0.84579000  1.0 0.1411155994
H  H231  1  0.32892000  0.12111000  0.85751000  1.0 0.1316967874
H  H232  1  0.58670000  0.13254000  0.80769000  1.0 0.1208229821
H  H233  1  0.59172000  0.18114000  0.76250000  1.0 0.108808862
H  H234  1  0.48788000  0.31074000  0.83942000  1.0 0.1208229821
H  H235  1  0.89415000  0.50380000  0.56389000  1.0 0.1208229821
H  H236  1  0.97524000  0.54600000  0.55187000  1.0 0.1316967874
H  H237  1  0.96391000  0.57166000  0.64390000  1.0 0.1470371865
H  H238  1  0.76961000  0.54217000  0.58694000  1.0 0.1208229821
H  H239  1  0.62485000  0.51932000  0.60059000  1.0 0.1411155994
H  H240  1  0.59724000  0.52280000  0.63316000  1.0 0.1411155994
H  H241  1  0.62945000  0.45207000  0.61978000  1.0 0.1411155994
H  H242  1  0.86231000  0.49248000  0.70239000  1.0 0.1411155994
H  H243  1  0.87947000  0.57315000  0.70271000  1.0 0.1411155994
H  H244  1  0.95290000  0.52236000  0.69109000  1.0 0.1411155994
H  H245  1  0.71218000  0.56246000  0.70923000  1.0 0.1208229821
H  H246  1  0.62484000  0.51216000  0.74295000  1.0 0.1208229821
H  H247  1  0.68610000  0.39536000  0.65875000  1.0 0.108808862
H  H248  1  0.52066000  0.02009000  0.55697000  1.0 0.1316967874
H  H249  1  0.57855000  0.00662000  0.52947000  1.0 0.1411155994
H  H250  1  0.71882000  0.08197000  0.59680000  1.0 0.1316967874
H  H251  1  0.48543000  0.15839000  0.57026000  1.0 0.1411155994
H  H252  1  0.39859000  0.23012000  0.59910000  1.0 0.1470371865
H  H253  1  0.44749000  0.27231000  0.62334000  1.0 0.1411155994
H  H254  1  0.39566000  0.20387000  0.63111000  1.0 0.1411155994
H  H255  1  0.70408000  0.11347000  0.66696000  1.0 0.1470371865
H  H256  1  0.75295000  0.17837000  0.65383000  1.0 0.1411155994
H  H257  1  0.77494000  0.10325000  0.64252000  1.0 0.1316967874
H  H258  1  0.61721000  0.30448000  0.65006000  1.0 0.1208229821
H  H259  1  0.51131000  0.18108000  0.72819000  1.0 0.108808862
H  H260  1  0.51852000  0.12947000  0.68349000  1.0 0.1208229821
H  H261  1  0.76922000  0.86673000  0.57499000  1.0 0.1208229821
H  H262  1  0.74040000  0.94320000  0.56715000  1.0 0.1208229821
H  H263  1  0.64767000  0.91979000  0.65332000  1.0 0.1470371865
H  H264  1  0.85293000  0.94261000  0.59873000  1.0 0.1316967874
H  H265  1  0.99773000  0.96827000  0.61640000  1.0 0.1411155994
H  H266  1  0.01411000  0.98270000  0.64926000  1.0 0.1411155994
H  H267  1  0.98003000  0.04276000  0.62914000  1.0 0.1411155994
H  H268  1  0.72849000  0.01061000  0.70941000  1.0 0.1411155994
H  H269  1  0.73829000  0.93008000  0.71439000  1.0 0.1411155994
H  H270  1  0.65180000  0.95997000  0.70011000  1.0 0.1316967874
H  H271  1  0.91083000  0.10262000  0.67046000  1.0 0.1208229821
H  H272  1  0.98601000  0.98640000  0.75385000  1.0 0.108808862
H  H273  1  0.90262000  0.93199000  0.71929000  1.0 0.1208229821
H  H274  1  0.11681000  0.40687000  0.54877000  1.0 0.1316967874
H  H275  1  0.04937000  0.42064000  0.52373000  1.0 0.1411155994
H  H276  1  0.89055000  0.38667000  0.59808000  1.0 0.1411155994
H  H277  1  0.13964000  0.32686000  0.58093000  1.0 0.1411155994
H  H278  1  0.22885000  0.27139000  0.61583000  1.0 0.1470371865
H  H279  1  0.18035000  0.23065000  0.64057000  1.0 0.1411155994
H  H280  1  0.21740000  0.30585000  0.64627000  1.0 0.1411155994
H  H281  1  0.89041000  0.36798000  0.66942000  1.0 0.1470371865
H  H282  1  0.84675000  0.30346000  0.65421000  1.0 0.1411155994
H  H283  1  0.82892000  0.37889000  0.64249000  1.0 0.1316967874
H  H284  1  0.08670000  0.36746000  0.69231000  1.0 0.1208229821
H  H285  1  0.09172000  0.31886000  0.73750000  1.0 0.108808862
H  H286  1  0.98788000  0.18926000  0.66058000  1.0 0.1208229821
H  H287  1  0.39415000  0.99620000  0.93611000  1.0 0.1208229821
H  H288  1  0.47524000  0.95400000  0.94813000  1.0 0.1316967874
H  H289  1  0.46391000  0.92834000  0.85610000  1.0 0.1470371865
H  H290  1  0.26961000  0.95783000  0.91306000  1.0 0.1208229821
H  H291  1  0.12485000  0.98068000  0.89941000  1.0 0.1411155994
H  H292  1  0.09724000  0.97720000  0.86684000  1.0 0.1411155994
H  H293  1  0.12945000  0.04793000  0.88022000  1.0 0.1411155994
H  H294  1  0.36231000  0.00752000  0.79761000  1.0 0.1411155994
H  H295  1  0.37947000  0.92685000  0.79729000  1.0 0.1411155994
H  H296  1  0.45290000  0.97764000  0.80891000  1.0 0.1411155994
H  H297  1  0.21218000  0.93754000  0.79077000  1.0 0.1208229821
H  H298  1  0.12484000  0.98784000  0.75705000  1.0 0.1208229821
H  H299  1  0.18610000  0.10464000  0.84125000  1.0 0.108808862
H  H300  1  0.02066000  0.47991000  0.94303000  1.0 0.1316967874
H  H301  1  0.07855000  0.49338000  0.97053000  1.0 0.1411155994
H  H302  1  0.21882000  0.41803000  0.90320000  1.0 0.1316967874
H  H303  1  0.98543000  0.34161000  0.92974000  1.0 0.1316967874
H  H304  1  0.89859000  0.26988000  0.90090000  1.0 0.1470371865
H  H305  1  0.94749000  0.22769000  0.87666000  1.0 0.1411155994
H  H306  1  0.89566000  0.29613000  0.86889000  1.0 0.1411155994
H  H307  1  0.20408000  0.38653000  0.83304000  1.0 0.1470371865
H  H308  1  0.25295000  0.32163000  0.84617000  1.0 0.1411155994
H  H309  1  0.27494000  0.39675000  0.85748000  1.0 0.1316967874
H  H310  1  0.11721000  0.19552000  0.84994000  1.0 0.1208229821
H  H311  1  0.01131000  0.31892000  0.77181000  1.0 0.108808862
H  H312  1  0.01852000  0.37053000  0.81651000  1.0 0.1208229821
H  H313  1  0.23078000  0.63327000  0.07499000  1.0 0.1208229821
H  H314  1  0.25960000  0.55680000  0.06715000  1.0 0.1208229821
H  H315  1  0.35233000  0.58021000  0.15332000  1.0 0.1470371865
H  H316  1  0.14707000  0.55739000  0.09873000  1.0 0.1316967874
H  H317  1  0.00227000  0.53173000  0.11640000  1.0 0.1411155994
H  H318  1  0.98589000  0.51730000  0.14926000  1.0 0.1411155994
H  H319  1  0.01997000  0.45724000  0.12914000  1.0 0.1470371865
H  H320  1  0.27151000  0.48939000  0.20941000  1.0 0.1411155994
H  H321  1  0.26171000  0.56992000  0.21439000  1.0 0.1411155994
H  H322  1  0.34820000  0.54003000  0.20011000  1.0 0.1316967874
H  H323  1  0.08917000  0.39738000  0.17046000  1.0 0.1208229821
H  H324  1  0.01399000  0.51360000  0.25385000  1.0 0.108808862
H  H325  1  0.09738000  0.56801000  0.21929000  1.0 0.1208229821
H  H326  1  0.88319000  0.09313000  0.04877000  1.0 0.1316967874
H  H327  1  0.95063000  0.07936000  0.02373000  1.0 0.1411155994
H  H328  1  0.10945000  0.11333000  0.09808000  1.0 0.1411155994
H  H329  1  0.86036000  0.17314000  0.08093000  1.0 0.1411155994
H  H330  1  0.77115000  0.22861000  0.11583000  1.0 0.1470371865
H  H331  1  0.81965000  0.26935000  0.14057000  1.0 0.1411155994
H  H332  1  0.78260000  0.19415000  0.14627000  1.0 0.1411155994
H  H333  1  0.10959000  0.13202000  0.16942000  1.0 0.1470371865
H  H334  1  0.15325000  0.19654000  0.15421000  1.0 0.1470371865
H  H335  1  0.17108000  0.12111000  0.14249000  1.0 0.1316967874
H  H336  1  0.91330000  0.13254000  0.19231000  1.0 0.1208229821
H  H337  1  0.90828000  0.18114000  0.23750000  1.0 0.108808862
H  H338  1  0.01212000  0.31074000  0.16058000  1.0 0.1208229821
H  H339  1  0.60585000  0.50380000  0.43611000  1.0 0.1208229821
H  H340  1  0.52476000  0.54600000  0.44813000  1.0 0.1316967874
H  H341  1  0.53609000  0.57166000  0.35610000  1.0 0.1470371865
H  H342  1  0.73039000  0.54217000  0.41306000  1.0 0.1208229821
H  H343  1  0.87515000  0.51932000  0.39941000  1.0 0.1411155994
H  H344  1  0.90276000  0.52280000  0.36684000  1.0 0.1411155994
H  H345  1  0.87055000  0.45207000  0.38022000  1.0 0.1411155994
H  H346  1  0.63769000  0.49248000  0.29761000  1.0 0.1411155994
H  H347  1  0.62053000  0.57315000  0.29729000  1.0 0.1411155994
H  H348  1  0.54710000  0.52236000  0.30891000  1.0 0.1411155994
H  H349  1  0.78782000  0.56246000  0.29077000  1.0 0.1208229821
H  H350  1  0.87516000  0.51216000  0.25705000  1.0 0.1208229821
H  H351  1  0.81390000  0.39536000  0.34125000  1.0 0.108808862
H  H352  1  0.97934000  0.02009000  0.44303000  1.0 0.1316967874
H  H353  1  0.92145000  0.00662000  0.47053000  1.0 0.1411155994
H  H354  1  0.78118000  0.08197000  0.40320000  1.0 0.1316967874
H  H355  1  0.01457000  0.15839000  0.42974000  1.0 0.1411155994
H  H356  1  0.10141000  0.23012000  0.40090000  1.0 0.1470371865
H  H357  1  0.05251000  0.27231000  0.37666000  1.0 0.1411155994
H  H358  1  0.10434000  0.20387000  0.36889000  1.0 0.1411155994
H  H359  1  0.79592000  0.11347000  0.33304000  1.0 0.1470371865
H  H360  1  0.74705000  0.17837000  0.34617000  1.0 0.1411155994
H  H361  1  0.72506000  0.10325000  0.35748000  1.0 0.1316967874
H  H362  1  0.88279000  0.30448000  0.34994000  1.0 0.1208229821
H  H363  1  0.98869000  0.18108000  0.27181000  1.0 0.108808862
H  H364  1  0.98148000  0.12947000  0.31651000  1.0 0.1208229821
H  H365  1  0.73078000  0.86673000  0.42501000  1.0 0.1208229821
H  H366  1  0.75960000  0.94320000  0.43285000  1.0 0.1208229821
H  H367  1  0.85233000  0.91979000  0.34668000  1.0 0.1411155994
H  H368  1  0.64707000  0.94261000  0.40127000  1.0 0.1316967874
H  H369  1  0.50227000  0.96827000  0.38360000  1.0 0.1411155994
H  H370  1  0.48589000  0.98270000  0.35074000  1.0 0.1411155994
H  H371  1  0.51997000  0.04276000  0.37086000  1.0 0.1411155994
H  H372  1  0.77151000  0.01061000  0.29059000  1.0 0.1411155994
H  H373  1  0.76171000  0.93008000  0.28561000  1.0 0.1411155994
H  H374  1  0.84820000  0.95997000  0.29989000  1.0 0.1316967874
H  H375  1  0.58917000  0.10262000  0.32954000  1.0 0.1208229821
H  H376  1  0.51399000  0.98640000  0.24615000  1.0 0.108808862
H  H377  1  0.59738000  0.93199000  0.28071000  1.0 0.1208229821
H  H378  1  0.38319000  0.40687000  0.45123000  1.0 0.1316967874
H  H379  1  0.45063000  0.42064000  0.47627000  1.0 0.1411155994
H  H380  1  0.60945000  0.38667000  0.40192000  1.0 0.1411155994
H  H381  1  0.36036000  0.32686000  0.41907000  1.0 0.1411155994
H  H382  1  0.27115000  0.27139000  0.38417000  1.0 0.1470371865
H  H383  1  0.31965000  0.23065000  0.35943000  1.0 0.1411155994
H  H384  1  0.28260000  0.30585000  0.35373000  1.0 0.1411155994
H  H385  1  0.60959000  0.36798000  0.33058000  1.0 0.1470371865
H  H386  1  0.65325000  0.30346000  0.34579000  1.0 0.1470371865
H  H387  1  0.67108000  0.37889000  0.35751000  1.0 0.1316967874
H  H388  1  0.41330000  0.36746000  0.30769000  1.0 0.1208229821
H  H389  1  0.40828000  0.31886000  0.26250000  1.0 0.108808862
H  H390  1  0.51212000  0.18926000  0.33942000  1.0 0.1208229821
H  H391  1  0.10585000  0.99620000  0.06389000  1.0 0.1208229821
H  H392  1  0.02476000  0.95400000  0.05187000  1.0 0.1316967874
H  H393  1  0.03609000  0.92834000  0.14390000  1.0 0.1470371865
H  H394  1  0.23039000  0.95783000  0.08694000  1.0 0.1208229821
H  H395  1  0.37515000  0.98068000  0.10059000  1.0 0.1411155994
H  H396  1  0.40276000  0.97720000  0.13316000  1.0 0.1411155994
H  H397  1  0.37055000  0.04793000  0.11978000  1.0 0.1411155994
H  H398  1  0.13769000  0.00752000  0.20239000  1.0 0.1411155994
H  H399  1  0.12053000  0.92685000  0.20271000  1.0 0.1411155994
H  H400  1  0.04710000  0.97764000  0.19109000  1.0 0.1411155994
H  H401  1  0.28782000  0.93754000  0.20923000  1.0 0.1208229821
H  H402  1  0.37516000  0.98784000  0.24295000  1.0 0.1208229821
H  H403  1  0.31390000  0.10464000  0.15875000  1.0 0.108808862
H  H404  1  0.47934000  0.47991000  0.05697000  1.0 0.1316967874
H  H405  1  0.42145000  0.49338000  0.02947000  1.0 0.1411155994
H  H406  1  0.28118000  0.41803000  0.09680000  1.0 0.1316967874
H  H407  1  0.51457000  0.34161000  0.07026000  1.0 0.1411155994
H  H408  1  0.60141000  0.26988000  0.09910000  1.0 0.1470371865
H  H409  1  0.55251000  0.22769000  0.12334000  1.0 0.1411155994
H  H410  1  0.60434000  0.29613000  0.13111000  1.0 0.1411155994
H  H411  1  0.29592000  0.38653000  0.16696000  1.0 0.1470371865
H  H412  1  0.24705000  0.32163000  0.15383000  1.0 0.1411155994
H  H413  1  0.22506000  0.39675000  0.14252000  1.0 0.1316967874
H  H414  1  0.38279000  0.19552000  0.15006000  1.0 0.1208229821
H  H415  1  0.48869000  0.31892000  0.22819000  1.0 0.108808862
H  H416  1  0.48148000  0.37053000  0.18349000  1.0 0.1208229821
H  H417  1  0.63668000  0.21566000  0.44437000  1.0 0.2489590104
H  H418  1  0.54999000  0.18664000  0.44939000  1.0 0.2736873123
H  H419  1  0.60803000  0.21558000  0.39514000  1.0 0.1208229821
H  H420  1  0.52162000  0.17167000  0.40047000  1.0 0.1411155994
H  H421  1  0.61337000  0.13398000  0.39661000  1.0 0.1316967874
H  H422  1  0.66121000  0.12079000  0.47397000  1.0 0.1411155994
H  H423  1  0.69869000  0.10019000  0.44359000  1.0 0.1208229821
H  H424  1  0.60468000  0.07370000  0.45328000  1.0 0.1411155994
H  H425  1  0.13668000  0.28434000  0.05563000  1.0 0.2489590104
H  H426  1  0.04999000  0.31336000  0.05061000  1.0 0.2736873123
H  H427  1  0.10803000  0.28442000  0.10486000  1.0 0.1208229821
H  H428  1  0.02162000  0.32833000  0.09953000  1.0 0.1411155994
H  H429  1  0.11337000  0.36602000  0.10339000  1.0 0.1316967874
H  H430  1  0.16121000  0.37921000  0.02603000  1.0 0.1411155994
H  H431  1  0.19869000  0.39981000  0.05641000  1.0 0.1208229821
H  H432  1  0.10468000  0.42630000  0.04672000  1.0 0.1411155994
H  H433  1  0.86332000  0.21566000  0.55563000  1.0 0.2489590104
H  H434  1  0.95001000  0.18664000  0.55061000  1.0 0.2736873123
H  H435  1  0.89197000  0.21558000  0.60486000  1.0 0.1208229821
H  H436  1  0.97838000  0.17167000  0.59953000  1.0 0.1411155994
H  H437  1  0.88663000  0.13398000  0.60339000  1.0 0.1316967874
H  H438  1  0.83879000  0.12079000  0.52603000  1.0 0.1411155994
H  H439  1  0.80131000  0.10019000  0.55641000  1.0 0.1208229821
H  H440  1  0.89532000  0.07370000  0.54672000  1.0 0.1411155994
H  H441  1  0.36332000  0.28434000  0.94437000  1.0 0.2489590104
H  H442  1  0.45001000  0.31336000  0.94939000  1.0 0.2736873123
H  H443  1  0.39197000  0.28442000  0.89514000  1.0 0.1208229821
H  H444  1  0.47838000  0.32833000  0.90047000  1.0 0.1411155994
H  H445  1  0.38663000  0.36602000  0.89661000  1.0 0.1316967874
H  H446  1  0.33879000  0.37921000  0.97397000  1.0 0.1411155994
H  H447  1  0.30131000  0.39981000  0.94359000  1.0 0.1208229821
H  H448  1  0.39532000  0.42630000  0.95328000  1.0 0.1411155994
H  H449  1  0.36332000  0.78434000  0.55563000  1.0 0.2489590104
H  H450  1  0.45001000  0.81336000  0.55061000  1.0 0.2736873123
H  H451  1  0.39197000  0.78442000  0.60486000  1.0 0.1208229821
H  H452  1  0.47838000  0.82833000  0.59953000  1.0 0.1411155994
H  H453  1  0.38663000  0.86602000  0.60339000  1.0 0.1316967874
H  H454  1  0.33879000  0.87921000  0.52603000  1.0 0.1411155994
H  H455  1  0.30131000  0.89981000  0.55641000  1.0 0.1208229821
H  H456  1  0.39532000  0.92630000  0.54672000  1.0 0.1411155994
H  H457  1  0.86332000  0.71566000  0.94437000  1.0 0.2489590104
H  H458  1  0.95001000  0.68664000  0.94939000  1.0 0.2736873123
H  H459  1  0.89197000  0.71558000  0.89514000  1.0 0.1208229821
H  H460  1  0.97838000  0.67167000  0.90047000  1.0 0.1411155994
H  H461  1  0.88663000  0.63398000  0.89661000  1.0 0.1316967874
H  H462  1  0.83879000  0.62079000  0.97397000  1.0 0.1411155994
H  H463  1  0.80131000  0.60019000  0.94359000  1.0 0.1208229821
H  H464  1  0.89532000  0.57370000  0.95328000  1.0 0.1411155994
H  H465  1  0.13668000  0.78434000  0.44437000  1.0 0.2489590104
H  H466  1  0.04999000  0.81336000  0.44939000  1.0 0.2736873123
H  H467  1  0.10803000  0.78442000  0.39514000  1.0 0.1208229821
H  H468  1  0.02162000  0.82833000  0.40047000  1.0 0.1411155994
H  H469  1  0.11337000  0.86602000  0.39661000  1.0 0.1316967874
H  H470  1  0.16121000  0.87921000  0.47397000  1.0 0.1411155994
H  H471  1  0.19869000  0.89981000  0.44359000  1.0 0.1208229821
H  H472  1  0.10468000  0.92630000  0.45328000  1.0 0.1411155994
H  H473  1  0.63668000  0.71566000  0.05563000  1.0 0.2489590104
H  H474  1  0.54999000  0.68664000  0.05061000  1.0 0.2736873123
H  H475  1  0.60803000  0.71558000  0.10486000  1.0 0.1208229821
H  H476  1  0.52162000  0.67167000  0.09953000  1.0 0.1411155994
H  H477  1  0.61337000  0.63398000  0.10339000  1.0 0.1316967874
H  H478  1  0.66121000  0.62079000  0.02603000  1.0 0.1411155994
H  H479  1  0.69869000  0.60019000  0.05641000  1.0 0.1208229821
H  H480  1  0.60468000  0.57370000  0.04672000  1.0 0.1411155994
C  C1  1  0.85120000  0.36970000  0.05335000  1.0 0.5605121298
C  C2  1  0.78090000  0.39850000  0.07412000  1.0 -0.1592716532
C  C3  1  0.75870000  0.42900000  0.12225000  1.0 0.2395396909
C  C4  1  0.79390000  0.43350000  0.15000000  1.0 -0.2891010192
C  C5  1  0.74320000  0.45780000  0.17252000  1.0 0.1611739792
C  C6  1  0.65440000  0.47830000  0.16734000  1.0 -0.0991671378
C  C7  1  0.61890000  0.47290000  0.13956000  1.0 0.1688622013
C  C8  1  0.67100000  0.44740000  0.11711000  1.0 -0.329381099
C  C9  1  0.52280000  0.49360000  0.13298000  1.0 -0.4622034642
C  C10  1  0.78490000  0.46530000  0.20173000  1.0 -0.4622034642
C  C11  1  0.60080000  0.51110000  0.19058000  1.0 0.097688592
C  C12  1  0.57280000  0.57880000  0.18712000  1.0 -0.188556296
C  C13  1  0.52060000  0.61360000  0.20762000  1.0 0.0293562685
C  C14  1  0.49600000  0.57820000  0.23312000  1.0 0.0293562685
C  C15  1  0.52750000  0.51010000  0.23692000  1.0 -0.1416331989
C  C16  1  0.57810000  0.47740000  0.21616000  1.0 -0.1485007328
C  C17  1  0.40990000  0.81740000  0.02522000  1.0 0.5605121298
C  C18  1  0.43520000  0.88840000  0.03905000  1.0 -0.1318215821
C  C19  1  0.48640000  0.86010000  0.08535000  1.0 0.2231536526
C  C20  1  0.55650000  0.86630000  0.10415000  1.0 -0.2713044715
C  C21  1  0.54830000  0.84260000  0.13171000  1.0 0.1611739792
C  C22  1  0.46840000  0.81230000  0.14131000  1.0 -0.0908928858
C  C23  1  0.39720000  0.80650000  0.12282000  1.0 0.1688622013
C  C24  1  0.40720000  0.83080000  0.09392000  1.0 -0.3011009929
C  C25  1  0.30970000  0.77580000  0.13222000  1.0 -0.4622034642
C  C26  1  0.62770000  0.84880000  0.15122000  1.0 -0.4622034642
C  C27  1  0.46470000  0.78340000  0.17136000  1.0 0.097688592
C  C28  1  0.43290000  0.82190000  0.19501000  1.0 -0.1485007328
C  C29  1  0.43050000  0.79270000  0.22223000  1.0 -0.1485007328
C  C30  1  0.46090000  0.72410000  0.22749000  1.0 0.0293562685
C  C31  1  0.49150000  0.68510000  0.20351000  1.0 0.0293562685
C  C32  1  0.49230000  0.71560000  0.17615000  1.0 -0.188556296
C  C33  1  0.14230000  0.40450000  0.45443000  1.0 0.5677871573
C  C34  1  0.08020000  0.44990000  0.43758000  1.0 -0.188556296
C  C35  1  0.12260000  0.44170000  0.38807000  1.0 0.2395396909
C  C36  1  0.09390000  0.44240000  0.36019000  1.0 -0.3011009929
C  C37  1  0.14870000  0.46370000  0.33771000  1.0 0.1611739792
C  C38  1  0.23660000  0.48410000  0.34385000  1.0 -0.0991671378
C  C39  1  0.26660000  0.48040000  0.37219000  1.0 0.1688622013
C  C40  1  0.20980000  0.45970000  0.39417000  1.0 -0.3011009929
C  C41  1  0.36280000  0.49820000  0.38044000  1.0 -0.4688772616
C  C42  1  0.11000000  0.46940000  0.30762000  1.0 -0.4622034642
C  C43  1  0.29370000  0.51450000  0.32099000  1.0 0.097688592
C  C44  1  0.31190000  0.48140000  0.29437000  1.0 -0.1485007328
C  C45  1  0.36320000  0.51180000  0.27406000  1.0 -0.1416331989
C  C46  1  0.39920000  0.57930000  0.27814000  1.0 0.0293562685
C  C47  1  0.37790000  0.61570000  0.30352000  1.0 0.0293562685
C  C48  1  0.32660000  0.58110000  0.32420000  1.0 -0.188556296
C  C49  1  0.51330000  0.91570000  0.47664000  1.0 0.5605121298
C  C50  1  0.44730000  0.95710000  0.45856000  1.0 -0.1664299053
C  C51  1  0.39590000  0.88460000  0.42051000  1.0 0.2395396909
C  C52  1  0.33200000  0.89190000  0.39954000  1.0 -0.2891010192
C  C53  1  0.34340000  0.86000000  0.37282000  1.0 0.1611739792
C  C54  1  0.42040000  0.82170000  0.36724000  1.0 -0.0908928858
C  C55  1  0.48560000  0.81550000  0.38832000  1.0 0.1688622013
C  C56  1  0.47210000  0.84660000  0.41531000  1.0 -0.3011009929
C  C57  1  0.56840000  0.77350000  0.38324000  1.0 -0.4544140902
C  C58  1  0.27130000  0.86690000  0.35033000  1.0 -0.4622034642
C  C59  1  0.40390000  0.72020000  0.33410000  1.0 -0.188556296
C  C60  1  0.40660000  0.68660000  0.30723000  1.0 0.0293562685
C  C61  1  0.43790000  0.72470000  0.28275000  1.0 0.0293562685
C  C62  1  0.46650000  0.79350000  0.28731000  1.0 -0.1485007328
C  C63  1  0.46270000  0.82460000  0.31427000  1.0 -0.1416331989
C  C64  1  0.43090000  0.78770000  0.33805000  1.0 0.097688592
C  C65  1  0.44840000  0.68860000  0.25534000  1.0 -0.0119884266
C  C66  1  0.44800000  0.61560000  0.25552000  1.0 -0.0291783829
C  C67  1  0.35120000  0.13030000  0.44665000  1.0 0.5605121298
C  C68  1  0.28090000  0.10150000  0.42588000  1.0 -0.1592716532
C  C69  1  0.25870000  0.07100000  0.37775000  1.0 0.2395396909
C  C70  1  0.29390000  0.06650000  0.35000000  1.0 -0.2891010192
C  C71  1  0.24320000  0.04220000  0.32748000  1.0 0.1611739792
C  C72  1  0.15440000  0.02170000  0.33266000  1.0 -0.0991671378
C  C73  1  0.11890000  0.02710000  0.36044000  1.0 0.1688622013
C  C74  1  0.17100000  0.05260000  0.38289000  1.0 -0.329381099
C  C75  1  0.02280000  0.00640000  0.36702000  1.0 -0.4622034642
C  C76  1  0.28490000  0.03470000  0.29827000  1.0 -0.4622034642
C  C77  1  0.10080000  0.98890000  0.30942000  1.0 0.097688592
C  C78  1  0.07280000  0.92120000  0.31288000  1.0 -0.188556296
C  C79  1  0.02060000  0.88640000  0.29238000  1.0 0.0293562685
C  C80  1  0.99600000  0.92180000  0.26688000  1.0 0.0293562685
C  C81  1  0.02750000  0.98990000  0.26308000  1.0 -0.1416331989
C  C82  1  0.07810000  0.02260000  0.28384000  1.0 -0.1485007328
C  C83  1  0.90990000  0.68260000  0.47478000  1.0 0.5605121298
C  C84  1  0.93520000  0.61160000  0.46095000  1.0 -0.1318215821
C  C85  1  0.98640000  0.63990000  0.41465000  1.0 0.2231536526
C  C86  1  0.05650000  0.63370000  0.39585000  1.0 -0.2713044715
C  C87  1  0.04830000  0.65740000  0.36829000  1.0 0.1611739792
C  C88  1  0.96840000  0.68770000  0.35869000  1.0 -0.0908928858
C  C89  1  0.89720000  0.69350000  0.37718000  1.0 0.1688622013
C  C90  1  0.90720000  0.66920000  0.40608000  1.0 -0.3011009929
C  C91  1  0.80970000  0.72420000  0.36778000  1.0 -0.4622034642
C  C92  1  0.12770000  0.65120000  0.34878000  1.0 -0.4622034642
C  C93  1  0.96470000  0.71660000  0.32864000  1.0 0.097688592
C  C94  1  0.93290000  0.67810000  0.30499000  1.0 -0.1485007328
C  C95  1  0.93050000  0.70730000  0.27777000  1.0 -0.1485007328
C  C96  1  0.96090000  0.77590000  0.27251000  1.0 0.0293562685
C  C97  1  0.99150000  0.81490000  0.29649000  1.0 0.0293562685
C  C98  1  0.99230000  0.78440000  0.32385000  1.0 -0.188556296
C  C99  1  0.64230000  0.09550000  0.04557000  1.0 0.5677871573
C  C100  1  0.58020000  0.05010000  0.06242000  1.0 -0.188556296
C  C101  1  0.62260000  0.05830000  0.11193000  1.0 0.2395396909
C  C102  1  0.59390000  0.05760000  0.13981000  1.0 -0.2891010192
C  C103  1  0.64870000  0.03630000  0.16229000  1.0 0.1611739792
C  C104  1  0.73660000  0.01590000  0.15615000  1.0 -0.0991671378
C  C105  1  0.76660000  0.01960000  0.12781000  1.0 0.1688622013
C  C106  1  0.70980000  0.04030000  0.10583000  1.0 -0.3011009929
C  C107  1  0.86280000  0.00180000  0.11956000  1.0 -0.4688772616
C  C108  1  0.61000000  0.03060000  0.19238000  1.0 -0.4622034642
C  C109  1  0.79370000  0.98550000  0.17901000  1.0 0.097688592
C  C110  1  0.81190000  0.01860000  0.20563000  1.0 -0.1485007328
C  C111  1  0.86320000  0.98820000  0.22594000  1.0 -0.1416331989
C  C112  1  0.89920000  0.92070000  0.22186000  1.0 0.0293562685
C  C113  1  0.87790000  0.88430000  0.19648000  1.0 0.0293562685
C  C114  1  0.82660000  0.91890000  0.17580000  1.0 -0.188556296
C  C115  1  0.01330000  0.58430000  0.02336000  1.0 0.5605121298
C  C116  1  0.94730000  0.54290000  0.04144000  1.0 -0.1664299053
C  C117  1  0.89590000  0.61540000  0.07949000  1.0 0.2395396909
C  C118  1  0.83200000  0.60810000  0.10046000  1.0 -0.2891010192
C  C119  1  0.84340000  0.64000000  0.12718000  1.0 0.1611739792
C  C120  1  0.92040000  0.67830000  0.13276000  1.0 -0.0908928858
C  C121  1  0.98560000  0.68450000  0.11168000  1.0 0.1688622013
C  C122  1  0.97210000  0.65340000  0.08469000  1.0 -0.3011009929
C  C123  1  0.06840000  0.72650000  0.11676000  1.0 -0.4544140902
C  C124  1  0.77130000  0.63310000  0.14967000  1.0 -0.4622034642
C  C125  1  0.90390000  0.77980000  0.16590000  1.0 -0.188556296
C  C126  1  0.90660000  0.81340000  0.19277000  1.0 0.0293562685
C  C127  1  0.93790000  0.77530000  0.21725000  1.0 0.0293562685
C  C128  1  0.96650000  0.70650000  0.21269000  1.0 -0.1485007328
C  C129  1  0.96270000  0.67540000  0.18573000  1.0 -0.1416331989
C  C130  1  0.93090000  0.71230000  0.16195000  1.0 0.097688592
C  C131  1  0.94840000  0.81140000  0.24466000  1.0 -0.0119884266
C  C132  1  0.94800000  0.88440000  0.24448000  1.0 -0.0291783829
C  C133  1  0.64880000  0.36970000  0.94665000  1.0 0.5605121298
C  C134  1  0.71910000  0.39850000  0.92588000  1.0 -0.1592716532
C  C135  1  0.74130000  0.42900000  0.87775000  1.0 0.2395396909
C  C136  1  0.70610000  0.43350000  0.85000000  1.0 -0.2891010192
C  C137  1  0.75680000  0.45780000  0.82748000  1.0 0.1611739792
C  C138  1  0.84560000  0.47830000  0.83266000  1.0 -0.0991671378
C  C139  1  0.88110000  0.47290000  0.86044000  1.0 0.1688622013
C  C140  1  0.82900000  0.44740000  0.88289000  1.0 -0.329381099
C  C141  1  0.97720000  0.49360000  0.86702000  1.0 -0.4622034642
C  C142  1  0.71510000  0.46530000  0.79827000  1.0 -0.4622034642
C  C143  1  0.89920000  0.51110000  0.80942000  1.0 0.097688592
C  C144  1  0.92720000  0.57880000  0.81288000  1.0 -0.188556296
C  C145  1  0.97940000  0.61360000  0.79238000  1.0 0.0293562685
C  C146  1  0.00400000  0.57820000  0.76688000  1.0 0.0293562685
C  C147  1  0.97250000  0.51010000  0.76308000  1.0 -0.1416331989
C  C148  1  0.92190000  0.47740000  0.78384000  1.0 -0.1485007328
C  C149  1  0.09010000  0.81740000  0.97478000  1.0 0.5605121298
C  C150  1  0.06480000  0.88840000  0.96095000  1.0 -0.1318215821
C  C151  1  0.01360000  0.86010000  0.91465000  1.0 0.2231536526
C  C152  1  0.94350000  0.86630000  0.89585000  1.0 -0.2713044715
C  C153  1  0.95170000  0.84260000  0.86829000  1.0 0.1611739792
C  C154  1  0.03160000  0.81230000  0.85869000  1.0 -0.0908928858
C  C155  1  0.10280000  0.80650000  0.87718000  1.0 0.1688622013
C  C156  1  0.09280000  0.83080000  0.90608000  1.0 -0.3011009929
C  C157  1  0.19030000  0.77580000  0.86778000  1.0 -0.4622034642
C  C158  1  0.87230000  0.84880000  0.84878000  1.0 -0.4622034642
C  C159  1  0.03530000  0.78340000  0.82864000  1.0 0.097688592
C  C160  1  0.06710000  0.82190000  0.80499000  1.0 -0.1485007328
C  C161  1  0.06950000  0.79270000  0.77777000  1.0 -0.1485007328
C  C162  1  0.03910000  0.72410000  0.77251000  1.0 0.0293562685
C  C163  1  0.00850000  0.68510000  0.79649000  1.0 0.0293562685
C  C164  1  0.00770000  0.71560000  0.82385000  1.0 -0.188556296
C  C165  1  0.35770000  0.40450000  0.54557000  1.0 0.5677871573
C  C166  1  0.41980000  0.44990000  0.56242000  1.0 -0.188556296
C  C167  1  0.37740000  0.44170000  0.61193000  1.0 0.2395396909
C  C168  1  0.40610000  0.44240000  0.63981000  1.0 -0.3011009929
C  C169  1  0.35130000  0.46370000  0.66229000  1.0 0.1611739792
C  C170  1  0.26340000  0.48410000  0.65615000  1.0 -0.0991671378
C  C171  1  0.23340000  0.48040000  0.62781000  1.0 0.1688622013
C  C172  1  0.29020000  0.45970000  0.60583000  1.0 -0.3011009929
C  C173  1  0.13720000  0.49820000  0.61956000  1.0 -0.4688772616
C  C174  1  0.39000000  0.46940000  0.69238000  1.0 -0.4622034642
C  C175  1  0.20630000  0.51450000  0.67901000  1.0 0.097688592
C  C176  1  0.18810000  0.48140000  0.70563000  1.0 -0.1485007328
C  C177  1  0.13680000  0.51180000  0.72594000  1.0 -0.1416331989
C  C178  1  0.10080000  0.57930000  0.72186000  1.0 0.0293562685
C  C179  1  0.12210000  0.61570000  0.69648000  1.0 0.0293562685
C  C180  1  0.17340000  0.58110000  0.67580000  1.0 -0.188556296
C  C181  1  0.98670000  0.91570000  0.52336000  1.0 0.5605121298
C  C182  1  0.05270000  0.95710000  0.54144000  1.0 -0.1664299053
C  C183  1  0.10410000  0.88460000  0.57949000  1.0 0.2395396909
C  C184  1  0.16800000  0.89190000  0.60046000  1.0 -0.2891010192
C  C185  1  0.15660000  0.86000000  0.62718000  1.0 0.1611739792
C  C186  1  0.07960000  0.82170000  0.63276000  1.0 -0.0908928858
C  C187  1  0.01440000  0.81550000  0.61168000  1.0 0.1688622013
C  C188  1  0.02790000  0.84660000  0.58469000  1.0 -0.3011009929
C  C189  1  0.93160000  0.77350000  0.61676000  1.0 -0.4544140902
C  C190  1  0.22870000  0.86690000  0.64967000  1.0 -0.4622034642
C  C191  1  0.09610000  0.72020000  0.66590000  1.0 -0.188556296
C  C192  1  0.09340000  0.68660000  0.69277000  1.0 0.0293562685
C  C193  1  0.06210000  0.72470000  0.71725000  1.0 0.0293562685
C  C194  1  0.03350000  0.79350000  0.71269000  1.0 -0.1485007328
C  C195  1  0.03730000  0.82460000  0.68573000  1.0 -0.1416331989
C  C196  1  0.06910000  0.78770000  0.66195000  1.0 0.097688592
C  C197  1  0.05160000  0.68860000  0.74466000  1.0 -0.0119884266
C  C198  1  0.05200000  0.61560000  0.74448000  1.0 -0.0291783829
C  C199  1  0.14880000  0.13030000  0.55335000  1.0 0.5605121298
C  C200  1  0.21910000  0.10150000  0.57412000  1.0 -0.1592716532
C  C201  1  0.24130000  0.07100000  0.62225000  1.0 0.2395396909
C  C202  1  0.20610000  0.06650000  0.65000000  1.0 -0.2891010192
C  C203  1  0.25680000  0.04220000  0.67252000  1.0 0.1611739792
C  C204  1  0.34560000  0.02170000  0.66734000  1.0 -0.0991671378
C  C205  1  0.38110000  0.02710000  0.63956000  1.0 0.1688622013
C  C206  1  0.32900000  0.05260000  0.61711000  1.0 -0.329381099
C  C207  1  0.47720000  0.00640000  0.63298000  1.0 -0.4622034642
C  C208  1  0.21510000  0.03470000  0.70173000  1.0 -0.4622034642
C  C209  1  0.39920000  0.98890000  0.69058000  1.0 0.097688592
C  C210  1  0.42720000  0.92120000  0.68712000  1.0 -0.188556296
C  C211  1  0.47940000  0.88640000  0.70762000  1.0 0.0293562685
C  C212  1  0.50400000  0.92180000  0.73312000  1.0 0.0293562685
C  C213  1  0.47250000  0.98990000  0.73692000  1.0 -0.1416331989
C  C214  1  0.42190000  0.02260000  0.71616000  1.0 -0.1485007328
C  C215  1  0.59010000  0.68260000  0.52522000  1.0 0.5605121298
C  C216  1  0.56480000  0.61160000  0.53905000  1.0 -0.1318215821
C  C217  1  0.51360000  0.63990000  0.58535000  1.0 0.2231536526
C  C218  1  0.44350000  0.63370000  0.60415000  1.0 -0.2713044715
C  C219  1  0.45170000  0.65740000  0.63171000  1.0 0.1611739792
C  C220  1  0.53160000  0.68770000  0.64131000  1.0 -0.0908928858
C  C221  1  0.60280000  0.69350000  0.62282000  1.0 0.1688622013
C  C222  1  0.59280000  0.66920000  0.59392000  1.0 -0.3011009929
C  C223  1  0.69030000  0.72420000  0.63222000  1.0 -0.4622034642
C  C224  1  0.37230000  0.65120000  0.65122000  1.0 -0.4622034642
C  C225  1  0.53530000  0.71660000  0.67136000  1.0 0.097688592
C  C226  1  0.56710000  0.67810000  0.69501000  1.0 -0.1485007328
C  C227  1  0.56950000  0.70730000  0.72223000  1.0 -0.1485007328
C  C228  1  0.53910000  0.77590000  0.72749000  1.0 0.0293562685
C  C229  1  0.50850000  0.81490000  0.70351000  1.0 0.0293562685
C  C230  1  0.50770000  0.78440000  0.67615000  1.0 -0.188556296
C  C231  1  0.85770000  0.09550000  0.95443000  1.0 0.5677871573
C  C232  1  0.91980000  0.05010000  0.93758000  1.0 -0.188556296
C  C233  1  0.87740000  0.05830000  0.88807000  1.0 0.2395396909
C  C234  1  0.90610000  0.05760000  0.86019000  1.0 -0.2891010192
C  C235  1  0.85130000  0.03630000  0.83771000  1.0 0.1611739792
C  C236  1  0.76340000  0.01590000  0.84385000  1.0 -0.0991671378
C  C237  1  0.73340000  0.01960000  0.87219000  1.0 0.1688622013
C  C238  1  0.79020000  0.04030000  0.89417000  1.0 -0.3011009929
C  C239  1  0.63720000  0.00180000  0.88044000  1.0 -0.4688772616
C  C240  1  0.89000000  0.03060000  0.80762000  1.0 -0.4622034642
C  C241  1  0.70630000  0.98550000  0.82099000  1.0 0.097688592
C  C242  1  0.68810000  0.01860000  0.79437000  1.0 -0.1485007328
C  C243  1  0.63680000  0.98820000  0.77406000  1.0 -0.1416331989
C  C244  1  0.60080000  0.92070000  0.77814000  1.0 0.0293562685
C  C245  1  0.62210000  0.88430000  0.80352000  1.0 0.0293562685
C  C246  1  0.67340000  0.91890000  0.82420000  1.0 -0.188556296
C  C247  1  0.48670000  0.58430000  0.97664000  1.0 0.5605121298
C  C248  1  0.55270000  0.54290000  0.95856000  1.0 -0.1664299053
C  C249  1  0.60410000  0.61540000  0.92051000  1.0 0.2395396909
C  C250  1  0.66800000  0.60810000  0.89954000  1.0 -0.2891010192
C  C251  1  0.65660000  0.64000000  0.87282000  1.0 0.1611739792
C  C252  1  0.57960000  0.67830000  0.86724000  1.0 -0.0908928858
C  C253  1  0.51440000  0.68450000  0.88832000  1.0 0.1688622013
C  C254  1  0.52790000  0.65340000  0.91531000  1.0 -0.3011009929
C  C255  1  0.43160000  0.72650000  0.88324000  1.0 -0.4544140902
C  C256  1  0.72870000  0.63310000  0.85033000  1.0 -0.4622034642
C  C257  1  0.59610000  0.77980000  0.83410000  1.0 -0.188556296
C  C258  1  0.59340000  0.81340000  0.80723000  1.0 0.0293562685
C  C259  1  0.56210000  0.77530000  0.78275000  1.0 0.0293562685
C  C260  1  0.53350000  0.70650000  0.78731000  1.0 -0.1485007328
C  C261  1  0.53730000  0.67540000  0.81427000  1.0 -0.1416331989
C  C262  1  0.56910000  0.71230000  0.83805000  1.0 0.097688592
C  C263  1  0.55160000  0.81140000  0.75534000  1.0 -0.0119884266
C  C264  1  0.55200000  0.88440000  0.75552000  1.0 -0.0291783829
C  C265  1  0.14880000  0.63030000  0.94665000  1.0 0.5605121298
C  C266  1  0.21910000  0.60150000  0.92588000  1.0 -0.1592716532
C  C267  1  0.24130000  0.57100000  0.87775000  1.0 0.2395396909
C  C268  1  0.20610000  0.56650000  0.85000000  1.0 -0.2891010192
C  C269  1  0.25680000  0.54220000  0.82748000  1.0 0.1611739792
C  C270  1  0.34560000  0.52170000  0.83266000  1.0 -0.0991671378
C  C271  1  0.38110000  0.52710000  0.86044000  1.0 0.1688622013
C  C272  1  0.32900000  0.55260000  0.88289000  1.0 -0.329381099
C  C273  1  0.47720000  0.50640000  0.86702000  1.0 -0.4622034642
C  C274  1  0.21510000  0.53470000  0.79827000  1.0 -0.4622034642
C  C275  1  0.39920000  0.48890000  0.80942000  1.0 0.097688592
C  C276  1  0.42720000  0.42120000  0.81288000  1.0 -0.188556296
C  C277  1  0.47940000  0.38640000  0.79238000  1.0 0.0293562685
C  C278  1  0.50400000  0.42180000  0.76688000  1.0 0.0293562685
C  C279  1  0.47250000  0.48990000  0.76308000  1.0 -0.1416331989
C  C280  1  0.42190000  0.52260000  0.78384000  1.0 -0.1485007328
C  C281  1  0.59010000  0.18260000  0.97478000  1.0 0.5605121298
C  C282  1  0.56480000  0.11160000  0.96095000  1.0 -0.1318215821
C  C283  1  0.51360000  0.13990000  0.91465000  1.0 0.2231536526
C  C284  1  0.44350000  0.13370000  0.89585000  1.0 -0.2713044715
C  C285  1  0.45170000  0.15740000  0.86829000  1.0 0.1611739792
C  C286  1  0.53160000  0.18770000  0.85869000  1.0 -0.0908928858
C  C287  1  0.60280000  0.19350000  0.87718000  1.0 0.1688622013
C  C288  1  0.59280000  0.16920000  0.90608000  1.0 -0.3011009929
C  C289  1  0.69030000  0.22420000  0.86778000  1.0 -0.4622034642
C  C290  1  0.37230000  0.15120000  0.84878000  1.0 -0.4622034642
C  C291  1  0.53530000  0.21660000  0.82864000  1.0 0.097688592
C  C292  1  0.56710000  0.17810000  0.80499000  1.0 -0.1485007328
C  C293  1  0.56950000  0.20730000  0.77777000  1.0 -0.1485007328
C  C294  1  0.53910000  0.27590000  0.77251000  1.0 0.0293562685
C  C295  1  0.50850000  0.31490000  0.79649000  1.0 0.0293562685
C  C296  1  0.50770000  0.28440000  0.82385000  1.0 -0.188556296
C  C297  1  0.85770000  0.59550000  0.54557000  1.0 0.5677871573
C  C298  1  0.91980000  0.55010000  0.56242000  1.0 -0.188556296
C  C299  1  0.87740000  0.55830000  0.61193000  1.0 0.2395396909
C  C300  1  0.90610000  0.55760000  0.63981000  1.0 -0.2891010192
C  C301  1  0.85130000  0.53630000  0.66229000  1.0 0.1611739792
C  C302  1  0.76340000  0.51590000  0.65615000  1.0 -0.0991671378
C  C303  1  0.73340000  0.51960000  0.62781000  1.0 0.1688622013
C  C304  1  0.79020000  0.54030000  0.60583000  1.0 -0.3011009929
C  C305  1  0.63720000  0.50180000  0.61956000  1.0 -0.4688772616
C  C306  1  0.89000000  0.53060000  0.69238000  1.0 -0.4622034642
C  C307  1  0.70630000  0.48550000  0.67901000  1.0 0.097688592
C  C308  1  0.68810000  0.51860000  0.70563000  1.0 -0.1485007328
C  C309  1  0.63680000  0.48820000  0.72594000  1.0 -0.1416331989
C  C310  1  0.60080000  0.42070000  0.72186000  1.0 0.0293562685
C  C311  1  0.62210000  0.38430000  0.69648000  1.0 0.0293562685
C  C312  1  0.67340000  0.41890000  0.67580000  1.0 -0.188556296
C  C313  1  0.48670000  0.08430000  0.52336000  1.0 0.5605121298
C  C314  1  0.55270000  0.04290000  0.54144000  1.0 -0.1664299053
C  C315  1  0.60410000  0.11540000  0.57949000  1.0 0.2395396909
C  C316  1  0.66800000  0.10810000  0.60046000  1.0 -0.2891010192
C  C317  1  0.65660000  0.14000000  0.62718000  1.0 0.1611739792
C  C318  1  0.57960000  0.17830000  0.63276000  1.0 -0.0908928858
C  C319  1  0.51440000  0.18450000  0.61168000  1.0 0.1688622013
C  C320  1  0.52790000  0.15340000  0.58469000  1.0 -0.3011009929
C  C321  1  0.43160000  0.22650000  0.61676000  1.0 -0.4544140902
C  C322  1  0.72870000  0.13310000  0.64967000  1.0 -0.4622034642
C  C323  1  0.59610000  0.27980000  0.66590000  1.0 -0.188556296
C  C324  1  0.59340000  0.31340000  0.69277000  1.0 0.0293562685
C  C325  1  0.56210000  0.27530000  0.71725000  1.0 0.0293562685
C  C326  1  0.53350000  0.20650000  0.71269000  1.0 -0.1485007328
C  C327  1  0.53730000  0.17540000  0.68573000  1.0 -0.1416331989
C  C328  1  0.56910000  0.21230000  0.66195000  1.0 0.097688592
C  C329  1  0.55160000  0.31140000  0.74466000  1.0 -0.0119884266
C  C330  1  0.55200000  0.38440000  0.74448000  1.0 -0.0291783829
C  C331  1  0.64880000  0.86970000  0.55335000  1.0 0.5605121298
C  C332  1  0.71910000  0.89850000  0.57412000  1.0 -0.1592716532
C  C333  1  0.74130000  0.92900000  0.62225000  1.0 0.2395396909
C  C334  1  0.70610000  0.93350000  0.65000000  1.0 -0.2891010192
C  C335  1  0.75680000  0.95780000  0.67252000  1.0 0.1611739792
C  C336  1  0.84560000  0.97830000  0.66734000  1.0 -0.0991671378
C  C337  1  0.88110000  0.97290000  0.63956000  1.0 0.1688622013
C  C338  1  0.82900000  0.94740000  0.61711000  1.0 -0.329381099
C  C339  1  0.97720000  0.99360000  0.63298000  1.0 -0.4622034642
C  C340  1  0.71510000  0.96530000  0.70173000  1.0 -0.4622034642
C  C341  1  0.89920000  0.01110000  0.69058000  1.0 0.097688592
C  C342  1  0.92720000  0.07880000  0.68712000  1.0 -0.188556296
C  C343  1  0.97940000  0.11360000  0.70762000  1.0 0.0293562685
C  C344  1  0.00400000  0.07820000  0.73312000  1.0 0.0293562685
C  C345  1  0.97250000  0.01010000  0.73692000  1.0 -0.1416331989
C  C346  1  0.92190000  0.97740000  0.71616000  1.0 -0.1485007328
C  C347  1  0.09010000  0.31740000  0.52522000  1.0 0.5605121298
C  C348  1  0.06480000  0.38840000  0.53905000  1.0 -0.1318215821
C  C349  1  0.01360000  0.36010000  0.58535000  1.0 0.2231536526
C  C350  1  0.94350000  0.36630000  0.60415000  1.0 -0.2713044715
C  C351  1  0.95170000  0.34260000  0.63171000  1.0 0.1611739792
C  C352  1  0.03160000  0.31230000  0.64131000  1.0 -0.0908928858
C  C353  1  0.10280000  0.30650000  0.62282000  1.0 0.1688622013
C  C354  1  0.09280000  0.33080000  0.59392000  1.0 -0.3011009929
C  C355  1  0.19030000  0.27580000  0.63222000  1.0 -0.4622034642
C  C356  1  0.87230000  0.34880000  0.65122000  1.0 -0.4622034642
C  C357  1  0.03530000  0.28340000  0.67136000  1.0 0.097688592
C  C358  1  0.06710000  0.32190000  0.69501000  1.0 -0.1485007328
C  C359  1  0.06950000  0.29270000  0.72223000  1.0 -0.1485007328
C  C360  1  0.03910000  0.22410000  0.72749000  1.0 0.0293562685
C  C361  1  0.00850000  0.18510000  0.70351000  1.0 0.0293562685
C  C362  1  0.00770000  0.21560000  0.67615000  1.0 -0.188556296
C  C363  1  0.35770000  0.90450000  0.95443000  1.0 0.5677871573
C  C364  1  0.41980000  0.94990000  0.93758000  1.0 -0.188556296
C  C365  1  0.37740000  0.94170000  0.88807000  1.0 0.2395396909
C  C366  1  0.40610000  0.94240000  0.86019000  1.0 -0.3011009929
C  C367  1  0.35130000  0.96370000  0.83771000  1.0 0.1611739792
C  C368  1  0.26340000  0.98410000  0.84385000  1.0 -0.0991671378
C  C369  1  0.23340000  0.98040000  0.87219000  1.0 0.1688622013
C  C370  1  0.29020000  0.95970000  0.89417000  1.0 -0.3011009929
C  C371  1  0.13720000  0.99820000  0.88044000  1.0 -0.4688772616
C  C372  1  0.39000000  0.96940000  0.80762000  1.0 -0.4622034642
C  C373  1  0.20630000  0.01450000  0.82099000  1.0 0.097688592
C  C374  1  0.18810000  0.98140000  0.79437000  1.0 -0.1485007328
C  C375  1  0.13680000  0.01180000  0.77406000  1.0 -0.1416331989
C  C376  1  0.10080000  0.07930000  0.77814000  1.0 0.0293562685
C  C377  1  0.12210000  0.11570000  0.80352000  1.0 0.0293562685
C  C378  1  0.17340000  0.08110000  0.82420000  1.0 -0.188556296
C  C379  1  0.98670000  0.41570000  0.97664000  1.0 0.5605121298
C  C380  1  0.05270000  0.45710000  0.95856000  1.0 -0.1664299053
C  C381  1  0.10410000  0.38460000  0.92051000  1.0 0.2395396909
C  C382  1  0.16800000  0.39190000  0.89954000  1.0 -0.2891010192
C  C383  1  0.15660000  0.36000000  0.87282000  1.0 0.1611739792
C  C384  1  0.07960000  0.32170000  0.86724000  1.0 -0.0908928858
C  C385  1  0.01440000  0.31550000  0.88832000  1.0 0.1688622013
C  C386  1  0.02790000  0.34660000  0.91531000  1.0 -0.3011009929
C  C387  1  0.93160000  0.27350000  0.88324000  1.0 -0.4544140902
C  C388  1  0.22870000  0.36690000  0.85033000  1.0 -0.4622034642
C  C389  1  0.09610000  0.22020000  0.83410000  1.0 -0.188556296
C  C390  1  0.09340000  0.18660000  0.80723000  1.0 0.0293562685
C  C391  1  0.06210000  0.22470000  0.78275000  1.0 0.0293562685
C  C392  1  0.03350000  0.29350000  0.78731000  1.0 -0.1485007328
C  C393  1  0.03730000  0.32460000  0.81427000  1.0 -0.1416331989
C  C394  1  0.06910000  0.28770000  0.83805000  1.0 0.097688592
C  C395  1  0.05160000  0.18860000  0.75534000  1.0 -0.0119884266
C  C396  1  0.05200000  0.11560000  0.75552000  1.0 -0.0291783829
C  C397  1  0.35120000  0.63030000  0.05335000  1.0 0.5605121298
C  C398  1  0.28090000  0.60150000  0.07412000  1.0 -0.1592716532
C  C399  1  0.25870000  0.57100000  0.12225000  1.0 0.2395396909
C  C400  1  0.29390000  0.56650000  0.15000000  1.0 -0.2891010192
C  C401  1  0.24320000  0.54220000  0.17252000  1.0 0.1611739792
C  C402  1  0.15440000  0.52170000  0.16734000  1.0 -0.0991671378
C  C403  1  0.11890000  0.52710000  0.13956000  1.0 0.1688622013
C  C404  1  0.17100000  0.55260000  0.11711000  1.0 -0.329381099
C  C405  1  0.02280000  0.50640000  0.13298000  1.0 -0.4622034642
C  C406  1  0.28490000  0.53470000  0.20173000  1.0 -0.4622034642
C  C407  1  0.10080000  0.48890000  0.19058000  1.0 0.097688592
C  C408  1  0.07280000  0.42120000  0.18712000  1.0 -0.188556296
C  C409  1  0.02060000  0.38640000  0.20762000  1.0 0.0293562685
C  C410  1  0.99600000  0.42180000  0.23312000  1.0 0.0293562685
C  C411  1  0.02750000  0.48990000  0.23692000  1.0 -0.1416331989
C  C412  1  0.07810000  0.52260000  0.21616000  1.0 -0.1485007328
C  C413  1  0.90990000  0.18260000  0.02522000  1.0 0.5605121298
C  C414  1  0.93520000  0.11160000  0.03905000  1.0 -0.1318215821
C  C415  1  0.98640000  0.13990000  0.08535000  1.0 0.2231536526
C  C416  1  0.05650000  0.13370000  0.10415000  1.0 -0.2713044715
C  C417  1  0.04830000  0.15740000  0.13171000  1.0 0.1611739792
C  C418  1  0.96840000  0.18770000  0.14131000  1.0 -0.0908928858
C  C419  1  0.89720000  0.19350000  0.12282000  1.0 0.1688622013
C  C420  1  0.90720000  0.16920000  0.09392000  1.0 -0.3011009929
C  C421  1  0.80970000  0.22420000  0.13222000  1.0 -0.4622034642
C  C422  1  0.12770000  0.15120000  0.15122000  1.0 -0.4622034642
C  C423  1  0.96470000  0.21660000  0.17136000  1.0 0.097688592
C  C424  1  0.93290000  0.17810000  0.19501000  1.0 -0.1485007328
C  C425  1  0.93050000  0.20730000  0.22223000  1.0 -0.1485007328
C  C426  1  0.96090000  0.27590000  0.22749000  1.0 0.0293562685
C  C427  1  0.99150000  0.31490000  0.20351000  1.0 0.0293562685
C  C428  1  0.99230000  0.28440000  0.17615000  1.0 -0.188556296
C  C429  1  0.64230000  0.59550000  0.45443000  1.0 0.5677871573
C  C430  1  0.58020000  0.55010000  0.43758000  1.0 -0.188556296
C  C431  1  0.62260000  0.55830000  0.38807000  1.0 0.2395396909
C  C432  1  0.59390000  0.55760000  0.36019000  1.0 -0.3011009929
C  C433  1  0.64870000  0.53630000  0.33771000  1.0 0.1611739792
C  C434  1  0.73660000  0.51590000  0.34385000  1.0 -0.0991671378
C  C435  1  0.76660000  0.51960000  0.37219000  1.0 0.1688622013
C  C436  1  0.70980000  0.54030000  0.39417000  1.0 -0.3011009929
C  C437  1  0.86280000  0.50180000  0.38044000  1.0 -0.4688772616
C  C438  1  0.61000000  0.53060000  0.30762000  1.0 -0.4622034642
C  C439  1  0.79370000  0.48550000  0.32099000  1.0 0.097688592
C  C440  1  0.81190000  0.51860000  0.29437000  1.0 -0.1485007328
C  C441  1  0.86320000  0.48820000  0.27406000  1.0 -0.1416331989
C  C442  1  0.89920000  0.42070000  0.27814000  1.0 0.0293562685
C  C443  1  0.87790000  0.38430000  0.30352000  1.0 0.0293562685
C  C444  1  0.82660000  0.41890000  0.32420000  1.0 -0.188556296
C  C445  1  0.01330000  0.08430000  0.47664000  1.0 0.5605121298
C  C446  1  0.94730000  0.04290000  0.45856000  1.0 -0.1664299053
C  C447  1  0.89590000  0.11540000  0.42051000  1.0 0.2395396909
C  C448  1  0.83200000  0.10810000  0.39954000  1.0 -0.2891010192
C  C449  1  0.84340000  0.14000000  0.37282000  1.0 0.1611739792
C  C450  1  0.92040000  0.17830000  0.36724000  1.0 -0.0908928858
C  C451  1  0.98560000  0.18450000  0.38832000  1.0 0.1688622013
C  C452  1  0.97210000  0.15340000  0.41531000  1.0 -0.3011009929
C  C453  1  0.06840000  0.22650000  0.38324000  1.0 -0.4544140902
C  C454  1  0.77130000  0.13310000  0.35033000  1.0 -0.4622034642
C  C455  1  0.90390000  0.27980000  0.33410000  1.0 -0.188556296
C  C456  1  0.90660000  0.31340000  0.30723000  1.0 0.0293562685
C  C457  1  0.93790000  0.27530000  0.28275000  1.0 0.0293562685
C  C458  1  0.96650000  0.20650000  0.28731000  1.0 -0.1485007328
C  C459  1  0.96270000  0.17540000  0.31427000  1.0 -0.1416331989
C  C460  1  0.93090000  0.21230000  0.33805000  1.0 0.097688592
C  C461  1  0.94840000  0.31140000  0.25534000  1.0 -0.0119884266
C  C462  1  0.94800000  0.38440000  0.25552000  1.0 -0.0291783829
C  C463  1  0.85120000  0.86970000  0.44665000  1.0 0.5605121298
C  C464  1  0.78090000  0.89850000  0.42588000  1.0 -0.1592716532
C  C465  1  0.75870000  0.92900000  0.37775000  1.0 0.2395396909
C  C466  1  0.79390000  0.93350000  0.35000000  1.0 -0.2891010192
C  C467  1  0.74320000  0.95780000  0.32748000  1.0 0.1611739792
C  C468  1  0.65440000  0.97830000  0.33266000  1.0 -0.0991671378
C  C469  1  0.61890000  0.97290000  0.36044000  1.0 0.1688622013
C  C470  1  0.67100000  0.94740000  0.38289000  1.0 -0.329381099
C  C471  1  0.52280000  0.99360000  0.36702000  1.0 -0.4622034642
C  C472  1  0.78490000  0.96530000  0.29827000  1.0 -0.4622034642
C  C473  1  0.60080000  0.01110000  0.30942000  1.0 0.097688592
C  C474  1  0.57280000  0.07880000  0.31288000  1.0 -0.188556296
C  C475  1  0.52060000  0.11360000  0.29238000  1.0 0.0293562685
C  C476  1  0.49600000  0.07820000  0.26688000  1.0 0.0293562685
C  C477  1  0.52750000  0.01010000  0.26308000  1.0 -0.1416331989
C  C478  1  0.57810000  0.97740000  0.28384000  1.0 -0.1485007328
C  C479  1  0.40990000  0.31740000  0.47478000  1.0 0.5605121298
C  C480  1  0.43520000  0.38840000  0.46095000  1.0 -0.1318215821
C  C481  1  0.48640000  0.36010000  0.41465000  1.0 0.2231536526
C  C482  1  0.55650000  0.36630000  0.39585000  1.0 -0.2713044715
C  C483  1  0.54830000  0.34260000  0.36829000  1.0 0.1611739792
C  C484  1  0.46840000  0.31230000  0.35869000  1.0 -0.0908928858
C  C485  1  0.39720000  0.30650000  0.37718000  1.0 0.1688622013
C  C486  1  0.40720000  0.33080000  0.40608000  1.0 -0.3011009929
C  C487  1  0.30970000  0.27580000  0.36778000  1.0 -0.4622034642
C  C488  1  0.62770000  0.34880000  0.34878000  1.0 -0.4622034642
C  C489  1  0.46470000  0.28340000  0.32864000  1.0 0.097688592
C  C490  1  0.43290000  0.32190000  0.30499000  1.0 -0.1485007328
C  C491  1  0.43050000  0.29270000  0.27777000  1.0 -0.1485007328
C  C492  1  0.46090000  0.22410000  0.27251000  1.0 0.0293562685
C  C493  1  0.49150000  0.18510000  0.29649000  1.0 0.0293562685
C  C494  1  0.49230000  0.21560000  0.32385000  1.0 -0.188556296
C  C495  1  0.14230000  0.90450000  0.04557000  1.0 0.5677871573
C  C496  1  0.08020000  0.94990000  0.06242000  1.0 -0.188556296
C  C497  1  0.12260000  0.94170000  0.11193000  1.0 0.2395396909
C  C498  1  0.09390000  0.94240000  0.13981000  1.0 -0.3011009929
C  C499  1  0.14870000  0.96370000  0.16229000  1.0 0.1611739792
C  C500  1  0.23660000  0.98410000  0.15615000  1.0 -0.0991671378
C  C501  1  0.26660000  0.98040000  0.12781000  1.0 0.1688622013
C  C502  1  0.20980000  0.95970000  0.10583000  1.0 -0.3011009929
C  C503  1  0.36280000  0.99820000  0.11956000  1.0 -0.4688772616
C  C504  1  0.11000000  0.96940000  0.19238000  1.0 -0.4622034642
C  C505  1  0.29370000  0.01450000  0.17901000  1.0 0.097688592
C  C506  1  0.31190000  0.98140000  0.20563000  1.0 -0.1485007328
C  C507  1  0.36320000  0.01180000  0.22594000  1.0 -0.1416331989
C  C508  1  0.39920000  0.07930000  0.22186000  1.0 0.0293562685
C  C509  1  0.37790000  0.11570000  0.19648000  1.0 0.0293562685
C  C510  1  0.32660000  0.08110000  0.17580000  1.0 -0.188556296
C  C511  1  0.51330000  0.41570000  0.02336000  1.0 0.5605121298
C  C512  1  0.44730000  0.45710000  0.04144000  1.0 -0.1664299053
C  C513  1  0.39590000  0.38460000  0.07949000  1.0 0.2395396909
C  C514  1  0.33200000  0.39190000  0.10046000  1.0 -0.2891010192
C  C515  1  0.34340000  0.36000000  0.12718000  1.0 0.1611739792
C  C516  1  0.42040000  0.32170000  0.13276000  1.0 -0.0908928858
C  C517  1  0.48560000  0.31550000  0.11168000  1.0 0.1688622013
C  C518  1  0.47210000  0.34660000  0.08469000  1.0 -0.3011009929
C  C519  1  0.56840000  0.27350000  0.11676000  1.0 -0.4544140902
C  C520  1  0.27130000  0.36690000  0.14967000  1.0 -0.4622034642
C  C521  1  0.40390000  0.22020000  0.16590000  1.0 -0.188556296
C  C522  1  0.40660000  0.18660000  0.19277000  1.0 0.0293562685
C  C523  1  0.43790000  0.22470000  0.21725000  1.0 0.0293562685
C  C524  1  0.46650000  0.29350000  0.21269000  1.0 -0.1485007328
C  C525  1  0.46270000  0.32460000  0.18573000  1.0 -0.1416331989
C  C526  1  0.43090000  0.28770000  0.16195000  1.0 0.097688592
C  C527  1  0.44840000  0.18860000  0.24466000  1.0 -0.0119884266
C  C528  1  0.44800000  0.11560000  0.24448000  1.0 -0.0291783829
C  C529  1  0.58430000  0.17460000  0.40420000  1.0 -0.4043819588
C  C530  1  0.64590000  0.11190000  0.45420000  1.0 -0.3011009929
C  C531  1  0.08430000  0.32540000  0.09580000  1.0 -0.4043819588
C  C532  1  0.14590000  0.38810000  0.04580000  1.0 -0.3011009929
C  C533  1  0.91570000  0.17460000  0.59580000  1.0 -0.4043819588
C  C534  1  0.85410000  0.11190000  0.54580000  1.0 -0.3011009929
C  C535  1  0.41570000  0.32540000  0.90420000  1.0 -0.4043819588
C  C536  1  0.35410000  0.38810000  0.95420000  1.0 -0.3011009929
C  C537  1  0.41570000  0.82540000  0.59580000  1.0 -0.4043819588
C  C538  1  0.35410000  0.88810000  0.54580000  1.0 -0.3011009929
C  C539  1  0.91570000  0.67460000  0.90420000  1.0 -0.4043819588
C  C540  1  0.85410000  0.61190000  0.95420000  1.0 -0.3011009929
C  C541  1  0.08430000  0.82540000  0.40420000  1.0 -0.4043819588
C  C542  1  0.14590000  0.88810000  0.45420000  1.0 -0.3011009929
C  C543  1  0.58430000  0.67460000  0.09580000  1.0 -0.4043819588
C  C544  1  0.64590000  0.61190000  0.04580000  1.0 -0.3011009929
N  N1  1  0.60190000  0.17920000  0.44070000  1.0 -0.0991671378
N  N2  1  0.10190000  0.32080000  0.05930000  1.0 -0.0991671378
N  N3  1  0.89810000  0.17920000  0.55930000  1.0 -0.0991671378
N  N4  1  0.39810000  0.32080000  0.94070000  1.0 -0.0991671378
N  N5  1  0.39810000  0.82080000  0.55930000  1.0 -0.0991671378
N  N6  1  0.89810000  0.67920000  0.94070000  1.0 -0.0991671378
N  N7  1  0.10190000  0.82080000  0.44070000  1.0 -0.0991671378
N  N8  1  0.60190000  0.67920000  0.05930000  1.0 -0.0991671378
O  O1  1  0.81780000  0.34630000  0.03001000  1.0 -0.4968901184
O  O2  1  0.93020000  0.37220000  0.05851000  1.0 -0.5194564791
O  O3  1  0.81700000  0.40650000  0.10145000  1.0 -0.1485007328
O  O4  1  0.37750000  0.91710000  0.44646000  1.0 -0.1592716532
O  O5  1  0.84400000  0.28923000  0.96683000  1.0 -0.1318215821
O  O6  1  0.17970000  0.43500000  0.47468000  1.0 -0.5786761773
O  O7  1  0.15260000  0.34250000  0.44750000  1.0 -0.4772138764
O  O8  1  0.06120000  0.42470000  0.40895000  1.0 -0.1592716532
O  O9  1  0.33550000  0.81030000  0.01566000  1.0 -0.4896218163
O  O10  1  0.46740000  0.76940000  0.02419000  1.0 -0.5194564791
O  O11  1  0.50290000  0.88640000  0.05803000  1.0 -0.1154526007
O  O12  1  0.48890000  0.85990000  0.48792000  1.0 -0.5194564791
O  O13  1  0.58860000  0.94100000  0.47984000  1.0 -0.5324167218
O  O14  1  0.31780000  0.15370000  0.46999000  1.0 -0.4968901184
O  O15  1  0.43020000  0.12780000  0.44149000  1.0 -0.5194564791
O  O16  1  0.31700000  0.09350000  0.39855000  1.0 -0.1485007328
O  O17  1  0.87750000  0.58290000  0.05354000  1.0 -0.1592716532
O  O18  1  0.34400000  0.21077000  0.53317000  1.0 -0.1318215821
O  O19  1  0.67970000  0.06500000  0.02532000  1.0 -0.5786761773
O  O20  1  0.65260000  0.15750000  0.05250000  1.0 -0.4772138764
O  O21  1  0.56120000  0.07530000  0.09105000  1.0 -0.1592716532
O  O22  1  0.83550000  0.68970000  0.48434000  1.0 -0.4896218163
O  O23  1  0.96740000  0.73060000  0.47581000  1.0 -0.5194564791
O  O24  1  0.00290000  0.61360000  0.44197000  1.0 -0.1146612596
O  O25  1  0.98890000  0.64010000  0.01208000  1.0 -0.5194564791
O  O26  1  0.08860000  0.55900000  0.02016000  1.0 -0.5324167218
O  O27  1  0.68220000  0.34630000  0.96999000  1.0 -0.4968901184
O  O28  1  0.56980000  0.37220000  0.94149000  1.0 -0.5194564791
O  O29  1  0.68300000  0.40650000  0.89855000  1.0 -0.1485007328
O  O30  1  0.12250000  0.91710000  0.55354000  1.0 -0.1592716532
O  O31  1  0.65600000  0.28923000  0.03317000  1.0 -0.1318215821
O  O32  1  0.32030000  0.43500000  0.52532000  1.0 -0.5786761773
O  O33  1  0.34740000  0.34250000  0.55250000  1.0 -0.4772138764
O  O34  1  0.43880000  0.42470000  0.59105000  1.0 -0.1592716532
O  O35  1  0.16450000  0.81030000  0.98434000  1.0 -0.4896218163
O  O36  1  0.03260000  0.76940000  0.97581000  1.0 -0.5194564791
O  O37  1  0.99710000  0.88640000  0.94197000  1.0 -0.1154526007
O  O38  1  0.01110000  0.85990000  0.51208000  1.0 -0.5194564791
O  O39  1  0.91140000  0.94100000  0.52016000  1.0 -0.5324167218
O  O40  1  0.18220000  0.15370000  0.53001000  1.0 -0.4968901184
O  O41  1  0.06980000  0.12780000  0.55851000  1.0 -0.5194564791
O  O42  1  0.18300000  0.09350000  0.60145000  1.0 -0.1485007328
O  O43  1  0.62250000  0.58290000  0.94646000  1.0 -0.1592716532
O  O44  1  0.15600000  0.21077000  0.46683000  1.0 -0.1318215821
O  O45  1  0.82030000  0.06500000  0.97468000  1.0 -0.5786761773
O  O46  1  0.84740000  0.15750000  0.94750000  1.0 -0.4772138764
O  O47  1  0.93880000  0.07530000  0.90895000  1.0 -0.1592716532
O  O48  1  0.66450000  0.68970000  0.51566000  1.0 -0.4896218163
O  O49  1  0.53260000  0.73060000  0.52419000  1.0 -0.5194564791
O  O50  1  0.49710000  0.61360000  0.55803000  1.0 -0.1154526007
O  O51  1  0.51110000  0.64010000  0.98792000  1.0 -0.5194564791
O  O52  1  0.41140000  0.55900000  0.97984000  1.0 -0.5324167218
O  O53  1  0.18220000  0.65370000  0.96999000  1.0 -0.4968901184
O  O54  1  0.06980000  0.62780000  0.94149000  1.0 -0.5194564791
O  O55  1  0.18300000  0.59350000  0.89855000  1.0 -0.1485007328
O  O56  1  0.62250000  0.08290000  0.55354000  1.0 -0.1592716532
O  O57  1  0.15600000  0.71077000  0.03317000  1.0 -0.1318215821
O  O58  1  0.82030000  0.56500000  0.52532000  1.0 -0.5786761773
O  O59  1  0.84740000  0.65750000  0.55250000  1.0 -0.4772138764
O  O60  1  0.93880000  0.57530000  0.59105000  1.0 -0.1592716532
O  O61  1  0.66450000  0.18970000  0.98434000  1.0 -0.4896218163
O  O62  1  0.53260000  0.23060000  0.97581000  1.0 -0.5194564791
O  O63  1  0.49710000  0.11360000  0.94197000  1.0 -0.1154526007
O  O64  1  0.51110000  0.14010000  0.51208000  1.0 -0.5194564791
O  O65  1  0.41140000  0.05900000  0.52016000  1.0 -0.5324167218
O  O66  1  0.68220000  0.84630000  0.53001000  1.0 -0.4968901184
O  O67  1  0.56980000  0.87220000  0.55851000  1.0 -0.5194564791
O  O68  1  0.68300000  0.90650000  0.60145000  1.0 -0.1485007328
O  O69  1  0.12250000  0.41710000  0.94646000  1.0 -0.1592716532
O  O70  1  0.65600000  0.78923000  0.46683000  1.0 -0.1318215821
O  O71  1  0.32030000  0.93500000  0.97468000  1.0 -0.5786761773
O  O72  1  0.34740000  0.84250000  0.94750000  1.0 -0.4772138764
O  O73  1  0.43880000  0.92470000  0.90895000  1.0 -0.1592716532
O  O74  1  0.16450000  0.31030000  0.51566000  1.0 -0.4896218163
O  O75  1  0.03260000  0.26940000  0.52419000  1.0 -0.5194564791
O  O76  1  0.99710000  0.38640000  0.55803000  1.0 -0.1154526007
O  O77  1  0.01110000  0.35990000  0.98792000  1.0 -0.5194564791
O  O78  1  0.91140000  0.44100000  0.97984000  1.0 -0.5324167218
O  O79  1  0.31780000  0.65370000  0.03001000  1.0 -0.4968901184
O  O80  1  0.43020000  0.62780000  0.05851000  1.0 -0.5194564791
O  O81  1  0.31700000  0.59350000  0.10145000  1.0 -0.1485007328
O  O82  1  0.87750000  0.08290000  0.44646000  1.0 -0.1592716532
O  O83  1  0.34400000  0.71077000  0.96683000  1.0 -0.1318215821
O  O84  1  0.67970000  0.56500000  0.47468000  1.0 -0.5786761773
O  O85  1  0.65260000  0.65750000  0.44750000  1.0 -0.4772138764
O  O86  1  0.56120000  0.57530000  0.40895000  1.0 -0.1592716532
O  O87  1  0.83550000  0.18970000  0.01566000  1.0 -0.4896218163
O  O88  1  0.96740000  0.23060000  0.02419000  1.0 -0.5194564791
O  O89  1  0.00290000  0.11360000  0.05803000  1.0 -0.1146612596
O  O90  1  0.98890000  0.14010000  0.48792000  1.0 -0.5194564791
O  O91  1  0.08860000  0.05900000  0.47984000  1.0 -0.5324167218
O  O92  1  0.81780000  0.84630000  0.46999000  1.0 -0.4968901184
O  O93  1  0.93020000  0.87220000  0.44149000  1.0 -0.5194564791
O  O94  1  0.81700000  0.90650000  0.39855000  1.0 -0.1485007328
O  O95  1  0.37750000  0.41710000  0.05354000  1.0 -0.1592716532
O  O96  1  0.84400000  0.78923000  0.53317000  1.0 -0.1318215821
O  O97  1  0.17970000  0.93500000  0.02532000  1.0 -0.5786761773
O  O98  1  0.15260000  0.84250000  0.05250000  1.0 -0.4772138764
O  O99  1  0.06120000  0.92470000  0.09105000  1.0 -0.1592716532
O  O100  1  0.33550000  0.31030000  0.48434000  1.0 -0.4896218163
O  O101  1  0.46740000  0.26940000  0.47581000  1.0 -0.5194564791
O  O102  1  0.50290000  0.38640000  0.44197000  1.0 -0.1154526007
O  O103  1  0.48890000  0.35990000  0.01208000  1.0 -0.5194564791
O  O104  1  0.58860000  0.44100000  0.02016000  1.0 -0.5324167218
