# DDEC6 charges by PACMAN v1.1 (https://github.com/mtap-research/PACMAN-charge/)
data_YUMJAS_ASR_pacman
_symmetry_space_group_name_H-M   'P 1'
_cell_length_a   14.37410000
_cell_length_b   13.90690000
_cell_length_c   21.71870000
_cell_angle_alpha   90.00000000
_cell_angle_beta   106.94500000
_cell_angle_gamma   90.00000000
_symmetry_Int_Tables_number   1
_chemical_formula_structural   Ba2CaMo12P8(H7O26)2
_chemical_formula_sum   'Ba4 Ca2 Mo24 P16 H28 O104'
_cell_volume   4153.06161100
_cell_formula_units_Z   2
loop_
 _symmetry_equiv_pos_site_id
 _symmetry_equiv_pos_as_xyz
  1  'x, y, z'
loop_
 _atom_site_type_symbol
 _atom_site_label
 _atom_site_symmetry_multiplicity
 _atom_site_fract_x
 _atom_site_fract_y
 _atom_site_fract_z
 _atom_site_occupancy
 _atom_site_charge
Ba  Ba1  1  0.02759000  0.57138000  0.81914000  1.0 1.4389097943
Ba  Ba2  1  0.97241000  0.07138000  0.68086000  1.0 1.4389097943
Ba  Ba3  1  0.97241000  0.42862000  0.18086000  1.0 1.4389097943
Ba  Ba4  1  0.02759000  0.92862000  0.31914000  1.0 1.4389097943
Ca  Ca1  1  0.50000000  0.50000000  0.00000000  1.0 1.3430525019
Ca  Ca2  1  0.50000000  0.00000000  0.50000000  1.0 1.3475540831
Mo  Mo1  1  0.32855000  0.71128000  0.00793000  1.0 1.7793141757
Mo  Mo2  1  0.67145000  0.21128000  0.49207000  1.0 1.7793141757
Mo  Mo3  1  0.67145000  0.28872000  0.99207000  1.0 1.7793141757
Mo  Mo4  1  0.32855000  0.78872000  0.50793000  1.0 1.7793141757
Mo  Mo5  1  0.34185000  0.59548000  0.10353000  1.0 1.7691815451
Mo  Mo6  1  0.65815000  0.09548000  0.39647000  1.0 1.7793141757
Mo  Mo7  1  0.65815000  0.40452000  0.89647000  1.0 1.7691815451
Mo  Mo8  1  0.34185000  0.90452000  0.60353000  1.0 1.7793141757
Mo  Mo9  1  0.65310000  0.65707000  0.91657000  1.0 1.7587937667
Mo  Mo10  1  0.34690000  0.15707000  0.58343000  1.0 1.7587937667
Mo  Mo11  1  0.34690000  0.34293000  0.08343000  1.0 1.7587937667
Mo  Mo12  1  0.65310000  0.84293000  0.41657000  1.0 1.7587937667
Mo  Mo13  1  0.66939000  0.72664000  0.02970000  1.0 1.7500868196
Mo  Mo14  1  0.33061000  0.22664000  0.47030000  1.0 1.7500868196
Mo  Mo15  1  0.33061000  0.27336000  0.97030000  1.0 1.7500868196
Mo  Mo16  1  0.66939000  0.77336000  0.52970000  1.0 1.7500868196
Mo  Mo17  1  0.31360000  0.43008000  0.83896000  1.0 1.7500868196
Mo  Mo18  1  0.68640000  0.93008000  0.66104000  1.0 1.7587937667
Mo  Mo19  1  0.68640000  0.56992000  0.16104000  1.0 1.7500868196
Mo  Mo20  1  0.31360000  0.06992000  0.33896000  1.0 1.7587937667
Mo  Mo21  1  0.30695000  0.61503000  0.85443000  1.0 1.7239906743
Mo  Mo22  1  0.69305000  0.11503000  0.64557000  1.0 1.7292525326
Mo  Mo23  1  0.69305000  0.38497000  0.14557000  1.0 1.7292525326
Mo  Mo24  1  0.30695000  0.88497000  0.35443000  1.0 1.7292525326
P  P1  1  0.18871000  0.44802000  0.14593000  1.0 1.4389097943
P  P2  1  0.81129000  0.94802000  0.35407000  1.0 1.4389097943
P  P3  1  0.81129000  0.55198000  0.85407000  1.0 1.4389097943
P  P4  1  0.18871000  0.05198000  0.64593000  1.0 1.4389097943
P  P5  1  0.81233000  0.77548000  0.17505000  1.0 1.4791881794
P  P6  1  0.18767000  0.27548000  0.32495000  1.0 1.4791881794
P  P7  1  0.18767000  0.22452000  0.82495000  1.0 1.4791881794
P  P8  1  0.81233000  0.72452000  0.67505000  1.0 1.4791881794
P  P9  1  0.14887000  0.78214000  0.87856000  1.0 1.4514304752
P  P10  1  0.85113000  0.28214000  0.62144000  1.0 1.4514304752
P  P11  1  0.85113000  0.21786000  0.12144000  1.0 1.4514304752
P  P12  1  0.14887000  0.71786000  0.37856000  1.0 1.4550248339
P  P13  1  0.21841000  0.49215000  0.96026000  1.0 1.4870863512
P  P14  1  0.78159000  0.99215000  0.53974000  1.0 1.4791881794
P  P15  1  0.78159000  0.50785000  0.03974000  1.0 1.4791881794
P  P16  1  0.21841000  0.00785000  0.46026000  1.0 1.4870863512
H  H1  1  0.44020000  0.68440000  0.94160000  1.0 0.349109973
H  H2  1  0.55980000  0.18440000  0.55840000  1.0 0.349109973
H  H3  1  0.55980000  0.31560000  0.05840000  1.0 0.349109973
H  H4  1  0.44020000  0.81560000  0.44160000  1.0 0.349109973
H  H5  1  0.46940000  0.47010000  0.12170000  1.0 0.349109973
H  H6  1  0.53060000  0.97010000  0.37830000  1.0 0.349109973
H  H7  1  0.53060000  0.52990000  0.87830000  1.0 0.349109973
H  H8  1  0.46940000  0.02990000  0.62170000  1.0 0.349109973
H  H9  1  0.55280000  0.66160000  0.08360000  1.0 0.349109973
H  H10  1  0.44720000  0.16160000  0.41640000  1.0 0.349109973
H  H11  1  0.44720000  0.33840000  0.91640000  1.0 0.349109973
H  H12  1  0.55280000  0.83840000  0.58360000  1.0 0.349109973
H  H13  1  0.77830000  0.87800000  0.22780000  1.0 0.3886055305
H  H14  1  0.22170000  0.37800000  0.27220000  1.0 0.3886055305
H  H15  1  0.22170000  0.12200000  0.77220000  1.0 0.3886055305
H  H16  1  0.77830000  0.62200000  0.72780000  1.0 0.3886055305
H  H17  1  0.08360000  0.89890000  0.83650000  1.0 0.3718999238
H  H18  1  0.91640000  0.39890000  0.66350000  1.0 0.3718999238
H  H19  1  0.91640000  0.10110000  0.16350000  1.0 0.3718999238
H  H20  1  0.08360000  0.60110000  0.33650000  1.0 0.3718999238
H  H21  1  0.92150000  0.40410000  0.76550000  1.0 0.329538393
H  H22  1  0.07850000  0.90410000  0.73450000  1.0 0.329538393
H  H23  1  0.07850000  0.59590000  0.23450000  1.0 0.329538393
H  H24  1  0.92150000  0.09590000  0.26550000  1.0 0.329538393
H  H25  1  0.98110000  0.32500000  0.77430000  1.0 0.3718999238
H  H26  1  0.01890000  0.82500000  0.72570000  1.0 0.375917907
H  H27  1  0.01890000  0.67500000  0.22570000  1.0 0.3718999238
H  H28  1  0.98110000  0.17500000  0.27430000  1.0 0.3718999238
O  O1  1  0.23700000  0.67680000  0.05385000  1.0 -0.7991999582
O  O2  1  0.76300000  0.17680000  0.44615000  1.0 -0.7991999582
O  O3  1  0.76300000  0.32320000  0.94615000  1.0 -0.7991999582
O  O4  1  0.23700000  0.82320000  0.55385000  1.0 -0.7915612914
O  O5  1  0.42130000  0.60910000  0.04505000  1.0 -0.9453100011
O  O6  1  0.57870000  0.10910000  0.45495000  1.0 -0.9388689047
O  O7  1  0.57870000  0.39090000  0.95495000  1.0 -0.9453100011
O  O8  1  0.42130000  0.89090000  0.54505000  1.0 -0.9388689047
O  O9  1  0.38360000  0.70870000  0.92799000  1.0 -0.8272299066
O  O10  1  0.61640000  0.20870000  0.57201000  1.0 -0.8272299066
O  O11  1  0.61640000  0.29130000  0.07201000  1.0 -0.8272299066
O  O12  1  0.38360000  0.79130000  0.42799000  1.0 -0.8272299066
O  O13  1  0.21740000  0.78810000  0.94790000  1.0 -0.7676869825
O  O14  1  0.78260000  0.28810000  0.55210000  1.0 -0.7676869825
O  O15  1  0.78260000  0.21190000  0.05210000  1.0 -0.7676869825
O  O16  1  0.21740000  0.71190000  0.44790000  1.0 -0.7676869825
O  O17  1  0.25740000  0.58890000  0.94171000  1.0 -0.8775172576
O  O18  1  0.74260000  0.08890000  0.55829000  1.0 -0.8775172576
O  O19  1  0.74260000  0.41110000  0.05829000  1.0 -0.8775172576
O  O20  1  0.25740000  0.91110000  0.44171000  1.0 -0.8775172576
O  O21  1  0.24190000  0.54360000  0.14688000  1.0 -0.7915612914
O  O22  1  0.75810000  0.04360000  0.35312000  1.0 -0.7915612914
O  O23  1  0.75810000  0.45640000  0.85312000  1.0 -0.7915612914
O  O24  1  0.24190000  0.95640000  0.64688000  1.0 -0.7915612914
O  O25  1  0.41750000  0.46490000  0.13264000  1.0 -0.8190861389
O  O26  1  0.58250000  0.96490000  0.36736000  1.0 -0.8190861389
O  O27  1  0.58250000  0.53510000  0.86736000  1.0 -0.8190861389
O  O28  1  0.41750000  0.03510000  0.63264000  1.0 -0.8190861389
O  O29  1  0.26520000  0.47870000  0.03415000  1.0 -0.8528007314
O  O30  1  0.73480000  0.97870000  0.46585000  1.0 -0.8561661288
O  O31  1  0.73480000  0.52130000  0.96585000  1.0 -0.8561661288
O  O32  1  0.26520000  0.02130000  0.53415000  1.0 -0.8528007314
O  O33  1  0.25330000  0.36370000  0.13918000  1.0 -0.7915612914
O  O34  1  0.74670000  0.86370000  0.36082000  1.0 -0.7915612914
O  O35  1  0.74670000  0.63630000  0.86082000  1.0 -0.7915612914
O  O36  1  0.25330000  0.13630000  0.63918000  1.0 -0.7915612914
O  O37  1  0.57540000  0.63710000  0.97550000  1.0 -0.9388689047
O  O38  1  0.42460000  0.13710000  0.52450000  1.0 -0.9388689047
O  O39  1  0.42460000  0.36290000  0.02450000  1.0 -0.9388689047
O  O40  1  0.57540000  0.86290000  0.47550000  1.0 -0.9388689047
O  O41  1  0.75930000  0.72130000  0.97864000  1.0 -0.7991999582
O  O42  1  0.24070000  0.22130000  0.52136000  1.0 -0.7915612914
O  O43  1  0.24070000  0.27870000  0.02136000  1.0 -0.7915612914
O  O44  1  0.75930000  0.77870000  0.47864000  1.0 -0.7915612914
O  O45  1  0.60840000  0.68360000  0.10404000  1.0 -0.8379667397
O  O46  1  0.39160000  0.18360000  0.39596000  1.0 -0.8379667397
O  O47  1  0.39160000  0.31640000  0.89596000  1.0 -0.8379667397
O  O48  1  0.60840000  0.81640000  0.60404000  1.0 -0.8379667397
O  O49  1  0.78650000  0.78100000  0.10170000  1.0 -0.7796674118
O  O50  1  0.21350000  0.28100000  0.39830000  1.0 -0.7796674118
O  O51  1  0.21350000  0.21900000  0.89830000  1.0 -0.7796674118
O  O52  1  0.78650000  0.71900000  0.60170000  1.0 -0.7796674118
O  O53  1  0.26000000  0.41130000  0.92652000  1.0 -0.8561661288
O  O54  1  0.74000000  0.91130000  0.57348000  1.0 -0.8561661288
O  O55  1  0.74000000  0.58870000  0.07348000  1.0 -0.8561661288
O  O56  1  0.26000000  0.08870000  0.42652000  1.0 -0.8561661288
O  O57  1  0.79310000  0.67120000  0.19504000  1.0 -0.7796674118
O  O58  1  0.20690000  0.17120000  0.30496000  1.0 -0.7796674118
O  O59  1  0.20690000  0.32880000  0.80496000  1.0 -0.7796674118
O  O60  1  0.79310000  0.82880000  0.69504000  1.0 -0.7796674118
O  O61  1  0.20740000  0.52140000  0.81360000  1.0 -0.8994017289
O  O62  1  0.79260000  0.02140000  0.68640000  1.0 -0.8994017289
O  O63  1  0.79260000  0.47860000  0.18640000  1.0 -0.8994017289
O  O64  1  0.20740000  0.97860000  0.31360000  1.0 -0.8994017289
O  O65  1  0.40430000  0.51950000  0.89514000  1.0 -0.9277922258
O  O66  1  0.59570000  0.01950000  0.60486000  1.0 -0.9277922258
O  O67  1  0.59570000  0.48050000  0.10486000  1.0 -0.9277922258
O  O68  1  0.40430000  0.98050000  0.39514000  1.0 -0.9277922258
O  O69  1  0.19010000  0.71010000  0.83907000  1.0 -0.8379667397
O  O70  1  0.80990000  0.21010000  0.66093000  1.0 -0.8379667397
O  O71  1  0.80990000  0.28990000  0.16093000  1.0 -0.8379667397
O  O72  1  0.19010000  0.78990000  0.33907000  1.0 -0.8379667397
O  O73  1  0.16950000  0.44120000  0.21249000  1.0 -0.8379667397
O  O74  1  0.83050000  0.94120000  0.28751000  1.0 -0.8379667397
O  O75  1  0.83050000  0.55880000  0.78751000  1.0 -0.8379667397
O  O76  1  0.16950000  0.05880000  0.71249000  1.0 -0.8379667397
O  O77  1  0.09070000  0.44560000  0.09586000  1.0 -0.7676869825
O  O78  1  0.90930000  0.94560000  0.40414000  1.0 -0.7676869825
O  O79  1  0.90930000  0.55440000  0.90414000  1.0 -0.7676869825
O  O80  1  0.09070000  0.05440000  0.59586000  1.0 -0.7676869825
O  O81  1  0.91710000  0.79840000  0.20700000  1.0 -0.7915612914
O  O82  1  0.08290000  0.29840000  0.29300000  1.0 -0.7915612914
O  O83  1  0.08290000  0.20160000  0.79300000  1.0 -0.7915612914
O  O84  1  0.91710000  0.70160000  0.70700000  1.0 -0.7915612914
O  O85  1  0.74520000  0.84490000  0.19610000  1.0 -0.6385181293
O  O86  1  0.25480000  0.34490000  0.30390000  1.0 -0.6385181293
O  O87  1  0.25480000  0.15510000  0.80390000  1.0 -0.6385181293
O  O88  1  0.74520000  0.65510000  0.69610000  1.0 -0.6385181293
O  O89  1  0.04850000  0.74620000  0.87830000  1.0 -0.7991999582
O  O90  1  0.95150000  0.24620000  0.62170000  1.0 -0.7991999582
O  O91  1  0.95150000  0.25380000  0.12170000  1.0 -0.7991999582
O  O92  1  0.04850000  0.75380000  0.37830000  1.0 -0.7991999582
O  O93  1  0.14240000  0.88010000  0.84730000  1.0 -0.6030308351
O  O94  1  0.85760000  0.38010000  0.65270000  1.0 -0.6030308351
O  O95  1  0.85760000  0.11990000  0.15270000  1.0 -0.6030308351
O  O96  1  0.14240000  0.61990000  0.34730000  1.0 -0.6030308351
O  O97  1  0.11080000  0.49240000  0.94033000  1.0 -0.7495607183
O  O98  1  0.88920000  0.99240000  0.55967000  1.0 -0.7495607183
O  O99  1  0.88920000  0.50760000  0.05967000  1.0 -0.7495607183
O  O100  1  0.11080000  0.00760000  0.44033000  1.0 -0.7495607183
O  O101  1  0.98020000  0.38540000  0.78000000  1.0 -0.7132249669
O  O102  1  0.01980000  0.88540000  0.72000000  1.0 -0.7132249669
O  O103  1  0.01980000  0.61460000  0.22000000  1.0 -0.7132249669
O  O104  1  0.98020000  0.11460000  0.28000000  1.0 -0.7132249669
