# DDEC6 charges by PACMAN v1.1 (https://github.com/mtap-research/PACMAN-charge/)
data_YUMVUA_FSR_pacman
_symmetry_space_group_name_H-M   'P 1'
_cell_length_a   15.74790000
_cell_length_b   15.74790000
_cell_length_c   6.86290000
_cell_angle_alpha   83.90640000
_cell_angle_beta   96.09360000
_cell_angle_gamma   142.89600000
_symmetry_Int_Tables_number   1
_chemical_formula_structural   CdH18C14S2(NO2)4
_chemical_formula_sum   'Cd2 H36 C28 S4 N8 O16'
_cell_volume   1020.28244582
_cell_formula_units_Z   2
loop_
 _symmetry_equiv_pos_site_id
 _symmetry_equiv_pos_as_xyz
  1  'x, y, z'
loop_
 _atom_site_type_symbol
 _atom_site_label
 _atom_site_symmetry_multiplicity
 _atom_site_fract_x
 _atom_site_fract_y
 _atom_site_fract_z
 _atom_site_occupancy
 _atom_site_charge
Cd  Cd1  1  0.28439000  0.79161000  0.72588000  1.0 0.8919582044
Cd  Cd2  1  0.79161000  0.28439000  0.27412000  1.0 0.8919582044
H  H1  1  0.29470000  0.78570000  0.14970000  1.0 0.330851771
H  H2  1  0.35300000  0.75280000  0.08740000  1.0 0.330851771
H  H3  1  0.52350000  0.11990000  0.76970000  1.0 0.0696140863
H  H4  1  0.56510000  0.30030000  0.76280000  1.0 0.1225534205
H  H5  1  0.14860000  0.00180000  0.73070000  1.0 0.1311448769
H  H6  1  0.11970000  0.83530000  0.73370000  1.0 0.0941091117
H  H7  1  0.43920000  0.73880000  0.72670000  1.0 0.0952509989
H  H8  1  0.41050000  0.57110000  0.75460000  1.0 0.1311448769
H  H9  1  0.99370000  0.28010000  0.74660000  1.0 0.1225534205
H  H10  1  0.03320000  0.45360000  0.72410000  1.0 0.0941091117
H  H11  1  0.00700000  0.11680000  0.90990000  1.0 0.1472220247
H  H12  1  0.96320000  0.12400000  0.69930000  1.0 0.1311448769
H  H13  1  0.02750000  0.08310000  0.72740000  1.0 0.1439384867
H  H14  1  0.56230000  0.46230000  0.87210000  1.0 0.1439384867
H  H15  1  0.58170000  0.44230000  0.66970000  1.0 0.1311448769
H  H16  1  0.52160000  0.48660000  0.67670000  1.0 0.1472220247
H  H17  1  0.58730000  0.07350000  0.00130000  1.0 0.2978607987
H  H18  1  0.58670000  0.00110000  0.18870000  1.0 0.330851771
H  H19  1  0.78570000  0.29470000  0.85030000  1.0 0.330851771
H  H20  1  0.75280000  0.35300000  0.91260000  1.0 0.330851771
H  H21  1  0.11990000  0.52350000  0.23030000  1.0 0.0696140863
H  H22  1  0.30030000  0.56510000  0.23720000  1.0 0.1225534205
H  H23  1  0.00180000  0.14860000  0.26930000  1.0 0.1311448769
H  H24  1  0.83530000  0.11970000  0.26630000  1.0 0.0941091117
H  H25  1  0.73880000  0.43920000  0.27330000  1.0 0.0952509989
H  H26  1  0.57110000  0.41050000  0.24540000  1.0 0.1311448769
H  H27  1  0.28010000  0.99370000  0.25340000  1.0 0.1225534205
H  H28  1  0.45360000  0.03320000  0.27590000  1.0 0.0941091117
H  H29  1  0.11680000  0.00700000  0.09010000  1.0 0.1472220247
H  H30  1  0.12400000  0.96320000  0.30070000  1.0 0.1311448769
H  H31  1  0.08310000  0.02750000  0.27260000  1.0 0.1439384867
H  H32  1  0.46230000  0.56230000  0.12790000  1.0 0.1439384867
H  H33  1  0.44230000  0.58170000  0.33030000  1.0 0.1311448769
H  H34  1  0.48660000  0.52160000  0.32330000  1.0 0.1472220247
H  H35  1  0.07350000  0.58730000  0.99870000  1.0 0.2978607987
H  H36  1  0.00110000  0.58670000  0.81130000  1.0 0.330851771
C  C1  1  0.44740000  0.09660000  0.75910000  1.0 0.019462812
C  C2  1  0.47370000  0.20630000  0.75840000  1.0 -0.1892633959
C  C3  1  0.35800000  0.16800000  0.75080000  1.0 0.0696140863
C  C4  1  0.22710000  0.02890000  0.73900000  1.0 -0.1595143303
C  C5  1  0.21060000  0.92940000  0.73900000  1.0 0.0630443537
C  C6  1  0.34790000  0.64410000  0.73300000  1.0 0.0696140863
C  C7  1  0.33280000  0.54520000  0.74600000  1.0 -0.1892633959
C  C8  1  0.19470000  0.40130000  0.74470000  1.0 0.0630443537
C  C9  1  0.08630000  0.37370000  0.74120000  1.0 -0.1595143303
C  C10  1  0.10920000  0.47680000  0.73000000  1.0 0.0046958079
C  C11  1  0.17320000  0.29080000  0.75230000  1.0 0.2413961266
C  C12  1  0.02980000  0.14020000  0.77400000  1.0 -0.5096264954
C  C13  1  0.37610000  0.27790000  0.74730000  1.0 0.2575451707
C  C14  1  0.52430000  0.43170000  0.74100000  1.0 -0.5096264954
C  C15  1  0.09660000  0.44740000  0.24090000  1.0 0.019462812
C  C16  1  0.20630000  0.47370000  0.24160000  1.0 -0.1892633959
C  C17  1  0.16800000  0.35800000  0.24920000  1.0 0.0696140863
C  C18  1  0.02890000  0.22710000  0.26100000  1.0 -0.1595143303
C  C19  1  0.92940000  0.21060000  0.26100000  1.0 0.0630443537
C  C20  1  0.64410000  0.34790000  0.26700000  1.0 0.0696140863
C  C21  1  0.54520000  0.33280000  0.25400000  1.0 -0.1892633959
C  C22  1  0.40130000  0.19470000  0.25530000  1.0 0.0630443537
C  C23  1  0.37370000  0.08630000  0.25880000  1.0 -0.1595143303
C  C24  1  0.47680000  0.10920000  0.27000000  1.0 0.0046958079
C  C25  1  0.29080000  0.17320000  0.24770000  1.0 0.2413961266
C  C26  1  0.14020000  0.02980000  0.22600000  1.0 -0.5096264954
C  C27  1  0.27790000  0.37610000  0.25270000  1.0 0.2575451707
C  C28  1  0.43170000  0.52430000  0.25900000  1.0 -0.5096264954
S  S1  1  0.64798000  0.05002000  0.60140000  1.0 0.6083158825
S  S2  1  0.66060000  0.07140000  0.74300000  1.0 0.5541481053
S  S3  1  0.05002000  0.64798000  0.39860000  1.0 0.6083158825
S  S4  1  0.07140000  0.66060000  0.25700000  1.0 0.5541481053
N  N1  1  0.31840000  0.96160000  0.74530000  1.0 -0.3163914705
N  N2  1  0.24250000  0.61550000  0.72780000  1.0 -0.3639313008
N  N3  1  0.28330000  0.33470000  0.74300000  1.0 -0.2325389336
N  N4  1  0.26150000  0.22850000  0.74690000  1.0 -0.2382683183
N  N5  1  0.96160000  0.31840000  0.25470000  1.0 -0.3163914705
N  N6  1  0.61550000  0.24250000  0.27220000  1.0 -0.3639313008
N  N7  1  0.33470000  0.28330000  0.25700000  1.0 -0.2325389336
N  N8  1  0.22850000  0.26150000  0.25310000  1.0 -0.2382683183
O  O1  1  0.51280000  0.95720000  0.67120000  1.0 -0.4821408863
O  O2  1  0.70380000  0.01020000  0.64500000  1.0 -0.1892633959
O  O3  1  0.74810000  0.19790000  0.62800000  1.0 -0.4693692352
O  O4  1  0.62850000  0.04550000  0.38190000  1.0 -0.5523059393
O  O5  1  0.34680000  0.81120000  0.06200000  1.0 -0.7572380329
O  O6  1  0.71020000  0.02380000  0.74600000  1.0 -0.1802877474
O  O7  1  0.66180000  0.09420000  0.94400000  1.0 -0.1802877474
O  O8  1  0.64680000  0.08520000  0.09200000  1.0 -0.1595143303
O  O9  1  0.95720000  0.51280000  0.32880000  1.0 -0.4821408863
O  O10  1  0.01020000  0.70380000  0.35500000  1.0 -0.1892633959
O  O11  1  0.19790000  0.74810000  0.37200000  1.0 -0.4693692352
O  O12  1  0.04550000  0.62850000  0.61810000  1.0 -0.5523059393
O  O13  1  0.81120000  0.34680000  0.93800000  1.0 -0.7572380329
O  O14  1  0.02380000  0.71020000  0.25400000  1.0 -0.1802877474
O  O15  1  0.09420000  0.66180000  0.05600000  1.0 -0.1802877474
O  O16  1  0.08520000  0.64680000  0.90800000  1.0 -0.1595143303
