# DDEC6 charges by PACMAN v1.1 (https://github.com/mtap-research/PACMAN-charge/)
data_YUMWIP_ASR_pacman
_symmetry_space_group_name_H-M   'P 1'
_cell_length_a   15.35770000
_cell_length_b   15.35770000
_cell_length_c   7.46120000
_cell_angle_alpha   76.35390000
_cell_angle_beta   103.64600000
_cell_angle_gamma   140.07600000
_symmetry_Int_Tables_number   1
_chemical_formula_structural   ZnH14C14SN4O5
_chemical_formula_sum   'Zn2 H28 C28 S2 N8 O10'
_cell_volume   1093.22664943
_cell_formula_units_Z   2
loop_
 _symmetry_equiv_pos_site_id
 _symmetry_equiv_pos_as_xyz
  1  'x, y, z'
loop_
 _atom_site_type_symbol
 _atom_site_label
 _atom_site_symmetry_multiplicity
 _atom_site_fract_x
 _atom_site_fract_y
 _atom_site_fract_z
 _atom_site_occupancy
 _atom_site_charge
Zn  Zn1  1  0.33949000  0.80525000  0.80733000  1.0 0.8005967827
Zn  Zn2  1  0.80525000  0.33949000  0.19267000  1.0 0.8005967827
H  H1  1  0.11540000  0.49800000  0.83600000  1.0 0.1076077351
H  H2  1  0.07240000  0.31640000  0.95890000  1.0 0.1334611268
H  H3  1  0.46170000  0.58170000  0.15960000  1.0 0.1379065455
H  H4  1  0.49120000  0.75340000  0.03160000  1.0 0.0982905102
H  H5  1  0.17660000  0.85020000  0.60250000  1.0 0.0982905102
H  H6  1  0.20820000  0.01860000  0.45420000  1.0 0.1379065455
H  H7  1  0.60680000  0.29000000  0.60480000  1.0 0.1379065455
H  H8  1  0.56390000  0.11510000  0.76150000  1.0 0.1076077351
H  H9  1  0.63020000  0.42900000  0.36520000  1.0 0.1379065455
H  H10  1  0.57050000  0.48150000  0.30260000  1.0 0.148756081
H  H11  1  0.60430000  0.46310000  0.51370000  1.0 0.148756081
H  H12  1  0.03440000  0.17040000  0.10760000  1.0 0.1379065455
H  H13  1  0.07610000  0.13590000  0.29870000  1.0 0.148756081
H  H14  1  0.09030000  0.11690000  0.11410000  1.0 0.148756081
H  H15  1  0.49800000  0.11540000  0.16400000  1.0 0.1076077351
H  H16  1  0.31640000  0.07240000  0.04110000  1.0 0.1334611268
H  H17  1  0.58170000  0.46170000  0.84040000  1.0 0.1379065455
H  H18  1  0.75340000  0.49120000  0.96840000  1.0 0.0982905102
H  H19  1  0.85020000  0.17660000  0.39750000  1.0 0.0982905102
H  H20  1  0.01860000  0.20820000  0.54580000  1.0 0.1379065455
H  H21  1  0.29000000  0.60680000  0.39520000  1.0 0.1379065455
H  H22  1  0.11510000  0.56390000  0.23850000  1.0 0.1076077351
H  H23  1  0.42900000  0.63020000  0.63480000  1.0 0.1379065455
H  H24  1  0.48150000  0.57050000  0.69740000  1.0 0.148756081
H  H25  1  0.46310000  0.60430000  0.48630000  1.0 0.148756081
H  H26  1  0.17040000  0.03440000  0.89240000  1.0 0.1379065455
H  H27  1  0.13590000  0.07610000  0.70130000  1.0 0.148756081
H  H28  1  0.11690000  0.09030000  0.88590000  1.0 0.148756081
C  C1  1  0.18630000  0.51550000  0.90320000  1.0 0.0787311622
C  C2  1  0.15920000  0.40480000  0.97730000  1.0 -0.1771184289
C  C3  1  0.26100000  0.42740000  0.07700000  1.0 0.0661554688
C  C4  1  0.38850000  0.56110000  0.09570000  1.0 -0.1771184289
C  C5  1  0.40500000  0.66400000  0.01710000  1.0 0.0787311622
C  C6  1  0.26420000  0.93980000  0.60460000  1.0 0.0787311622
C  C7  1  0.28290000  0.04070000  0.51420000  1.0 -0.1771184289
C  C8  1  0.41230000  0.17670000  0.51020000  1.0 0.0661554688
C  C9  1  0.51790000  0.20150000  0.60400000  1.0 -0.1940344183
C  C10  1  0.49140000  0.09520000  0.69590000  1.0 0.0855772996
C  C11  1  0.42950000  0.28350000  0.40440000  1.0 0.248774925
C  C12  1  0.57150000  0.42710000  0.39610000  1.0 -0.5055691211
C  C13  1  0.23810000  0.31470000  0.16690000  1.0 0.2584272714
C  C14  1  0.09730000  0.17170000  0.17240000  1.0 -0.4983891754
C  C15  1  0.51550000  0.18630000  0.09680000  1.0 0.0787311622
C  C16  1  0.40480000  0.15920000  0.02270000  1.0 -0.1771184289
C  C17  1  0.42740000  0.26100000  0.92300000  1.0 0.0661554688
C  C18  1  0.56110000  0.38850000  0.90430000  1.0 -0.1771184289
C  C19  1  0.66400000  0.40500000  0.98290000  1.0 0.0787311622
C  C20  1  0.93980000  0.26420000  0.39540000  1.0 0.0787311622
C  C21  1  0.04070000  0.28290000  0.48580000  1.0 -0.1771184289
C  C22  1  0.17670000  0.41230000  0.48980000  1.0 0.0661554688
C  C23  1  0.20150000  0.51790000  0.39600000  1.0 -0.1940344183
C  C24  1  0.09520000  0.49140000  0.30410000  1.0 0.0855772996
C  C25  1  0.28350000  0.42950000  0.59560000  1.0 0.248774925
C  C26  1  0.42710000  0.57150000  0.60390000  1.0 -0.5055691211
C  C27  1  0.31470000  0.23810000  0.83310000  1.0 0.2584272714
C  C28  1  0.17170000  0.09730000  0.82760000  1.0 -0.4983891754
S  S1  1  0.00509000  0.60271000  0.85430000  1.0 1.166895339
S  S2  1  0.60271000  0.00509000  0.14570000  1.0 1.166895339
N  N1  1  0.30710000  0.64390000  0.92320000  1.0 -0.239013941
N  N2  1  0.36730000  0.96450000  0.69690000  1.0 -0.239013941
N  N3  1  0.32150000  0.24490000  0.33520000  1.0 -0.239013941
N  N4  1  0.34390000  0.35070000  0.24150000  1.0 -0.225921443
N  N5  1  0.64390000  0.30710000  0.07680000  1.0 -0.239013941
N  N6  1  0.96450000  0.36730000  0.30310000  1.0 -0.239013941
N  N7  1  0.24490000  0.32150000  0.66480000  1.0 -0.239013941
N  N8  1  0.35070000  0.34390000  0.75850000  1.0 -0.225921443
O  O1  1  0.14870000  0.68630000  0.91770000  1.0 -0.6111986546
O  O2  1  0.99430000  0.66410000  0.95700000  1.0 -0.1551671235
O  O3  1  0.98320000  0.58520000  0.65950000  1.0 -0.5641788154
O  O4  1  0.91390000  0.46710000  0.95640000  1.0 -0.6012608914
O  O5  1  0.96350000  0.67170000  0.82100000  1.0 -0.1551671235
O  O6  1  0.68630000  0.14870000  0.08230000  1.0 -0.6111986546
O  O7  1  0.66410000  0.99430000  0.04300000  1.0 -0.1551671235
O  O8  1  0.58520000  0.98320000  0.34050000  1.0 -0.5641788154
O  O9  1  0.46710000  0.91390000  0.04360000  1.0 -0.6012608914
O  O10  1  0.67170000  0.96350000  0.17900000  1.0 -0.153780794
