# DDEC6 charges by PACMAN v1.1 (https://github.com/mtap-research/PACMAN-charge/)
data_YUQNAB_ion_pacman
_symmetry_space_group_name_H-M   'P 1'
_cell_length_a   14.25150000
_cell_length_b   14.68080000
_cell_length_c   20.90490000
_cell_angle_alpha   90.00000000
_cell_angle_beta   108.04300000
_cell_angle_gamma   90.00000000
_symmetry_Int_Tables_number   1
_chemical_formula_structural   Ag3P3H48C64S4(N4F9)2
_chemical_formula_sum   'Ag6 P6 H96 C128 S8 N16 F36'
_cell_volume   4158.71042989
_cell_formula_units_Z   2
loop_
 _symmetry_equiv_pos_site_id
 _symmetry_equiv_pos_as_xyz
  1  'x, y, z'
loop_
 _atom_site_type_symbol
 _atom_site_label
 _atom_site_symmetry_multiplicity
 _atom_site_fract_x
 _atom_site_fract_y
 _atom_site_fract_z
 _atom_site_occupancy
 _atom_site_charge
Ag  Ag1  1  0.25000000  0.28848000  0.00000000  1.0 0.278203002
Ag  Ag2  1  0.75000000  0.71152000  0.00000000  1.0 0.278203002
Ag  Ag3  1  0.29086000  0.83284000  0.32055000  1.0 0.3765965168
Ag  Ag4  1  0.20914000  0.83284000  0.67945000  1.0 0.3765965168
Ag  Ag5  1  0.70914000  0.16716000  0.67945000  1.0 0.3749004368
Ag  Ag6  1  0.79086000  0.16716000  0.32055000  1.0 0.3765965168
P  P1  1  0.25000000  0.47863000  0.50000000  1.0 1.5505598847
P  P2  1  0.75000000  0.52137000  0.50000000  1.0 1.5505598847
P  P3  1  0.10818000  0.75145000  0.86634000  1.0 1.4915475015
P  P4  1  0.39182000  0.75145000  0.13366000  1.0 1.4915475015
P  P5  1  0.89182000  0.24855000  0.13366000  1.0 1.4915475015
P  P6  1  0.60818000  0.24855000  0.86634000  1.0 1.4915475015
H  H1  1  0.18490000  0.89480000  0.04810000  1.0 0.1298977399
H  H2  1  0.31510000  0.89480000  0.95190000  1.0 0.1298977399
H  H3  1  0.81510000  0.10520000  0.95190000  1.0 0.1298977399
H  H4  1  0.68490000  0.10520000  0.04810000  1.0 0.1298977399
H  H5  1  0.12100000  0.97710000  0.94890000  1.0 0.1298977399
H  H6  1  0.37900000  0.97710000  0.05110000  1.0 0.1298977399
H  H7  1  0.87900000  0.02290000  0.05110000  1.0 0.1298977399
H  H8  1  0.62100000  0.02290000  0.94890000  1.0 0.1298977399
H  H9  1  0.07660000  0.19390000  0.05450000  1.0 0.1298977399
H  H10  1  0.42340000  0.19390000  0.94550000  1.0 0.1298977399
H  H11  1  0.92340000  0.80610000  0.94550000  1.0 0.1298977399
H  H12  1  0.57660000  0.80610000  0.05450000  1.0 0.1298977399
H  H13  1  0.13760000  0.11230000  0.15380000  1.0 0.1298977399
H  H14  1  0.36240000  0.11230000  0.84620000  1.0 0.1298977399
H  H15  1  0.86240000  0.88770000  0.84620000  1.0 0.1298977399
H  H16  1  0.63760000  0.88770000  0.15380000  1.0 0.1298977399
H  H17  1  0.00210000  0.19180000  0.93510000  1.0 0.1406903103
H  H18  1  0.49790000  0.19180000  0.06490000  1.0 0.1406903103
H  H19  1  0.99790000  0.80820000  0.06490000  1.0 0.1406903103
H  H20  1  0.50210000  0.80820000  0.93510000  1.0 0.1406903103
H  H21  1  0.00900000  0.10270000  0.89250000  1.0 0.1406903103
H  H22  1  0.49100000  0.10270000  0.10750000  1.0 0.1406903103
H  H23  1  0.99100000  0.89730000  0.10750000  1.0 0.1406903103
H  H24  1  0.50900000  0.89730000  0.89250000  1.0 0.1406903103
H  H25  1  0.11000000  0.30110000  0.81090000  1.0 0.1406903103
H  H26  1  0.39000000  0.30110000  0.18910000  1.0 0.1406903103
H  H27  1  0.89000000  0.69890000  0.18910000  1.0 0.1406903103
H  H28  1  0.61000000  0.69890000  0.81090000  1.0 0.1406903103
H  H29  1  0.01840000  0.23380000  0.80110000  1.0 0.1406903103
H  H30  1  0.48160000  0.23380000  0.19890000  1.0 0.1406903103
H  H31  1  0.98160000  0.76620000  0.19890000  1.0 0.1406903103
H  H32  1  0.51840000  0.76620000  0.80110000  1.0 0.1406903103
H  H33  1  0.88370000  0.27710000  0.84170000  1.0 0.1214475879
H  H34  1  0.61630000  0.27710000  0.15830000  1.0 0.1298977399
H  H35  1  0.11630000  0.72290000  0.15830000  1.0 0.1298977399
H  H36  1  0.38370000  0.72290000  0.84170000  1.0 0.1214475879
H  H37  1  0.80240000  0.38870000  0.88390000  1.0 0.1298977399
H  H38  1  0.69760000  0.38870000  0.11610000  1.0 0.1298977399
H  H39  1  0.19760000  0.61130000  0.11610000  1.0 0.1298977399
H  H40  1  0.30240000  0.61130000  0.88390000  1.0 0.1298977399
H  H41  1  0.04480000  0.55050000  0.92190000  1.0 0.1298977399
H  H42  1  0.45520000  0.55050000  0.07810000  1.0 0.1298977399
H  H43  1  0.95520000  0.44950000  0.07810000  1.0 0.1298977399
H  H44  1  0.54480000  0.44950000  0.92190000  1.0 0.1298977399
H  H45  1  0.12580000  0.43630000  0.88260000  1.0 0.1214475879
H  H46  1  0.37420000  0.43630000  0.11740000  1.0 0.1214475879
H  H47  1  0.87420000  0.56370000  0.11740000  1.0 0.1214475879
H  H48  1  0.62580000  0.56370000  0.88260000  1.0 0.1214475879
H  H49  1  0.70640000  0.83350000  0.54350000  1.0 0.1214475879
H  H50  1  0.79360000  0.83350000  0.45650000  1.0 0.1214475879
H  H51  1  0.29360000  0.16650000  0.45650000  1.0 0.1214475879
H  H52  1  0.20640000  0.16650000  0.54350000  1.0 0.1214475879
H  H53  1  0.62240000  0.71340000  0.47780000  1.0 0.1298977399
H  H54  1  0.87760000  0.71340000  0.52220000  1.0 0.1298977399
H  H55  1  0.37760000  0.28660000  0.52220000  1.0 0.1298977399
H  H56  1  0.12240000  0.28660000  0.47780000  1.0 0.1298977399
H  H57  1  0.36460000  0.80910000  0.49310000  1.0 0.1298977399
H  H58  1  0.13540000  0.80910000  0.50690000  1.0 0.1298977399
H  H59  1  0.63540000  0.19090000  0.50690000  1.0 0.1298977399
H  H60  1  0.86460000  0.19090000  0.49310000  1.0 0.1298977399
H  H61  1  0.44790000  0.93010000  0.55910000  1.0 0.1214475879
H  H62  1  0.05210000  0.93010000  0.44090000  1.0 0.1214475879
H  H63  1  0.55210000  0.06990000  0.44090000  1.0 0.1214475879
H  H64  1  0.94790000  0.06990000  0.55910000  1.0 0.1214475879
H  H65  1  0.36630000  0.66410000  0.44170000  1.0 0.1406903103
H  H66  1  0.13370000  0.66410000  0.55830000  1.0 0.1406903103
H  H67  1  0.63370000  0.33590000  0.55830000  1.0 0.1406903103
H  H68  1  0.86630000  0.33590000  0.44170000  1.0 0.1406903103
H  H69  1  0.46970000  0.61720000  0.44540000  1.0 0.152095816
H  H70  1  0.03030000  0.61720000  0.55460000  1.0 0.152095816
H  H71  1  0.53030000  0.38280000  0.55460000  1.0 0.152095816
H  H72  1  0.96970000  0.38280000  0.44540000  1.0 0.152095816
H  H73  1  0.29350000  0.59250000  0.32340000  1.0 0.1406903103
H  H74  1  0.20650000  0.59250000  0.67660000  1.0 0.1406903103
H  H75  1  0.70650000  0.40750000  0.67660000  1.0 0.1406903103
H  H76  1  0.79350000  0.40750000  0.32340000  1.0 0.1406903103
H  H77  1  0.32020000  0.61910000  0.25680000  1.0 0.1406903103
H  H78  1  0.17980000  0.61910000  0.74320000  1.0 0.1406903103
H  H79  1  0.67980000  0.38090000  0.74320000  1.0 0.1406903103
H  H80  1  0.82020000  0.38090000  0.25680000  1.0 0.1406903103
H  H81  1  0.49310000  0.57150000  0.25490000  1.0 0.1298977399
H  H82  1  0.00690000  0.57150000  0.74510000  1.0 0.1298977399
H  H83  1  0.50690000  0.42850000  0.74510000  1.0 0.1298977399
H  H84  1  0.99310000  0.42850000  0.25490000  1.0 0.1298977399
H  H85  1  0.60010000  0.44790000  0.27020000  1.0 0.1214475879
H  H86  1  0.89990000  0.44790000  0.72980000  1.0 0.1214475879
H  H87  1  0.39990000  0.55210000  0.72980000  1.0 0.1214475879
H  H88  1  0.10010000  0.55210000  0.27020000  1.0 0.1214475879
H  H89  1  0.46620000  0.33230000  0.39480000  1.0 0.1214475879
H  H90  1  0.03380000  0.33230000  0.60520000  1.0 0.1214475879
H  H91  1  0.53380000  0.66770000  0.60520000  1.0 0.1214475879
H  H92  1  0.96620000  0.66770000  0.39480000  1.0 0.1214475879
H  H93  1  0.36110000  0.45710000  0.38030000  1.0 0.1298977399
H  H94  1  0.13890000  0.45710000  0.61970000  1.0 0.1298977399
H  H95  1  0.63890000  0.54290000  0.61970000  1.0 0.1298977399
H  H96  1  0.86110000  0.54290000  0.38030000  1.0 0.1298977399
C  C1  1  0.19820000  0.94420000  0.17168000  1.0 0.3056262199
C  C2  1  0.30180000  0.94420000  0.82832000  1.0 0.3056262199
C  C3  1  0.80180000  0.05580000  0.82832000  1.0 0.3036694044
C  C4  1  0.69820000  0.05580000  0.17168000  1.0 0.3036694044
C  C5  1  0.16580000  0.99610000  0.11003000  1.0 0.0205666682
C  C6  1  0.33420000  0.99610000  0.88997000  1.0 0.0205666682
C  C7  1  0.83420000  0.00390000  0.88997000  1.0 0.0205666682
C  C8  1  0.66580000  0.00390000  0.11003000  1.0 0.0205666682
C  C9  1  0.16200000  0.95540000  0.04927000  1.0 -0.0872482184
C  C10  1  0.33800000  0.95540000  0.95073000  1.0 -0.0872482184
C  C11  1  0.83800000  0.04460000  0.95073000  1.0 -0.0872482184
C  C12  1  0.66200000  0.04460000  0.04927000  1.0 -0.0872482184
C  C13  1  0.12450000  0.00440000  0.99073000  1.0 -0.1305373496
C  C14  1  0.37550000  0.00440000  0.00927000  1.0 -0.1305373496
C  C15  1  0.87550000  0.99560000  0.00927000  1.0 -0.1305373496
C  C16  1  0.62450000  0.99560000  0.99073000  1.0 -0.1305373496
C  C17  1  0.09180000  0.09260000  0.99215000  1.0 0.1406903103
C  C18  1  0.40820000  0.09260000  0.00785000  1.0 0.1406903103
C  C19  1  0.90820000  0.90740000  0.00785000  1.0 0.1406903103
C  C20  1  0.59180000  0.90740000  0.99215000  1.0 0.1406903103
C  C21  1  0.09780000  0.13280000  0.05329000  1.0 -0.150721457
C  C22  1  0.40220000  0.13280000  0.94671000  1.0 -0.150721457
C  C23  1  0.90220000  0.86720000  0.94671000  1.0 -0.150721457
C  C24  1  0.59780000  0.86720000  0.05329000  1.0 -0.150721457
C  C25  1  0.13410000  0.08480000  0.11200000  1.0 -0.1011887106
C  C26  1  0.36590000  0.08480000  0.88800000  1.0 -0.1011887106
C  C27  1  0.86590000  0.91520000  0.88800000  1.0 -0.1011887106
C  C28  1  0.63410000  0.91520000  0.11200000  1.0 -0.1011887106
C  C29  1  0.04760000  0.14470000  0.92799000  1.0 -0.2825725164
C  C30  1  0.45240000  0.14470000  0.07201000  1.0 -0.2825725164
C  C31  1  0.95240000  0.85530000  0.07201000  1.0 -0.2825725164
C  C32  1  0.54760000  0.85530000  0.92799000  1.0 -0.2825725164
C  C33  1  0.06730000  0.27190000  0.83433000  1.0 -0.2902128372
C  C34  1  0.43270000  0.27190000  0.16567000  1.0 -0.2902128372
C  C35  1  0.93270000  0.72810000  0.16567000  1.0 -0.2902128372
C  C36  1  0.56730000  0.72810000  0.83433000  1.0 -0.2902128372
C  C37  1  0.01360000  0.34450000  0.85932000  1.0 0.1406903103
C  C38  1  0.48640000  0.34450000  0.14068000  1.0 0.1406903103
C  C39  1  0.98640000  0.65550000  0.14068000  1.0 0.1406903103
C  C40  1  0.51360000  0.65550000  0.85932000  1.0 0.1406903103
C  C41  1  0.91690000  0.33220000  0.85898000  1.0 -0.150721457
C  C42  1  0.58310000  0.33220000  0.14102000  1.0 -0.150721457
C  C43  1  0.08310000  0.66780000  0.14102000  1.0 -0.150721457
C  C44  1  0.41690000  0.66780000  0.85898000  1.0 -0.150721457
C  C45  1  0.86800000  0.39850000  0.88322000  1.0 -0.1011887106
C  C46  1  0.63200000  0.39850000  0.11678000  1.0 -0.1011887106
C  C47  1  0.13200000  0.60150000  0.11678000  1.0 -0.1011887106
C  C48  1  0.36800000  0.60150000  0.88322000  1.0 -0.1011887106
C  C49  1  0.91650000  0.47970000  0.90663000  1.0 0.0309492925
C  C50  1  0.58350000  0.47970000  0.09337000  1.0 0.0309492925
C  C51  1  0.08350000  0.52030000  0.09337000  1.0 0.0309492925
C  C52  1  0.41650000  0.52030000  0.90663000  1.0 0.0309492925
C  C53  1  0.01240000  0.49450000  0.90623000  1.0 -0.1011887106
C  C54  1  0.48760000  0.49450000  0.09377000  1.0 -0.1011887106
C  C55  1  0.98760000  0.50550000  0.09377000  1.0 -0.1011887106
C  C56  1  0.51240000  0.50550000  0.90623000  1.0 -0.1011887106
C  C57  1  0.06000000  0.42670000  0.88277000  1.0 -0.150721457
C  C58  1  0.44000000  0.42670000  0.11723000  1.0 -0.150721457
C  C59  1  0.94000000  0.57330000  0.11723000  1.0 -0.150721457
C  C60  1  0.56000000  0.57330000  0.88277000  1.0 -0.150721457
C  C61  1  0.86670000  0.55060000  0.93100000  1.0 0.3036694044
C  C62  1  0.63330000  0.55060000  0.06900000  1.0 0.3036694044
C  C63  1  0.13330000  0.44940000  0.06900000  1.0 0.3036694044
C  C64  1  0.36670000  0.44940000  0.93100000  1.0 0.3036694044
C  C65  1  0.63610000  0.97030000  0.59427000  1.0 0.2913798902
C  C66  1  0.86390000  0.97030000  0.40573000  1.0 0.2913798902
C  C67  1  0.36390000  0.02970000  0.40573000  1.0 0.2913798902
C  C68  1  0.13610000  0.02970000  0.59427000  1.0 0.2913798902
C  C69  1  0.58480000  0.89360000  0.55640000  1.0 0.0205666682
C  C70  1  0.91520000  0.89360000  0.44360000  1.0 0.0205666682
C  C71  1  0.41520000  0.10640000  0.44360000  1.0 0.0205666682
C  C72  1  0.08480000  0.10640000  0.55640000  1.0 0.0205666682
C  C73  1  0.63670000  0.82890000  0.53288000  1.0 -0.109390299
C  C74  1  0.86330000  0.82890000  0.46712000  1.0 -0.109390299
C  C75  1  0.36330000  0.17110000  0.46712000  1.0 -0.109390299
C  C76  1  0.13670000  0.17110000  0.53288000  1.0 -0.109390299
C  C77  1  0.58690000  0.75780000  0.49404000  1.0 -0.1432631399
C  C78  1  0.91310000  0.75780000  0.50596000  1.0 -0.1432631399
C  C79  1  0.41310000  0.24220000  0.50596000  1.0 -0.1432631399
C  C80  1  0.08690000  0.24220000  0.49404000  1.0 -0.1432631399
C  C81  1  0.48500000  0.75030000  0.47843000  1.0 0.1406903103
C  C82  1  0.01500000  0.75030000  0.52157000  1.0 0.1406903103
C  C83  1  0.51500000  0.24970000  0.52157000  1.0 0.1406903103
C  C84  1  0.98500000  0.24970000  0.47843000  1.0 0.1406903103
C  C85  1  0.43410000  0.81440000  0.50310000  1.0 -0.150721457
C  C86  1  0.06590000  0.81440000  0.49690000  1.0 -0.150721457
C  C87  1  0.56590000  0.18560000  0.49690000  1.0 -0.150721457
C  C88  1  0.93410000  0.18560000  0.50310000  1.0 -0.150721457
C  C89  1  0.48330000  0.88630000  0.54221000  1.0 -0.1157000374
C  C90  1  0.01670000  0.88630000  0.45779000  1.0 -0.1157000374
C  C91  1  0.51670000  0.11370000  0.45779000  1.0 -0.1157000374
C  C92  1  0.98330000  0.11370000  0.54221000  1.0 -0.1157000374
C  C93  1  0.43100000  0.67430000  0.43452000  1.0 -0.2902128372
C  C94  1  0.06900000  0.67430000  0.56548000  1.0 -0.2902128372
C  C95  1  0.56900000  0.32570000  0.56548000  1.0 -0.2902128372
C  C96  1  0.93100000  0.32570000  0.43452000  1.0 -0.2902128372
C  C97  1  0.34850000  0.60660000  0.30549000  1.0 -0.3002279933
C  C98  1  0.15150000  0.60660000  0.69451000  1.0 -0.3002279933
C  C99  1  0.65150000  0.39340000  0.69451000  1.0 -0.3002279933
C  C100  1  0.84850000  0.39340000  0.30549000  1.0 -0.3002279933
C  C101  1  0.41600000  0.52600000  0.31561000  1.0 0.1580430892
C  C102  1  0.08400000  0.52600000  0.68439000  1.0 0.1580430892
C  C103  1  0.58400000  0.47400000  0.68439000  1.0 0.1580430892
C  C104  1  0.91600000  0.47400000  0.31561000  1.0 0.1580430892
C  C105  1  0.48770000  0.52270000  0.28337000  1.0 -0.1305373496
C  C106  1  0.01230000  0.52270000  0.71663000  1.0 -0.1305373496
C  C107  1  0.51230000  0.47730000  0.71663000  1.0 -0.1305373496
C  C108  1  0.98770000  0.47730000  0.28337000  1.0 -0.1305373496
C  C109  1  0.55100000  0.44960000  0.29220000  1.0 -0.109390299
C  C110  1  0.94900000  0.44960000  0.70780000  1.0 -0.109390299
C  C111  1  0.44900000  0.55040000  0.70780000  1.0 -0.109390299
C  C112  1  0.05100000  0.55040000  0.29220000  1.0 -0.109390299
C  C113  1  0.54230000  0.37870000  0.33350000  1.0 0.0309492925
C  C114  1  0.95770000  0.37870000  0.66650000  1.0 0.0309492925
C  C115  1  0.45770000  0.62130000  0.66650000  1.0 0.0309492925
C  C116  1  0.04230000  0.62130000  0.33350000  1.0 0.0309492925
C  C117  1  0.47160000  0.38120000  0.36636000  1.0 -0.1011887106
C  C118  1  0.02840000  0.38120000  0.63364000  1.0 -0.1011887106
C  C119  1  0.52840000  0.61880000  0.63364000  1.0 -0.1011887106
C  C120  1  0.97160000  0.61880000  0.36636000  1.0 -0.1011887106
C  C121  1  0.40920000  0.45490000  0.35748000  1.0 -0.1305373496
C  C122  1  0.09080000  0.45490000  0.64252000  1.0 -0.1305373496
C  C123  1  0.59080000  0.54510000  0.64252000  1.0 -0.1305373496
C  C124  1  0.90920000  0.54510000  0.35748000  1.0 -0.1305373496
C  C125  1  0.60780000  0.30180000  0.34208000  1.0 0.2913798902
C  C126  1  0.89220000  0.30180000  0.65792000  1.0 0.2913798902
C  C127  1  0.39220000  0.69820000  0.65792000  1.0 0.2913798902
C  C128  1  0.10780000  0.69820000  0.34208000  1.0 0.2913798902
S  S1  1  0.14318000  0.19833000  0.90091000  1.0 0.0801652603
S  S2  1  0.35682000  0.19833000  0.09909000  1.0 0.0801652603
S  S3  1  0.85682000  0.80167000  0.09909000  1.0 0.0801652603
S  S4  1  0.64318000  0.80167000  0.90091000  1.0 0.0801652603
S  S5  1  0.41362000  0.70688000  0.34752000  1.0 0.1214475879
S  S6  1  0.08638000  0.70688000  0.65248000  1.0 0.1214475879
S  S7  1  0.58638000  0.29312000  0.65248000  1.0 0.1214475879
S  S8  1  0.91362000  0.29312000  0.34752000  1.0 0.1214475879
N  N1  1  0.21890000  0.90340000  0.22003000  1.0 -0.3320702251
N  N2  1  0.28110000  0.90340000  0.77997000  1.0 -0.3320702251
N  N3  1  0.78110000  0.09660000  0.77997000  1.0 -0.3320702251
N  N4  1  0.71890000  0.09660000  0.22003000  1.0 -0.3320702251
N  N5  1  0.82730000  0.60650000  0.94985000  1.0 -0.3528188701
N  N6  1  0.67270000  0.60650000  0.05015000  1.0 -0.3528188701
N  N7  1  0.17270000  0.39350000  0.05015000  1.0 -0.3528188701
N  N8  1  0.32730000  0.39350000  0.94985000  1.0 -0.3528188701
N  N9  1  0.67620000  0.03160000  0.62232000  1.0 -0.3625191586
N  N10  1  0.82380000  0.03160000  0.37768000  1.0 -0.3625191586
N  N11  1  0.32380000  0.96840000  0.37768000  1.0 -0.3625191586
N  N12  1  0.17620000  0.96840000  0.62232000  1.0 -0.3625191586
N  N13  1  0.65930000  0.24180000  0.34678000  1.0 -0.3625191586
N  N14  1  0.84070000  0.24180000  0.65322000  1.0 -0.3625191586
N  N15  1  0.34070000  0.75820000  0.65322000  1.0 -0.3625191586
N  N16  1  0.15930000  0.75820000  0.34678000  1.0 -0.3625191586
F  F1  1  0.13444000  0.47832000  0.48831000  1.0 -0.4001967272
F  F2  1  0.36556000  0.47832000  0.51169000  1.0 -0.4001967272
F  F3  1  0.23655000  0.40067000  0.44456000  1.0 -0.4001967272
F  F4  1  0.26345000  0.40067000  0.55544000  1.0 -0.4001967272
F  F5  1  0.26309000  0.55317000  0.55661000  1.0 -0.4084194239
F  F6  1  0.23691000  0.55317000  0.44339000  1.0 -0.4084194239
F  F7  1  0.86556000  0.52168000  0.51169000  1.0 -0.4001967272
F  F8  1  0.63444000  0.52168000  0.48831000  1.0 -0.4001967272
F  F9  1  0.76345000  0.59933000  0.55544000  1.0 -0.4001967272
F  F10  1  0.73655000  0.59933000  0.44456000  1.0 -0.4001967272
F  F11  1  0.73691000  0.44683000  0.44339000  1.0 -0.4084194239
F  F12  1  0.76309000  0.44683000  0.55661000  1.0 -0.4084194239
F  F13  1  0.10150000  0.76210000  0.79157000  1.0 -0.3884425211
F  F14  1  0.99610000  0.73390000  0.84660000  1.0 -0.3625191586
F  F15  1  0.11040000  0.74230000  0.93967000  1.0 -0.3686401582
F  F16  1  0.22050000  0.76860000  0.88810000  1.0 -0.3884425211
F  F17  1  0.08810000  0.85711000  0.86828000  1.0 -0.3759617295
F  F18  1  0.12807000  0.64577000  0.86094000  1.0 -0.4001967272
F  F19  1  0.39850000  0.76210000  0.20843000  1.0 -0.3884425211
F  F20  1  0.50390000  0.73390000  0.15340000  1.0 -0.3625191586
F  F21  1  0.38960000  0.74230000  0.06033000  1.0 -0.3686401582
F  F22  1  0.27950000  0.76860000  0.11190000  1.0 -0.3884425211
F  F23  1  0.41190000  0.85711000  0.13172000  1.0 -0.3759617295
F  F24  1  0.37193000  0.64577000  0.13906000  1.0 -0.4001967272
F  F25  1  0.89850000  0.23790000  0.20843000  1.0 -0.3884425211
F  F26  1  0.00390000  0.26610000  0.15340000  1.0 -0.3625191586
F  F27  1  0.88960000  0.25770000  0.06033000  1.0 -0.3686401582
F  F28  1  0.77950000  0.23140000  0.11190000  1.0 -0.3884425211
F  F29  1  0.91190000  0.14289000  0.13172000  1.0 -0.3686401582
F  F30  1  0.87193000  0.35423000  0.13906000  1.0 -0.4001967272
F  F31  1  0.60150000  0.23790000  0.79157000  1.0 -0.3884425211
F  F32  1  0.49610000  0.26610000  0.84660000  1.0 -0.3625191586
F  F33  1  0.61040000  0.25770000  0.93967000  1.0 -0.3686401582
F  F34  1  0.72050000  0.23140000  0.88810000  1.0 -0.3884425211
F  F35  1  0.58810000  0.14289000  0.86828000  1.0 -0.3686401582
F  F36  1  0.62807000  0.35423000  0.86094000  1.0 -0.4001967272
