# DDEC6 charges by PACMAN v1.1 (https://github.com/mtap-research/PACMAN-charge/)
data_YURKAY_FSR_pacman
_symmetry_space_group_name_H-M   'P 1'
_cell_length_a   12.49960000
_cell_length_b   17.70080000
_cell_length_c   22.38690000
_cell_angle_alpha   79.65700000
_cell_angle_beta   80.45200000
_cell_angle_gamma   81.32600000
_symmetry_Int_Tables_number   1
_chemical_formula_structural   Dy2H38C51S3N3O22
_chemical_formula_sum   'Dy4 H76 C102 S6 N6 O44'
_cell_volume   4767.63725919
_cell_formula_units_Z   2
loop_
 _symmetry_equiv_pos_site_id
 _symmetry_equiv_pos_as_xyz
  1  'x, y, z'
loop_
 _atom_site_type_symbol
 _atom_site_label
 _atom_site_symmetry_multiplicity
 _atom_site_fract_x
 _atom_site_fract_y
 _atom_site_fract_z
 _atom_site_occupancy
 _atom_site_charge
Dy  Dy1  1  0.34663000  0.97079000  0.00208000  1.0 2.0620860907
Dy  Dy2  1  0.65337000  0.02921000  0.99792000  1.0 2.0620860907
Dy  Dy3  1  0.12882000  0.57010000  0.48195000  1.0 2.0471801612
Dy  Dy4  1  0.87118000  0.42990000  0.51805000  1.0 2.0471801612
H  H1  1  0.24640000  0.99270000  0.79830000  1.0 0.1225393309
H  H2  1  0.75360000  0.00730000  0.20170000  1.0 0.1225393309
H  H3  1  0.28840000  0.76980000  0.88050000  1.0 0.1395866936
H  H4  1  0.71160000  0.23020000  0.11950000  1.0 0.1395866936
H  H5  1  0.22260000  0.95420000  0.70850000  1.0 0.130443849
H  H6  1  0.77740000  0.04580000  0.29150000  1.0 0.130443849
H  H7  1  0.20070000  0.89140000  0.61900000  1.0 0.1225393309
H  H8  1  0.79930000  0.10860000  0.38100000  1.0 0.1225393309
H  H9  1  0.24200000  0.62150000  0.66790000  1.0 0.1395866936
H  H10  1  0.75800000  0.37850000  0.33210000  1.0 0.1395866936
H  H11  1  0.17940000  0.81520000  0.54850000  1.0 0.130443849
H  H12  1  0.82060000  0.18480000  0.45150000  1.0 0.130443849
H  H13  1  0.30930000  0.11410000  0.87470000  1.0 0.1494516342
H  H14  1  0.69070000  0.88590000  0.12530000  1.0 0.1494516342
H  H15  1  0.54580000  0.25340000  0.84890000  1.0 0.1225393309
H  H16  1  0.45420000  0.74660000  0.15110000  1.0 0.1225393309
H  H17  1  0.46970000  0.33333333  0.76740000  1.0 0.1225393309
H  H18  1  0.53030000  0.66666667  0.23260000  1.0 0.1225393309
H  H19  1  0.36450000  0.40340000  0.68240000  1.0 0.1225393309
H  H20  1  0.63550000  0.59660000  0.31760000  1.0 0.1225393309
H  H21  1  0.25260000  0.44860000  0.60410000  1.0 0.1225393309
H  H22  1  0.74740000  0.55140000  0.39590000  1.0 0.1225393309
H  H23  1  0.06890000  0.27390000  0.67150000  1.0 0.1395866936
H  H24  1  0.93110000  0.72610000  0.32850000  1.0 0.1395866936
H  H25  1  0.04480000  0.30460000  0.36340000  1.0 0.1395866936
H  H26  1  0.95520000  0.69540000  0.63660000  1.0 0.1395866936
H  H27  1  0.28530000  0.43960000  0.33700000  1.0 0.112511026
H  H28  1  0.71470000  0.56040000  0.66300000  1.0 0.112511026
H  H29  1  0.38130000  0.37460000  0.25770000  1.0 0.1225393309
H  H30  1  0.61870000  0.62540000  0.74230000  1.0 0.1225393309
H  H31  1  0.45800000  0.28900000  0.17800000  1.0 0.130443849
H  H32  1  0.54200000  0.71100000  0.82200000  1.0 0.130443849
H  H33  1  0.23200000  0.10530000  0.16980000  1.0 0.1225393309
H  H34  1  0.76800000  0.89470000  0.83020000  1.0 0.1225393309
H  H35  1  0.50840000  0.20070000  0.11100000  1.0 0.130443849
H  H36  1  0.49160000  0.79930000  0.88900000  1.0 0.130443849
H  H37  1  0.29650000  0.40080000  0.47490000  1.0 0.112511026
H  H38  1  0.70350000  0.59920000  0.52510000  1.0 0.112511026
H  H39  1  0.18320000  0.11440000  0.06780000  1.0 0.0955496843
H  H40  1  0.81680000  0.88560000  0.93220000  1.0 0.0955496843
H  H41  1  0.91010000  0.00560000  0.13130000  1.0 0.1225393309
H  H42  1  0.08990000  0.99440000  0.86870000  1.0 0.1225393309
H  H43  1  0.97210000  0.94550000  0.08980000  1.0 0.1395866936
H  H44  1  0.02790000  0.05450000  0.91020000  1.0 0.1395866936
H  H45  1  0.99950000  0.03100000  0.07640000  1.0 0.1225393309
H  H46  1  0.00050000  0.96900000  0.92360000  1.0 0.1225393309
H  H47  1  0.55710000  0.33790000  0.40120000  1.0 0.130443849
H  H48  1  0.44290000  0.66210000  0.59880000  1.0 0.130443849
H  H49  1  0.43780000  0.33180000  0.39100000  1.0 0.130443849
H  H50  1  0.56220000  0.66820000  0.60900000  1.0 0.130443849
H  H51  1  0.47460000  0.30180000  0.45560000  1.0 0.1395866936
H  H52  1  0.52540000  0.69820000  0.54440000  1.0 0.1395866936
H  H53  1  0.59170000  0.44860000  0.39740000  1.0 0.1395866936
H  H54  1  0.40830000  0.55140000  0.60260000  1.0 0.1395866936
H  H55  1  0.53680000  0.49860000  0.44800000  1.0 0.130443849
H  H56  1  0.46320000  0.50140000  0.55200000  1.0 0.130443849
H  H57  1  0.49600000  0.51450000  0.38390000  1.0 0.1395866936
H  H58  1  0.50400000  0.48550000  0.61610000  1.0 0.1395866936
H  H59  1  0.95800000  0.99720000  0.22130000  1.0 0.130443849
H  H60  1  0.04200000  0.00280000  0.77870000  1.0 0.130443849
H  H61  1  0.07510000  0.01840000  0.22210000  1.0 0.1395866936
H  H62  1  0.92490000  0.98160000  0.77790000  1.0 0.1395866936
H  H63  1  0.05090000  0.93230000  0.24150000  1.0 0.1494516342
H  H64  1  0.94910000  0.06770000  0.75850000  1.0 0.1494516342
H  H65  1  0.94830000  0.24270000  0.06260000  1.0 0.1494516342
H  H66  1  0.05170000  0.75730000  0.93740000  1.0 0.1494516342
H  H67  1  0.06300000  0.24270000  0.08220000  1.0 0.1395866936
H  H68  1  0.93700000  0.75730000  0.91780000  1.0 0.1395866936
H  H69  1  0.99410000  0.17440000  0.11030000  1.0 0.130443849
H  H70  1  0.00590000  0.82560000  0.88970000  1.0 0.130443849
H  H71  1  0.94130000  0.21570000  0.97470000  1.0 0.1395866936
H  H72  1  0.05870000  0.78430000  0.02530000  1.0 0.1395866936
H  H73  1  0.98370000  0.12940000  0.96730000  1.0 0.1395866936
H  H74  1  0.01630000  0.87060000  0.03270000  1.0 0.1395866936
H  H75  1  0.05280000  0.19560000  0.93360000  1.0 0.1494516342
H  H76  1  0.94720000  0.80440000  0.06640000  1.0 0.1494516342
C  C1  1  0.27590000  0.91530000  0.90780000  1.0 0.5505190048
C  C2  1  0.72410000  0.08470000  0.09220000  1.0 0.5505190048
C  C3  1  0.26560000  0.88530000  0.84920000  1.0 -0.00913375
C  C4  1  0.73440000  0.11470000  0.15080000  1.0 -0.00913375
C  C5  1  0.24900000  0.94040000  0.79660000  1.0 -0.0794541796
C  C6  1  0.75100000  0.05960000  0.20340000  1.0 -0.0794541796
C  C7  1  0.27520000  0.80670000  0.84650000  1.0 -0.1089023228
C  C8  1  0.72480000  0.19330000  0.15350000  1.0 -0.1089023228
C  C9  1  0.26440000  0.78550000  0.79220000  1.0 -0.0992680174
C  C10  1  0.73560000  0.21450000  0.20780000  1.0 -0.0992680174
C  C11  1  0.23650000  0.91750000  0.74260000  1.0 -0.130940887
C  C12  1  0.76350000  0.08250000  0.25740000  1.0 -0.130940887
C  C13  1  0.24510000  0.83870000  0.73990000  1.0 0.0552253205
C  C14  1  0.75490000  0.16130000  0.26010000  1.0 0.0552253205
C  C15  1  0.23220000  0.80230000  0.68680000  1.0 0.0491548347
C  C16  1  0.76780000  0.19770000  0.31320000  1.0 0.0491548347
C  C17  1  0.24550000  0.72170000  0.69990000  1.0 -0.0992680174
C  C18  1  0.75450000  0.27830000  0.30010000  1.0 -0.0992680174
C  C19  1  0.20830000  0.83770000  0.62930000  1.0 -0.130940887
C  C20  1  0.79170000  0.16230000  0.37070000  1.0 -0.130940887
C  C21  1  0.23310000  0.67520000  0.65800000  1.0 -0.1089023228
C  C22  1  0.76690000  0.32480000  0.34200000  1.0 -0.1089023228
C  C23  1  0.19570000  0.79180000  0.58710000  1.0 -0.0794541796
C  C24  1  0.80430000  0.20820000  0.41290000  1.0 -0.0794541796
C  C25  1  0.20720000  0.71120000  0.60170000  1.0 -0.0020927093
C  C26  1  0.79280000  0.28880000  0.39830000  1.0 -0.0020927093
C  C27  1  0.19150000  0.66130000  0.55510000  1.0 0.5438612554
C  C28  1  0.80850000  0.33870000  0.44490000  1.0 0.5438612554
C  C29  1  0.49670000  0.12410000  0.91870000  1.0 0.6209619694
C  C30  1  0.50330000  0.87590000  0.08130000  1.0 0.6209619694
C  C31  1  0.43670000  0.17600000  0.87070000  1.0 -0.00913375
C  C32  1  0.56330000  0.82400000  0.12930000  1.0 -0.00913375
C  C33  1  0.34130000  0.15750000  0.85450000  1.0 -0.0889328715
C  C34  1  0.65870000  0.84250000  0.14550000  1.0 -0.0889328715
C  C35  1  0.48260000  0.24150000  0.83780000  1.0 -0.0794541796
C  C36  1  0.51740000  0.75850000  0.16220000  1.0 -0.0794541796
C  C37  1  0.43770000  0.29030000  0.78870000  1.0 -0.130940887
C  C38  1  0.56230000  0.70970000  0.21130000  1.0 -0.130940887
C  C39  1  0.29660000  0.20740000  0.80640000  1.0 -0.1089023228
C  C40  1  0.70340000  0.79260000  0.19360000  1.0 -0.1089023228
C  C41  1  0.34270000  0.27050000  0.77390000  1.0 0.0374892683
C  C42  1  0.65730000  0.72950000  0.22610000  1.0 0.0374892683
C  C43  1  0.28140000  0.31240000  0.72150000  1.0 0.0491548347
C  C44  1  0.71860000  0.68760000  0.27850000  1.0 0.0491548347
C  C45  1  0.19010000  0.27540000  0.71810000  1.0 -0.1089023228
C  C46  1  0.80990000  0.72460000  0.28190000  1.0 -0.1089023228
C  C47  1  0.30590000  0.37800000  0.67980000  1.0 -0.143885642
C  C48  1  0.69410000  0.62200000  0.32020000  1.0 -0.1451436725
C  C49  1  0.23810000  0.40510000  0.63290000  1.0 -0.0794541796
C  C50  1  0.76190000  0.59490000  0.36710000  1.0 -0.0794541796
C  C51  1  0.12680000  0.30030000  0.67340000  1.0 -0.0889328715
C  C52  1  0.87320000  0.69970000  0.32660000  1.0 -0.0889328715
C  C53  1  0.14740000  0.36510000  0.63030000  1.0 -0.0352037062
C  C54  1  0.85260000  0.63490000  0.36970000  1.0 -0.0342740339
C  C55  1  0.07770000  0.39460000  0.58200000  1.0 0.6209619694
C  C56  1  0.92230000  0.60540000  0.41800000  1.0 0.6209619694
C  C57  1  0.09590000  0.42380000  0.40810000  1.0 0.6209619694
C  C58  1  0.90410000  0.57620000  0.59190000  1.0 0.6209619694
C  C59  1  0.15610000  0.38020000  0.35670000  1.0 -0.00913375
C  C60  1  0.84390000  0.61980000  0.64330000  1.0 -0.00913375
C  C61  1  0.11060000  0.31950000  0.34210000  1.0 -0.0889328715
C  C62  1  0.88940000  0.68050000  0.65790000  1.0 -0.0889328715
C  C63  1  0.25580000  0.39970000  0.32610000  1.0 -0.0992680174
C  C64  1  0.74420000  0.60030000  0.67390000  1.0 -0.0992680174
C  C65  1  0.16780000  0.28220000  0.29430000  1.0 -0.0992680174
C  C66  1  0.83220000  0.71780000  0.70570000  1.0 -0.0992680174
C  C67  1  0.31460000  0.36050000  0.27840000  1.0 -0.130940887
C  C68  1  0.68540000  0.63950000  0.72160000  1.0 -0.130940887
C  C69  1  0.26890000  0.29990000  0.26350000  1.0 0.0491548347
C  C70  1  0.73110000  0.70010000  0.73650000  1.0 0.0491548347
C  C71  1  0.31540000  0.25090000  0.21560000  1.0 0.0491548347
C  C72  1  0.68460000  0.74910000  0.78440000  1.0 0.0491548347
C  C73  1  0.24940000  0.19540000  0.21220000  1.0 -0.0992680174
C  C74  1  0.75060000  0.80460000  0.78780000  1.0 -0.0992680174
C  C75  1  0.41230000  0.25240000  0.17730000  1.0 -0.1219950017
C  C76  1  0.58770000  0.74760000  0.82270000  1.0 -0.1219950017
C  C77  1  0.27840000  0.14100000  0.17140000  1.0 -0.130940887
C  C78  1  0.72160000  0.85900000  0.82860000  1.0 -0.130940887
C  C79  1  0.44240000  0.19890000  0.13710000  1.0 -0.0739243847
C  C80  1  0.55760000  0.80110000  0.86290000  1.0 -0.0739243847
C  C81  1  0.37710000  0.14270000  0.13450000  1.0 -0.0162231435
C  C82  1  0.62290000  0.85730000  0.86550000  1.0 -0.0162231435
C  C83  1  0.41520000  0.08550000  0.08930000  1.0 0.6394452307
C  C84  1  0.58480000  0.91450000  0.91070000  1.0 0.6394452307
C  C85  1  0.34320000  0.43880000  0.46460000  1.0 0.3179622594
C  C86  1  0.65680000  0.56120000  0.53540000  1.0 0.3179622594
C  C87  1  0.16780000  0.94230000  0.12710000  1.0 0.4942565265
C  C88  1  0.83220000  0.05770000  0.87290000  1.0 0.4942565265
C  C89  1  0.15530000  0.11990000  0.03110000  1.0 0.3179622594
C  C90  1  0.84470000  0.88010000  0.96890000  1.0 0.3179622594
C  C91  1  0.97890000  0.98940000  0.10810000  1.0 -0.338930465
C  C92  1  0.02110000  0.01060000  0.89190000  1.0 -0.338930465
C  C93  1  0.48200000  0.34060000  0.41970000  1.0 -0.338930465
C  C94  1  0.51800000  0.65940000  0.58030000  1.0 -0.338930465
C  C95  1  0.52420000  0.47520000  0.41480000  1.0 -0.3313319904
C  C96  1  0.47580000  0.52480000  0.58520000  1.0 -0.3313319904
C  C97  1  0.03490000  0.97990000  0.21440000  1.0 -0.3313319904
C  C98  1  0.96510000  0.02010000  0.78560000  1.0 -0.3313319904
C  C99  1  0.01300000  0.21070000  0.07410000  1.0 -0.3313319904
C  C100  1  0.98700000  0.78930000  0.92590000  1.0 -0.3313319904
C  C101  1  0.00500000  0.17800000  0.97020000  1.0 -0.3313319904
C  C102  1  0.99500000  0.82200000  0.02980000  1.0 -0.3313319904
S  S1  1  0.28000000  0.68940000  0.77559000  1.0 0.9923933002
S  S2  1  0.72000000  0.31060000  0.22441000  1.0 0.9923933002
S  S3  1  0.17930000  0.19360000  0.77600000  1.0 0.9841490242
S  S4  1  0.82070000  0.80640000  0.22400000  1.0 0.9841490242
S  S5  1  0.12630000  0.20480000  0.26520000  1.0 0.973857269
S  S6  1  0.87370000  0.79520000  0.73480000  1.0 0.973857269
N  N1  1  0.06660000  0.96700000  0.15080000  1.0 -0.0020927093
N  N2  1  0.93340000  0.03300000  0.84920000  1.0 -0.0020927093
N  N3  1  0.44470000  0.41980000  0.43770000  1.0 0.0348228703
N  N4  1  0.55530000  0.58020000  0.56230000  1.0 0.0348228703
N  N5  1  0.06410000  0.16950000  0.02500000  1.0 0.0374892683
N  N6  1  0.93590000  0.83050000  0.97500000  1.0 0.0374892683
O  O1  1  0.28710000  0.98530000  0.90400000  1.0 -0.6221349981
O  O2  1  0.71290000  0.01470000  0.09600000  1.0 -0.6221349981
O  O3  1  0.27690000  0.86670000  0.95900000  1.0 -0.6331708577
O  O4  1  0.72310000  0.13330000  0.04100000  1.0 -0.6331708577
O  O5  1  0.15880000  0.69610000  0.50510000  1.0 -0.5785806723
O  O6  1  0.84120000  0.30390000  0.49490000  1.0 -0.5785806723
O  O7  1  0.20690000  0.59000000  0.56990000  1.0 -0.6001898594
O  O8  1  0.79310000  0.41000000  0.43010000  1.0 -0.6001898594
O  O9  1  0.20040000  0.64430000  0.81500000  1.0 -0.4946883169
O  O10  1  0.79960000  0.35570000  0.18500000  1.0 -0.4946883169
O  O11  1  0.39420000  0.65540000  0.77240000  1.0 -0.5324550119
O  O12  1  0.60580000  0.34460000  0.22760000  1.0 -0.5324550119
O  O13  1  0.44960000  0.06740000  0.94940000  1.0 -0.7232279924
O  O14  1  0.55040000  0.93260000  0.05060000  1.0 -0.7232279924
O  O15  1  0.58810000  0.13610000  0.92680000  1.0 -0.6001898594
O  O16  1  0.41190000  0.86390000  0.07320000  1.0 -0.6001898594
O  O17  1  0.09670000  0.45500000  0.54340000  1.0 -0.7306959775
O  O18  1  0.90330000  0.54500000  0.45660000  1.0 -0.7306959775
O  O19  1  0.99840000  0.35770000  0.58110000  1.0 -0.5785806723
O  O20  1  0.00160000  0.64230000  0.41890000  1.0 -0.5785806723
O  O21  1  0.20010000  0.12530000  0.74950000  1.0 -0.4820419547
O  O22  1  0.79990000  0.87470000  0.25050000  1.0 -0.4820419547
O  O23  1  0.07910000  0.20390000  0.81890000  1.0 -0.5010243651
O  O24  1  0.92090000  0.79610000  0.18110000  1.0 -0.5010243651
O  O25  1  0.01940000  0.39500000  0.44200000  1.0 -0.6001898594
O  O26  1  0.98060000  0.60500000  0.55800000  1.0 -0.6001898594
O  O27  1  0.13210000  0.48630000  0.41030000  1.0 -0.6402819899
O  O28  1  0.86790000  0.51370000  0.58970000  1.0 -0.6402819899
O  O29  1  0.35120000  0.03890000  0.08470000  1.0 -0.6721618321
O  O30  1  0.64880000  0.96110000  0.91530000  1.0 -0.6721618321
O  O31  1  0.12080000  0.13690000  0.31100000  1.0 -0.5054136065
O  O32  1  0.87920000  0.86310000  0.68900000  1.0 -0.5054136065
O  O33  1  0.03370000  0.23250000  0.23220000  1.0 -0.5054136065
O  O34  1  0.96630000  0.76750000  0.76780000  1.0 -0.5054136065
O  O35  1  0.50940000  0.09220000  0.05900000  1.0 -0.6494952586
O  O36  1  0.49060000  0.90780000  0.94100000  1.0 -0.6494952586
O  O37  1  0.19360000  0.93590000  0.07230000  1.0 -0.5785806723
O  O38  1  0.80640000  0.06410000  0.92770000  1.0 -0.5785806723
O  O39  1  0.20520000  0.08120000  0.99290000  1.0 -0.4820419547
O  O40  1  0.79480000  0.91880000  0.00710000  1.0 -0.4820419547
O  O41  1  0.30920000  0.50140000  0.47620000  1.0 -0.4546522048
O  O42  1  0.69080000  0.49860000  0.52380000  1.0 -0.4546522048
O  O43  1  0.23480000  0.63370000  0.39120000  1.0 -0.3783586172
O  O44  1  0.76520000  0.36630000  0.60880000  1.0 -0.3783586172
