# DDEC6 charges by PACMAN v1.1 (https://github.com/mtap-research/PACMAN-charge/)
data_YUWHOO_ASR_pacman
_symmetry_space_group_name_H-M   'P 1'
_cell_length_a   12.19450000
_cell_length_b   12.19450000
_cell_length_c   12.16900000
_cell_angle_alpha   119.48200000
_cell_angle_beta   119.48200000
_cell_angle_gamma   52.67820000
_symmetry_Int_Tables_number   1
_chemical_formula_structural   Ga2H22(C3N2)7
_chemical_formula_sum   'Ga4 H44 C42 N28'
_cell_volume   1202.65578346
_cell_formula_units_Z   2
loop_
 _symmetry_equiv_pos_site_id
 _symmetry_equiv_pos_as_xyz
  1  'x, y, z'
loop_
 _atom_site_type_symbol
 _atom_site_label
 _atom_site_symmetry_multiplicity
 _atom_site_fract_x
 _atom_site_fract_y
 _atom_site_fract_z
 _atom_site_occupancy
 _atom_site_charge
Ga  Ga1  1  0.50000000  0.00000000  0.00000000  1.0 0.9323313372
Ga  Ga2  1  0.00000000  0.50000000  0.50000000  1.0 0.9323313372
Ga  Ga3  1  0.50000000  0.50000000  0.00000000  1.0 0.9476421313
Ga  Ga4  1  0.50000000  0.50000000  0.50000000  1.0 0.9476421313
H  H1  1  0.49600000  0.28600000  0.08100000  1.0 0.0914878472
H  H2  1  0.52500000  0.01300000  0.75000000  1.0 0.112124124
H  H3  1  0.55300000  0.19100000  0.76000000  1.0 0.1182338925
H  H4  1  0.60400000  0.72800000  0.75600000  1.0 0.0914878472
H  H5  1  0.20900000  0.99700000  0.77200000  1.0 0.112124124
H  H6  1  0.20500000  0.79100000  0.56700000  1.0 0.112124124
H  H7  1  0.24800000  0.30600000  0.94600000  1.0 0.0914878472
H  H8  1  0.22100000  0.07500000  0.05100000  1.0 0.112124124
H  H9  1  0.98600000  0.30600000  0.03900000  1.0 0.112124124
H  H10  1  0.23500000  0.74900000  0.13600000  1.0 0.112124124
H  H11  1  0.46472000  0.00699000  0.46903000  1.0 0.2239388065
H  H12  1  0.71400000  0.50400000  0.41900000  1.0 0.0914878472
H  H13  1  0.98700000  0.47500000  0.75000000  1.0 0.112124124
H  H14  1  0.80900000  0.44700000  0.74000000  1.0 0.1182338925
H  H15  1  0.27200000  0.39600000  0.74400000  1.0 0.0914878472
H  H16  1  0.00300000  0.79100000  0.72800000  1.0 0.112124124
H  H17  1  0.20900000  0.79500000  0.93300000  1.0 0.112124124
H  H18  1  0.69400000  0.75200000  0.55400000  1.0 0.0914878472
H  H19  1  0.92500000  0.77900000  0.44900000  1.0 0.112124124
H  H20  1  0.69400000  0.01400000  0.46100000  1.0 0.112124124
H  H21  1  0.25100000  0.76500000  0.36400000  1.0 0.112124124
H  H22  1  0.99301000  0.53528000  0.03097000  1.0 0.2239388065
H  H23  1  0.50400000  0.71400000  0.91900000  1.0 0.0914878472
H  H24  1  0.47500000  0.98700000  0.25000000  1.0 0.112124124
H  H25  1  0.44700000  0.80900000  0.24000000  1.0 0.112124124
H  H26  1  0.39600000  0.27200000  0.24400000  1.0 0.0914878472
H  H27  1  0.79100000  0.00300000  0.22800000  1.0 0.112124124
H  H28  1  0.79500000  0.20900000  0.43300000  1.0 0.112124124
H  H29  1  0.75200000  0.69400000  0.05400000  1.0 0.103826
H  H30  1  0.77900000  0.92500000  0.94900000  1.0 0.1182338925
H  H31  1  0.01400000  0.69400000  0.96100000  1.0 0.12740445
H  H32  1  0.76500000  0.25100000  0.86400000  1.0 0.112124124
H  H33  1  0.28600000  0.49600000  0.58100000  1.0 0.0914878472
H  H34  1  0.01300000  0.52500000  0.25000000  1.0 0.112124124
H  H35  1  0.19100000  0.55300000  0.26000000  1.0 0.112124124
H  H36  1  0.72800000  0.60400000  0.25600000  1.0 0.0914878472
H  H37  1  0.99700000  0.20900000  0.27200000  1.0 0.112124124
H  H38  1  0.79100000  0.20500000  0.06700000  1.0 0.112124124
H  H39  1  0.30600000  0.24800000  0.44600000  1.0 0.103826
H  H40  1  0.07500000  0.22100000  0.55100000  1.0 0.1182338925
H  H41  1  0.30600000  0.98600000  0.53900000  1.0 0.12740445
H  H42  1  0.74900000  0.23500000  0.63600000  1.0 0.112124124
H  H43  1  0.58100000  0.41900000  0.25000000  1.0 0.0914878472
H  H44  1  0.41900000  0.58100000  0.75000000  1.0 0.0914878472
C  C1  1  0.50466000  0.24526000  0.99980000  1.0 0.1182338925
C  C2  1  0.52858000  0.19538000  0.81500000  1.0 -0.0611210623
C  C3  1  0.52441000  0.08561000  0.81460000  1.0 -0.0438828333
C  C4  1  0.50115000  0.76875000  0.72950000  1.0 0.112124124
C  C5  1  0.28351000  0.80591000  0.63160000  1.0 -0.0611210623
C  C6  1  0.28410000  0.91710000  0.74260000  1.0 -0.0611210623
C  C7  1  0.21312000  0.28112000  0.97640000  1.0 0.1182338925
C  C8  1  0.06818000  0.27678000  0.02440000  1.0 -0.0611210623
C  C9  1  0.19504000  0.15304000  0.03310000  1.0 -0.0611210623
C  C10  1  0.30621000  0.68621000  0.19080000  1.0 -0.0611210623
C  C11  1  0.75474000  0.49534000  0.50020000  1.0 0.1182338925
C  C12  1  0.80462000  0.47142000  0.68500000  1.0 -0.0611210623
C  C13  1  0.91439000  0.47559000  0.68540000  1.0 -0.0438828333
C  C14  1  0.23125000  0.49885000  0.77050000  1.0 0.112124124
C  C15  1  0.19409000  0.71649000  0.86840000  1.0 -0.0611210623
C  C16  1  0.08290000  0.71590000  0.75740000  1.0 -0.0611210623
C  C17  1  0.71888000  0.78688000  0.52360000  1.0 0.1182338925
C  C18  1  0.72322000  0.93182000  0.47560000  1.0 -0.0611210623
C  C19  1  0.84696000  0.80496000  0.46690000  1.0 -0.0611210623
C  C20  1  0.31379000  0.69379000  0.30920000  1.0 -0.0611210623
C  C21  1  0.49534000  0.75474000  0.00020000  1.0 0.1182338925
C  C22  1  0.47142000  0.80462000  0.18500000  1.0 -0.0611210623
C  C23  1  0.47559000  0.91439000  0.18540000  1.0 -0.0511144562
C  C24  1  0.49885000  0.23125000  0.27050000  1.0 0.112124124
C  C25  1  0.71649000  0.19409000  0.36840000  1.0 -0.0611210623
C  C26  1  0.71590000  0.08290000  0.25740000  1.0 -0.0611210623
C  C27  1  0.78688000  0.71888000  0.02360000  1.0 0.1367386566
C  C28  1  0.93182000  0.72322000  0.97560000  1.0 -0.0511144562
C  C29  1  0.80496000  0.84696000  0.96690000  1.0 -0.0438828333
C  C30  1  0.69379000  0.31379000  0.80920000  1.0 -0.0511144562
C  C31  1  0.24526000  0.50466000  0.49980000  1.0 0.1182338925
C  C32  1  0.19538000  0.52858000  0.31500000  1.0 -0.0611210623
C  C33  1  0.08561000  0.52441000  0.31460000  1.0 -0.0511144562
C  C34  1  0.76875000  0.50115000  0.22950000  1.0 0.112124124
C  C35  1  0.80591000  0.28351000  0.13160000  1.0 -0.0611210623
C  C36  1  0.91710000  0.28410000  0.24260000  1.0 -0.0611210623
C  C37  1  0.28112000  0.21312000  0.47640000  1.0 0.1367386566
C  C38  1  0.27678000  0.06818000  0.52440000  1.0 -0.0511144562
C  C39  1  0.15304000  0.19504000  0.53310000  1.0 -0.0438828333
C  C40  1  0.68621000  0.30621000  0.69080000  1.0 -0.0511144562
C  C41  1  0.49770000  0.50230000  0.25000000  1.0 0.112124124
C  C42  1  0.50230000  0.49770000  0.75000000  1.0 0.112124124
N  N1  1  0.50998000  0.11678000  0.93220000  1.0 -0.3295726138
N  N2  1  0.51427000  0.29927000  0.93430000  1.0 -0.3224421902
N  N3  1  0.42396000  0.89276000  0.80660000  1.0 -0.3295726138
N  N4  1  0.42265000  0.70965000  0.62290000  1.0 -0.3295726138
N  N5  1  0.28852000  0.15532000  0.00290000  1.0 -0.3295726138
N  N6  1  0.08030000  0.35790000  0.98820000  1.0 -0.2936013355
N  N7  1  0.42529000  0.56429000  0.15280000  1.0 -0.3295726138
N  N8  1  0.88322000  0.49002000  0.56780000  1.0 -0.3295726138
N  N9  1  0.70073000  0.48573000  0.56570000  1.0 -0.3224421902
N  N10  1  0.10724000  0.57604000  0.69340000  1.0 -0.3295726138
N  N11  1  0.29035000  0.57735000  0.87710000  1.0 -0.3295726138
N  N12  1  0.84468000  0.71148000  0.49710000  1.0 -0.3295726138
N  N13  1  0.64210000  0.91970000  0.51180000  1.0 -0.2936013355
N  N14  1  0.43571000  0.57471000  0.34720000  1.0 -0.3295726138
N  N15  1  0.49002000  0.88322000  0.06780000  1.0 -0.3224421902
N  N16  1  0.48573000  0.70073000  0.06570000  1.0 -0.3224421902
N  N17  1  0.57604000  0.10724000  0.19340000  1.0 -0.3295726138
N  N18  1  0.57735000  0.29035000  0.37710000  1.0 -0.3295726138
N  N19  1  0.71148000  0.84468000  0.99710000  1.0 -0.3224421902
N  N20  1  0.91970000  0.64210000  0.01180000  1.0 -0.170566061
N  N21  1  0.57471000  0.43571000  0.84720000  1.0 -0.3295726138
N  N22  1  0.11678000  0.50998000  0.43220000  1.0 -0.3224421902
N  N23  1  0.29927000  0.51427000  0.43430000  1.0 -0.3224421902
N  N24  1  0.89276000  0.42396000  0.30660000  1.0 -0.3295726138
N  N25  1  0.70965000  0.42265000  0.12290000  1.0 -0.3295726138
N  N26  1  0.15532000  0.28852000  0.50290000  1.0 -0.3224421902
N  N27  1  0.35790000  0.08030000  0.48820000  1.0 -0.170566061
N  N28  1  0.56429000  0.42529000  0.65280000  1.0 -0.3295726138
