# DDEC6 charges by PACMAN v1.1 (https://github.com/mtap-research/PACMAN-charge/)
data_YUYLOV_ion_pacman
_symmetry_space_group_name_H-M   'P 1'
_cell_length_a   14.39970000
_cell_length_b   23.36200000
_cell_length_c   15.54300000
_cell_angle_alpha   90.00000000
_cell_angle_beta   106.30900000
_cell_angle_gamma   90.00000000
_symmetry_Int_Tables_number   1
_chemical_formula_structural   Cd3Cu2H64C88(N3O13)2
_chemical_formula_sum   'Cd6 Cu4 H128 C176 N12 O52'
_cell_volume   5018.35634433
_cell_formula_units_Z   2
loop_
 _symmetry_equiv_pos_site_id
 _symmetry_equiv_pos_as_xyz
  1  'x, y, z'
loop_
 _atom_site_type_symbol
 _atom_site_label
 _atom_site_symmetry_multiplicity
 _atom_site_fract_x
 _atom_site_fract_y
 _atom_site_fract_z
 _atom_site_occupancy
 _atom_site_charge
Cd  Cd1  1  0.50000000  0.00000000  0.00000000  1.0 1.0921672202
Cd  Cd2  1  0.50000000  0.50000000  0.50000000  1.0 1.0921672202
Cd  Cd3  1  0.74111000  0.94093000  0.07550000  1.0 0.9850656606
Cd  Cd4  1  0.25889000  0.44093000  0.42450000  1.0 0.9850656606
Cd  Cd5  1  0.25889000  0.05907000  0.92450000  1.0 0.9850656606
Cd  Cd6  1  0.74111000  0.55907000  0.57550000  1.0 0.9850656606
Cu  Cu1  1  0.77520000  0.80644000  0.19636000  1.0 0.9338216997
Cu  Cu2  1  0.22480000  0.30644000  0.30364000  1.0 0.9338216997
Cu  Cu3  1  0.22480000  0.19356000  0.80364000  1.0 0.9338216997
Cu  Cu4  1  0.77520000  0.69356000  0.69636000  1.0 0.937666855
H  H1  1  0.52490000  0.05820000  0.37390000  1.0 0.1293806791
H  H2  1  0.47510000  0.55820000  0.12610000  1.0 0.1293806791
H  H3  1  0.47510000  0.94180000  0.62610000  1.0 0.1293806791
H  H4  1  0.52490000  0.44180000  0.87390000  1.0 0.1293806791
H  H5  1  0.40580000  0.11870000  0.30800000  1.0 0.1293806791
H  H6  1  0.59420000  0.61870000  0.19200000  1.0 0.1293806791
H  H7  1  0.59420000  0.88130000  0.69200000  1.0 0.1293806791
H  H8  1  0.40580000  0.38130000  0.80800000  1.0 0.1293806791
H  H9  1  0.49290000  0.22170000  0.50970000  1.0 0.1293806791
H  H10  1  0.50710000  0.72170000  0.99030000  1.0 0.1293806791
H  H11  1  0.50710000  0.77830000  0.49030000  1.0 0.1293806791
H  H12  1  0.49290000  0.27830000  0.00970000  1.0 0.1293806791
H  H13  1  0.62160000  0.16100000  0.58140000  1.0 0.1293806791
H  H14  1  0.37840000  0.66100000  0.91860000  1.0 0.1293806791
H  H15  1  0.37840000  0.83900000  0.41860000  1.0 0.1293806791
H  H16  1  0.62160000  0.33900000  0.08140000  1.0 0.1293806791
H  H17  1  0.53000000  0.07540000  0.62560000  1.0 0.1215275084
H  H18  1  0.47000000  0.57540000  0.87440000  1.0 0.1215275084
H  H19  1  0.47000000  0.92460000  0.37440000  1.0 0.1215275084
H  H20  1  0.53000000  0.42460000  0.12560000  1.0 0.1215275084
H  H21  1  0.53460000  0.04310000  0.76930000  1.0 0.1370886501
H  H22  1  0.46540000  0.54310000  0.73070000  1.0 0.1370886501
H  H23  1  0.46540000  0.95690000  0.23070000  1.0 0.1370886501
H  H24  1  0.53460000  0.45690000  0.26930000  1.0 0.1370886501
H  H25  1  0.78840000  0.97790000  0.79450000  1.0 0.1370886501
H  H26  1  0.21160000  0.47790000  0.70550000  1.0 0.1370886501
H  H27  1  0.21160000  0.02210000  0.20550000  1.0 0.1370886501
H  H28  1  0.78840000  0.52210000  0.29450000  1.0 0.1370886501
H  H29  1  0.78820000  0.01390000  0.65700000  1.0 0.1370886501
H  H30  1  0.21180000  0.51390000  0.84300000  1.0 0.1370886501
H  H31  1  0.21180000  0.98610000  0.34300000  1.0 0.1370886501
H  H32  1  0.78820000  0.48610000  0.15700000  1.0 0.1370886501
H  H33  1  0.75220000  0.07500000  0.42040000  1.0 0.1293806791
H  H34  1  0.24780000  0.57500000  0.07960000  1.0 0.1293806791
H  H35  1  0.24780000  0.92500000  0.57960000  1.0 0.1293806791
H  H36  1  0.75220000  0.42500000  0.92040000  1.0 0.1293806791
H  H37  1  0.79130000  0.00530000  0.32100000  1.0 0.1215275084
H  H38  1  0.20870000  0.50530000  0.17900000  1.0 0.1215275084
H  H39  1  0.20870000  0.99470000  0.67900000  1.0 0.1215275084
H  H40  1  0.79130000  0.49470000  0.82100000  1.0 0.1215275084
H  H41  1  0.69260000  0.88430000  0.44390000  1.0 0.1293806791
H  H42  1  0.30740000  0.38430000  0.05610000  1.0 0.1293806791
H  H43  1  0.30740000  0.11570000  0.55610000  1.0 0.1293806791
H  H44  1  0.69260000  0.61570000  0.94390000  1.0 0.1293806791
H  H45  1  0.64120000  0.94740000  0.52880000  1.0 0.1215275084
H  H46  1  0.35880000  0.44740000  0.97120000  1.0 0.1215275084
H  H47  1  0.35880000  0.05260000  0.47120000  1.0 0.1215275084
H  H48  1  0.64120000  0.55260000  0.02880000  1.0 0.1215275084
H  H49  1  0.27320000  0.81190000  0.04220000  1.0 0.1370886501
H  H50  1  0.72680000  0.31190000  0.45780000  1.0 0.1370886501
H  H51  1  0.72680000  0.18810000  0.95780000  1.0 0.1370886501
H  H52  1  0.27320000  0.68810000  0.54220000  1.0 0.1370886501
H  H53  1  0.39370000  0.85520000  0.00130000  1.0 0.1293806791
H  H54  1  0.60630000  0.35520000  0.49870000  1.0 0.1293806791
H  H55  1  0.60630000  0.14480000  0.99870000  1.0 0.1293806791
H  H56  1  0.39370000  0.64480000  0.50130000  1.0 0.1293806791
H  H57  1  0.57820000  0.82930000  0.23900000  1.0 0.1370886501
H  H58  1  0.42180000  0.32930000  0.26100000  1.0 0.1370886501
H  H59  1  0.42180000  0.17070000  0.76100000  1.0 0.1370886501
H  H60  1  0.57820000  0.67070000  0.73900000  1.0 0.1370886501
H  H61  1  0.45970000  0.78470000  0.28700000  1.0 0.1370886501
H  H62  1  0.54030000  0.28470000  0.21300000  1.0 0.1370886501
H  H63  1  0.54030000  0.21530000  0.71300000  1.0 0.1370886501
H  H64  1  0.45970000  0.71530000  0.78700000  1.0 0.1370886501
H  H65  1  0.40510000  0.68250000  0.20750000  1.0 0.1293806791
H  H66  1  0.59490000  0.18250000  0.29250000  1.0 0.1293806791
H  H67  1  0.59490000  0.31750000  0.79250000  1.0 0.1293806791
H  H68  1  0.40510000  0.81750000  0.70750000  1.0 0.1293806791
H  H69  1  0.41140000  0.59650000  0.27290000  1.0 0.1370886501
H  H70  1  0.58860000  0.09650000  0.22710000  1.0 0.1370886501
H  H71  1  0.58860000  0.40350000  0.72710000  1.0 0.1370886501
H  H72  1  0.41140000  0.90350000  0.77290000  1.0 0.1370886501
H  H73  1  0.18820000  0.63270000  0.35990000  1.0 0.1293806791
H  H74  1  0.81180000  0.13270000  0.14010000  1.0 0.1293806791
H  H75  1  0.81180000  0.36730000  0.64010000  1.0 0.1293806791
H  H76  1  0.18820000  0.86730000  0.85990000  1.0 0.1293806791
H  H77  1  0.18040000  0.72620000  0.30550000  1.0 0.1370886501
H  H78  1  0.81960000  0.22620000  0.19450000  1.0 0.1370886501
H  H79  1  0.81960000  0.27380000  0.69450000  1.0 0.1370886501
H  H80  1  0.18040000  0.77380000  0.80550000  1.0 0.1370886501
H  H81  1  0.10780000  0.72450000  0.12710000  1.0 0.1370886501
H  H82  1  0.89220000  0.22450000  0.37290000  1.0 0.1370886501
H  H83  1  0.89220000  0.27550000  0.87290000  1.0 0.1370886501
H  H84  1  0.10780000  0.77550000  0.62710000  1.0 0.1370886501
H  H85  1  0.95920000  0.76790000  0.09470000  1.0 0.1215275084
H  H86  1  0.04080000  0.26790000  0.40530000  1.0 0.1215275084
H  H87  1  0.04080000  0.23210000  0.90530000  1.0 0.1215275084
H  H88  1  0.95920000  0.73210000  0.59470000  1.0 0.1215275084
H  H89  1  0.08630000  0.91810000  0.17070000  1.0 0.1215275084
H  H90  1  0.91370000  0.41810000  0.32930000  1.0 0.1215275084
H  H91  1  0.91370000  0.08190000  0.82930000  1.0 0.1215275084
H  H92  1  0.08630000  0.58190000  0.67070000  1.0 0.1215275084
H  H93  1  0.23500000  0.87150000  0.22300000  1.0 0.1215275084
H  H94  1  0.76500000  0.37150000  0.27700000  1.0 0.1215275084
H  H95  1  0.76500000  0.12850000  0.77700000  1.0 0.1215275084
H  H96  1  0.23500000  0.62850000  0.72300000  1.0 0.1215275084
H  H97  1  0.86360000  0.77410000  0.82060000  1.0 0.2877730645
H  H98  1  0.88020000  0.84000000  0.81370000  1.0 0.1016415275
H  H99  1  0.78410000  0.81190000  0.75570000  1.0 0.1759481459
H  H100  1  0.81000000  0.85960000  0.90060000  1.0 0.2630805887
H  H101  1  0.72950000  0.83040000  0.84350000  1.0 0.2516058377
H  H102  1  0.70090000  0.77110000  0.94230000  1.0 0.1293806791
H  H103  1  0.79330000  0.79370000  0.01410000  1.0 0.1590353528
H  H104  1  0.80200000  0.74320000  0.95030000  1.0 0.1370886501
H  H105  1  0.13640000  0.27410000  0.67940000  1.0 0.2877730645
H  H106  1  0.11980000  0.34000000  0.68630000  1.0 0.1016415275
H  H107  1  0.21590000  0.31190000  0.74430000  1.0 0.1759481459
H  H108  1  0.19000000  0.35960000  0.59940000  1.0 0.2630805887
H  H109  1  0.27050000  0.33040000  0.65650000  1.0 0.2516058377
H  H110  1  0.29910000  0.27110000  0.55770000  1.0 0.1293806791
H  H111  1  0.20670000  0.29370000  0.48590000  1.0 0.1590353528
H  H112  1  0.19800000  0.24320000  0.54970000  1.0 0.1370886501
H  H113  1  0.13640000  0.22590000  0.17940000  1.0 0.2877730645
H  H114  1  0.11980000  0.16000000  0.18630000  1.0 0.1016415275
H  H115  1  0.21590000  0.18810000  0.24430000  1.0 0.1759481459
H  H116  1  0.19000000  0.14040000  0.09940000  1.0 0.2630805887
H  H117  1  0.27050000  0.16960000  0.15650000  1.0 0.2516058377
H  H118  1  0.29910000  0.22890000  0.05770000  1.0 0.1293806791
H  H119  1  0.20670000  0.20630000  0.98590000  1.0 0.1590353528
H  H120  1  0.19800000  0.25680000  0.04970000  1.0 0.1370886501
H  H121  1  0.86360000  0.72590000  0.32060000  1.0 0.2877730645
H  H122  1  0.88020000  0.66000000  0.31370000  1.0 0.1016415275
H  H123  1  0.78410000  0.68810000  0.25570000  1.0 0.1759481459
H  H124  1  0.81000000  0.64040000  0.40060000  1.0 0.2630805887
H  H125  1  0.72950000  0.66960000  0.34350000  1.0 0.2516058377
H  H126  1  0.70090000  0.72890000  0.44230000  1.0 0.1293806791
H  H127  1  0.79330000  0.70630000  0.51410000  1.0 0.1590353528
H  H128  1  0.80200000  0.75680000  0.45030000  1.0 0.1370886501
C  C1  1  0.58210000  0.10030000  0.48460000  1.0 0.1692031986
C  C2  1  0.41790000  0.60030000  0.01540000  1.0 0.1692031986
C  C3  1  0.41790000  0.89970000  0.51540000  1.0 0.1692031986
C  C4  1  0.58210000  0.39970000  0.98460000  1.0 0.1692031986
C  C5  1  0.51890000  0.09170000  0.40420000  1.0 -0.178109254
C  C6  1  0.48110000  0.59170000  0.09580000  1.0 -0.178109254
C  C7  1  0.48110000  0.90830000  0.59580000  1.0 -0.178109254
C  C8  1  0.51890000  0.40830000  0.90420000  1.0 -0.178109254
C  C9  1  0.44700000  0.12810000  0.36380000  1.0 -0.1003171101
C  C10  1  0.55300000  0.62810000  0.13620000  1.0 -0.1003171101
C  C11  1  0.55300000  0.87190000  0.63620000  1.0 -0.1003171101
C  C12  1  0.44700000  0.37190000  0.86380000  1.0 -0.1003171101
C  C13  1  0.43390000  0.17770000  0.40290000  1.0 -0.0068980594
C  C14  1  0.56610000  0.67770000  0.09710000  1.0 -0.0068980594
C  C15  1  0.56610000  0.82230000  0.59710000  1.0 -0.0068980594
C  C16  1  0.43390000  0.32230000  0.90290000  1.0 -0.0068980594
C  C17  1  0.49900000  0.18740000  0.48140000  1.0 -0.1307629727
C  C18  1  0.50100000  0.68740000  0.01860000  1.0 -0.1307629727
C  C19  1  0.50100000  0.81260000  0.51860000  1.0 -0.1307629727
C  C20  1  0.49900000  0.31260000  0.98140000  1.0 -0.1307629727
C  C21  1  0.57750000  0.15100000  0.52720000  1.0 -0.178109254
C  C22  1  0.42250000  0.65100000  0.97280000  1.0 -0.178109254
C  C23  1  0.42250000  0.84900000  0.47280000  1.0 -0.178109254
C  C24  1  0.57750000  0.34900000  0.02720000  1.0 -0.178109254
C  C25  1  0.35440000  0.22360000  0.37560000  1.0 0.5195549048
C  C26  1  0.64560000  0.72360000  0.12440000  1.0 0.5195549048
C  C27  1  0.64560000  0.77640000  0.62440000  1.0 0.5195549048
C  C28  1  0.35440000  0.27640000  0.87560000  1.0 0.5195549048
C  C29  1  0.65530000  0.04260000  0.62580000  1.0 0.1590353528
C  C30  1  0.34470000  0.54260000  0.87420000  1.0 0.1590353528
C  C31  1  0.34470000  0.95740000  0.37420000  1.0 0.1590353528
C  C32  1  0.65530000  0.45740000  0.12580000  1.0 0.1590353528
C  C33  1  0.58300000  0.05480000  0.65930000  1.0 -0.1893319467
C  C34  1  0.41700000  0.55480000  0.84070000  1.0 -0.1893319467
C  C35  1  0.41700000  0.94520000  0.34070000  1.0 -0.1893319467
C  C36  1  0.58300000  0.44520000  0.15930000  1.0 -0.1893319467
C  C37  1  0.58680000  0.03640000  0.74650000  1.0 -0.0900318388
C  C38  1  0.41320000  0.53640000  0.75350000  1.0 -0.0900318388
C  C39  1  0.41320000  0.96360000  0.25350000  1.0 -0.0900318388
C  C40  1  0.58680000  0.46360000  0.24650000  1.0 -0.0900318388
C  C41  1  0.66290000  0.01010000  0.79510000  1.0 -0.0221404032
C  C42  1  0.33710000  0.51010000  0.70490000  1.0 -0.0221404032
C  C43  1  0.33710000  0.98990000  0.20490000  1.0 -0.0221404032
C  C44  1  0.66290000  0.48990000  0.29510000  1.0 -0.0221404032
C  C45  1  0.73570000  0.99890000  0.76120000  1.0 -0.1003171101
C  C46  1  0.26430000  0.49890000  0.73880000  1.0 -0.1003171101
C  C47  1  0.26430000  0.00110000  0.23880000  1.0 -0.1003171101
C  C48  1  0.73570000  0.50110000  0.26120000  1.0 -0.1003171101
C  C49  1  0.73380000  0.01810000  0.67750000  1.0 -0.178109254
C  C50  1  0.26620000  0.51810000  0.82250000  1.0 -0.178109254
C  C51  1  0.26620000  0.98190000  0.32250000  1.0 -0.178109254
C  C52  1  0.73380000  0.48190000  0.17750000  1.0 -0.178109254
C  C53  1  0.66480000  0.99180000  0.88970000  1.0 0.6056811876
C  C54  1  0.33520000  0.49180000  0.61030000  1.0 0.6056811876
C  C55  1  0.33520000  0.00820000  0.11030000  1.0 0.6056811876
C  C56  1  0.66480000  0.50820000  0.38970000  1.0 0.6056811876
C  C57  1  0.68600000  0.01620000  0.48320000  1.0 0.1692031986
C  C58  1  0.31400000  0.51620000  0.01680000  1.0 0.1692031986
C  C59  1  0.31400000  0.98380000  0.51680000  1.0 0.1692031986
C  C60  1  0.68600000  0.48380000  0.98320000  1.0 0.1692031986
C  C61  1  0.73690000  0.03650000  0.42320000  1.0 -0.1893319467
C  C62  1  0.26310000  0.53650000  0.07680000  1.0 -0.1893319467
C  C63  1  0.26310000  0.96350000  0.57680000  1.0 -0.1893319467
C  C64  1  0.73690000  0.46350000  0.92320000  1.0 -0.1893319467
C  C65  1  0.76420000  0.99340000  0.36570000  1.0 -0.071008657
C  C66  1  0.23580000  0.49340000  0.13430000  1.0 -0.071008657
C  C67  1  0.23580000  0.00660000  0.63430000  1.0 -0.071008657
C  C68  1  0.76420000  0.50660000  0.86570000  1.0 -0.071008657
C  C69  1  0.75030000  0.93560000  0.37690000  1.0 -0.071008657
C  C70  1  0.24970000  0.43560000  0.12310000  1.0 -0.071008657
C  C71  1  0.24970000  0.06440000  0.62310000  1.0 -0.071008657
C  C72  1  0.75030000  0.56440000  0.87690000  1.0 -0.071008657
C  C73  1  0.70460000  0.92290000  0.43650000  1.0 -0.071008657
C  C74  1  0.29540000  0.42290000  0.06350000  1.0 -0.071008657
C  C75  1  0.29540000  0.07710000  0.56350000  1.0 -0.071008657
C  C76  1  0.70460000  0.57710000  0.93650000  1.0 -0.071008657
C  C77  1  0.67300000  0.96100000  0.48840000  1.0 -0.1700143412
C  C78  1  0.32700000  0.46100000  0.01160000  1.0 -0.1700143412
C  C79  1  0.32700000  0.03900000  0.51160000  1.0 -0.1700143412
C  C80  1  0.67300000  0.53900000  0.98840000  1.0 -0.1700143412
C  C81  1  0.78190000  0.89780000  0.32000000  1.0 0.5623828835
C  C82  1  0.21810000  0.39780000  0.18000000  1.0 0.5623828835
C  C83  1  0.21810000  0.10220000  0.68000000  1.0 0.5623828835
C  C84  1  0.78190000  0.60220000  0.82000000  1.0 0.5623828835
C  C85  1  0.35560000  0.79110000  0.16930000  1.0 0.1921337611
C  C86  1  0.64440000  0.29110000  0.33070000  1.0 0.1921337611
C  C87  1  0.64440000  0.20890000  0.83070000  1.0 0.1921337611
C  C88  1  0.35560000  0.70890000  0.66930000  1.0 0.1921337611
C  C89  1  0.33470000  0.81460000  0.08210000  1.0 -0.1700143412
C  C90  1  0.66530000  0.31460000  0.41790000  1.0 -0.1700143412
C  C91  1  0.66530000  0.18540000  0.91790000  1.0 -0.1700143412
C  C92  1  0.33470000  0.68540000  0.58210000  1.0 -0.1700143412
C  C93  1  0.40630000  0.84070000  0.05910000  1.0 -0.0784494941
C  C94  1  0.59370000  0.34070000  0.44090000  1.0 -0.0784494941
C  C95  1  0.59370000  0.15930000  0.94090000  1.0 -0.0784494941
C  C96  1  0.40630000  0.65930000  0.55910000  1.0 -0.0784494941
C  C97  1  0.49650000  0.84720000  0.11520000  1.0 -0.0221404032
C  C98  1  0.50350000  0.34720000  0.38480000  1.0 -0.0221404032
C  C99  1  0.50350000  0.15280000  0.88480000  1.0 -0.0221404032
C  C100  1  0.49650000  0.65280000  0.61520000  1.0 -0.0221404032
C  C101  1  0.51630000  0.82550000  0.20010000  1.0 -0.0784494941
C  C102  1  0.48370000  0.32550000  0.29990000  1.0 -0.0784494941
C  C103  1  0.48370000  0.17450000  0.79990000  1.0 -0.0784494941
C  C104  1  0.51630000  0.67450000  0.70010000  1.0 -0.0784494941
C  C105  1  0.44640000  0.79830000  0.22850000  1.0 -0.178109254
C  C106  1  0.55360000  0.29830000  0.27150000  1.0 -0.178109254
C  C107  1  0.55360000  0.20170000  0.77150000  1.0 -0.178109254
C  C108  1  0.44640000  0.70170000  0.72850000  1.0 -0.178109254
C  C109  1  0.57340000  0.87950000  0.08580000  1.0 0.5760238982
C  C110  1  0.42660000  0.37950000  0.41420000  1.0 0.5760238982
C  C111  1  0.42660000  0.12050000  0.91420000  1.0 0.5760238982
C  C112  1  0.57340000  0.62050000  0.58580000  1.0 0.5760238982
C  C113  1  0.29020000  0.71430000  0.24560000  1.0 0.2139035381
C  C114  1  0.70980000  0.21430000  0.25440000  1.0 0.2139035381
C  C115  1  0.70980000  0.28570000  0.75440000  1.0 0.2139035381
C  C116  1  0.29020000  0.78570000  0.74560000  1.0 0.2139035381
C  C117  1  0.36080000  0.67350000  0.23900000  1.0 -0.197884553
C  C118  1  0.63920000  0.17350000  0.26100000  1.0 -0.197884553
C  C119  1  0.63920000  0.32650000  0.76100000  1.0 -0.197884553
C  C120  1  0.36080000  0.82650000  0.73900000  1.0 -0.197884553
C  C121  1  0.36390000  0.62220000  0.27800000  1.0 -0.0595706393
C  C122  1  0.63610000  0.12220000  0.22200000  1.0 -0.0595706393
C  C123  1  0.63610000  0.37780000  0.72200000  1.0 -0.0595706393
C  C124  1  0.36390000  0.87780000  0.77800000  1.0 -0.0595706393
C  C125  1  0.30510000  0.60650000  0.32210000  1.0 -0.0516242765
C  C126  1  0.69490000  0.10650000  0.17790000  1.0 -0.0516242765
C  C127  1  0.69490000  0.39350000  0.67790000  1.0 -0.0516242765
C  C128  1  0.30510000  0.89350000  0.82210000  1.0 -0.0516242765
C  C129  1  0.23260000  0.64470000  0.33040000  1.0 -0.0900318388
C  C130  1  0.76740000  0.14470000  0.16960000  1.0 -0.0900318388
C  C131  1  0.76740000  0.35530000  0.66960000  1.0 -0.0900318388
C  C132  1  0.23260000  0.85530000  0.83040000  1.0 -0.0900318388
C  C133  1  0.22530000  0.70000000  0.29600000  1.0 -0.197884553
C  C134  1  0.77470000  0.20000000  0.20400000  1.0 -0.197884553
C  C135  1  0.77470000  0.30000000  0.70400000  1.0 -0.197884553
C  C136  1  0.22530000  0.80000000  0.79600000  1.0 -0.197884553
C  C137  1  0.30280000  0.54850000  0.36130000  1.0 0.5855648137
C  C138  1  0.69720000  0.04850000  0.13870000  1.0 0.5855648137
C  C139  1  0.69720000  0.45150000  0.63870000  1.0 0.5855648137
C  C140  1  0.30280000  0.95150000  0.86130000  1.0 0.5855648137
C  C141  1  0.18260000  0.79510000  0.17340000  1.0 0.1590353528
C  C142  1  0.81740000  0.29510000  0.32660000  1.0 0.1590353528
C  C143  1  0.81740000  0.20490000  0.82660000  1.0 0.1590353528
C  C144  1  0.18260000  0.70490000  0.67340000  1.0 0.1590353528
C  C145  1  0.10300000  0.76350000  0.13730000  1.0 -0.1700143412
C  C146  1  0.89700000  0.26350000  0.36270000  1.0 -0.1700143412
C  C147  1  0.89700000  0.23650000  0.86270000  1.0 -0.1700143412
C  C148  1  0.10300000  0.73650000  0.63730000  1.0 -0.1700143412
C  C149  1  0.01450000  0.79010000  0.11590000  1.0 -0.0391814261
C  C150  1  0.98550000  0.29010000  0.38410000  1.0 -0.0391814261
C  C151  1  0.98550000  0.20990000  0.88410000  1.0 -0.0391814261
C  C152  1  0.01450000  0.70990000  0.61590000  1.0 -0.0391814261
C  C153  1  0.00400000  0.85020000  0.12480000  1.0 -0.0784494941
C  C154  1  0.99600000  0.35020000  0.37520000  1.0 -0.0784494941
C  C155  1  0.99600000  0.14980000  0.87520000  1.0 -0.0784494941
C  C156  1  0.00400000  0.64980000  0.62480000  1.0 -0.0784494941
C  C157  1  0.08890000  0.87870000  0.16340000  1.0 -0.0595706393
C  C158  1  0.91110000  0.37870000  0.33660000  1.0 -0.0595706393
C  C159  1  0.91110000  0.12130000  0.83660000  1.0 -0.0595706393
C  C160  1  0.08890000  0.62130000  0.66340000  1.0 -0.0595706393
C  C161  1  0.17960000  0.85160000  0.19230000  1.0 -0.178109254
C  C162  1  0.82040000  0.35160000  0.30770000  1.0 -0.178109254
C  C163  1  0.82040000  0.14840000  0.80770000  1.0 -0.178109254
C  C164  1  0.17960000  0.64840000  0.69230000  1.0 -0.178109254
C  C165  1  0.91010000  0.87650000  0.10100000  1.0 0.5623828835
C  C166  1  0.08990000  0.37650000  0.39900000  1.0 0.5623828835
C  C167  1  0.08990000  0.12350000  0.89900000  1.0 0.5623828835
C  C168  1  0.91010000  0.62350000  0.60100000  1.0 0.5623828835
C  C169  1  0.83280000  0.81090000  0.81240000  1.0 -0.2929072761
C  C170  1  0.76900000  0.77830000  0.95470000  1.0 -0.2741826259
C  C171  1  0.16720000  0.31090000  0.68760000  1.0 -0.2929072761
C  C172  1  0.23100000  0.27830000  0.54530000  1.0 -0.2741826259
C  C173  1  0.16720000  0.18910000  0.18760000  1.0 -0.2929072761
C  C174  1  0.23100000  0.22170000  0.04530000  1.0 -0.2741826259
C  C175  1  0.83280000  0.68910000  0.31240000  1.0 -0.2929072761
C  C176  1  0.76900000  0.72170000  0.45470000  1.0 -0.2741826259
N  N1  1  0.64810000  0.05740000  0.53490000  1.0 -0.197884553
N  N2  1  0.35190000  0.55740000  0.96510000  1.0 -0.197884553
N  N3  1  0.35190000  0.94260000  0.46510000  1.0 -0.197884553
N  N4  1  0.64810000  0.44260000  0.03490000  1.0 -0.1893319467
N  N5  1  0.27820000  0.76690000  0.19820000  1.0 -0.1893319467
N  N6  1  0.72180000  0.26690000  0.30180000  1.0 -0.1893319467
N  N7  1  0.72180000  0.23310000  0.80180000  1.0 -0.1893319467
N  N8  1  0.27820000  0.73310000  0.69820000  1.0 -0.1893319467
N  N9  1  0.78650000  0.82140000  0.88660000  1.0 -0.1003171101
N  N10  1  0.21350000  0.32140000  0.61340000  1.0 -0.1003171101
N  N11  1  0.21350000  0.17860000  0.11340000  1.0 -0.1003171101
N  N12  1  0.78650000  0.67860000  0.38660000  1.0 -0.1003171101
O  O1  1  0.31590000  0.21550000  0.28500000  1.0 -0.5815748109
O  O2  1  0.68410000  0.71550000  0.21500000  1.0 -0.5815748109
O  O3  1  0.68410000  0.78450000  0.71500000  1.0 -0.5815748109
O  O4  1  0.31590000  0.28450000  0.78500000  1.0 -0.5815748109
O  O5  1  0.33333333  0.25560000  0.42240000  1.0 -0.4412721851
O  O6  1  0.66666667  0.75560000  0.07760000  1.0 -0.4412721851
O  O7  1  0.66666667  0.74440000  0.57760000  1.0 -0.4412721851
O  O8  1  0.33333333  0.24440000  0.92240000  1.0 -0.4412721851
O  O9  1  0.60420000  0.01450000  0.92260000  1.0 -0.5685363544
O  O10  1  0.39580000  0.51450000  0.57740000  1.0 -0.5685363544
O  O11  1  0.39580000  0.98550000  0.07740000  1.0 -0.5685363544
O  O12  1  0.60420000  0.48550000  0.42260000  1.0 -0.5685363544
O  O13  1  0.72780000  0.95520000  0.93320000  1.0 -0.5685363544
O  O14  1  0.27220000  0.45520000  0.56680000  1.0 -0.5685363544
O  O15  1  0.27220000  0.04480000  0.06680000  1.0 -0.5685363544
O  O16  1  0.72780000  0.54480000  0.43320000  1.0 -0.5685363544
O  O17  1  0.81790000  0.91530000  0.25790000  1.0 -0.5613468372
O  O18  1  0.18210000  0.41530000  0.24210000  1.0 -0.5613468372
O  O19  1  0.18210000  0.08470000  0.74210000  1.0 -0.5613468372
O  O20  1  0.81790000  0.58470000  0.75790000  1.0 -0.5613468372
O  O21  1  0.75470000  0.84370000  0.32460000  1.0 -0.5815748109
O  O22  1  0.24530000  0.34370000  0.17540000  1.0 -0.5815748109
O  O23  1  0.24530000  0.15630000  0.67540000  1.0 -0.5815748109
O  O24  1  0.75470000  0.65630000  0.82460000  1.0 -0.5815748109
O  O25  1  0.55210000  0.90740000  0.01610000  1.0 -0.5273771667
O  O26  1  0.44790000  0.40740000  0.48390000  1.0 -0.5273771667
O  O27  1  0.44790000  0.09260000  0.98390000  1.0 -0.5273771667
O  O28  1  0.55210000  0.59260000  0.51610000  1.0 -0.5273771667
O  O29  1  0.65730000  0.87930000  0.13430000  1.0 -0.4988848351
O  O30  1  0.34270000  0.37930000  0.36570000  1.0 -0.4988848351
O  O31  1  0.34270000  0.12070000  0.86570000  1.0 -0.4988848351
O  O32  1  0.65730000  0.62070000  0.63430000  1.0 -0.4988848351
O  O33  1  0.37830000  0.51900000  0.37150000  1.0 -0.5815748109
O  O34  1  0.62170000  0.01900000  0.12850000  1.0 -0.5815748109
O  O35  1  0.62170000  0.48100000  0.62850000  1.0 -0.5815748109
O  O36  1  0.37830000  0.98100000  0.87150000  1.0 -0.5815748109
O  O37  1  0.22630000  0.53040000  0.38080000  1.0 -0.5132285737
O  O38  1  0.77370000  0.03040000  0.11920000  1.0 -0.5132285737
O  O39  1  0.77370000  0.46960000  0.61920000  1.0 -0.5132285737
O  O40  1  0.22630000  0.96960000  0.88080000  1.0 -0.5132285737
O  O41  1  0.90780000  0.93040000  0.10000000  1.0 -0.4870677673
O  O42  1  0.09220000  0.43040000  0.40000000  1.0 -0.4870677673
O  O43  1  0.09220000  0.06960000  0.90000000  1.0 -0.4870677673
O  O44  1  0.90780000  0.56960000  0.60000000  1.0 -0.4870677673
O  O45  1  0.83350000  0.84820000  0.08600000  1.0 -0.5685363544
O  O46  1  0.16650000  0.34820000  0.41400000  1.0 -0.5685363544
O  O47  1  0.16650000  0.15180000  0.91400000  1.0 -0.5685363544
O  O48  1  0.83350000  0.65180000  0.58600000  1.0 -0.5685363544
O  O49  1  0.91480000  0.76390000  0.27430000  1.0 -0.6453765018
O  O50  1  0.08520000  0.26390000  0.22570000  1.0 -0.6453765018
O  O51  1  0.08520000  0.23610000  0.72570000  1.0 -0.6438721203
O  O52  1  0.91480000  0.73610000  0.77430000  1.0 -0.6453765018
