# DDEC6 charges by PACMAN v1.1 (https://github.com/mtap-research/PACMAN-charge/)
data_YUZBUS_FSR_pacman
_symmetry_space_group_name_H-M   'P 1'
_cell_length_a   9.66300000
_cell_length_b   9.66300000
_cell_length_c   20.22400000
_cell_angle_alpha   90.00000000
_cell_angle_beta   90.00000000
_cell_angle_gamma   120.00000000
_symmetry_Int_Tables_number   1
_chemical_formula_structural   ZnH6C5N8
_chemical_formula_sum   'Zn6 H36 C30 N48'
_cell_volume   1635.39116567
_cell_formula_units_Z   6
loop_
 _symmetry_equiv_pos_site_id
 _symmetry_equiv_pos_as_xyz
  1  'x, y, z'
loop_
 _atom_site_type_symbol
 _atom_site_label
 _atom_site_symmetry_multiplicity
 _atom_site_fract_x
 _atom_site_fract_y
 _atom_site_fract_z
 _atom_site_occupancy
 _atom_site_charge
Zn  Zn1  1  0.93547000  0.50641000  0.41623000  1.0 0.6782578515
Zn  Zn2  1  0.49359000  0.42906000  0.74956000  1.0 0.6782578515
Zn  Zn3  1  0.57094000  0.06453000  0.08290000  1.0 0.6782578515
Zn  Zn4  1  0.50641000  0.93547000  0.58377000  1.0 0.6782578515
Zn  Zn5  1  0.42906000  0.49359000  0.25044000  1.0 0.6782578515
Zn  Zn6  1  0.06453000  0.57094000  0.91710000  1.0 0.6782578515
H  H1  1  0.98770000  0.65190000  0.56240000  1.0 0.2977273303
H  H2  1  0.34810000  0.33580000  0.89573000  1.0 0.2977273303
H  H3  1  0.66420000  0.01230000  0.22907000  1.0 0.2977273303
H  H4  1  0.65190000  0.98770000  0.43760000  1.0 0.2977273303
H  H5  1  0.33580000  0.34810000  0.10427000  1.0 0.2977273303
H  H6  1  0.01230000  0.66420000  0.77093000  1.0 0.2977273303
H  H7  1  0.11910000  0.78900000  0.59790000  1.0 0.3061721114
H  H8  1  0.21100000  0.33010000  0.93123000  1.0 0.3061721114
H  H9  1  0.66990000  0.88090000  0.26457000  1.0 0.3061721114
H  H10  1  0.78900000  0.11910000  0.40210000  1.0 0.3061721114
H  H11  1  0.33010000  0.21100000  0.06877000  1.0 0.3061721114
H  H12  1  0.88090000  0.66990000  0.73543000  1.0 0.3061721114
H  H13  1  0.95510000  0.07660000  0.23410000  1.0 0.274457513
H  H14  1  0.92340000  0.87850000  0.56743000  1.0 0.2759625959
H  H15  1  0.12150000  0.04490000  0.90077000  1.0 0.2759625959
H  H16  1  0.07660000  0.95510000  0.76590000  1.0 0.2759625959
H  H17  1  0.87850000  0.92340000  0.43257000  1.0 0.2759625959
H  H18  1  0.04490000  0.12150000  0.09923000  1.0 0.2759625959
H  H19  1  0.11670000  0.16490000  0.21260000  1.0 0.2619168845
H  H20  1  0.83510000  0.95180000  0.54593000  1.0 0.2619168845
H  H21  1  0.04820000  0.88330000  0.87927000  1.0 0.2619168845
H  H22  1  0.16490000  0.11670000  0.78740000  1.0 0.2619168845
H  H23  1  0.95180000  0.83510000  0.45407000  1.0 0.2619168845
H  H24  1  0.88330000  0.04820000  0.12073000  1.0 0.2619168845
H  H25  1  0.27360000  0.74840000  0.31670000  1.0 0.1596219825
H  H26  1  0.25160000  0.52520000  0.65003000  1.0 0.1596219825
H  H27  1  0.47480000  0.72640000  0.98337000  1.0 0.1596219825
H  H28  1  0.74840000  0.27360000  0.68330000  1.0 0.1596219825
H  H29  1  0.52520000  0.25160000  0.34997000  1.0 0.1596219825
H  H30  1  0.72640000  0.47480000  0.01663000  1.0 0.1596219825
H  H31  1  0.40350000  0.70120000  0.33860000  1.0 0.1596219825
H  H32  1  0.29880000  0.70230000  0.67193000  1.0 0.1596219825
H  H33  1  0.29770000  0.59650000  0.00527000  1.0 0.1596219825
H  H34  1  0.70120000  0.40350000  0.66140000  1.0 0.1596219825
H  H35  1  0.70230000  0.29880000  0.32807000  1.0 0.1596219825
H  H36  1  0.59650000  0.29770000  0.99473000  1.0 0.1596219825
C  C1  1  0.19000000  0.75160000  0.50900000  1.0 0.5206947513
C  C2  1  0.24840000  0.43840000  0.84233000  1.0 0.5206947513
C  C3  1  0.56160000  0.81000000  0.17567000  1.0 0.5206947513
C  C4  1  0.75160000  0.19000000  0.49100000  1.0 0.5206947513
C  C5  1  0.43840000  0.24840000  0.15767000  1.0 0.5206947513
C  C6  1  0.81000000  0.56160000  0.82433000  1.0 0.5206947513
C  C7  1  0.28240000  0.72470000  0.41750000  1.0 0.3677976567
C  C8  1  0.27530000  0.55770000  0.75083000  1.0 0.3677976567
C  C9  1  0.44230000  0.71760000  0.08417000  1.0 0.3677976567
C  C10  1  0.72470000  0.28240000  0.58250000  1.0 0.3677976567
C  C11  1  0.55770000  0.27530000  0.24917000  1.0 0.3677976567
C  C12  1  0.71760000  0.44230000  0.91583000  1.0 0.3677976567
C  C13  1  0.29330000  0.67930000  0.34680000  1.0 -0.4017634603
C  C14  1  0.32070000  0.61400000  0.68013000  1.0 -0.4017634603
C  C15  1  0.38600000  0.70670000  0.01347000  1.0 -0.4017634603
C  C16  1  0.67930000  0.29330000  0.65320000  1.0 -0.4017634603
C  C17  1  0.61400000  0.32070000  0.31987000  1.0 -0.4017634603
C  C18  1  0.70670000  0.38600000  0.98653000  1.0 -0.4017634603
C  C19  1  0.17990000  0.50980000  0.33010000  1.0 0.3633194504
C  C20  1  0.49020000  0.67010000  0.66343000  1.0 0.3633194504
C  C21  1  0.32990000  0.82010000  0.99677000  1.0 0.3633194504
C  C22  1  0.50980000  0.17990000  0.66990000  1.0 0.3633194504
C  C23  1  0.67010000  0.49020000  0.33657000  1.0 0.3633194504
C  C24  1  0.82010000  0.32990000  0.00323000  1.0 0.3633194504
C  C25  1  0.07670000  0.27900000  0.28640000  1.0 0.5206947513
C  C26  1  0.72100000  0.79770000  0.61973000  1.0 0.5206947513
C  C27  1  0.20230000  0.92330000  0.95307000  1.0 0.5206947513
C  C28  1  0.27900000  0.07670000  0.71360000  1.0 0.5206947513
C  C29  1  0.79770000  0.72100000  0.38027000  1.0 0.5206947513
C  C30  1  0.92330000  0.20230000  0.04693000  1.0 0.5206947513
N  N1  1  0.34800000  0.83030000  0.51356000  1.0 -0.3320851438
N  N2  1  0.16970000  0.51770000  0.84689000  1.0 -0.3320851438
N  N3  1  0.48230000  0.65200000  0.18023000  1.0 -0.3320851438
N  N4  1  0.83030000  0.34800000  0.48644000  1.0 -0.3320851438
N  N5  1  0.51770000  0.16970000  0.15311000  1.0 -0.3320851438
N  N6  1  0.65200000  0.48230000  0.81977000  1.0 -0.3320851438
N  N7  1  0.40840000  0.81230000  0.45320000  1.0 -0.2946050776
N  N8  1  0.18770000  0.59610000  0.78653000  1.0 -0.2946050776
N  N9  1  0.40390000  0.59160000  0.11987000  1.0 -0.2946050776
N  N10  1  0.81230000  0.40840000  0.54680000  1.0 -0.2946050776
N  N11  1  0.59610000  0.18770000  0.21347000  1.0 -0.2946050776
N  N12  1  0.59160000  0.40390000  0.88013000  1.0 -0.2954635036
N  N13  1  0.14190000  0.68310000  0.44900000  1.0 -0.4796463015
N  N14  1  0.31690000  0.45880000  0.78233000  1.0 -0.4796463015
N  N15  1  0.54120000  0.85810000  0.11567000  1.0 -0.4796463015
N  N16  1  0.68310000  0.14190000  0.55100000  1.0 -0.4796463015
N  N17  1  0.45880000  0.31690000  0.21767000  1.0 -0.4796463015
N  N18  1  0.85810000  0.54120000  0.88433000  1.0 -0.4796463015
N  N19  1  0.08670000  0.74590000  0.55670000  1.0 -0.6645548952
N  N20  1  0.25410000  0.34080000  0.89003000  1.0 -0.6645548952
N  N21  1  0.65920000  0.91330000  0.22337000  1.0 -0.6645548952
N  N22  1  0.74590000  0.08670000  0.44330000  1.0 -0.6645548952
N  N23  1  0.34080000  0.25410000  0.10997000  1.0 -0.6645548952
N  N24  1  0.91330000  0.65920000  0.77663000  1.0 -0.6645548952
N  N25  1  0.21650000  0.42000000  0.28900000  1.0 -0.4796463015
N  N26  1  0.58000000  0.79650000  0.62233000  1.0 -0.4796463015
N  N27  1  0.20350000  0.78350000  0.95567000  1.0 -0.4796463015
N  N28  1  0.42000000  0.21650000  0.71100000  1.0 -0.4796463015
N  N29  1  0.79650000  0.58000000  0.37767000  1.0 -0.4796463015
N  N30  1  0.78350000  0.20350000  0.04433000  1.0 -0.4796463015
N  N31  1  0.03010000  0.42630000  0.35050000  1.0 -0.2546983374
N  N32  1  0.57370000  0.60380000  0.68383000  1.0 -0.2546983374
N  N33  1  0.39620000  0.96990000  0.01717000  1.0 -0.2553352428
N  N34  1  0.42630000  0.03010000  0.64950000  1.0 -0.2546983374
N  N35  1  0.60380000  0.57370000  0.31617000  1.0 -0.2546983374
N  N36  1  0.96990000  0.39620000  0.98283000  1.0 -0.2546983374
N  N37  1  0.96060000  0.27420000  0.32250000  1.0 -0.3655114683
N  N38  1  0.72580000  0.68640000  0.65583000  1.0 -0.3655114683
N  N39  1  0.31360000  0.03940000  0.98917000  1.0 -0.3655114683
N  N40  1  0.27420000  0.96060000  0.67750000  1.0 -0.3655114683
N  N41  1  0.68640000  0.72580000  0.34417000  1.0 -0.3655114683
N  N42  1  0.03940000  0.31360000  0.01083000  1.0 -0.3655114683
N  N43  1  0.05950000  0.15020000  0.25060000  1.0 -0.6387762937
N  N44  1  0.84980000  0.90930000  0.58393000  1.0 -0.6387762937
N  N45  1  0.09070000  0.94050000  0.91727000  1.0 -0.6387762937
N  N46  1  0.15020000  0.05950000  0.74940000  1.0 -0.6387762937
N  N47  1  0.90930000  0.84980000  0.41607000  1.0 -0.6387762937
N  N48  1  0.94050000  0.09070000  0.08273000  1.0 -0.6387762937
