# DDEC6 charges by PACMAN v1.1 (https://github.com/mtap-research/PACMAN-charge/)
data_YUZJOU_ASR_pacman
_symmetry_space_group_name_H-M   'P 1'
_cell_length_a   11.47660000
_cell_length_b   11.47660000
_cell_length_c   30.55540000
_cell_angle_alpha   90.00000000
_cell_angle_beta   90.00000000
_cell_angle_gamma   90.00000000
_symmetry_Int_Tables_number   1
_chemical_formula_structural   CuH16(C5N)4
_chemical_formula_sum   'Cu8 H128 C160 N32'
_cell_volume   4024.52346463
_cell_formula_units_Z   8
loop_
 _symmetry_equiv_pos_site_id
 _symmetry_equiv_pos_as_xyz
  1  'x, y, z'
loop_
 _atom_site_type_symbol
 _atom_site_label
 _atom_site_symmetry_multiplicity
 _atom_site_fract_x
 _atom_site_fract_y
 _atom_site_fract_z
 _atom_site_occupancy
 _atom_site_charge
Cu  Cu1  1  0.50000000  0.50000000  0.50000000  1.0 0.1806608534
Cu  Cu2  1  0.50000000  0.50000000  0.00000000  1.0 0.1806608534
Cu  Cu3  1  0.00000000  0.00000000  0.25000000  1.0 0.1693421673
Cu  Cu4  1  0.00000000  0.00000000  0.75000000  1.0 0.1806608534
Cu  Cu5  1  0.00000000  0.00000000  0.50000000  1.0 0.1806608534
Cu  Cu6  1  0.00000000  0.00000000  0.00000000  1.0 0.1806608534
Cu  Cu7  1  0.50000000  0.50000000  0.25000000  1.0 0.1693421673
Cu  Cu8  1  0.50000000  0.50000000  0.75000000  1.0 0.1806608534
H  H1  1  0.64970000  0.85090000  0.32720000  1.0 0.1184681236
H  H2  1  0.35030000  0.14910000  0.32720000  1.0 0.1184681236
H  H3  1  0.14910000  0.35030000  0.17280000  1.0 0.1184681236
H  H4  1  0.85090000  0.64970000  0.17280000  1.0 0.1184681236
H  H5  1  0.14910000  0.64970000  0.67280000  1.0 0.1184681236
H  H6  1  0.85090000  0.35030000  0.67280000  1.0 0.1184681236
H  H7  1  0.64970000  0.14910000  0.82720000  1.0 0.1184681236
H  H8  1  0.35030000  0.85090000  0.82720000  1.0 0.1184681236
H  H9  1  0.86210000  0.64870000  0.42680000  1.0 0.1184681236
H  H10  1  0.13790000  0.35130000  0.42680000  1.0 0.1184681236
H  H11  1  0.35130000  0.13790000  0.07320000  1.0 0.1184681236
H  H12  1  0.64870000  0.86210000  0.07320000  1.0 0.1184681236
H  H13  1  0.35130000  0.86210000  0.57320000  1.0 0.1184681236
H  H14  1  0.64870000  0.13790000  0.57320000  1.0 0.1184681236
H  H15  1  0.86210000  0.35130000  0.92680000  1.0 0.1184681236
H  H16  1  0.13790000  0.64870000  0.92680000  1.0 0.1184681236
H  H17  1  0.75590000  0.55100000  0.47850000  1.0 0.0920938855
H  H18  1  0.24410000  0.44900000  0.47850000  1.0 0.0920938855
H  H19  1  0.44900000  0.24410000  0.02150000  1.0 0.0920938855
H  H20  1  0.55100000  0.75590000  0.02150000  1.0 0.0920938855
H  H21  1  0.44900000  0.75590000  0.52150000  1.0 0.0920938855
H  H22  1  0.55100000  0.24410000  0.52150000  1.0 0.0920938855
H  H23  1  0.75590000  0.44900000  0.97850000  1.0 0.0920938855
H  H24  1  0.24410000  0.55100000  0.97850000  1.0 0.0920938855
H  H25  1  0.75420000  0.94540000  0.27410000  1.0 0.0920938855
H  H26  1  0.24580000  0.05460000  0.27410000  1.0 0.0920938855
H  H27  1  0.05460000  0.24580000  0.22590000  1.0 0.0920938855
H  H28  1  0.94540000  0.75420000  0.22590000  1.0 0.0920938855
H  H29  1  0.05460000  0.75420000  0.72590000  1.0 0.0920938855
H  H30  1  0.94540000  0.24580000  0.72590000  1.0 0.0920938855
H  H31  1  0.75420000  0.05460000  0.77410000  1.0 0.0920938855
H  H32  1  0.24580000  0.94540000  0.77410000  1.0 0.0920938855
H  H33  1  0.95330000  0.75400000  0.38340000  1.0 0.1133403253
H  H34  1  0.04670000  0.24600000  0.38340000  1.0 0.1133403253
H  H35  1  0.24600000  0.04670000  0.11660000  1.0 0.1133403253
H  H36  1  0.75400000  0.95330000  0.11660000  1.0 0.1133403253
H  H37  1  0.24600000  0.95330000  0.61660000  1.0 0.1133403253
H  H38  1  0.75400000  0.04670000  0.61660000  1.0 0.1133403253
H  H39  1  0.95330000  0.24600000  0.88340000  1.0 0.1133403253
H  H40  1  0.04670000  0.75400000  0.88340000  1.0 0.1133403253
H  H41  1  0.46610000  0.68950000  0.43610000  1.0 0.0920938855
H  H42  1  0.53390000  0.31050000  0.43610000  1.0 0.0920938855
H  H43  1  0.31050000  0.53390000  0.06390000  1.0 0.0920938855
H  H44  1  0.68950000  0.46610000  0.06390000  1.0 0.0920938855
H  H45  1  0.31050000  0.46610000  0.56390000  1.0 0.0920938855
H  H46  1  0.68950000  0.53390000  0.56390000  1.0 0.0920938855
H  H47  1  0.46610000  0.31050000  0.93610000  1.0 0.0920938855
H  H48  1  0.53390000  0.68950000  0.93610000  1.0 0.0920938855
H  H49  1  0.56300000  0.78900000  0.38260000  1.0 0.1184681236
H  H50  1  0.43700000  0.21100000  0.38260000  1.0 0.1184681236
H  H51  1  0.21100000  0.43700000  0.11740000  1.0 0.1184681236
H  H52  1  0.78900000  0.56300000  0.11740000  1.0 0.1184681236
H  H53  1  0.21100000  0.56300000  0.61740000  1.0 0.1184681236
H  H54  1  0.78900000  0.43700000  0.61740000  1.0 0.1184681236
H  H55  1  0.56300000  0.21100000  0.88260000  1.0 0.1184681236
H  H56  1  0.43700000  0.78900000  0.88260000  1.0 0.1184681236
H  H57  1  0.04980000  0.85390000  0.32850000  1.0 0.0920938855
H  H58  1  0.95020000  0.14610000  0.32850000  1.0 0.0920938855
H  H59  1  0.14610000  0.95020000  0.17150000  1.0 0.0920938855
H  H60  1  0.85390000  0.04980000  0.17150000  1.0 0.0920938855
H  H61  1  0.14610000  0.04980000  0.67150000  1.0 0.0920938855
H  H62  1  0.85390000  0.95020000  0.67150000  1.0 0.0920938855
H  H63  1  0.04980000  0.14610000  0.82850000  1.0 0.0920938855
H  H64  1  0.95020000  0.85390000  0.82850000  1.0 0.0920938855
H  H65  1  0.35090000  0.85030000  0.32720000  1.0 0.1184681236
H  H66  1  0.64910000  0.14970000  0.32720000  1.0 0.1184681236
H  H67  1  0.85030000  0.35090000  0.17280000  1.0 0.1184681236
H  H68  1  0.14970000  0.64910000  0.17280000  1.0 0.1184681236
H  H69  1  0.85030000  0.64910000  0.67280000  1.0 0.1184681236
H  H70  1  0.14970000  0.35090000  0.67280000  1.0 0.1184681236
H  H71  1  0.35090000  0.14970000  0.82720000  1.0 0.1184681236
H  H72  1  0.64910000  0.85030000  0.82720000  1.0 0.1184681236
H  H73  1  0.14870000  0.63790000  0.42680000  1.0 0.1184681236
H  H74  1  0.85130000  0.36210000  0.42680000  1.0 0.1184681236
H  H75  1  0.63790000  0.14870000  0.07320000  1.0 0.1184681236
H  H76  1  0.36210000  0.85130000  0.07320000  1.0 0.1184681236
H  H77  1  0.63790000  0.85130000  0.57320000  1.0 0.1184681236
H  H78  1  0.36210000  0.14870000  0.57320000  1.0 0.1184681236
H  H79  1  0.14870000  0.36210000  0.92680000  1.0 0.1184681236
H  H80  1  0.85130000  0.63790000  0.92680000  1.0 0.1184681236
H  H81  1  0.05100000  0.74410000  0.47850000  1.0 0.0920938855
H  H82  1  0.94900000  0.25590000  0.47850000  1.0 0.0920938855
H  H83  1  0.74410000  0.05100000  0.02150000  1.0 0.0920938855
H  H84  1  0.25590000  0.94900000  0.02150000  1.0 0.0920938855
H  H85  1  0.74410000  0.94900000  0.52150000  1.0 0.0920938855
H  H86  1  0.25590000  0.05100000  0.52150000  1.0 0.0920938855
H  H87  1  0.05100000  0.25590000  0.97850000  1.0 0.0920938855
H  H88  1  0.94900000  0.74410000  0.97850000  1.0 0.0920938855
H  H89  1  0.44540000  0.74580000  0.27410000  1.0 0.0920938855
H  H90  1  0.55460000  0.25420000  0.27410000  1.0 0.0920938855
H  H91  1  0.74580000  0.44540000  0.22590000  1.0 0.0920938855
H  H92  1  0.25420000  0.55460000  0.22590000  1.0 0.0920938855
H  H93  1  0.74580000  0.55460000  0.72590000  1.0 0.0920938855
H  H94  1  0.25420000  0.44540000  0.72590000  1.0 0.0920938855
H  H95  1  0.44540000  0.25420000  0.77410000  1.0 0.0920938855
H  H96  1  0.55460000  0.74580000  0.77410000  1.0 0.0920938855
H  H97  1  0.25400000  0.54670000  0.38340000  1.0 0.1133403253
H  H98  1  0.74600000  0.45330000  0.38340000  1.0 0.1133403253
H  H99  1  0.54670000  0.25400000  0.11660000  1.0 0.1133403253
H  H100  1  0.45330000  0.74600000  0.11660000  1.0 0.1133403253
H  H101  1  0.54670000  0.74600000  0.61660000  1.0 0.1133403253
H  H102  1  0.45330000  0.25400000  0.61660000  1.0 0.1133403253
H  H103  1  0.25400000  0.45330000  0.88340000  1.0 0.1133403253
H  H104  1  0.74600000  0.54670000  0.88340000  1.0 0.1133403253
H  H105  1  0.18950000  0.03390000  0.43610000  1.0 0.0920938855
H  H106  1  0.81050000  0.96610000  0.43610000  1.0 0.0920938855
H  H107  1  0.03390000  0.18950000  0.06390000  1.0 0.0920938855
H  H108  1  0.96610000  0.81050000  0.06390000  1.0 0.0920938855
H  H109  1  0.03390000  0.81050000  0.56390000  1.0 0.0920938855
H  H110  1  0.96610000  0.18950000  0.56390000  1.0 0.0920938855
H  H111  1  0.18950000  0.96610000  0.93610000  1.0 0.0920938855
H  H112  1  0.81050000  0.03390000  0.93610000  1.0 0.0920938855
H  H113  1  0.28900000  0.93700000  0.38260000  1.0 0.1184681236
H  H114  1  0.71100000  0.06300000  0.38260000  1.0 0.1184681236
H  H115  1  0.93700000  0.28900000  0.11740000  1.0 0.1184681236
H  H116  1  0.06300000  0.71100000  0.11740000  1.0 0.1184681236
H  H117  1  0.93700000  0.71100000  0.61740000  1.0 0.1184681236
H  H118  1  0.06300000  0.28900000  0.61740000  1.0 0.1184681236
H  H119  1  0.28900000  0.06300000  0.88260000  1.0 0.1184681236
H  H120  1  0.71100000  0.93700000  0.88260000  1.0 0.1184681236
H  H121  1  0.35390000  0.45020000  0.32850000  1.0 0.0920938855
H  H122  1  0.64610000  0.54980000  0.32850000  1.0 0.0920938855
H  H123  1  0.45020000  0.35390000  0.17150000  1.0 0.0920938855
H  H124  1  0.54980000  0.64610000  0.17150000  1.0 0.0920938855
H  H125  1  0.45020000  0.64610000  0.67150000  1.0 0.0920938855
H  H126  1  0.54980000  0.35390000  0.67150000  1.0 0.0920938855
H  H127  1  0.35390000  0.54980000  0.82850000  1.0 0.0920938855
H  H128  1  0.64610000  0.45020000  0.82850000  1.0 0.0920938855
C  C1  1  0.73240000  0.85070000  0.32851000  1.0 -0.2167029142
C  C2  1  0.26760000  0.14930000  0.32851000  1.0 -0.2167029142
C  C3  1  0.14930000  0.26760000  0.17149000  1.0 -0.2167029142
C  C4  1  0.85070000  0.73240000  0.17149000  1.0 -0.2167029142
C  C5  1  0.14930000  0.73240000  0.67149000  1.0 -0.2167029142
C  C6  1  0.85070000  0.26760000  0.67149000  1.0 -0.2167029142
C  C7  1  0.73240000  0.14930000  0.82851000  1.0 -0.2167029142
C  C8  1  0.26760000  0.85070000  0.82851000  1.0 -0.2167029142
C  C9  1  0.77980000  0.65760000  0.42760000  1.0 -0.2167029142
C  C10  1  0.22020000  0.34240000  0.42760000  1.0 -0.2167029142
C  C11  1  0.34240000  0.22020000  0.07240000  1.0 -0.2167029142
C  C12  1  0.65760000  0.77980000  0.07240000  1.0 -0.2167029142
C  C13  1  0.34240000  0.77980000  0.57240000  1.0 -0.2167029142
C  C14  1  0.65760000  0.22020000  0.57240000  1.0 -0.2167029142
C  C15  1  0.77980000  0.34240000  0.92760000  1.0 -0.2167029142
C  C16  1  0.22020000  0.65760000  0.92760000  1.0 -0.2167029142
C  C17  1  0.71560000  0.59920000  0.45824000  1.0 0.0220710064
C  C18  1  0.28440000  0.40080000  0.45824000  1.0 0.0220710064
C  C19  1  0.40080000  0.28440000  0.04176000  1.0 0.0220710064
C  C20  1  0.59920000  0.71560000  0.04176000  1.0 0.0220710064
C  C21  1  0.40080000  0.71560000  0.54176000  1.0 0.0220710064
C  C22  1  0.59920000  0.28440000  0.54176000  1.0 0.0220710064
C  C23  1  0.71560000  0.40080000  0.95824000  1.0 0.0220710064
C  C24  1  0.28440000  0.59920000  0.95824000  1.0 0.0220710064
C  C25  1  0.79520000  0.90730000  0.29700000  1.0 0.0378783444
C  C26  1  0.20480000  0.09270000  0.29700000  1.0 0.0378783444
C  C27  1  0.09270000  0.20480000  0.20300000  1.0 0.0378783444
C  C28  1  0.90730000  0.79520000  0.20300000  1.0 0.0378783444
C  C29  1  0.09270000  0.79520000  0.70300000  1.0 0.0378783444
C  C30  1  0.90730000  0.20480000  0.70300000  1.0 0.0378783444
C  C31  1  0.79520000  0.09270000  0.79700000  1.0 0.0378783444
C  C32  1  0.20480000  0.90730000  0.79700000  1.0 0.0378783444
C  C33  1  0.91000000  0.79400000  0.36162000  1.0 -0.2067675883
C  C34  1  0.09000000  0.20600000  0.36162000  1.0 -0.2067675883
C  C35  1  0.20600000  0.09000000  0.13838000  1.0 -0.2067675883
C  C36  1  0.79400000  0.91000000  0.13838000  1.0 -0.2067675883
C  C37  1  0.20600000  0.91000000  0.63838000  1.0 -0.2067675883
C  C38  1  0.79400000  0.09000000  0.63838000  1.0 -0.2067675883
C  C39  1  0.91000000  0.20600000  0.86162000  1.0 -0.2067675883
C  C40  1  0.09000000  0.79400000  0.86162000  1.0 -0.2067675883
C  C41  1  0.54790000  0.67890000  0.43371000  1.0 0.0378783444
C  C42  1  0.45210000  0.32110000  0.43371000  1.0 0.0378783444
C  C43  1  0.32110000  0.45210000  0.06629000  1.0 0.0378783444
C  C44  1  0.67890000  0.54790000  0.06629000  1.0 0.0378783444
C  C45  1  0.32110000  0.54790000  0.56629000  1.0 0.0378783444
C  C46  1  0.67890000  0.45210000  0.56629000  1.0 0.0378783444
C  C47  1  0.54790000  0.32110000  0.93371000  1.0 0.0378783444
C  C48  1  0.45210000  0.67890000  0.93371000  1.0 0.0378783444
C  C49  1  0.60570000  0.73980000  0.40183000  1.0 -0.2067675883
C  C50  1  0.39430000  0.26020000  0.40183000  1.0 -0.2067675883
C  C51  1  0.26020000  0.39430000  0.09817000  1.0 -0.2067675883
C  C52  1  0.73980000  0.60570000  0.09817000  1.0 -0.2067675883
C  C53  1  0.26020000  0.60570000  0.59817000  1.0 -0.2067675883
C  C54  1  0.73980000  0.39430000  0.59817000  1.0 -0.2067675883
C  C55  1  0.60570000  0.26020000  0.90183000  1.0 -0.2067675883
C  C56  1  0.39430000  0.73980000  0.90183000  1.0 -0.2067675883
C  C57  1  0.72390000  0.73090000  0.39719000  1.0 0.0920938855
C  C58  1  0.27610000  0.26910000  0.39719000  1.0 0.0920938855
C  C59  1  0.26910000  0.27610000  0.10281000  1.0 0.0920938855
C  C60  1  0.73090000  0.72390000  0.10281000  1.0 0.0920938855
C  C61  1  0.26910000  0.72390000  0.60281000  1.0 0.0920938855
C  C62  1  0.73090000  0.27610000  0.60281000  1.0 0.0920938855
C  C63  1  0.72390000  0.26910000  0.89719000  1.0 0.0920938855
C  C64  1  0.27610000  0.73090000  0.89719000  1.0 0.0920938855
C  C65  1  0.96710000  0.85390000  0.32862000  1.0 0.0487454877
C  C66  1  0.03290000  0.14610000  0.32862000  1.0 0.0487454877
C  C67  1  0.14610000  0.03290000  0.17138000  1.0 0.0487454877
C  C68  1  0.85390000  0.96710000  0.17138000  1.0 0.0487454877
C  C69  1  0.14610000  0.96710000  0.67138000  1.0 0.0487454877
C  C70  1  0.85390000  0.03290000  0.67138000  1.0 0.0487454877
C  C71  1  0.96710000  0.14610000  0.82862000  1.0 0.0487454877
C  C72  1  0.03290000  0.85390000  0.82862000  1.0 0.0487454877
C  C73  1  0.78850000  0.79280000  0.36256000  1.0 0.0920938855
C  C74  1  0.21150000  0.20720000  0.36256000  1.0 0.0920938855
C  C75  1  0.20720000  0.21150000  0.13744000  1.0 0.0920938855
C  C76  1  0.79280000  0.78850000  0.13744000  1.0 0.0920938855
C  C77  1  0.20720000  0.78850000  0.63744000  1.0 0.0920938855
C  C78  1  0.79280000  0.21150000  0.63744000  1.0 0.0920938855
C  C79  1  0.78850000  0.20720000  0.86256000  1.0 0.0920938855
C  C80  1  0.21150000  0.79280000  0.86256000  1.0 0.0920938855
C  C81  1  0.35070000  0.76760000  0.32851000  1.0 -0.2167029142
C  C82  1  0.64930000  0.23240000  0.32851000  1.0 -0.2167029142
C  C83  1  0.76760000  0.35070000  0.17149000  1.0 -0.2167029142
C  C84  1  0.23240000  0.64930000  0.17149000  1.0 -0.2167029142
C  C85  1  0.76760000  0.64930000  0.67149000  1.0 -0.2167029142
C  C86  1  0.23240000  0.35070000  0.67149000  1.0 -0.2167029142
C  C87  1  0.35070000  0.23240000  0.82851000  1.0 -0.2167029142
C  C88  1  0.64930000  0.76760000  0.82851000  1.0 -0.2167029142
C  C89  1  0.15760000  0.72020000  0.42760000  1.0 -0.2167029142
C  C90  1  0.84240000  0.27980000  0.42760000  1.0 -0.2167029142
C  C91  1  0.72020000  0.15760000  0.07240000  1.0 -0.2167029142
C  C92  1  0.27980000  0.84240000  0.07240000  1.0 -0.2167029142
C  C93  1  0.72020000  0.84240000  0.57240000  1.0 -0.2167029142
C  C94  1  0.27980000  0.15760000  0.57240000  1.0 -0.2167029142
C  C95  1  0.15760000  0.27980000  0.92760000  1.0 -0.2167029142
C  C96  1  0.84240000  0.72020000  0.92760000  1.0 -0.2167029142
C  C97  1  0.09920000  0.78440000  0.45824000  1.0 0.0220710064
C  C98  1  0.90080000  0.21560000  0.45824000  1.0 0.0220710064
C  C99  1  0.78440000  0.09920000  0.04176000  1.0 0.0220710064
C  C100  1  0.21560000  0.90080000  0.04176000  1.0 0.0220710064
C  C101  1  0.78440000  0.90080000  0.54176000  1.0 0.0220710064
C  C102  1  0.21560000  0.09920000  0.54176000  1.0 0.0220710064
C  C103  1  0.09920000  0.21560000  0.95824000  1.0 0.0220710064
C  C104  1  0.90080000  0.78440000  0.95824000  1.0 0.0220710064
C  C105  1  0.40730000  0.70480000  0.29700000  1.0 0.0378783444
C  C106  1  0.59270000  0.29520000  0.29700000  1.0 0.0378783444
C  C107  1  0.70480000  0.40730000  0.20300000  1.0 0.0378783444
C  C108  1  0.29520000  0.59270000  0.20300000  1.0 0.0378783444
C  C109  1  0.70480000  0.59270000  0.70300000  1.0 0.0378783444
C  C110  1  0.29520000  0.40730000  0.70300000  1.0 0.0378783444
C  C111  1  0.40730000  0.29520000  0.79700000  1.0 0.0378783444
C  C112  1  0.59270000  0.70480000  0.79700000  1.0 0.0378783444
C  C113  1  0.29400000  0.59000000  0.36162000  1.0 -0.2067675883
C  C114  1  0.70600000  0.41000000  0.36162000  1.0 -0.2067675883
C  C115  1  0.59000000  0.29400000  0.13838000  1.0 -0.2067675883
C  C116  1  0.41000000  0.70600000  0.13838000  1.0 -0.2067675883
C  C117  1  0.59000000  0.70600000  0.63838000  1.0 -0.2067675883
C  C118  1  0.41000000  0.29400000  0.63838000  1.0 -0.2067675883
C  C119  1  0.29400000  0.41000000  0.86162000  1.0 -0.2067675883
C  C120  1  0.70600000  0.59000000  0.86162000  1.0 -0.2067675883
C  C121  1  0.17890000  0.95210000  0.43371000  1.0 0.0378783444
C  C122  1  0.82110000  0.04790000  0.43371000  1.0 0.0378783444
C  C123  1  0.95210000  0.17890000  0.06629000  1.0 0.0378783444
C  C124  1  0.04790000  0.82110000  0.06629000  1.0 0.0378783444
C  C125  1  0.95210000  0.82110000  0.56629000  1.0 0.0378783444
C  C126  1  0.04790000  0.17890000  0.56629000  1.0 0.0378783444
C  C127  1  0.17890000  0.04790000  0.93371000  1.0 0.0378783444
C  C128  1  0.82110000  0.95210000  0.93371000  1.0 0.0378783444
C  C129  1  0.23980000  0.89430000  0.40183000  1.0 -0.2067675883
C  C130  1  0.76020000  0.10570000  0.40183000  1.0 -0.2067675883
C  C131  1  0.89430000  0.23980000  0.09817000  1.0 -0.2067675883
C  C132  1  0.10570000  0.76020000  0.09817000  1.0 -0.2067675883
C  C133  1  0.89430000  0.76020000  0.59817000  1.0 -0.2067675883
C  C134  1  0.10570000  0.23980000  0.59817000  1.0 -0.2067675883
C  C135  1  0.23980000  0.10570000  0.90183000  1.0 -0.2067675883
C  C136  1  0.76020000  0.89430000  0.90183000  1.0 -0.2067675883
C  C137  1  0.23090000  0.77610000  0.39719000  1.0 0.0920938855
C  C138  1  0.76910000  0.22390000  0.39719000  1.0 0.0920938855
C  C139  1  0.77610000  0.23090000  0.10281000  1.0 0.0920938855
C  C140  1  0.22390000  0.76910000  0.10281000  1.0 0.0920938855
C  C141  1  0.77610000  0.76910000  0.60281000  1.0 0.0920938855
C  C142  1  0.22390000  0.23090000  0.60281000  1.0 0.0920938855
C  C143  1  0.23090000  0.22390000  0.89719000  1.0 0.0920938855
C  C144  1  0.76910000  0.77610000  0.89719000  1.0 0.0920938855
C  C145  1  0.35390000  0.53290000  0.32862000  1.0 0.0487454877
C  C146  1  0.64610000  0.46710000  0.32862000  1.0 0.0487454877
C  C147  1  0.53290000  0.35390000  0.17138000  1.0 0.0487454877
C  C148  1  0.46710000  0.64610000  0.17138000  1.0 0.0487454877
C  C149  1  0.53290000  0.64610000  0.67138000  1.0 0.0487454877
C  C150  1  0.46710000  0.35390000  0.67138000  1.0 0.0487454877
C  C151  1  0.35390000  0.46710000  0.82862000  1.0 0.0487454877
C  C152  1  0.64610000  0.53290000  0.82862000  1.0 0.0487454877
C  C153  1  0.29280000  0.71150000  0.36256000  1.0 0.0920938855
C  C154  1  0.70720000  0.28850000  0.36256000  1.0 0.0920938855
C  C155  1  0.71150000  0.29280000  0.13744000  1.0 0.0920938855
C  C156  1  0.28850000  0.70720000  0.13744000  1.0 0.0920938855
C  C157  1  0.71150000  0.70720000  0.63744000  1.0 0.0920938855
C  C158  1  0.28850000  0.29280000  0.63744000  1.0 0.0920938855
C  C159  1  0.29280000  0.28850000  0.86256000  1.0 0.0920938855
C  C160  1  0.70720000  0.71150000  0.86256000  1.0 0.0920938855
N  N1  1  0.59900000  0.60580000  0.46155000  1.0 -0.2067675883
N  N2  1  0.40100000  0.39420000  0.46155000  1.0 -0.2067675883
N  N3  1  0.39420000  0.40100000  0.03845000  1.0 -0.2067675883
N  N4  1  0.60580000  0.59900000  0.03845000  1.0 -0.2067675883
N  N5  1  0.39420000  0.59900000  0.53845000  1.0 -0.2067675883
N  N6  1  0.60580000  0.40100000  0.53845000  1.0 -0.2067675883
N  N7  1  0.59900000  0.39420000  0.96155000  1.0 -0.2067675883
N  N8  1  0.40100000  0.60580000  0.96155000  1.0 -0.2067675883
N  N9  1  0.91170000  0.91150000  0.29695000  1.0 -0.2030881898
N  N10  1  0.08830000  0.08850000  0.29695000  1.0 -0.2030881898
N  N11  1  0.08850000  0.08830000  0.20305000  1.0 -0.2030881898
N  N12  1  0.91150000  0.91170000  0.20305000  1.0 -0.2030881898
N  N13  1  0.08850000  0.91170000  0.70305000  1.0 -0.2030881898
N  N14  1  0.91150000  0.08830000  0.70305000  1.0 -0.2030881898
N  N15  1  0.91170000  0.08850000  0.79695000  1.0 -0.2030881898
N  N16  1  0.08830000  0.91150000  0.79695000  1.0 -0.2030881898
N  N17  1  0.10580000  0.90100000  0.46155000  1.0 -0.2067675883
N  N18  1  0.89420000  0.09900000  0.46155000  1.0 -0.2067675883
N  N19  1  0.90100000  0.10580000  0.03845000  1.0 -0.2067675883
N  N20  1  0.09900000  0.89420000  0.03845000  1.0 -0.2067675883
N  N21  1  0.90100000  0.89420000  0.53845000  1.0 -0.2067675883
N  N22  1  0.09900000  0.10580000  0.53845000  1.0 -0.2067675883
N  N23  1  0.10580000  0.09900000  0.96155000  1.0 -0.2067675883
N  N24  1  0.89420000  0.90100000  0.96155000  1.0 -0.2067675883
N  N25  1  0.41150000  0.58830000  0.29695000  1.0 -0.2030881898
N  N26  1  0.58850000  0.41170000  0.29695000  1.0 -0.2030881898
N  N27  1  0.58830000  0.41150000  0.20305000  1.0 -0.2030881898
N  N28  1  0.41170000  0.58850000  0.20305000  1.0 -0.2030881898
N  N29  1  0.58830000  0.58850000  0.70305000  1.0 -0.2030881898
N  N30  1  0.41170000  0.41150000  0.70305000  1.0 -0.2030881898
N  N31  1  0.41150000  0.41170000  0.79695000  1.0 -0.2030881898
N  N32  1  0.58850000  0.58830000  0.79695000  1.0 -0.2030881898
