# DDEC6 charges by PACMAN v1.1 (https://github.com/mtap-research/PACMAN-charge/)
data_ZABQIC_ASR_pacman
_symmetry_space_group_name_H-M   'P 1'
_cell_length_a   11.59200000
_cell_length_b   19.09920000
_cell_length_c   38.74810000
_cell_angle_alpha   90.00000000
_cell_angle_beta   90.00000000
_cell_angle_gamma   90.00000000
_symmetry_Int_Tables_number   1
_chemical_formula_structural   AgH15(C11N)3
_chemical_formula_sum   'Ag6 H90 C198 N18'
_cell_volume   8578.74899194
_cell_formula_units_Z   6
loop_
 _symmetry_equiv_pos_site_id
 _symmetry_equiv_pos_as_xyz
  1  'x, y, z'
loop_
 _atom_site_type_symbol
 _atom_site_label
 _atom_site_symmetry_multiplicity
 _atom_site_fract_x
 _atom_site_fract_y
 _atom_site_fract_z
 _atom_site_occupancy
 _atom_site_charge
Ag  Ag1  1  0.50000000  0.50000000  0.29000000  1.0 0.5077573509
Ag  Ag2  1  0.00000000  0.00000000  0.79000000  1.0 0.5077573509
Ag  Ag3  1  0.79940000  0.46590000  0.25660000  1.0 0.4724518807
Ag  Ag4  1  0.29940000  0.03410000  0.75660000  1.0 0.4724518807
Ag  Ag5  1  0.20060000  0.53410000  0.25660000  1.0 0.4724518807
Ag  Ag6  1  0.70060000  0.96590000  0.75660000  1.0 0.4724518807
H  H1  1  0.00000000  0.00000000  0.39530000  1.0 0.1292208854
H  H2  1  0.50000000  0.50000000  0.89530000  1.0 0.1292208854
H  H3  1  0.21100000  0.72560000  0.42940000  1.0 0.1292208854
H  H4  1  0.78900000  0.27440000  0.42940000  1.0 0.1292208854
H  H5  1  0.28900000  0.22560000  0.92940000  1.0 0.1292208854
H  H6  1  0.71100000  0.77440000  0.92940000  1.0 0.1292208854
H  H7  1  0.30750000  0.62700000  0.40510000  1.0 0.1292208854
H  H8  1  0.69250000  0.37300000  0.40510000  1.0 0.1292208854
H  H9  1  0.19250000  0.12700000  0.90510000  1.0 0.1292208854
H  H10  1  0.80750000  0.87300000  0.90510000  1.0 0.1292208854
H  H11  1  0.27080000  0.71820000  0.31170000  1.0 0.1202540256
H  H12  1  0.72920000  0.28180000  0.31170000  1.0 0.1202540256
H  H13  1  0.22920000  0.21820000  0.81170000  1.0 0.1202540256
H  H14  1  0.77080000  0.78180000  0.81170000  1.0 0.1202540256
H  H15  1  0.18090000  0.82260000  0.33920000  1.0 0.1202540256
H  H16  1  0.81910000  0.17740000  0.33920000  1.0 0.1202540256
H  H17  1  0.31910000  0.32260000  0.83920000  1.0 0.1202540256
H  H18  1  0.68090000  0.67740000  0.83920000  1.0 0.1202540256
H  H19  1  0.07000000  0.90300000  0.48620000  1.0 0.1292208854
H  H20  1  0.93000000  0.09700000  0.48620000  1.0 0.1292208854
H  H21  1  0.43000000  0.40300000  0.98620000  1.0 0.1292208854
H  H22  1  0.57000000  0.59700000  0.98620000  1.0 0.1292208854
H  H23  1  0.03810000  0.89410000  0.66360000  1.0 0.1202540256
H  H24  1  0.96190000  0.10590000  0.66360000  1.0 0.1202540256
H  H25  1  0.46190000  0.39410000  0.16360000  1.0 0.1202540256
H  H26  1  0.53810000  0.60590000  0.16360000  1.0 0.1202540256
H  H27  1  0.03970000  0.89990000  0.60360000  1.0 0.1202540256
H  H28  1  0.96030000  0.10010000  0.60360000  1.0 0.1202540256
H  H29  1  0.46030000  0.39990000  0.10360000  1.0 0.1202540256
H  H30  1  0.53970000  0.60010000  0.10360000  1.0 0.1202540256
H  H31  1  0.42590000  0.90110000  0.45770000  1.0 0.1292208854
H  H32  1  0.92590000  0.59890000  0.95770000  1.0 0.1292208854
H  H33  1  0.57590000  0.70140000  0.39750000  1.0 0.1202540256
H  H34  1  0.07590000  0.79860000  0.89750000  1.0 0.1202540256
H  H35  1  0.65950000  0.60970000  0.36420000  1.0 0.1202540256
H  H36  1  0.15950000  0.89030000  0.86420000  1.0 0.1202540256
H  H37  1  0.61840000  0.72480000  0.28160000  1.0 0.1292208854
H  H38  1  0.11840000  0.77520000  0.78160000  1.0 0.1292208854
H  H39  1  0.54070000  0.81300000  0.31380000  1.0 0.1292208854
H  H40  1  0.04070000  0.68700000  0.81380000  1.0 0.1292208854
H  H41  1  0.34640000  0.97370000  0.36360000  1.0 0.1202540256
H  H42  1  0.84640000  0.52630000  0.86360000  1.0 0.1202540256
H  H43  1  0.14090000  0.13750000  0.30380000  1.0 0.1292208854
H  H44  1  0.64090000  0.36250000  0.80380000  1.0 0.1292208854
H  H45  1  0.05450000  0.23560000  0.26970000  1.0 0.1202540256
H  H46  1  0.55450000  0.26440000  0.76970000  1.0 0.1202540256
H  H47  1  0.02380000  0.34400000  0.36250000  1.0 0.1202540256
H  H48  1  0.52380000  0.15600000  0.86250000  1.0 0.1202540256
H  H49  1  0.12200000  0.25580000  0.38980000  1.0 0.1292208854
H  H50  1  0.62200000  0.24420000  0.88980000  1.0 0.1292208854
H  H51  1  0.24960000  0.08060000  0.44910000  1.0 0.1292208854
H  H52  1  0.74960000  0.41940000  0.94910000  1.0 0.1292208854
H  H53  1  0.28650000  0.10180000  0.56730000  1.0 0.1357593016
H  H54  1  0.78650000  0.39820000  0.06730000  1.0 0.1357593016
H  H55  1  0.25420000  0.10210000  0.62650000  1.0 0.1292208854
H  H56  1  0.75420000  0.39790000  0.12650000  1.0 0.1292208854
H  H57  1  0.37950000  0.90740000  0.62840000  1.0 0.1292208854
H  H58  1  0.87950000  0.59260000  0.12840000  1.0 0.1292208854
H  H59  1  0.40140000  0.90740000  0.57150000  1.0 0.1357593016
H  H60  1  0.90140000  0.59260000  0.07150000  1.0 0.1357593016
H  H61  1  0.57410000  0.09890000  0.45770000  1.0 0.1292208854
H  H62  1  0.07410000  0.40110000  0.95770000  1.0 0.1292208854
H  H63  1  0.42410000  0.29860000  0.39750000  1.0 0.1202540256
H  H64  1  0.92410000  0.20140000  0.89750000  1.0 0.1202540256
H  H65  1  0.34050000  0.39030000  0.36420000  1.0 0.1202540256
H  H66  1  0.84050000  0.10970000  0.86420000  1.0 0.1202540256
H  H67  1  0.38160000  0.27520000  0.28160000  1.0 0.1292208854
H  H68  1  0.88160000  0.22480000  0.78160000  1.0 0.1292208854
H  H69  1  0.45930000  0.18700000  0.31380000  1.0 0.1292208854
H  H70  1  0.95930000  0.31300000  0.81380000  1.0 0.1292208854
H  H71  1  0.65360000  0.02630000  0.36360000  1.0 0.1202540256
H  H72  1  0.15360000  0.47370000  0.86360000  1.0 0.1202540256
H  H73  1  0.85910000  0.86250000  0.30380000  1.0 0.1292208854
H  H74  1  0.35910000  0.63750000  0.80380000  1.0 0.1292208854
H  H75  1  0.94550000  0.76440000  0.26970000  1.0 0.1202540256
H  H76  1  0.44550000  0.73560000  0.76970000  1.0 0.1202540256
H  H77  1  0.97620000  0.65600000  0.36250000  1.0 0.1202540256
H  H78  1  0.47620000  0.84400000  0.86250000  1.0 0.1202540256
H  H79  1  0.87800000  0.74420000  0.38980000  1.0 0.1292208854
H  H80  1  0.37800000  0.75580000  0.88980000  1.0 0.1292208854
H  H81  1  0.75040000  0.91940000  0.44910000  1.0 0.1292208854
H  H82  1  0.25040000  0.58060000  0.94910000  1.0 0.1292208854
H  H83  1  0.71350000  0.89820000  0.56730000  1.0 0.1357593016
H  H84  1  0.21350000  0.60180000  0.06730000  1.0 0.1357593016
H  H85  1  0.74580000  0.89790000  0.62650000  1.0 0.1292208854
H  H86  1  0.24580000  0.60210000  0.12650000  1.0 0.1292208854
H  H87  1  0.62050000  0.09260000  0.62840000  1.0 0.1292208854
H  H88  1  0.12050000  0.40740000  0.12840000  1.0 0.1292208854
H  H89  1  0.59860000  0.09260000  0.57150000  1.0 0.1357593016
H  H90  1  0.09860000  0.40740000  0.07150000  1.0 0.1357593016
C  C1  1  0.00000000  0.00000000  0.41930000  1.0 -0.1612787746
C  C2  1  0.50000000  0.50000000  0.91930000  1.0 -0.1612787746
C  C3  1  0.03960000  0.94500000  0.43650000  1.0 0.1292208854
C  C4  1  0.96040000  0.05500000  0.43650000  1.0 0.1292208854
C  C5  1  0.46040000  0.44500000  0.93650000  1.0 0.1292208854
C  C6  1  0.53960000  0.55500000  0.93650000  1.0 0.1292208854
C  C7  1  0.08770000  0.88560000  0.41890000  1.0 -0.1001362908
C  C8  1  0.91230000  0.11440000  0.41890000  1.0 -0.1001362908
C  C9  1  0.41230000  0.38560000  0.91890000  1.0 -0.1001362908
C  C10  1  0.58770000  0.61440000  0.91890000  1.0 -0.1001362908
C  C11  1  0.12740000  0.83530000  0.40370000  1.0 -0.1001362908
C  C12  1  0.87260000  0.16470000  0.40370000  1.0 -0.1001362908
C  C13  1  0.37260000  0.33530000  0.90370000  1.0 -0.1001362908
C  C14  1  0.62740000  0.66470000  0.90370000  1.0 -0.1001362908
C  C15  1  0.18600000  0.78230000  0.38810000  1.0 0.1019592622
C  C16  1  0.81400000  0.21770000  0.38810000  1.0 0.1019592622
C  C17  1  0.31400000  0.28230000  0.88810000  1.0 0.1019592622
C  C18  1  0.68600000  0.71770000  0.88810000  1.0 0.1019592622
C  C19  1  0.22350000  0.72540000  0.40570000  1.0 -0.1205019466
C  C20  1  0.77650000  0.27460000  0.40570000  1.0 -0.1205019466
C  C21  1  0.27650000  0.22540000  0.90570000  1.0 -0.1205019466
C  C22  1  0.72350000  0.77460000  0.90570000  1.0 -0.1205019466
C  C23  1  0.28130000  0.66400000  0.39160000  1.0 -0.1309873106
C  C24  1  0.71870000  0.33600000  0.39160000  1.0 -0.1309873106
C  C25  1  0.21870000  0.16400000  0.89160000  1.0 -0.140858757
C  C26  1  0.78130000  0.83600000  0.89160000  1.0 -0.1309873106
C  C27  1  0.29320000  0.66680000  0.35570000  1.0 0.0289741468
C  C28  1  0.70680000  0.33320000  0.35570000  1.0 0.0289741468
C  C29  1  0.20680000  0.16680000  0.85570000  1.0 0.0289741468
C  C30  1  0.79320000  0.83320000  0.85570000  1.0 0.0289741468
C  C31  1  0.34980000  0.61340000  0.33580000  1.0 0.2963825018
C  C32  1  0.65020000  0.38660000  0.33580000  1.0 0.2963825018
C  C33  1  0.15020000  0.11340000  0.83580000  1.0 0.2963825018
C  C34  1  0.84980000  0.88660000  0.83580000  1.0 0.2963825018
C  C35  1  0.25980000  0.72010000  0.33550000  1.0 -0.140858757
C  C36  1  0.74020000  0.27990000  0.33550000  1.0 -0.140858757
C  C37  1  0.24020000  0.22010000  0.83550000  1.0 -0.140858757
C  C38  1  0.75980000  0.77990000  0.83550000  1.0 -0.140858757
C  C39  1  0.20310000  0.78410000  0.35220000  1.0 -0.1001362908
C  C40  1  0.79690000  0.21590000  0.35220000  1.0 -0.1001362908
C  C41  1  0.29690000  0.28410000  0.85220000  1.0 -0.1001362908
C  C42  1  0.70310000  0.71590000  0.85220000  1.0 -0.1001362908
C  C43  1  0.04190000  0.94190000  0.47450000  1.0 -0.1742491758
C  C44  1  0.95810000  0.05810000  0.47450000  1.0 -0.1742491758
C  C45  1  0.45810000  0.44190000  0.97450000  1.0 -0.1742491758
C  C46  1  0.54190000  0.55810000  0.97450000  1.0 -0.1742491758
C  C47  1  0.00000000  0.00000000  0.49190000  1.0 0.1465646254
C  C48  1  0.50000000  0.50000000  0.99190000  1.0 0.1465646254
C  C49  1  0.00000000  0.00000000  0.52980000  1.0 -0.1001362908
C  C50  1  0.50000000  0.50000000  0.02980000  1.0 -0.1001362908
C  C51  1  0.00000000  0.00000000  0.59610000  1.0 0.1019592622
C  C52  1  0.50000000  0.50000000  0.09610000  1.0 0.1019592622
C  C53  1  0.00000000  0.00000000  0.56070000  1.0 -0.1309873106
C  C54  1  0.50000000  0.50000000  0.06070000  1.0 -0.1309873106
C  C55  1  0.00000000  0.00000000  0.66410000  1.0 -0.0256487763
C  C56  1  0.50000000  0.50000000  0.16410000  1.0 -0.0256487763
C  C57  1  0.00000000  0.00000000  0.69940000  1.0 0.2132575364
C  C58  1  0.50000000  0.50000000  0.19940000  1.0 0.2132575364
C  C59  1  0.02400000  0.93460000  0.65090000  1.0 -0.1612787746
C  C60  1  0.97600000  0.06540000  0.65090000  1.0 -0.1612787746
C  C61  1  0.47600000  0.43460000  0.15090000  1.0 -0.1612787746
C  C62  1  0.52400000  0.56540000  0.15090000  1.0 -0.1612787746
C  C63  1  0.02300000  0.94050000  0.61580000  1.0 -0.1742491758
C  C64  1  0.97700000  0.05950000  0.61580000  1.0 -0.1742491758
C  C65  1  0.47700000  0.44050000  0.11580000  1.0 -0.1742491758
C  C66  1  0.52300000  0.55950000  0.11580000  1.0 -0.1742491758
C  C67  1  0.39250000  0.93560000  0.44400000  1.0 -0.1612787746
C  C68  1  0.89250000  0.56440000  0.94400000  1.0 -0.1612787746
C  C69  1  0.39820000  0.92750000  0.40910000  1.0 0.1357593016
C  C70  1  0.89820000  0.57250000  0.90910000  1.0 0.1357593016
C  C71  1  0.45420000  0.87170000  0.39020000  1.0 -0.1205019466
C  C72  1  0.95420000  0.62830000  0.89020000  1.0 -0.1205019466
C  C73  1  0.50020000  0.82130000  0.37400000  1.0 -0.1084592304
C  C74  1  0.00020000  0.67870000  0.87400000  1.0 -0.1084592304
C  C75  1  0.55410000  0.76730000  0.35770000  1.0 0.0916186964
C  C76  1  0.05410000  0.73270000  0.85770000  1.0 0.0916186964
C  C77  1  0.58580000  0.70650000  0.37390000  1.0 -0.140858757
C  C78  1  0.08580000  0.79350000  0.87390000  1.0 -0.140858757
C  C79  1  0.63440000  0.65090000  0.35390000  1.0 -0.1309873106
C  C80  1  0.13440000  0.84910000  0.85390000  1.0 -0.1309873106
C  C81  1  0.64200000  0.66070000  0.32000000  1.0 0.0289741468
C  C82  1  0.14200000  0.83930000  0.82000000  1.0 0.024619978
C  C83  1  0.69810000  0.60430000  0.30320000  1.0 0.2363916786
C  C84  1  0.19810000  0.89570000  0.80320000  1.0 0.2363916786
C  C85  1  0.61020000  0.71920000  0.30530000  1.0 -0.1205019466
C  C86  1  0.11020000  0.78080000  0.80530000  1.0 -0.1205019466
C  C87  1  0.56470000  0.77220000  0.32480000  1.0 -0.140858757
C  C88  1  0.06470000  0.72780000  0.82480000  1.0 -0.140858757
C  C89  1  0.34360000  0.97880000  0.38750000  1.0 -0.1830526086
C  C90  1  0.84360000  0.52120000  0.88750000  1.0 -0.1830526086
C  C91  1  0.28390000  0.03890000  0.40240000  1.0 0.1202540256
C  C92  1  0.78390000  0.46110000  0.90240000  1.0 0.1202540256
C  C93  1  0.22950000  0.08910000  0.38230000  1.0 -0.1001362908
C  C94  1  0.72950000  0.41090000  0.88230000  1.0 -0.1001362908
C  C95  1  0.18200000  0.13270000  0.36640000  1.0 -0.0888607277
C  C96  1  0.68200000  0.36730000  0.86640000  1.0 -0.0888607277
C  C97  1  0.13290000  0.19240000  0.34960000  1.0 0.1202540256
C  C98  1  0.63290000  0.30760000  0.84960000  1.0 0.1202540256
C  C99  1  0.11900000  0.17960000  0.31400000  1.0 -0.1309873106
C  C100  1  0.61900000  0.32040000  0.81400000  1.0 -0.1309873106
C  C101  1  0.06660000  0.23850000  0.29340000  1.0 -0.1612787746
C  C102  1  0.56660000  0.26150000  0.79340000  1.0 -0.1612787746
C  C103  1  0.03510000  0.30280000  0.31430000  1.0 0.0289741468
C  C104  1  0.53510000  0.19720000  0.81430000  1.0 0.0289741468
C  C105  1  0.97350000  0.36080000  0.29580000  1.0 0.3376809807
C  C106  1  0.47350000  0.13920000  0.79580000  1.0 0.3376809807
C  C107  1  0.05030000  0.30570000  0.35010000  1.0 -0.1473517267
C  C108  1  0.55030000  0.19430000  0.85010000  1.0 -0.1473517267
C  C109  1  0.10440000  0.25160000  0.36650000  1.0 -0.1205019466
C  C110  1  0.60440000  0.24840000  0.86650000  1.0 -0.1205019466
C  C111  1  0.28560000  0.04290000  0.43840000  1.0 -0.1830526086
C  C112  1  0.78560000  0.45710000  0.93840000  1.0 -0.1830526086
C  C113  1  0.34170000  0.99000000  0.46000000  1.0 0.1202540256
C  C114  1  0.84170000  0.51000000  0.96000000  1.0 0.1202540256
C  C115  1  0.33600000  0.99510000  0.49490000  1.0 -0.1001362908
C  C116  1  0.83600000  0.50490000  0.99490000  1.0 -0.1001362908
C  C117  1  0.33230000  0.00050000  0.52580000  1.0 -0.1084592304
C  C118  1  0.83230000  0.49950000  0.02580000  1.0 -0.1084592304
C  C119  1  0.32820000  0.00360000  0.56390000  1.0 0.1292208854
C  C120  1  0.82820000  0.49640000  0.06390000  1.0 0.1292208854
C  C121  1  0.29930000  0.06130000  0.58010000  1.0 -0.1309873106
C  C122  1  0.79930000  0.43870000  0.08010000  1.0 -0.1309873106
C  C123  1  0.28720000  0.06370000  0.61560000  1.0 -0.140858757
C  C124  1  0.78720000  0.43630000  0.11560000  1.0 -0.140858757
C  C125  1  0.32680000  0.00580000  0.63450000  1.0 0.0649141447
C  C126  1  0.82680000  0.49420000  0.13450000  1.0 0.0649141447
C  C127  1  0.32550000  0.00930000  0.67570000  1.0 0.3316831366
C  C128  1  0.82550000  0.49070000  0.17570000  1.0 0.3316831366
C  C129  1  0.36110000  0.94770000  0.61610000  1.0 -0.1473517267
C  C130  1  0.86110000  0.55230000  0.11610000  1.0 -0.1473517267
C  C131  1  0.36930000  0.94580000  0.58270000  1.0 -0.1205019466
C  C132  1  0.86930000  0.55420000  0.08270000  1.0 -0.1205019466
C  C133  1  0.60750000  0.06440000  0.44400000  1.0 -0.1612787746
C  C134  1  0.10750000  0.43560000  0.94400000  1.0 -0.1612787746
C  C135  1  0.60180000  0.07250000  0.40910000  1.0 0.1357593016
C  C136  1  0.10180000  0.42750000  0.90910000  1.0 0.1357593016
C  C137  1  0.54580000  0.12830000  0.39020000  1.0 -0.1205019466
C  C138  1  0.04580000  0.37170000  0.89020000  1.0 -0.1205019466
C  C139  1  0.49980000  0.17870000  0.37400000  1.0 -0.1084592304
C  C140  1  0.99980000  0.32130000  0.87400000  1.0 -0.1084592304
C  C141  1  0.44590000  0.23270000  0.35770000  1.0 0.0916186964
C  C142  1  0.94590000  0.26730000  0.85770000  1.0 0.0916186964
C  C143  1  0.41420000  0.29350000  0.37390000  1.0 -0.140858757
C  C144  1  0.91420000  0.20650000  0.87390000  1.0 -0.140858757
C  C145  1  0.36560000  0.34910000  0.35390000  1.0 -0.1309873106
C  C146  1  0.86560000  0.15090000  0.85390000  1.0 -0.1309873106
C  C147  1  0.35800000  0.33930000  0.32000000  1.0 0.0289741468
C  C148  1  0.85800000  0.16070000  0.82000000  1.0 0.0289741468
C  C149  1  0.30190000  0.39570000  0.30320000  1.0 0.2363916786
C  C150  1  0.80190000  0.10430000  0.80320000  1.0 0.2363916786
C  C151  1  0.38980000  0.28080000  0.30530000  1.0 -0.1205019466
C  C152  1  0.88980000  0.21920000  0.80530000  1.0 -0.1205019466
C  C153  1  0.43530000  0.22780000  0.32480000  1.0 -0.140858757
C  C154  1  0.93530000  0.27220000  0.82480000  1.0 -0.140858757
C  C155  1  0.65640000  0.02120000  0.38750000  1.0 -0.1830526086
C  C156  1  0.15640000  0.47880000  0.88750000  1.0 -0.1830526086
C  C157  1  0.71610000  0.96110000  0.40240000  1.0 0.1202540256
C  C158  1  0.21610000  0.53890000  0.90240000  1.0 0.1202540256
C  C159  1  0.77050000  0.91090000  0.38230000  1.0 -0.1001362908
C  C160  1  0.27050000  0.58910000  0.88230000  1.0 -0.1001362908
C  C161  1  0.81800000  0.86730000  0.36640000  1.0 -0.0888607277
C  C162  1  0.31800000  0.63270000  0.86640000  1.0 -0.0888607277
C  C163  1  0.86710000  0.80760000  0.34960000  1.0 0.1202540256
C  C164  1  0.36710000  0.69240000  0.84960000  1.0 0.1202540256
C  C165  1  0.88100000  0.82040000  0.31400000  1.0 -0.1309873106
C  C166  1  0.38100000  0.67960000  0.81400000  1.0 -0.1309873106
C  C167  1  0.93340000  0.76150000  0.29340000  1.0 -0.1612787746
C  C168  1  0.43340000  0.73850000  0.79340000  1.0 -0.1612787746
C  C169  1  0.96490000  0.69720000  0.31430000  1.0 0.0289741468
C  C170  1  0.46490000  0.80280000  0.81430000  1.0 0.0289741468
C  C171  1  0.02650000  0.63920000  0.29580000  1.0 0.3376809807
C  C172  1  0.52650000  0.86080000  0.79580000  1.0 0.3376809807
C  C173  1  0.94970000  0.69430000  0.35010000  1.0 -0.1473517267
C  C174  1  0.44970000  0.80570000  0.85010000  1.0 -0.1473517267
C  C175  1  0.89560000  0.74840000  0.36650000  1.0 -0.1205019466
C  C176  1  0.39560000  0.75160000  0.86650000  1.0 -0.1205019466
C  C177  1  0.71440000  0.95710000  0.43840000  1.0 -0.1830526086
C  C178  1  0.21440000  0.54290000  0.93840000  1.0 -0.1830526086
C  C179  1  0.65830000  0.01000000  0.46000000  1.0 0.1202540256
C  C180  1  0.15830000  0.49000000  0.96000000  1.0 0.1202540256
C  C181  1  0.66400000  0.00490000  0.49490000  1.0 -0.1001362908
C  C182  1  0.16400000  0.49510000  0.99490000  1.0 -0.1001362908
C  C183  1  0.66770000  0.99950000  0.52580000  1.0 -0.1084592304
C  C184  1  0.16770000  0.50050000  0.02580000  1.0 -0.1084592304
C  C185  1  0.67180000  0.99640000  0.56390000  1.0 0.1292208854
C  C186  1  0.17180000  0.50360000  0.06390000  1.0 0.1292208854
C  C187  1  0.70070000  0.93870000  0.58010000  1.0 -0.1309873106
C  C188  1  0.20070000  0.56130000  0.08010000  1.0 -0.1309873106
C  C189  1  0.71280000  0.93630000  0.61560000  1.0 -0.140858757
C  C190  1  0.21280000  0.56370000  0.11560000  1.0 -0.140858757
C  C191  1  0.67320000  0.99420000  0.63450000  1.0 0.0649141447
C  C192  1  0.17320000  0.50580000  0.13450000  1.0 0.0649141447
C  C193  1  0.67450000  0.99070000  0.67570000  1.0 0.3316831366
C  C194  1  0.17450000  0.50930000  0.17570000  1.0 0.3316831366
C  C195  1  0.63890000  0.05230000  0.61610000  1.0 -0.1473517267
C  C196  1  0.13890000  0.44770000  0.11610000  1.0 -0.1473517267
C  C197  1  0.63070000  0.05420000  0.58270000  1.0 -0.1205019466
C  C198  1  0.13070000  0.44580000  0.08270000  1.0 -0.1205019466
N  N1  1  0.39260000  0.56810000  0.32510000  1.0 -0.4128196089
N  N2  1  0.60740000  0.43190000  0.32510000  1.0 -0.4128196089
N  N3  1  0.10740000  0.06810000  0.82510000  1.0 -0.4128196089
N  N4  1  0.89260000  0.93190000  0.82510000  1.0 -0.4128196089
N  N5  1  0.00000000  0.00000000  0.73330000  1.0 -0.5475650876
N  N6  1  0.50000000  0.50000000  0.23330000  1.0 -0.5475650876
N  N7  1  0.74620000  0.56170000  0.28490000  1.0 -0.4128196089
N  N8  1  0.24620000  0.93830000  0.78490000  1.0 -0.4128196089
N  N9  1  0.32950000  0.01210000  0.70380000  1.0 -0.384748116
N  N10  1  0.82950000  0.48790000  0.20380000  1.0 -0.3854318707
N  N11  1  0.93590000  0.40380000  0.28380000  1.0 -0.4128196089
N  N12  1  0.43590000  0.09620000  0.78380000  1.0 -0.4128196089
N  N13  1  0.25380000  0.43830000  0.28490000  1.0 -0.4128196089
N  N14  1  0.75380000  0.06170000  0.78490000  1.0 -0.4128196089
N  N15  1  0.67050000  0.98790000  0.70380000  1.0 -0.3854318707
N  N16  1  0.17050000  0.51210000  0.20380000  1.0 -0.3854318707
N  N17  1  0.06410000  0.59620000  0.28380000  1.0 -0.4128196089
N  N18  1  0.56410000  0.90380000  0.78380000  1.0 -0.4128196089
