# DDEC6 charges by PACMAN v1.1 (https://github.com/mtap-research/PACMAN-charge/)
data_ZACHIX_ion_pacman
_symmetry_space_group_name_H-M   'P 1'
_cell_length_a   18.54880000
_cell_length_b   18.54880000
_cell_length_c   18.54880000
_cell_angle_alpha   60.00000000
_cell_angle_beta   60.00000000
_cell_angle_gamma   60.00000000
_symmetry_Int_Tables_number   1
_chemical_formula_structural   Cu12SiH48W12C80(NO52)2
_chemical_formula_sum   'Cu12 Si1 H48 W12 C80 N2 O104'
_cell_volume   4512.65838197
_cell_formula_units_Z   1
loop_
 _symmetry_equiv_pos_site_id
 _symmetry_equiv_pos_as_xyz
  1  'x, y, z'
loop_
 _atom_site_type_symbol
 _atom_site_label
 _atom_site_symmetry_multiplicity
 _atom_site_fract_x
 _atom_site_fract_y
 _atom_site_fract_z
 _atom_site_occupancy
 _atom_site_charge
Cu  Cu1  1  0.42976000  0.00000000  0.00000000  1.0 0.8982077036
Cu  Cu2  1  0.42976000  0.00000000  0.57024000  1.0 0.8982077036
Cu  Cu3  1  0.00000000  0.42976000  0.57024000  1.0 0.8982077036
Cu  Cu4  1  0.00000000  0.42976000  0.00000000  1.0 0.8982077036
Cu  Cu5  1  0.57024000  0.00000000  0.00000000  1.0 0.8982077036
Cu  Cu6  1  0.57024000  0.00000000  0.42976000  1.0 0.8982077036
Cu  Cu7  1  0.00000000  0.57024000  0.42976000  1.0 0.8982077036
Cu  Cu8  1  0.00000000  0.57024000  0.00000000  1.0 0.8982077036
Cu  Cu9  1  0.00000000  0.00000000  0.42976000  1.0 0.8982077036
Cu  Cu10  1  0.00000000  0.00000000  0.57024000  1.0 0.8982077036
Cu  Cu11  1  0.42976000  0.57024000  0.00000000  1.0 0.8982077036
Cu  Cu12  1  0.57024000  0.42976000  0.00000000  1.0 0.8982077036
Si  Si1  1  0.50000000  0.50000000  0.50000000  1.0 0.8770060732
H  H1  1  0.72860000  0.03320000  0.72860000  1.0 0.1474840237
H  H2  1  0.49040000  0.27140000  0.27140000  1.0 0.1474840237
H  H3  1  0.03320000  0.72860000  0.50960000  1.0 0.1474840237
H  H4  1  0.27140000  0.49040000  0.96680000  1.0 0.1474840237
H  H5  1  0.50960000  0.72860000  0.03320000  1.0 0.1474840237
H  H6  1  0.27140000  0.96680000  0.49040000  1.0 0.1474840237
H  H7  1  0.72860000  0.50960000  0.72860000  1.0 0.1474840237
H  H8  1  0.96680000  0.27140000  0.27140000  1.0 0.1474840237
H  H9  1  0.72860000  0.72860000  0.03320000  1.0 0.1474840237
H  H10  1  0.49040000  0.96680000  0.27140000  1.0 0.1474840237
H  H11  1  0.72860000  0.72860000  0.50960000  1.0 0.1474840237
H  H12  1  0.96680000  0.49040000  0.27140000  1.0 0.1474840237
H  H13  1  0.50960000  0.03320000  0.72860000  1.0 0.1474840237
H  H14  1  0.27140000  0.27140000  0.49040000  1.0 0.1474840237
H  H15  1  0.03320000  0.50960000  0.72860000  1.0 0.1474840237
H  H16  1  0.27140000  0.27140000  0.96680000  1.0 0.1474840237
H  H17  1  0.03320000  0.72860000  0.72860000  1.0 0.1474840237
H  H18  1  0.27140000  0.96680000  0.27140000  1.0 0.1474840237
H  H19  1  0.49040000  0.27140000  0.96680000  1.0 0.1474840237
H  H20  1  0.96680000  0.27140000  0.49040000  1.0 0.1474840237
H  H21  1  0.27140000  0.49040000  0.27140000  1.0 0.1474840237
H  H22  1  0.50960000  0.72860000  0.72860000  1.0 0.1474840237
H  H23  1  0.72860000  0.03320000  0.50960000  1.0 0.1474840237
H  H24  1  0.72860000  0.50960000  0.03320000  1.0 0.1474840237
H  H25  1  0.84770000  0.76330000  0.76330000  1.0 0.1563030972
H  H26  1  0.76330000  0.84770000  0.62570000  1.0 0.1563030972
H  H27  1  0.76330000  0.62570000  0.84770000  1.0 0.1563030972
H  H28  1  0.62570000  0.76330000  0.76330000  1.0 0.1563030972
H  H29  1  0.84770000  0.62570000  0.76330000  1.0 0.1563030972
H  H30  1  0.62570000  0.84770000  0.76330000  1.0 0.1563030972
H  H31  1  0.76330000  0.76330000  0.84770000  1.0 0.1563030972
H  H32  1  0.76330000  0.76330000  0.62570000  1.0 0.1563030972
H  H33  1  0.76330000  0.62570000  0.76330000  1.0 0.1563030972
H  H34  1  0.84770000  0.76330000  0.62570000  1.0 0.1563030972
H  H35  1  0.62570000  0.76330000  0.84770000  1.0 0.1563030972
H  H36  1  0.76330000  0.84770000  0.76330000  1.0 0.1563030972
H  H37  1  0.23670000  0.37430000  0.23670000  1.0 0.1563030972
H  H38  1  0.37430000  0.23670000  0.15230000  1.0 0.1563030972
H  H39  1  0.15230000  0.23670000  0.37430000  1.0 0.1563030972
H  H40  1  0.23670000  0.15230000  0.23670000  1.0 0.1563030972
H  H41  1  0.23670000  0.23670000  0.37430000  1.0 0.1563030972
H  H42  1  0.23670000  0.23670000  0.15230000  1.0 0.1563030972
H  H43  1  0.15230000  0.37430000  0.23670000  1.0 0.1563030972
H  H44  1  0.37430000  0.15230000  0.23670000  1.0 0.1563030972
H  H45  1  0.37430000  0.23670000  0.23670000  1.0 0.1563030972
H  H46  1  0.15230000  0.23670000  0.23670000  1.0 0.1563030972
H  H47  1  0.23670000  0.37430000  0.15230000  1.0 0.1563030972
H  H48  1  0.23670000  0.15230000  0.37430000  1.0 0.1563030972
W  W1  1  0.31080000  0.50000000  0.68920000  1.0 2.3578077747
W  W2  1  0.50000000  0.31080000  0.68920000  1.0 2.3578077747
W  W3  1  0.50000000  0.31080000  0.50000000  1.0 2.3578077747
W  W4  1  0.31080000  0.50000000  0.50000000  1.0 2.3578077747
W  W5  1  0.50000000  0.68920000  0.50000000  1.0 2.3578077747
W  W6  1  0.68920000  0.50000000  0.50000000  1.0 2.3578077747
W  W7  1  0.68920000  0.50000000  0.31080000  1.0 2.3578077747
W  W8  1  0.50000000  0.68920000  0.31080000  1.0 2.3578077747
W  W9  1  0.68920000  0.31080000  0.50000000  1.0 2.3578077747
W  W10  1  0.50000000  0.50000000  0.31080000  1.0 2.3578077747
W  W11  1  0.31080000  0.68920000  0.50000000  1.0 2.3578077747
W  W12  1  0.50000000  0.50000000  0.68920000  1.0 2.3578077747
C  C1  1  0.69920000  0.03480000  0.69920000  1.0 -0.103846668
C  C2  1  0.43320000  0.30080000  0.30080000  1.0 -0.103846668
C  C3  1  0.03480000  0.69920000  0.56680000  1.0 -0.103846668
C  C4  1  0.30080000  0.43320000  0.96520000  1.0 -0.103846668
C  C5  1  0.56680000  0.69920000  0.03480000  1.0 -0.103846668
C  C6  1  0.30080000  0.96520000  0.43320000  1.0 -0.103846668
C  C7  1  0.69920000  0.56680000  0.69920000  1.0 -0.103846668
C  C8  1  0.96520000  0.30080000  0.30080000  1.0 -0.103846668
C  C9  1  0.69920000  0.69920000  0.03480000  1.0 -0.103846668
C  C10  1  0.43320000  0.96520000  0.30080000  1.0 -0.103846668
C  C11  1  0.69920000  0.69920000  0.56680000  1.0 -0.103846668
C  C12  1  0.96520000  0.43320000  0.30080000  1.0 -0.103846668
C  C13  1  0.56680000  0.03480000  0.69920000  1.0 -0.103846668
C  C14  1  0.30080000  0.30080000  0.43320000  1.0 -0.103846668
C  C15  1  0.03480000  0.56680000  0.69920000  1.0 -0.103846668
C  C16  1  0.30080000  0.30080000  0.96520000  1.0 -0.103846668
C  C17  1  0.03480000  0.69920000  0.69920000  1.0 -0.103846668
C  C18  1  0.30080000  0.96520000  0.30080000  1.0 -0.103846668
C  C19  1  0.43320000  0.30080000  0.96520000  1.0 -0.103846668
C  C20  1  0.96520000  0.30080000  0.43320000  1.0 -0.103846668
C  C21  1  0.30080000  0.43320000  0.30080000  1.0 -0.103846668
C  C22  1  0.56680000  0.69920000  0.69920000  1.0 -0.103846668
C  C23  1  0.69920000  0.03480000  0.56680000  1.0 -0.103846668
C  C24  1  0.69920000  0.56680000  0.03480000  1.0 -0.103846668
C  C25  1  0.61090000  0.03590000  0.74230000  1.0 -0.0050485892
C  C26  1  0.38910000  0.25770000  0.38910000  1.0 -0.0050485892
C  C27  1  0.03590000  0.61090000  0.61090000  1.0 -0.0050485892
C  C28  1  0.25770000  0.38910000  0.96410000  1.0 -0.0050485892
C  C29  1  0.61090000  0.74230000  0.03590000  1.0 -0.0047076711
C  C30  1  0.38910000  0.96410000  0.38910000  1.0 -0.0050485892
C  C31  1  0.74230000  0.61090000  0.61090000  1.0 -0.0050485892
C  C32  1  0.96410000  0.38910000  0.25770000  1.0 -0.0050485892
C  C33  1  0.74230000  0.61090000  0.03590000  1.0 -0.0050485892
C  C34  1  0.38910000  0.96410000  0.25770000  1.0 -0.0047076711
C  C35  1  0.61090000  0.74230000  0.61090000  1.0 -0.0050485892
C  C36  1  0.96410000  0.38910000  0.38910000  1.0 -0.0050485892
C  C37  1  0.61090000  0.03590000  0.61090000  1.0 -0.0050485892
C  C38  1  0.25770000  0.38910000  0.38910000  1.0 -0.0050485892
C  C39  1  0.03590000  0.61090000  0.74230000  1.0 -0.0047076711
C  C40  1  0.38910000  0.25770000  0.96410000  1.0 -0.0050485892
C  C41  1  0.03590000  0.74230000  0.61090000  1.0 -0.0050485892
C  C42  1  0.25770000  0.96410000  0.38910000  1.0 -0.0050485892
C  C43  1  0.38910000  0.38910000  0.96410000  1.0 -0.0050485892
C  C44  1  0.96410000  0.25770000  0.38910000  1.0 -0.0050485892
C  C45  1  0.38910000  0.38910000  0.25770000  1.0 -0.0047076711
C  C46  1  0.61090000  0.61090000  0.74230000  1.0 -0.0050485892
C  C47  1  0.74230000  0.03590000  0.61090000  1.0 -0.0050485892
C  C48  1  0.61090000  0.61090000  0.03590000  1.0 -0.0050485892
C  C49  1  0.56750000  0.02770000  0.83730000  1.0 0.5784148667
C  C50  1  0.43250000  0.16270000  0.43250000  1.0 0.5784148667
C  C51  1  0.02770000  0.56750000  0.56750000  1.0 0.5784148667
C  C52  1  0.16270000  0.43250000  0.97230000  1.0 0.5784148667
C  C53  1  0.56750000  0.83730000  0.02770000  1.0 0.5784148667
C  C54  1  0.43250000  0.97230000  0.43250000  1.0 0.5784148667
C  C55  1  0.83730000  0.56750000  0.56750000  1.0 0.5784148667
C  C56  1  0.97230000  0.43250000  0.16270000  1.0 0.5784148667
C  C57  1  0.83730000  0.56750000  0.02770000  1.0 0.5784148667
C  C58  1  0.43250000  0.97230000  0.16270000  1.0 0.5784148667
C  C59  1  0.56750000  0.83730000  0.56750000  1.0 0.5784148667
C  C60  1  0.97230000  0.43250000  0.43250000  1.0 0.5784148667
C  C61  1  0.56750000  0.02770000  0.56750000  1.0 0.5784148667
C  C62  1  0.16270000  0.43250000  0.43250000  1.0 0.5784148667
C  C63  1  0.02770000  0.56750000  0.83730000  1.0 0.5784148667
C  C64  1  0.43250000  0.16270000  0.97230000  1.0 0.5784148667
C  C65  1  0.02770000  0.83730000  0.56750000  1.0 0.5784148667
C  C66  1  0.16270000  0.97230000  0.43250000  1.0 0.5784148667
C  C67  1  0.43250000  0.43250000  0.97230000  1.0 0.5784148667
C  C68  1  0.97230000  0.16270000  0.43250000  1.0 0.5784148667
C  C69  1  0.43250000  0.43250000  0.16270000  1.0 0.5784148667
C  C70  1  0.56750000  0.56750000  0.83730000  1.0 0.5784148667
C  C71  1  0.83730000  0.02770000  0.56750000  1.0 0.5784148667
C  C72  1  0.56750000  0.56750000  0.02770000  1.0 0.5784148667
C  C73  1  0.78440000  0.78440000  0.78440000  1.0 -0.3863075779
C  C74  1  0.78440000  0.78440000  0.64680000  1.0 -0.3863075779
C  C75  1  0.78440000  0.64680000  0.78440000  1.0 -0.3863075779
C  C76  1  0.64680000  0.78440000  0.78440000  1.0 -0.3863075779
C  C77  1  0.21560000  0.35320000  0.21560000  1.0 -0.3863075779
C  C78  1  0.35320000  0.21560000  0.21560000  1.0 -0.3863075779
C  C79  1  0.21560000  0.21560000  0.35320000  1.0 -0.3863075779
C  C80  1  0.21560000  0.21560000  0.21560000  1.0 -0.3863075779
N  N1  1  0.75000000  0.75000000  0.75000000  1.0 0.3543421222
N  N2  1  0.25000000  0.25000000  0.25000000  1.0 0.3543421222
O  O1  1  0.49220000  0.02140000  0.87380000  1.0 -0.4876783707
O  O2  1  0.38740000  0.12620000  0.50780000  1.0 -0.4876783707
O  O3  1  0.02140000  0.49220000  0.61260000  1.0 -0.4876783707
O  O4  1  0.12620000  0.38740000  0.97860000  1.0 -0.4876783707
O  O5  1  0.61260000  0.87380000  0.02140000  1.0 -0.4876783707
O  O6  1  0.50780000  0.97860000  0.38740000  1.0 -0.4876783707
O  O7  1  0.87380000  0.61260000  0.49220000  1.0 -0.4876783707
O  O8  1  0.97860000  0.50780000  0.12620000  1.0 -0.4876783707
O  O9  1  0.87380000  0.49220000  0.02140000  1.0 -0.4876783707
O  O10  1  0.38740000  0.97860000  0.12620000  1.0 -0.4876783707
O  O11  1  0.49220000  0.87380000  0.61260000  1.0 -0.4876783707
O  O12  1  0.97860000  0.38740000  0.50780000  1.0 -0.4876783707
O  O13  1  0.61260000  0.02140000  0.49220000  1.0 -0.4876783707
O  O14  1  0.12620000  0.50780000  0.38740000  1.0 -0.4876783707
O  O15  1  0.02140000  0.61260000  0.87380000  1.0 -0.4876783707
O  O16  1  0.50780000  0.12620000  0.97860000  1.0 -0.4876783707
O  O17  1  0.02140000  0.87380000  0.49220000  1.0 -0.4876783707
O  O18  1  0.12620000  0.97860000  0.50780000  1.0 -0.4876783707
O  O19  1  0.38740000  0.50780000  0.97860000  1.0 -0.4876783707
O  O20  1  0.97860000  0.12620000  0.38740000  1.0 -0.4876783707
O  O21  1  0.50780000  0.38740000  0.12620000  1.0 -0.4876783707
O  O22  1  0.61260000  0.49220000  0.87380000  1.0 -0.4876783707
O  O23  1  0.87380000  0.02140000  0.61260000  1.0 -0.4876783707
O  O24  1  0.49220000  0.61260000  0.02140000  1.0 -0.4876783707
O  O25  1  0.50780000  0.97860000  0.12620000  1.0 -0.4876783707
O  O26  1  0.61260000  0.87380000  0.49220000  1.0 -0.4876783707
O  O27  1  0.97860000  0.50780000  0.38740000  1.0 -0.4876783707
O  O28  1  0.87380000  0.61260000  0.02140000  1.0 -0.4876783707
O  O29  1  0.38740000  0.12620000  0.97860000  1.0 -0.4876783707
O  O30  1  0.49220000  0.02140000  0.61260000  1.0 -0.4876783707
O  O31  1  0.12620000  0.38740000  0.50780000  1.0 -0.4876783707
O  O32  1  0.02140000  0.49220000  0.87380000  1.0 -0.4876783707
O  O33  1  0.12620000  0.50780000  0.97860000  1.0 -0.4876783707
O  O34  1  0.61260000  0.02140000  0.87380000  1.0 -0.4876783707
O  O35  1  0.50780000  0.12620000  0.38740000  1.0 -0.4876783707
O  O36  1  0.02140000  0.61260000  0.49220000  1.0 -0.4876783707
O  O37  1  0.38740000  0.97860000  0.50780000  1.0 -0.4876783707
O  O38  1  0.87380000  0.49220000  0.61260000  1.0 -0.4876783707
O  O39  1  0.97860000  0.38740000  0.12620000  1.0 -0.4876783707
O  O40  1  0.49220000  0.87380000  0.02140000  1.0 -0.4876783707
O  O41  1  0.97860000  0.12620000  0.50780000  1.0 -0.4876783707
O  O42  1  0.87380000  0.02140000  0.49220000  1.0 -0.4876783707
O  O43  1  0.61260000  0.49220000  0.02140000  1.0 -0.4876783707
O  O44  1  0.02140000  0.87380000  0.61260000  1.0 -0.4876783707
O  O45  1  0.49220000  0.61260000  0.87380000  1.0 -0.4876783707
O  O46  1  0.38740000  0.50780000  0.12620000  1.0 -0.4876783707
O  O47  1  0.12620000  0.97860000  0.38740000  1.0 -0.4876783707
O  O48  1  0.50780000  0.38740000  0.97860000  1.0 -0.4876783707
O  O49  1  0.68960000  0.00000000  0.31040000  1.0 -0.1588511361
O  O50  1  0.00000000  0.68960000  0.31040000  1.0 -0.1588511361
O  O51  1  0.00000000  0.68960000  0.00000000  1.0 -0.1588511361
O  O52  1  0.68960000  0.00000000  0.00000000  1.0 -0.1588511361
O  O53  1  0.00000000  0.31040000  0.00000000  1.0 -0.1588511361
O  O54  1  0.31040000  0.00000000  0.00000000  1.0 -0.1588511361
O  O55  1  0.31040000  0.00000000  0.68960000  1.0 -0.1588511361
O  O56  1  0.00000000  0.31040000  0.68960000  1.0 -0.1588511361
O  O57  1  0.31040000  0.68960000  0.00000000  1.0 -0.1588511361
O  O58  1  0.00000000  0.00000000  0.68960000  1.0 -0.1588511361
O  O59  1  0.68960000  0.31040000  0.00000000  1.0 -0.1588511361
O  O60  1  0.00000000  0.00000000  0.31040000  1.0 -0.1588511361
O  O61  1  0.46790000  0.46790000  0.59630000  1.0 -0.3324105845
O  O62  1  0.53210000  0.40370000  0.53210000  1.0 -0.3324105845
O  O63  1  0.46790000  0.46790000  0.46790000  1.0 -0.3324105845
O  O64  1  0.40370000  0.53210000  0.53210000  1.0 -0.3324105845
O  O65  1  0.46790000  0.59630000  0.46790000  1.0 -0.3324105845
O  O66  1  0.53210000  0.53210000  0.53210000  1.0 -0.3324105845
O  O67  1  0.59630000  0.46790000  0.46790000  1.0 -0.3324105845
O  O68  1  0.53210000  0.53210000  0.40370000  1.0 -0.3324105845
O  O69  1  0.22060000  0.50000000  0.77940000  1.0 -0.5550235317
O  O70  1  0.50000000  0.22060000  0.77940000  1.0 -0.5532233523
O  O71  1  0.50000000  0.22060000  0.50000000  1.0 -0.5550235317
O  O72  1  0.22060000  0.50000000  0.50000000  1.0 -0.5550235317
O  O73  1  0.50000000  0.77940000  0.50000000  1.0 -0.5550235317
O  O74  1  0.77940000  0.50000000  0.50000000  1.0 -0.5550235317
O  O75  1  0.77940000  0.50000000  0.22060000  1.0 -0.5550235317
O  O76  1  0.50000000  0.77940000  0.22060000  1.0 -0.5532233523
O  O77  1  0.77940000  0.22060000  0.50000000  1.0 -0.5550235317
O  O78  1  0.50000000  0.50000000  0.22060000  1.0 -0.5550235317
O  O79  1  0.22060000  0.77940000  0.50000000  1.0 -0.5550235317
O  O80  1  0.50000000  0.50000000  0.77940000  1.0 -0.5550235317
O  O81  1  0.37380000  0.37380000  0.73100000  1.0 -0.8957249379
O  O82  1  0.47860000  0.26900000  0.62620000  1.0 -0.8957249379
O  O83  1  0.37380000  0.37380000  0.52140000  1.0 -0.8957249379
O  O84  1  0.26900000  0.47860000  0.62620000  1.0 -0.8957249379
O  O85  1  0.52140000  0.73100000  0.37380000  1.0 -0.8957249379
O  O86  1  0.62620000  0.62620000  0.47860000  1.0 -0.8957249379
O  O87  1  0.73100000  0.52140000  0.37380000  1.0 -0.8957249379
O  O88  1  0.62620000  0.62620000  0.26900000  1.0 -0.8957249379
O  O89  1  0.73100000  0.37380000  0.37380000  1.0 -0.8957249379
O  O90  1  0.47860000  0.62620000  0.26900000  1.0 -0.8957249379
O  O91  1  0.37380000  0.73100000  0.52140000  1.0 -0.8957249379
O  O92  1  0.62620000  0.47860000  0.62620000  1.0 -0.8957249379
O  O93  1  0.52140000  0.37380000  0.37380000  1.0 -0.8957249379
O  O94  1  0.26900000  0.62620000  0.47860000  1.0 -0.8957249379
O  O95  1  0.37380000  0.52140000  0.73100000  1.0 -0.8957249379
O  O96  1  0.62620000  0.26900000  0.62620000  1.0 -0.8957249379
O  O97  1  0.37380000  0.73100000  0.37380000  1.0 -0.8957249379
O  O98  1  0.26900000  0.62620000  0.62620000  1.0 -0.8957249379
O  O99  1  0.47860000  0.62620000  0.62620000  1.0 -0.8957249379
O  O100  1  0.62620000  0.26900000  0.47860000  1.0 -0.8957249379
O  O101  1  0.62620000  0.47860000  0.26900000  1.0 -0.8957249379
O  O102  1  0.52140000  0.37380000  0.73100000  1.0 -0.8957249379
O  O103  1  0.73100000  0.37380000  0.52140000  1.0 -0.8957249379
O  O104  1  0.37380000  0.52140000  0.37380000  1.0 -0.8957249379
