# DDEC6 charges by PACMAN v1.1 (https://github.com/mtap-research/PACMAN-charge/)
data_ZACHET_ASR_pacman
_symmetry_space_group_name_H-M   'P 1'
_cell_length_a   57.49560000
_cell_length_b   57.49560000
_cell_length_c   57.49560000
_cell_angle_alpha   25.41900000
_cell_angle_beta   25.41900000
_cell_angle_gamma   25.41900000
_symmetry_Int_Tables_number   1
_chemical_formula_structural   Zn20H108C192S3(N2O17)4
_chemical_formula_sum   'Zn40 H216 C384 S6 N16 O136'
_cell_volume   30823.66549982
_cell_formula_units_Z   2
loop_
 _symmetry_equiv_pos_site_id
 _symmetry_equiv_pos_as_xyz
  1  'x, y, z'
loop_
 _atom_site_type_symbol
 _atom_site_label
 _atom_site_symmetry_multiplicity
 _atom_site_fract_x
 _atom_site_fract_y
 _atom_site_fract_z
 _atom_site_occupancy
 _atom_site_charge
Zn  Zn1  1  0.75196000  0.07071000  0.41208000  1.0 0.9455314603
Zn  Zn2  1  0.07071000  0.41208000  0.75196000  1.0 0.9455314603
Zn  Zn3  1  0.41208000  0.75196000  0.07071000  1.0 0.9455314603
Zn  Zn4  1  0.24804000  0.92929000  0.58792000  1.0 0.9455314603
Zn  Zn5  1  0.92929000  0.58792000  0.24804000  1.0 0.9455314603
Zn  Zn6  1  0.58792000  0.24804000  0.92929000  1.0 0.9407803162
Zn  Zn7  1  0.66758000  0.11336000  0.49437000  1.0 0.9407803162
Zn  Zn8  1  0.11336000  0.49437000  0.66758000  1.0 0.9407803162
Zn  Zn9  1  0.49437000  0.66758000  0.11336000  1.0 0.9407803162
Zn  Zn10  1  0.33242000  0.88664000  0.50563000  1.0 0.9407803162
Zn  Zn11  1  0.88664000  0.50563000  0.33242000  1.0 0.9407803162
Zn  Zn12  1  0.50563000  0.33242000  0.88664000  1.0 0.9407803162
Zn  Zn13  1  0.74051000  0.18284000  0.35217000  1.0 0.858723813
Zn  Zn14  1  0.18284000  0.35217000  0.74051000  1.0 0.858723813
Zn  Zn15  1  0.35217000  0.74051000  0.18284000  1.0 0.858723813
Zn  Zn16  1  0.25949000  0.81716000  0.64783000  1.0 0.8544292537
Zn  Zn17  1  0.81716000  0.64783000  0.25949000  1.0 0.858723813
Zn  Zn18  1  0.64783000  0.25949000  0.81716000  1.0 0.8544292537
Zn  Zn19  1  0.62677000  0.19680000  0.41070000  1.0 0.9307427612
Zn  Zn20  1  0.19680000  0.41070000  0.62677000  1.0 0.9307427612
Zn  Zn21  1  0.41070000  0.62677000  0.19680000  1.0 0.9307427612
Zn  Zn22  1  0.37323000  0.80320000  0.58930000  1.0 0.9307427612
Zn  Zn23  1  0.80320000  0.58930000  0.37323000  1.0 0.9307427612
Zn  Zn24  1  0.58930000  0.37323000  0.80320000  1.0 0.9307427612
Zn  Zn25  1  0.31852000  0.31852000  0.31852000  1.0 0.9307427612
Zn  Zn26  1  0.68148000  0.68148000  0.68148000  1.0 0.9307427612
Zn  Zn27  1  0.17736000  0.17736000  0.17736000  1.0 0.9307427612
Zn  Zn28  1  0.82264000  0.82264000  0.82264000  1.0 0.9307427612
Zn  Zn29  1  0.17650000  0.08305000  0.22660000  1.0 0.9675612635
Zn  Zn30  1  0.08305000  0.22660000  0.17650000  1.0 0.9675612635
Zn  Zn31  1  0.22660000  0.17650000  0.08305000  1.0 0.9675612635
Zn  Zn32  1  0.82350000  0.91695000  0.77340000  1.0 0.9675612635
Zn  Zn33  1  0.91695000  0.77340000  0.82350000  1.0 0.9675612635
Zn  Zn34  1  0.77340000  0.82350000  0.91695000  1.0 0.9675612635
Zn  Zn35  1  0.31409000  0.27318000  0.41450000  1.0 0.9612174121
Zn  Zn36  1  0.27318000  0.41450000  0.31409000  1.0 0.9612174121
Zn  Zn37  1  0.41450000  0.31409000  0.27318000  1.0 0.9612174121
Zn  Zn38  1  0.68591000  0.72682000  0.58550000  1.0 0.9612174121
Zn  Zn39  1  0.72682000  0.58550000  0.68591000  1.0 0.9612174121
Zn  Zn40  1  0.58550000  0.68591000  0.72682000  1.0 0.9612174121
H  H1  1  0.90358000  0.17060000  0.19330000  1.0 0.120394782
H  H2  1  0.17060000  0.19330000  0.90358000  1.0 0.120394782
H  H3  1  0.19330000  0.90358000  0.17060000  1.0 0.120394782
H  H4  1  0.09642000  0.82940000  0.80670000  1.0 0.120394782
H  H5  1  0.82940000  0.80670000  0.09642000  1.0 0.120394782
H  H6  1  0.80670000  0.09642000  0.82940000  1.0 0.120394782
H  H7  1  0.93448000  0.02150000  0.26410000  1.0 0.1117256074
H  H8  1  0.02150000  0.26410000  0.93448000  1.0 0.1117256074
H  H9  1  0.26410000  0.93448000  0.02150000  1.0 0.1117256074
H  H10  1  0.06552000  0.97850000  0.73590000  1.0 0.1117256074
H  H11  1  0.97850000  0.73590000  0.06552000  1.0 0.1117256074
H  H12  1  0.73590000  0.06552000  0.97850000  1.0 0.1117256074
H  H13  1  0.67908000  0.85090000  0.73720000  1.0 0.1301896978
H  H14  1  0.85090000  0.73720000  0.67908000  1.0 0.1301896978
H  H15  1  0.73720000  0.67908000  0.85090000  1.0 0.1301896978
H  H16  1  0.32092000  0.14910000  0.26280000  1.0 0.1301896978
H  H17  1  0.14910000  0.26280000  0.32092000  1.0 0.1301896978
H  H18  1  0.26280000  0.32092000  0.14910000  1.0 0.1301896978
H  H19  1  0.99458000  0.16240000  0.10360000  1.0 0.1301896978
H  H20  1  0.16240000  0.10360000  0.99458000  1.0 0.1301896978
H  H21  1  0.10360000  0.99458000  0.16240000  1.0 0.1301896978
H  H22  1  0.00542000  0.83760000  0.89640000  1.0 0.1301896978
H  H23  1  0.83760000  0.89640000  0.00542000  1.0 0.1301896978
H  H24  1  0.89640000  0.00542000  0.83760000  1.0 0.1301896978
H  H25  1  0.67168000  0.94660000  0.65190000  1.0 0.1301896978
H  H26  1  0.94660000  0.65190000  0.67168000  1.0 0.1301896978
H  H27  1  0.65190000  0.67168000  0.94660000  1.0 0.1301896978
H  H28  1  0.32832000  0.05340000  0.34810000  1.0 0.1301896978
H  H29  1  0.05340000  0.34810000  0.32832000  1.0 0.1301896978
H  H30  1  0.34810000  0.32832000  0.05340000  1.0 0.1301896978
H  H31  1  0.02778000  0.01010000  0.17740000  1.0 0.1301896978
H  H32  1  0.01010000  0.17740000  0.02778000  1.0 0.1301896978
H  H33  1  0.17740000  0.02778000  0.01010000  1.0 0.1301896978
H  H34  1  0.97222000  0.98990000  0.82260000  1.0 0.1301896978
H  H35  1  0.98990000  0.82260000  0.97222000  1.0 0.1301896978
H  H36  1  0.82260000  0.97222000  0.98990000  1.0 0.1301896978
H  H37  1  0.79848000  0.87810000  0.55010000  1.0 0.120394782
H  H38  1  0.87810000  0.55010000  0.79848000  1.0 0.120394782
H  H39  1  0.55010000  0.79848000  0.87810000  1.0 0.120394782
H  H40  1  0.20152000  0.12190000  0.44990000  1.0 0.120394782
H  H41  1  0.12190000  0.44990000  0.20152000  1.0 0.120394782
H  H42  1  0.44990000  0.20152000  0.12190000  1.0 0.120394782
H  H43  1  0.73108000  0.01480000  0.41450000  1.0 0.120394782
H  H44  1  0.01480000  0.41450000  0.73108000  1.0 0.120394782
H  H45  1  0.41450000  0.73108000  0.01480000  1.0 0.120394782
H  H46  1  0.26892000  0.98520000  0.58550000  1.0 0.120394782
H  H47  1  0.98520000  0.58550000  0.26892000  1.0 0.120394782
H  H48  1  0.58550000  0.26892000  0.98520000  1.0 0.120394782
H  H49  1  0.80478000  0.78380000  0.63570000  1.0 0.1301896978
H  H50  1  0.78380000  0.63570000  0.80478000  1.0 0.1301896978
H  H51  1  0.63570000  0.80478000  0.78380000  1.0 0.1301896978
H  H52  1  0.19522000  0.21620000  0.36430000  1.0 0.1301896978
H  H53  1  0.21620000  0.36430000  0.19522000  1.0 0.1301896978
H  H54  1  0.36430000  0.19522000  0.21620000  1.0 0.1301896978
H  H55  1  0.71118000  0.10360000  0.53730000  1.0 0.1117256074
H  H56  1  0.10360000  0.53730000  0.71118000  1.0 0.1117256074
H  H57  1  0.53730000  0.71118000  0.10360000  1.0 0.1117256074
H  H58  1  0.28882000  0.89640000  0.46270000  1.0 0.1117256074
H  H59  1  0.89640000  0.46270000  0.28882000  1.0 0.1117256074
H  H60  1  0.46270000  0.28882000  0.89640000  1.0 0.1117256074
H  H61  1  0.70698000  0.98450000  0.42900000  1.0 0.1301896978
H  H62  1  0.98450000  0.42900000  0.70698000  1.0 0.1301896978
H  H63  1  0.42900000  0.70698000  0.98450000  1.0 0.1301896978
H  H64  1  0.29302000  0.01550000  0.57100000  1.0 0.1301896978
H  H65  1  0.01550000  0.57100000  0.29302000  1.0 0.1301896978
H  H66  1  0.57100000  0.29302000  0.01550000  1.0 0.1301896978
H  H67  1  0.75408000  0.09050000  0.54680000  1.0 0.1301896978
H  H68  1  0.09050000  0.54680000  0.75408000  1.0 0.1301896978
H  H69  1  0.54680000  0.75408000  0.09050000  1.0 0.1301896978
H  H70  1  0.24592000  0.90950000  0.45320000  1.0 0.1301896978
H  H71  1  0.90950000  0.45320000  0.24592000  1.0 0.1301896978
H  H72  1  0.45320000  0.24592000  0.90950000  1.0 0.1301896978
H  H73  1  0.83318000  0.91800000  0.66690000  1.0 0.120394782
H  H74  1  0.91800000  0.66690000  0.83318000  1.0 0.120394782
H  H75  1  0.66690000  0.83318000  0.91800000  1.0 0.120394782
H  H76  1  0.16682000  0.08200000  0.33310000  1.0 0.120394782
H  H77  1  0.08200000  0.33310000  0.16682000  1.0 0.120394782
H  H78  1  0.33310000  0.16682000  0.08200000  1.0 0.120394782
H  H79  1  0.64668000  0.85100000  0.59280000  1.0 0.1117256074
H  H80  1  0.85100000  0.59280000  0.64668000  1.0 0.1117256074
H  H81  1  0.59280000  0.64668000  0.85100000  1.0 0.1117256074
H  H82  1  0.35332000  0.14900000  0.40720000  1.0 0.1117256074
H  H83  1  0.14900000  0.40720000  0.35332000  1.0 0.1117256074
H  H84  1  0.40720000  0.35332000  0.14900000  1.0 0.1117256074
H  H85  1  0.90018000  0.09610000  0.38190000  1.0 0.120394782
H  H86  1  0.09610000  0.38190000  0.90018000  1.0 0.120394782
H  H87  1  0.38190000  0.90018000  0.09610000  1.0 0.120394782
H  H88  1  0.09982000  0.90390000  0.61810000  1.0 0.120394782
H  H89  1  0.90390000  0.61810000  0.09982000  1.0 0.120394782
H  H90  1  0.61810000  0.09982000  0.90390000  1.0 0.120394782
H  H91  1  0.85538000  0.11280000  0.37160000  1.0 0.120394782
H  H92  1  0.11280000  0.37160000  0.85538000  1.0 0.120394782
H  H93  1  0.37160000  0.85538000  0.11280000  1.0 0.120394782
H  H94  1  0.14462000  0.88720000  0.62840000  1.0 0.120394782
H  H95  1  0.88720000  0.62840000  0.14462000  1.0 0.120394782
H  H96  1  0.62840000  0.14462000  0.88720000  1.0 0.120394782
H  H97  1  0.97028000  0.00510000  0.45560000  1.0 0.1301896978
H  H98  1  0.00510000  0.45560000  0.97028000  1.0 0.1301896978
H  H99  1  0.45560000  0.97028000  0.00510000  1.0 0.1301896978
H  H100  1  0.02972000  0.99490000  0.54440000  1.0 0.1301896978
H  H101  1  0.99490000  0.54440000  0.02972000  1.0 0.1301896978
H  H102  1  0.54440000  0.02972000  0.99490000  1.0 0.1301896978
H  H103  1  0.04808000  0.02860000  0.37440000  1.0 0.120394782
H  H104  1  0.02860000  0.37440000  0.04808000  1.0 0.120394782
H  H105  1  0.37440000  0.04808000  0.02860000  1.0 0.120394782
H  H106  1  0.95192000  0.97140000  0.62560000  1.0 0.120394782
H  H107  1  0.97140000  0.62560000  0.95192000  1.0 0.120394782
H  H108  1  0.62560000  0.95192000  0.97140000  1.0 0.120394782
H  H109  1  0.60448000  0.14310000  0.33510000  1.0 0.1362592565
H  H110  1  0.14310000  0.33510000  0.60448000  1.0 0.1362592565
H  H111  1  0.33510000  0.60448000  0.14310000  1.0 0.1362592565
H  H112  1  0.39552000  0.85690000  0.66490000  1.0 0.1362592565
H  H113  1  0.85690000  0.66490000  0.39552000  1.0 0.1362592565
H  H114  1  0.66490000  0.39552000  0.85690000  1.0 0.1362592565
H  H115  1  0.86578000  0.17630000  0.37600000  1.0 0.1301896978
H  H116  1  0.17630000  0.37600000  0.86578000  1.0 0.1301896978
H  H117  1  0.37600000  0.86578000  0.17630000  1.0 0.1301896978
H  H118  1  0.13422000  0.82370000  0.62400000  1.0 0.1301896978
H  H119  1  0.82370000  0.62400000  0.13422000  1.0 0.1301896978
H  H120  1  0.62400000  0.13422000  0.82370000  1.0 0.1301896978
H  H121  1  0.43548000  0.12680000  0.47900000  1.0 0.120394782
H  H122  1  0.12680000  0.47900000  0.43548000  1.0 0.120394782
H  H123  1  0.47900000  0.43548000  0.12680000  1.0 0.120394782
H  H124  1  0.56452000  0.87320000  0.52100000  1.0 0.120394782
H  H125  1  0.87320000  0.52100000  0.56452000  1.0 0.120394782
H  H126  1  0.52100000  0.56452000  0.87320000  1.0 0.120394782
H  H127  1  0.61688000  0.94840000  0.54290000  1.0 0.1362592565
H  H128  1  0.94840000  0.54290000  0.61688000  1.0 0.1362592565
H  H129  1  0.54290000  0.61688000  0.94840000  1.0 0.1362592565
H  H130  1  0.38312000  0.05160000  0.45710000  1.0 0.1362592565
H  H131  1  0.05160000  0.45710000  0.38312000  1.0 0.1362592565
H  H132  1  0.45710000  0.38312000  0.05160000  1.0 0.1362592565
H  H133  1  0.50308000  0.05510000  0.50890000  1.0 0.1301896978
H  H134  1  0.05510000  0.50890000  0.50308000  1.0 0.1301896978
H  H135  1  0.50890000  0.50308000  0.05510000  1.0 0.1301896978
H  H136  1  0.49692000  0.94490000  0.49110000  1.0 0.1301896978
H  H137  1  0.94490000  0.49110000  0.49692000  1.0 0.1301896978
H  H138  1  0.49110000  0.49692000  0.94490000  1.0 0.1301896978
H  H139  1  0.56748000  0.16420000  0.42900000  1.0 0.120394782
H  H140  1  0.16420000  0.42900000  0.56748000  1.0 0.120394782
H  H141  1  0.42900000  0.56748000  0.16420000  1.0 0.120394782
H  H142  1  0.43252000  0.83580000  0.57100000  1.0 0.120394782
H  H143  1  0.83580000  0.57100000  0.43252000  1.0 0.120394782
H  H144  1  0.57100000  0.43252000  0.83580000  1.0 0.120394782
H  H145  1  0.67238000  0.88840000  0.47180000  1.0 0.120394782
H  H146  1  0.88840000  0.47180000  0.67238000  1.0 0.120394782
H  H147  1  0.47180000  0.67238000  0.88840000  1.0 0.120394782
H  H148  1  0.32762000  0.11160000  0.52820000  1.0 0.120394782
H  H149  1  0.11160000  0.52820000  0.32762000  1.0 0.120394782
H  H150  1  0.52820000  0.32762000  0.11160000  1.0 0.120394782
H  H151  1  0.53908000  0.20860000  0.30830000  1.0 0.120394782
H  H152  1  0.20860000  0.30830000  0.53908000  1.0 0.120394782
H  H153  1  0.30830000  0.53908000  0.20860000  1.0 0.120394782
H  H154  1  0.46092000  0.79140000  0.69170000  1.0 0.120394782
H  H155  1  0.79140000  0.69170000  0.46092000  1.0 0.120394782
H  H156  1  0.69170000  0.46092000  0.79140000  1.0 0.120394782
H  H157  1  0.84058000  0.09720000  0.51750000  1.0 0.1301896978
H  H158  1  0.09720000  0.51750000  0.84058000  1.0 0.1301896978
H  H159  1  0.51750000  0.84058000  0.09720000  1.0 0.1301896978
H  H160  1  0.15942000  0.90280000  0.48250000  1.0 0.1301896978
H  H161  1  0.90280000  0.48250000  0.15942000  1.0 0.1301896978
H  H162  1  0.48250000  0.15942000  0.90280000  1.0 0.1301896978
H  H163  1  0.54658000  0.14490000  0.42870000  1.0 0.1301896978
H  H164  1  0.14490000  0.42870000  0.54658000  1.0 0.1301896978
H  H165  1  0.42870000  0.54658000  0.14490000  1.0 0.1301896978
H  H166  1  0.45342000  0.85510000  0.57130000  1.0 0.1301896978
H  H167  1  0.85510000  0.57130000  0.45342000  1.0 0.1301896978
H  H168  1  0.57130000  0.45342000  0.85510000  1.0 0.1301896978
H  H169  1  0.64198000  0.99050000  0.41750000  1.0 0.1301896978
H  H170  1  0.99050000  0.41750000  0.64198000  1.0 0.1301896978
H  H171  1  0.41750000  0.64198000  0.99050000  1.0 0.1301896978
H  H172  1  0.35802000  0.00950000  0.58250000  1.0 0.1301896978
H  H173  1  0.00950000  0.58250000  0.35802000  1.0 0.1301896978
H  H174  1  0.58250000  0.35802000  0.00950000  1.0 0.1301896978
H  H175  1  0.94238000  0.19860000  0.29660000  1.0 0.1117256074
H  H176  1  0.19860000  0.29660000  0.94238000  1.0 0.1117256074
H  H177  1  0.29660000  0.94238000  0.19860000  1.0 0.1117256074
H  H178  1  0.05762000  0.80140000  0.70340000  1.0 0.1117256074
H  H179  1  0.80140000  0.70340000  0.05762000  1.0 0.1117256074
H  H180  1  0.70340000  0.05762000  0.80140000  1.0 0.1117256074
H  H181  1  0.85388000  0.97150000  0.57200000  1.0 0.1301896978
H  H182  1  0.97150000  0.57200000  0.85388000  1.0 0.1301896978
H  H183  1  0.57200000  0.85388000  0.97150000  1.0 0.1301896978
H  H184  1  0.14612000  0.02850000  0.42800000  1.0 0.1301896978
H  H185  1  0.02850000  0.42800000  0.14612000  1.0 0.1301896978
H  H186  1  0.42800000  0.14612000  0.02850000  1.0 0.1301896978
H  H187  1  0.81758000  0.04180000  0.61750000  1.0 0.120394782
H  H188  1  0.04180000  0.61750000  0.81758000  1.0 0.120394782
H  H189  1  0.61750000  0.81758000  0.04180000  1.0 0.120394782
H  H190  1  0.18242000  0.95820000  0.38250000  1.0 0.120394782
H  H191  1  0.95820000  0.38250000  0.18242000  1.0 0.120394782
H  H192  1  0.38250000  0.18242000  0.95820000  1.0 0.120394782
H  H193  1  0.36528000  0.20340000  0.70540000  1.0 0.0871455234
H  H194  1  0.20340000  0.70540000  0.36528000  1.0 0.0871455234
H  H195  1  0.70540000  0.36528000  0.20340000  1.0 0.0871455234
H  H196  1  0.63472000  0.79660000  0.29460000  1.0 0.0871455234
H  H197  1  0.79660000  0.29460000  0.63472000  1.0 0.0871455234
H  H198  1  0.29460000  0.63472000  0.79660000  1.0 0.0871455234
H  H199  1  0.47798000  0.15100000  0.65110000  1.0 0.061216332
H  H200  1  0.15100000  0.65110000  0.47798000  1.0 0.061216332
H  H201  1  0.65110000  0.47798000  0.15100000  1.0 0.061216332
H  H202  1  0.52202000  0.84900000  0.34890000  1.0 0.061216332
H  H203  1  0.84900000  0.34890000  0.52202000  1.0 0.061216332
H  H204  1  0.34890000  0.52202000  0.84900000  1.0 0.061216332
H  H205  1  0.48658000  0.18200000  0.62950000  1.0 0.0978745277
H  H206  1  0.18200000  0.62950000  0.48658000  1.0 0.0978745277
H  H207  1  0.62950000  0.48658000  0.18200000  1.0 0.0978745277
H  H208  1  0.51342000  0.81800000  0.37050000  1.0 0.0978745277
H  H209  1  0.81800000  0.37050000  0.51342000  1.0 0.0978745277
H  H210  1  0.37050000  0.51342000  0.81800000  1.0 0.0978745277
H  H211  1  0.36358000  0.25280000  0.67960000  1.0 0.1117256074
H  H212  1  0.25280000  0.67960000  0.36358000  1.0 0.1117256074
H  H213  1  0.67960000  0.36358000  0.25280000  1.0 0.1117256074
H  H214  1  0.63642000  0.74720000  0.32040000  1.0 0.1117256074
H  H215  1  0.74720000  0.32040000  0.63642000  1.0 0.1117256074
H  H216  1  0.32040000  0.63642000  0.74720000  1.0 0.0978745277
C  C1  1  0.90881000  0.09603000  0.23963000  1.0 -0.0995460187
C  C2  1  0.09603000  0.23963000  0.90881000  1.0 -0.0995460187
C  C3  1  0.23963000  0.90881000  0.09603000  1.0 -0.0995460187
C  C4  1  0.09119000  0.90397000  0.76037000  1.0 -0.0995460187
C  C5  1  0.90397000  0.76037000  0.09119000  1.0 -0.0995460187
C  C6  1  0.76037000  0.09119000  0.90397000  1.0 -0.0995460187
C  C7  1  0.84978000  0.10250000  0.29480000  1.0 0.589409966
C  C8  1  0.10250000  0.29480000  0.84978000  1.0 0.589409966
C  C9  1  0.29480000  0.84978000  0.10250000  1.0 0.589409966
C  C10  1  0.15022000  0.89750000  0.70520000  1.0 0.589409966
C  C11  1  0.89750000  0.70520000  0.15022000  1.0 0.589409966
C  C12  1  0.70520000  0.15022000  0.89750000  1.0 0.589409966
C  C13  1  0.72932000  0.98444000  0.53764000  1.0 0.589409966
C  C14  1  0.98444000  0.53764000  0.72932000  1.0 0.589409966
C  C15  1  0.53764000  0.72932000  0.98444000  1.0 0.589409966
C  C16  1  0.27068000  0.01556000  0.46236000  1.0 0.589409966
C  C17  1  0.01556000  0.46236000  0.27068000  1.0 0.589409966
C  C18  1  0.46236000  0.27068000  0.01556000  1.0 0.589409966
C  C19  1  0.73492000  0.92234000  0.59204000  1.0 -0.0611201561
C  C20  1  0.92234000  0.59204000  0.73492000  1.0 -0.0611201561
C  C21  1  0.59204000  0.73492000  0.92234000  1.0 -0.0611201561
C  C22  1  0.26508000  0.07766000  0.40796000  1.0 -0.0611201561
C  C23  1  0.07766000  0.40796000  0.26508000  1.0 -0.0611201561
C  C24  1  0.40796000  0.26508000  0.07766000  1.0 -0.0611201561
C  C25  1  0.92759000  0.13841000  0.19071000  1.0 -0.0716559043
C  C26  1  0.13841000  0.19071000  0.92759000  1.0 -0.0716559043
C  C27  1  0.19071000  0.92759000  0.13841000  1.0 -0.0795208217
C  C28  1  0.07241000  0.86159000  0.80929000  1.0 -0.0716559043
C  C29  1  0.86159000  0.80929000  0.07241000  1.0 -0.0795208217
C  C30  1  0.80929000  0.07241000  0.86159000  1.0 -0.0716559043
C  C31  1  0.66781000  0.10793000  0.41503000  1.0 0.589409966
C  C32  1  0.10793000  0.41503000  0.66781000  1.0 0.589409966
C  C33  1  0.41503000  0.66781000  0.10793000  1.0 0.589409966
C  C34  1  0.33219000  0.89207000  0.58497000  1.0 0.589409966
C  C35  1  0.89207000  0.58497000  0.33219000  1.0 0.589409966
C  C36  1  0.58497000  0.33219000  0.89207000  1.0 0.589409966
C  C37  1  0.02128000  0.08550000  0.13130000  1.0 0.1599475306
C  C38  1  0.08550000  0.13130000  0.02128000  1.0 0.1599475306
C  C39  1  0.13130000  0.02128000  0.08550000  1.0 0.1599475306
C  C40  1  0.97872000  0.91450000  0.86870000  1.0 0.1599475306
C  C41  1  0.91450000  0.86870000  0.97872000  1.0 0.1599475306
C  C42  1  0.86870000  0.97872000  0.91450000  1.0 0.1599475306
C  C43  1  0.74217000  0.80749000  0.69559000  1.0 0.1530273519
C  C44  1  0.80749000  0.69559000  0.74217000  1.0 0.1530273519
C  C45  1  0.69559000  0.74217000  0.80749000  1.0 0.1530273519
C  C46  1  0.25783000  0.19251000  0.30441000  1.0 0.1530273519
C  C47  1  0.19251000  0.30441000  0.25783000  1.0 0.1530273519
C  C48  1  0.30441000  0.25783000  0.19251000  1.0 0.1530273519
C  C49  1  0.77713000  0.11295000  0.45135000  1.0 -0.0795208217
C  C50  1  0.11295000  0.45135000  0.77713000  1.0 -0.0795208217
C  C51  1  0.45135000  0.77713000  0.11295000  1.0 -0.0795208217
C  C52  1  0.22287000  0.88705000  0.54865000  1.0 -0.0795208217
C  C53  1  0.88705000  0.54865000  0.22287000  1.0 -0.0795208217
C  C54  1  0.54865000  0.22287000  0.88705000  1.0 -0.0795208217
C  C55  1  0.94695000  0.04987000  0.23217000  1.0 -0.0716559043
C  C56  1  0.04987000  0.23217000  0.94695000  1.0 -0.0716559043
C  C57  1  0.23217000  0.94695000  0.04987000  1.0 -0.0716559043
C  C58  1  0.05305000  0.95013000  0.76783000  1.0 -0.0716559043
C  C59  1  0.95013000  0.76783000  0.05305000  1.0 -0.0716559043
C  C60  1  0.76783000  0.05305000  0.95013000  1.0 -0.0716559043
C  C61  1  0.70369000  0.85581000  0.69931000  1.0 -0.1927554786
C  C62  1  0.85581000  0.69931000  0.70369000  1.0 -0.1927554786
C  C63  1  0.69931000  0.70369000  0.85581000  1.0 -0.1927554786
C  C64  1  0.29631000  0.14419000  0.30069000  1.0 -0.1927554786
C  C65  1  0.14419000  0.30069000  0.29631000  1.0 -0.1927554786
C  C66  1  0.30069000  0.29631000  0.14419000  1.0 -0.1927554786
C  C67  1  0.98338000  0.13260000  0.13680000  1.0 -0.1927554786
C  C68  1  0.13260000  0.13680000  0.98338000  1.0 -0.1975814754
C  C69  1  0.13680000  0.98338000  0.13260000  1.0 -0.1927554786
C  C70  1  0.01662000  0.86740000  0.86320000  1.0 -0.1975814754
C  C71  1  0.86740000  0.86320000  0.01662000  1.0 -0.1927554786
C  C72  1  0.86320000  0.01662000  0.86740000  1.0 -0.1927554786
C  C73  1  0.69936000  0.91358000  0.64788000  1.0 -0.0795208217
C  C74  1  0.91358000  0.64788000  0.69936000  1.0 -0.0795208217
C  C75  1  0.64788000  0.69936000  0.91358000  1.0 -0.0795208217
C  C76  1  0.30064000  0.08642000  0.35212000  1.0 -0.0795208217
C  C77  1  0.08642000  0.35212000  0.30064000  1.0 -0.0795208217
C  C78  1  0.35212000  0.30064000  0.08642000  1.0 -0.0795208217
C  C79  1  0.83194000  0.08776000  0.46886000  1.0 0.1771966082
C  C80  1  0.08776000  0.46886000  0.83194000  1.0 0.1771966082
C  C81  1  0.46886000  0.83194000  0.08776000  1.0 0.1771966082
C  C82  1  0.16806000  0.91224000  0.53114000  1.0 0.1771966082
C  C83  1  0.91224000  0.53114000  0.16806000  1.0 0.1771966082
C  C84  1  0.53114000  0.16806000  0.91224000  1.0 0.1771966082
C  C85  1  0.00297000  0.04309000  0.17969000  1.0 -0.1975814754
C  C86  1  0.04309000  0.17969000  0.00297000  1.0 -0.1975814754
C  C87  1  0.17969000  0.00297000  0.04309000  1.0 -0.1975814754
C  C88  1  0.99703000  0.95691000  0.82031000  1.0 -0.1975814754
C  C89  1  0.95691000  0.82031000  0.99703000  1.0 -0.1975814754
C  C90  1  0.82031000  0.99703000  0.95691000  1.0 -0.1975814754
C  C91  1  0.77412000  0.87334000  0.58774000  1.0 -0.0795208217
C  C92  1  0.87334000  0.58774000  0.77412000  1.0 -0.0795208217
C  C93  1  0.58774000  0.77412000  0.87334000  1.0 -0.0795208217
C  C94  1  0.22588000  0.12666000  0.41226000  1.0 -0.0897939762
C  C95  1  0.12666000  0.41226000  0.22588000  1.0 -0.0897939762
C  C96  1  0.41226000  0.22588000  0.12666000  1.0 -0.0897939762
C  C97  1  0.69277000  0.03919000  0.42029000  1.0 -0.0795208217
C  C98  1  0.03919000  0.42029000  0.69277000  1.0 -0.0795208217
C  C99  1  0.42029000  0.69277000  0.03919000  1.0 -0.0795208217
C  C100  1  0.30723000  0.96081000  0.57971000  1.0 -0.0795208217
C  C101  1  0.96081000  0.57971000  0.30723000  1.0 -0.0795208217
C  C102  1  0.57971000  0.30723000  0.96081000  1.0 -0.0795208217
C  C103  1  0.77731000  0.81703000  0.63933000  1.0 -0.1975814754
C  C104  1  0.81703000  0.63933000  0.77731000  1.0 -0.1975814754
C  C105  1  0.63933000  0.77731000  0.81703000  1.0 -0.1975814754
C  C106  1  0.22269000  0.18297000  0.36067000  1.0 -0.1975814754
C  C107  1  0.18297000  0.36067000  0.22269000  1.0 -0.1975814754
C  C108  1  0.36067000  0.22269000  0.18297000  1.0 -0.1975814754
C  C109  1  0.82375000  0.93337000  0.70677000  1.0 0.5779422012
C  C110  1  0.93337000  0.70677000  0.82375000  1.0 0.5779422012
C  C111  1  0.70677000  0.82375000  0.93337000  1.0 0.5779422012
C  C112  1  0.17625000  0.06663000  0.29323000  1.0 0.5779422012
C  C113  1  0.06663000  0.29323000  0.17625000  1.0 0.5779422012
C  C114  1  0.29323000  0.17625000  0.06663000  1.0 0.5779422012
C  C115  1  0.74883000  0.10325000  0.50525000  1.0 -0.0795208217
C  C116  1  0.10325000  0.50525000  0.74883000  1.0 -0.0795208217
C  C117  1  0.50525000  0.74883000  0.10325000  1.0 -0.0795208217
C  C118  1  0.25117000  0.89675000  0.49475000  1.0 -0.0795208217
C  C119  1  0.89675000  0.49475000  0.25117000  1.0 -0.0795208217
C  C120  1  0.49475000  0.25117000  0.89675000  1.0 -0.0795208217
C  C121  1  0.65148000  0.09230000  0.42110000  1.0 -0.0795208217
C  C122  1  0.09230000  0.42110000  0.65148000  1.0 -0.0795208217
C  C123  1  0.42110000  0.65148000  0.09230000  1.0 -0.0795208217
C  C124  1  0.34852000  0.90770000  0.57890000  1.0 -0.0795208217
C  C125  1  0.90770000  0.57890000  0.34852000  1.0 -0.0795208217
C  C126  1  0.57890000  0.34852000  0.90770000  1.0 -0.0795208217
C  C127  1  0.00174000  0.11956000  0.32576000  1.0 -0.0897939762
C  C128  1  0.11956000  0.32576000  0.00174000  1.0 -0.0897939762
C  C129  1  0.32576000  0.00174000  0.11956000  1.0 -0.0897939762
C  C130  1  0.99826000  0.88044000  0.67424000  1.0 -0.0795208217
C  C131  1  0.88044000  0.67424000  0.99826000  1.0 -0.0897939762
C  C132  1  0.67424000  0.99826000  0.88044000  1.0 -0.0897939762
C  C133  1  0.91032000  0.08794000  0.42474000  1.0 0.1530273519
C  C134  1  0.08794000  0.42474000  0.91032000  1.0 0.1530273519
C  C135  1  0.42474000  0.91032000  0.08794000  1.0 0.1530273519
C  C136  1  0.08968000  0.91206000  0.57526000  1.0 0.1530273519
C  C137  1  0.91206000  0.57526000  0.08968000  1.0 0.1530273519
C  C138  1  0.57526000  0.08968000  0.91206000  1.0 0.1530273519
C  C139  1  0.74732000  0.12264000  0.44654000  1.0 0.5779422012
C  C140  1  0.12264000  0.44654000  0.74732000  1.0 0.5779422012
C  C141  1  0.44654000  0.74732000  0.12264000  1.0 0.5779422012
C  C142  1  0.25268000  0.87736000  0.55346000  1.0 0.5779422012
C  C143  1  0.87736000  0.55346000  0.25268000  1.0 0.5779422012
C  C144  1  0.55346000  0.25268000  0.87736000  1.0 0.5779422012
C  C145  1  0.67955000  0.02137000  0.42757000  1.0 -0.1975814754
C  C146  1  0.02137000  0.42757000  0.67955000  1.0 -0.1975814754
C  C147  1  0.42757000  0.67955000  0.02137000  1.0 -0.1975814754
C  C148  1  0.32045000  0.97863000  0.57243000  1.0 -0.1975814754
C  C149  1  0.97863000  0.57243000  0.32045000  1.0 -0.1975814754
C  C150  1  0.57243000  0.32045000  0.97863000  1.0 -0.1975814754
C  C151  1  0.66060000  0.86012000  0.53862000  1.0 -0.0897939762
C  C152  1  0.86012000  0.53862000  0.66060000  1.0 -0.0897939762
C  C153  1  0.53862000  0.66060000  0.86012000  1.0 -0.0897939762
C  C154  1  0.33940000  0.13988000  0.46138000  1.0 -0.0897939762
C  C155  1  0.13988000  0.46138000  0.33940000  1.0 -0.0897939762
C  C156  1  0.46138000  0.33940000  0.13988000  1.0 -0.0897939762
C  C157  1  0.77557000  0.09329000  0.51199000  1.0 -0.1975814754
C  C158  1  0.09329000  0.51199000  0.77557000  1.0 -0.1927554786
C  C159  1  0.51199000  0.77557000  0.09329000  1.0 -0.1975814754
C  C160  1  0.22443000  0.90671000  0.48801000  1.0 -0.1975814754
C  C161  1  0.90671000  0.48801000  0.22443000  1.0 -0.1975814754
C  C162  1  0.48801000  0.22443000  0.90671000  1.0 -0.1975814754
C  C163  1  0.83077000  0.97099000  0.64869000  1.0 -0.0995460187
C  C164  1  0.97099000  0.64869000  0.83077000  1.0 -0.0995460187
C  C165  1  0.64869000  0.83077000  0.97099000  1.0 -0.0995460187
C  C166  1  0.16923000  0.02901000  0.35131000  1.0 -0.0995460187
C  C167  1  0.02901000  0.35131000  0.16923000  1.0 -0.0995460187
C  C168  1  0.35131000  0.16923000  0.02901000  1.0 -0.0995460187
C  C169  1  0.83661000  0.95273000  0.63663000  1.0 -0.0716559043
C  C170  1  0.95273000  0.63663000  0.83661000  1.0 -0.0716559043
C  C171  1  0.63663000  0.83661000  0.95273000  1.0 -0.0716559043
C  C172  1  0.16339000  0.04727000  0.36337000  1.0 -0.0716559043
C  C173  1  0.04727000  0.36337000  0.16339000  1.0 -0.0716559043
C  C174  1  0.36337000  0.16339000  0.04727000  1.0 -0.0716559043
C  C175  1  0.56379000  0.08921000  0.42341000  1.0 0.1715080079
C  C176  1  0.08921000  0.42341000  0.56379000  1.0 0.1715080079
C  C177  1  0.42341000  0.56379000  0.08921000  1.0 0.1715080079
C  C178  1  0.43621000  0.91079000  0.57659000  1.0 0.1715080079
C  C179  1  0.91079000  0.57659000  0.43621000  1.0 0.1715080079
C  C180  1  0.57659000  0.43621000  0.91079000  1.0 0.1715080079
C  C181  1  0.62245000  0.06127000  0.43277000  1.0 0.1771966082
C  C182  1  0.06127000  0.43277000  0.62245000  1.0 0.1771966082
C  C183  1  0.43277000  0.62245000  0.06127000  1.0 0.1771966082
C  C184  1  0.37755000  0.93873000  0.56723000  1.0 0.1771966082
C  C185  1  0.93873000  0.56723000  0.37755000  1.0 0.1771966082
C  C186  1  0.56723000  0.37755000  0.93873000  1.0 0.1771966082
C  C187  1  0.67325000  0.80057000  0.57307000  1.0 0.572191257
C  C188  1  0.80057000  0.57307000  0.67325000  1.0 0.572191257
C  C189  1  0.57307000  0.67325000  0.80057000  1.0 0.572191257
C  C190  1  0.32675000  0.19943000  0.42693000  1.0 0.572191257
C  C191  1  0.19943000  0.42693000  0.32675000  1.0 0.572191257
C  C192  1  0.42693000  0.32675000  0.19943000  1.0 0.572191257
C  C193  1  0.54012000  0.19094000  0.52814000  1.0 0.5591271109
C  C194  1  0.19094000  0.52814000  0.54012000  1.0 0.5591271109
C  C195  1  0.52814000  0.54012000  0.19094000  1.0 0.5591271109
C  C196  1  0.45988000  0.80906000  0.47186000  1.0 0.5591271109
C  C197  1  0.80906000  0.47186000  0.45988000  1.0 0.5591271109
C  C198  1  0.47186000  0.45988000  0.80906000  1.0 0.5591271109
C  C199  1  0.43865000  0.22057000  0.37087000  1.0 0.589409966
C  C200  1  0.22057000  0.37087000  0.43865000  1.0 0.589409966
C  C201  1  0.37087000  0.43865000  0.22057000  1.0 0.589409966
C  C202  1  0.56135000  0.77943000  0.62913000  1.0 0.589409966
C  C203  1  0.77943000  0.62913000  0.56135000  1.0 0.589409966
C  C204  1  0.62913000  0.56135000  0.77943000  1.0 0.589409966
C  C205  1  0.84822000  0.04144000  0.53454000  1.0 0.1715080079
C  C206  1  0.04144000  0.53454000  0.84822000  1.0 0.1715080079
C  C207  1  0.53454000  0.84822000  0.04144000  1.0 0.1715080079
C  C208  1  0.15178000  0.95856000  0.46546000  1.0 0.1715080079
C  C209  1  0.95856000  0.46546000  0.15178000  1.0 0.1715080079
C  C210  1  0.46546000  0.15178000  0.95856000  1.0 0.1715080079
C  C211  1  0.64517000  0.87929000  0.55759000  1.0 -0.0716559043
C  C212  1  0.87929000  0.55759000  0.64517000  1.0 -0.0716559043
C  C213  1  0.55759000  0.64517000  0.87929000  1.0 -0.0716559043
C  C214  1  0.35483000  0.12071000  0.44241000  1.0 -0.0716559043
C  C215  1  0.12071000  0.44241000  0.35483000  1.0 -0.0716559043
C  C216  1  0.44241000  0.35483000  0.12071000  1.0 -0.0716559043
C  C217  1  0.86220000  0.09732000  0.41332000  1.0 -0.1927554786
C  C218  1  0.09732000  0.41332000  0.86220000  1.0 -0.1975814754
C  C219  1  0.41332000  0.86220000  0.09732000  1.0 -0.1975814754
C  C220  1  0.13780000  0.90268000  0.58668000  1.0 -0.1975814754
C  C221  1  0.90268000  0.58668000  0.13780000  1.0 -0.1975814754
C  C222  1  0.58668000  0.13780000  0.90268000  1.0 -0.1927554786
C  C223  1  0.83457000  0.10829000  0.40709000  1.0 -0.0716559043
C  C224  1  0.10829000  0.40709000  0.83457000  1.0 -0.0716559043
C  C225  1  0.40709000  0.83457000  0.10829000  1.0 -0.0795208217
C  C226  1  0.16543000  0.89171000  0.59291000  1.0 -0.0716559043
C  C227  1  0.89171000  0.59291000  0.16543000  1.0 -0.0716559043
C  C228  1  0.59291000  0.16543000  0.89171000  1.0 -0.0716559043
C  C229  1  0.96375000  0.04517000  0.42347000  1.0 -0.1975814754
C  C230  1  0.04517000  0.42347000  0.96375000  1.0 -0.1975814754
C  C231  1  0.42347000  0.96375000  0.04517000  1.0 -0.2055665516
C  C232  1  0.03625000  0.95483000  0.57653000  1.0 -0.2055665516
C  C233  1  0.95483000  0.57653000  0.03625000  1.0 -0.2055665516
C  C234  1  0.57653000  0.03625000  0.95483000  1.0 -0.1975814754
C  C235  1  0.01115000  0.05917000  0.37437000  1.0 -0.0716559043
C  C236  1  0.05917000  0.37437000  0.01115000  1.0 -0.0716559043
C  C237  1  0.37437000  0.01115000  0.05917000  1.0 -0.0716559043
C  C238  1  0.98885000  0.94083000  0.62563000  1.0 -0.0716559043
C  C239  1  0.94083000  0.62563000  0.98885000  1.0 -0.0716559043
C  C240  1  0.62563000  0.98885000  0.94083000  1.0 -0.0716559043
C  C241  1  0.57151000  0.13803000  0.36423000  1.0 -0.179208804
C  C242  1  0.13803000  0.36423000  0.57151000  1.0 -0.179208804
C  C243  1  0.36423000  0.57151000  0.13803000  1.0 -0.179208804
C  C244  1  0.42849000  0.86197000  0.63577000  1.0 -0.179208804
C  C245  1  0.86197000  0.63577000  0.42849000  1.0 -0.179208804
C  C246  1  0.63577000  0.42849000  0.86197000  1.0 -0.179208804
C  C247  1  0.90231000  0.14563000  0.37683000  1.0 -0.1975814754
C  C248  1  0.14563000  0.37683000  0.90231000  1.0 -0.1975814754
C  C249  1  0.37683000  0.90231000  0.14563000  1.0 -0.1975814754
C  C250  1  0.09769000  0.85437000  0.62317000  1.0 -0.1975814754
C  C251  1  0.85437000  0.62317000  0.09769000  1.0 -0.1975814754
C  C252  1  0.62317000  0.09769000  0.85437000  1.0 -0.1975814754
C  C253  1  0.47036000  0.12918000  0.45008000  1.0 -0.0795208217
C  C254  1  0.12918000  0.45008000  0.47036000  1.0 -0.0795208217
C  C255  1  0.45008000  0.47036000  0.12918000  1.0 -0.0795208217
C  C256  1  0.52964000  0.87082000  0.54992000  1.0 -0.0795208217
C  C257  1  0.87082000  0.54992000  0.52964000  1.0 -0.0795208217
C  C258  1  0.54992000  0.52964000  0.87082000  1.0 -0.0795208217
C  C259  1  0.62796000  0.93718000  0.52768000  1.0 -0.1708136773
C  C260  1  0.93718000  0.52768000  0.62796000  1.0 -0.1708136773
C  C261  1  0.52768000  0.62796000  0.93718000  1.0 -0.1708136773
C  C262  1  0.37204000  0.06282000  0.47232000  1.0 -0.1708136773
C  C263  1  0.06282000  0.47232000  0.37204000  1.0 -0.1708136773
C  C264  1  0.47232000  0.37204000  0.06282000  1.0 -0.1708136773
C  C265  1  0.51081000  0.08573000  0.46823000  1.0 -0.1927554786
C  C266  1  0.08573000  0.46823000  0.51081000  1.0 -0.1927554786
C  C267  1  0.46823000  0.51081000  0.08573000  1.0 -0.1927554786
C  C268  1  0.48919000  0.91427000  0.53177000  1.0 -0.1927554786
C  C269  1  0.91427000  0.53177000  0.48919000  1.0 -0.1927554786
C  C270  1  0.53177000  0.48919000  0.91427000  1.0 -0.1927554786
C  C271  1  0.62663000  0.97835000  0.47665000  1.0 0.1599475306
C  C272  1  0.97835000  0.47665000  0.62663000  1.0 0.1599475306
C  C273  1  0.47665000  0.62663000  0.97835000  1.0 0.1599475306
C  C274  1  0.37337000  0.02165000  0.52335000  1.0 0.1599475306
C  C275  1  0.02165000  0.52335000  0.37337000  1.0 0.1599475306
C  C276  1  0.52335000  0.37337000  0.02165000  1.0 0.1599475306
C  C277  1  0.04718000  0.13460000  0.27860000  1.0 0.5466375835
C  C278  1  0.13460000  0.27860000  0.04718000  1.0 0.5466375835
C  C279  1  0.27860000  0.04718000  0.13460000  1.0 0.5466375835
C  C280  1  0.95282000  0.86540000  0.72140000  1.0 0.5466375835
C  C281  1  0.86540000  0.72140000  0.95282000  1.0 0.5466375835
C  C282  1  0.72140000  0.95282000  0.86540000  1.0 0.5466375835
C  C283  1  0.59622000  0.12934000  0.42684000  1.0 -0.0795208217
C  C284  1  0.12934000  0.42684000  0.59622000  1.0 -0.0795208217
C  C285  1  0.42684000  0.59622000  0.12934000  1.0 -0.0795208217
C  C286  1  0.40378000  0.87066000  0.57316000  1.0 -0.0795208217
C  C287  1  0.87066000  0.57316000  0.40378000  1.0 -0.0795208217
C  C288  1  0.57316000  0.40378000  0.87066000  1.0 -0.0795208217
C  C289  1  0.66037000  0.90109000  0.48639000  1.0 -0.0716559043
C  C290  1  0.90109000  0.48639000  0.66037000  1.0 -0.0716559043
C  C291  1  0.48639000  0.66037000  0.90109000  1.0 -0.0716559043
C  C292  1  0.33963000  0.09891000  0.51361000  1.0 -0.0716559043
C  C293  1  0.09891000  0.51361000  0.33963000  1.0 -0.0716559043
C  C294  1  0.51361000  0.33963000  0.09891000  1.0 -0.0716559043
C  C295  1  0.53165000  0.17797000  0.34897000  1.0 -0.0795208217
C  C296  1  0.17797000  0.34897000  0.53165000  1.0 -0.0795208217
C  C297  1  0.34897000  0.53165000  0.17797000  1.0 -0.0795208217
C  C298  1  0.46835000  0.82203000  0.65103000  1.0 -0.0795208217
C  C299  1  0.82203000  0.65103000  0.46835000  1.0 -0.0795208217
C  C300  1  0.65103000  0.46835000  0.82203000  1.0 -0.0795208217
C  C301  1  0.83910000  0.06132000  0.54742000  1.0 -0.1975814754
C  C302  1  0.06132000  0.54742000  0.83910000  1.0 -0.1975814754
C  C303  1  0.54742000  0.83910000  0.06132000  1.0 -0.1975814754
C  C304  1  0.16090000  0.93868000  0.45258000  1.0 -0.1975814754
C  C305  1  0.93868000  0.45258000  0.16090000  1.0 -0.1975814754
C  C306  1  0.45258000  0.16090000  0.93868000  1.0 -0.1975814754
C  C307  1  0.58227000  0.11699000  0.42929000  1.0 -0.1927554786
C  C308  1  0.11699000  0.42929000  0.58227000  1.0 -0.1927554786
C  C309  1  0.42929000  0.58227000  0.11699000  1.0 -0.1927554786
C  C310  1  0.41773000  0.88301000  0.57071000  1.0 -0.1927554786
C  C311  1  0.88301000  0.57071000  0.41773000  1.0 -0.1927554786
C  C312  1  0.57071000  0.41773000  0.88301000  1.0 -0.1927554786
C  C313  1  0.64290000  0.96212000  0.45312000  1.0 -0.1975814754
C  C314  1  0.96212000  0.45312000  0.64290000  1.0 -0.1975814754
C  C315  1  0.45312000  0.64290000  0.96212000  1.0 -0.1975814754
C  C316  1  0.35710000  0.03788000  0.54688000  1.0 -0.1975814754
C  C317  1  0.03788000  0.54688000  0.35710000  1.0 -0.1975814754
C  C318  1  0.54688000  0.35710000  0.03788000  1.0 -0.1975814754
C  C319  1  0.94899000  0.15861000  0.32911000  1.0 -0.0611201561
C  C320  1  0.15861000  0.32911000  0.94899000  1.0 -0.0611201561
C  C321  1  0.32911000  0.94899000  0.15861000  1.0 -0.0611201561
C  C322  1  0.05101000  0.84139000  0.67089000  1.0 -0.0611201561
C  C323  1  0.84139000  0.67089000  0.05101000  1.0 -0.0611201561
C  C324  1  0.67089000  0.05101000  0.84139000  1.0 -0.0611201561
C  C325  1  0.29262000  0.31484000  0.64604000  1.0 0.4692256487
C  C326  1  0.31484000  0.64604000  0.29262000  1.0 0.4692256487
C  C327  1  0.64604000  0.29262000  0.31484000  1.0 0.4692256487
C  C328  1  0.70738000  0.68516000  0.35396000  1.0 0.4692256487
C  C329  1  0.68516000  0.35396000  0.70738000  1.0 0.4692256487
C  C330  1  0.35396000  0.70738000  0.68516000  1.0 0.4692256487
C  C331  1  0.84725000  0.98587000  0.58037000  1.0 -0.1927554786
C  C332  1  0.98587000  0.58037000  0.84725000  1.0 -0.1927554786
C  C333  1  0.58037000  0.84725000  0.98587000  1.0 -0.1927554786
C  C334  1  0.15275000  0.01413000  0.41963000  1.0 -0.1927554786
C  C335  1  0.01413000  0.41963000  0.15275000  1.0 -0.1927554786
C  C336  1  0.41963000  0.15275000  0.01413000  1.0 -0.1927554786
C  C337  1  0.82722000  0.02674000  0.60744000  1.0 -0.0716559043
C  C338  1  0.02674000  0.60744000  0.82722000  1.0 -0.0716559043
C  C339  1  0.60744000  0.82722000  0.02674000  1.0 -0.0795208217
C  C340  1  0.17278000  0.97326000  0.39256000  1.0 -0.0795208217
C  C341  1  0.97326000  0.39256000  0.17278000  1.0 -0.0795208217
C  C342  1  0.39256000  0.17278000  0.97326000  1.0 -0.0795208217
C  C343  1  0.38863000  0.21635000  0.66385000  1.0 -0.0373989304
C  C344  1  0.21635000  0.66385000  0.38863000  1.0 -0.0289670012
C  C345  1  0.66385000  0.38863000  0.21635000  1.0 -0.0289670012
C  C346  1  0.61137000  0.78365000  0.33615000  1.0 -0.0373989304
C  C347  1  0.78365000  0.33615000  0.61137000  1.0 -0.0289670012
C  C348  1  0.33615000  0.61137000  0.78365000  1.0 -0.0373989304
C  C349  1  0.45351000  0.18513000  0.63343000  1.0 0.0013694128
C  C350  1  0.18513000  0.63343000  0.45351000  1.0 -0.0022719639
C  C351  1  0.63343000  0.45351000  0.18513000  1.0 -0.0022719639
C  C352  1  0.54649000  0.81487000  0.36657000  1.0 -0.0022719639
C  C353  1  0.81487000  0.36657000  0.54649000  1.0 0.0013694128
C  C354  1  0.36657000  0.54649000  0.81487000  1.0 -0.0060725463
C  C355  1  0.47419000  0.21241000  0.57491000  1.0 -0.0795208217
C  C356  1  0.21241000  0.57491000  0.47419000  1.0 -0.0795208217
C  C357  1  0.57491000  0.47419000  0.21241000  1.0 -0.0795208217
C  C358  1  0.52581000  0.78759000  0.42509000  1.0 -0.0795208217
C  C359  1  0.78759000  0.42509000  0.52581000  1.0 -0.0716559043
C  C360  1  0.42509000  0.52581000  0.78759000  1.0 -0.0795208217
C  C361  1  0.36292000  0.26624000  0.62824000  1.0 -0.0716559043
C  C362  1  0.26624000  0.62824000  0.36292000  1.0 -0.0716559043
C  C363  1  0.62824000  0.36292000  0.26624000  1.0 -0.0716559043
C  C364  1  0.63708000  0.73376000  0.37176000  1.0 -0.0716559043
C  C365  1  0.73376000  0.37176000  0.63708000  1.0 -0.0611201561
C  C366  1  0.37176000  0.63708000  0.73376000  1.0 -0.0611201561
C  C367  1  0.48017000  0.17519000  0.39129000  1.0 -0.0716559043
C  C368  1  0.17519000  0.39129000  0.48017000  1.0 -0.0716559043
C  C369  1  0.39129000  0.48017000  0.17519000  1.0 -0.0716559043
C  C370  1  0.51983000  0.82481000  0.60871000  1.0 -0.0716559043
C  C371  1  0.82481000  0.60871000  0.51983000  1.0 -0.0716559043
C  C372  1  0.60871000  0.51983000  0.82481000  1.0 -0.0716559043
C  C373  1  0.45922000  0.20454000  0.62214000  1.0 -0.0373989304
C  C374  1  0.20454000  0.62214000  0.45922000  1.0 -0.0373989304
C  C375  1  0.62214000  0.45922000  0.20454000  1.0 -0.0373989304
C  C376  1  0.54078000  0.79546000  0.37786000  1.0 -0.0289670012
C  C377  1  0.79546000  0.37786000  0.54078000  1.0 -0.0373989304
C  C378  1  0.37786000  0.54078000  0.79546000  1.0 -0.0373989304
C  C379  1  0.38769000  0.24381000  0.65251000  1.0 -0.0289670012
C  C380  1  0.24381000  0.65251000  0.38769000  1.0 -0.0289670012
C  C381  1  0.65251000  0.38769000  0.24381000  1.0 -0.0289670012
C  C382  1  0.61231000  0.75619000  0.34749000  1.0 -0.0289670012
C  C383  1  0.75619000  0.34749000  0.61231000  1.0 -0.0224830254
C  C384  1  0.34749000  0.61231000  0.75619000  1.0 -0.0289670012
S  S1  1  0.41520000  0.26759000  0.56267000  1.0 0.0454195545
S  S2  1  0.26759000  0.56267000  0.41520000  1.0 0.0405125574
S  S3  1  0.56267000  0.41520000  0.26759000  1.0 0.0405125574
S  S4  1  0.58480000  0.73241000  0.43733000  1.0 0.0337371
S  S5  1  0.73241000  0.43733000  0.58480000  1.0 0.0337371
S  S6  1  0.43733000  0.58480000  0.73241000  1.0 0.0454195545
N  N1  1  0.07849000  0.07849000  0.07849000  1.0 -0.1622530769
N  N2  1  0.92151000  0.92151000  0.92151000  1.0 -0.1622530769
N  N3  1  0.74781000  0.74781000  0.74781000  1.0 -0.1708136773
N  N4  1  0.25219000  0.25219000  0.25219000  1.0 -0.1708136773
N  N5  1  0.60703000  0.04165000  0.44225000  1.0 -0.179208804
N  N6  1  0.04165000  0.44225000  0.60703000  1.0 -0.179208804
N  N7  1  0.44225000  0.60703000  0.04165000  1.0 -0.179208804
N  N8  1  0.39297000  0.95835000  0.55775000  1.0 -0.179208804
N  N9  1  0.95835000  0.55775000  0.39297000  1.0 -0.179208804
N  N10  1  0.55775000  0.39297000  0.95835000  1.0 -0.179208804
N  N11  1  0.86178000  0.07450000  0.47550000  1.0 -0.1708136773
N  N12  1  0.07450000  0.47550000  0.86178000  1.0 -0.1708136773
N  N13  1  0.47550000  0.86178000  0.07450000  1.0 -0.1708136773
N  N14  1  0.13822000  0.92550000  0.52450000  1.0 -0.1622530769
N  N15  1  0.92550000  0.52450000  0.13822000  1.0 -0.1622530769
N  N16  1  0.52450000  0.13822000  0.92550000  1.0 -0.1708136773
O  O1  1  0.69662000  0.14097000  0.41657000  1.0 -1.0305343899
O  O2  1  0.14097000  0.41657000  0.69662000  1.0 -1.0305343899
O  O3  1  0.41657000  0.69662000  0.14097000  1.0 -1.0305343899
O  O4  1  0.30338000  0.85903000  0.58343000  1.0 -1.0305343899
O  O5  1  0.85903000  0.58343000  0.30338000  1.0 -1.0305343899
O  O6  1  0.58343000  0.30338000  0.85903000  1.0 -1.0305343899
O  O7  1  0.81983000  0.14753000  0.29484000  1.0 -0.5472203652
O  O8  1  0.14753000  0.29484000  0.81983000  1.0 -0.5472203652
O  O9  1  0.29484000  0.81983000  0.14753000  1.0 -0.5472203652
O  O10  1  0.18017000  0.85247000  0.70516000  1.0 -0.539601904
O  O11  1  0.85247000  0.70516000  0.18017000  1.0 -0.5472203652
O  O12  1  0.70516000  0.18017000  0.85247000  1.0 -0.5472203652
O  O13  1  0.69067000  0.02735000  0.54691000  1.0 -0.539601904
O  O14  1  0.02735000  0.54691000  0.69067000  1.0 -0.539601904
O  O15  1  0.54691000  0.69067000  0.02735000  1.0 -0.539601904
O  O16  1  0.30933000  0.97265000  0.45309000  1.0 -0.539601904
O  O17  1  0.97265000  0.45309000  0.30933000  1.0 -0.539601904
O  O18  1  0.45309000  0.30933000  0.97265000  1.0 -0.539601904
O  O19  1  0.71866000  0.07194000  0.40986000  1.0 -0.5260741326
O  O20  1  0.07194000  0.40986000  0.71866000  1.0 -0.5260741326
O  O21  1  0.40986000  0.71866000  0.07194000  1.0 -0.5260741326
O  O22  1  0.28134000  0.92806000  0.59014000  1.0 -0.5260741326
O  O23  1  0.92806000  0.59014000  0.28134000  1.0 -0.5260741326
O  O24  1  0.59014000  0.28134000  0.92806000  1.0 -0.5260741326
O  O25  1  0.76081000  0.99185000  0.48794000  1.0 -0.4915266596
O  O26  1  0.99185000  0.48794000  0.76081000  1.0 -0.4915266596
O  O27  1  0.48794000  0.76081000  0.99185000  1.0 -0.4915266596
O  O28  1  0.23919000  0.00815000  0.51206000  1.0 -0.4915266596
O  O29  1  0.00815000  0.51206000  0.23919000  1.0 -0.4915266596
O  O30  1  0.51206000  0.23919000  0.00815000  1.0 -0.4915266596
O  O31  1  0.70159000  0.11541000  0.49191000  1.0 -0.521088979
O  O32  1  0.11541000  0.49191000  0.70159000  1.0 -0.521088979
O  O33  1  0.49191000  0.70159000  0.11541000  1.0 -0.521088979
O  O34  1  0.29841000  0.88459000  0.50809000  1.0 -0.521088979
O  O35  1  0.88459000  0.50809000  0.29841000  1.0 -0.521088979
O  O36  1  0.50809000  0.29841000  0.88459000  1.0 -0.521088979
O  O37  1  0.83336000  0.06439000  0.33826000  1.0 -0.5104620759
O  O38  1  0.06439000  0.33826000  0.83336000  1.0 -0.5104620759
O  O39  1  0.33826000  0.83336000  0.06439000  1.0 -0.5104620759
O  O40  1  0.16664000  0.93561000  0.66174000  1.0 -0.5104620759
O  O41  1  0.93561000  0.66174000  0.16664000  1.0 -0.5104620759
O  O42  1  0.66174000  0.16664000  0.93561000  1.0 -0.5104620759
O  O43  1  0.58041000  0.15223000  0.54093000  1.0 -0.5104620759
O  O44  1  0.15223000  0.54093000  0.58041000  1.0 -0.5104620759
O  O45  1  0.54093000  0.58041000  0.15223000  1.0 -0.5104620759
O  O46  1  0.41959000  0.84777000  0.45907000  1.0 -0.5104620759
O  O47  1  0.84777000  0.45907000  0.41959000  1.0 -0.5104620759
O  O48  1  0.45907000  0.41959000  0.84777000  1.0 -0.5104620759
O  O49  1  0.54863000  0.20975000  0.48465000  1.0 -0.5104620759
O  O50  1  0.20975000  0.48465000  0.54863000  1.0 -0.5104620759
O  O51  1  0.48465000  0.54863000  0.20975000  1.0 -0.5104620759
O  O52  1  0.45137000  0.79025000  0.51535000  1.0 -0.4965857309
O  O53  1  0.79025000  0.51535000  0.45137000  1.0 -0.5104620759
O  O54  1  0.51535000  0.45137000  0.79025000  1.0 -0.5104620759
O  O55  1  0.62770000  0.15812000  0.41512000  1.0 -0.539601904
O  O56  1  0.15812000  0.41512000  0.62770000  1.0 -0.539601904
O  O57  1  0.41512000  0.62770000  0.15812000  1.0 -0.539601904
O  O58  1  0.37230000  0.84188000  0.58488000  1.0 -0.539601904
O  O59  1  0.84188000  0.58488000  0.37230000  1.0 -0.539601904
O  O60  1  0.58488000  0.37230000  0.84188000  1.0 -0.539601904
O  O61  1  0.77200000  0.13922000  0.39322000  1.0 -0.5678736779
O  O62  1  0.13922000  0.39322000  0.77200000  1.0 -0.5678736779
O  O63  1  0.39322000  0.77200000  0.13922000  1.0 -0.5678736779
O  O64  1  0.22800000  0.86078000  0.60678000  1.0 -0.5678736779
O  O65  1  0.86078000  0.60678000  0.22800000  1.0 -0.5678736779
O  O66  1  0.60678000  0.22800000  0.86078000  1.0 -0.5678736779
O  O67  1  0.16588000  0.16588000  0.16588000  1.0 -1.0305343899
O  O68  1  0.83412000  0.83412000  0.83412000  1.0 -1.0305343899
O  O69  1  0.33008000  0.33008000  0.33008000  1.0 -1.0305343899
O  O70  1  0.66992000  0.66992000  0.66992000  1.0 -1.0305343899
O  O71  1  0.67312000  0.76314000  0.62134000  1.0 -0.4915266596
O  O72  1  0.76314000  0.62134000  0.67312000  1.0 -0.4915266596
O  O73  1  0.62134000  0.67312000  0.76314000  1.0 -0.4915266596
O  O74  1  0.32688000  0.23686000  0.37866000  1.0 -0.4915266596
O  O75  1  0.23686000  0.37866000  0.32688000  1.0 -0.4915266596
O  O76  1  0.37866000  0.32688000  0.23686000  1.0 -0.4915266596
O  O77  1  0.82426000  0.88518000  0.74428000  1.0 -0.4965857309
O  O78  1  0.88518000  0.74428000  0.82426000  1.0 -0.4965857309
O  O79  1  0.74428000  0.82426000  0.88518000  1.0 -0.4965857309
O  O80  1  0.17574000  0.11482000  0.25572000  1.0 -0.4965857309
O  O81  1  0.11482000  0.25572000  0.17574000  1.0 -0.4965857309
O  O82  1  0.25572000  0.17574000  0.11482000  1.0 -0.4965857309
O  O83  1  0.68921000  0.78403000  0.55283000  1.0 -0.539601904
O  O84  1  0.78403000  0.55283000  0.68921000  1.0 -0.539601904
O  O85  1  0.55283000  0.68921000  0.78403000  1.0 -0.539601904
O  O86  1  0.31079000  0.21597000  0.44717000  1.0 -0.539601904
O  O87  1  0.21597000  0.44717000  0.31079000  1.0 -0.539601904
O  O88  1  0.44717000  0.31079000  0.21597000  1.0 -0.539601904
O  O89  1  0.81721000  0.95443000  0.71493000  1.0 -0.5678736779
O  O90  1  0.95443000  0.71493000  0.81721000  1.0 -0.5678736779
O  O91  1  0.71493000  0.81721000  0.95443000  1.0 -0.5678736779
O  O92  1  0.18279000  0.04557000  0.28507000  1.0 -0.5678736779
O  O93  1  0.04557000  0.28507000  0.18279000  1.0 -0.5678736779
O  O94  1  0.28507000  0.18279000  0.04557000  1.0 -0.5678736779
O  O95  1  0.10174000  0.08686000  0.27856000  1.0 -0.575957836
O  O96  1  0.08686000  0.27856000  0.10174000  1.0 -0.575957836
O  O97  1  0.27856000  0.10174000  0.08686000  1.0 -0.575957836
O  O98  1  0.89826000  0.91314000  0.72144000  1.0 -0.575957836
O  O99  1  0.91314000  0.72144000  0.89826000  1.0 -0.575957836
O  O100  1  0.72144000  0.89826000  0.91314000  1.0 -0.575957836
O  O101  1  0.03711000  0.18893000  0.24043000  1.0 -0.5104620759
O  O102  1  0.18893000  0.24043000  0.03711000  1.0 -0.5104620759
O  O103  1  0.24043000  0.03711000  0.18893000  1.0 -0.5104620759
O  O104  1  0.96289000  0.81107000  0.75957000  1.0 -0.5104620759
O  O105  1  0.81107000  0.75957000  0.96289000  1.0 -0.5104620759
O  O106  1  0.75957000  0.96289000  0.81107000  1.0 -0.5104620759
O  O107  1  0.26487000  0.30929000  0.69959000  1.0 -0.0897939762
O  O108  1  0.30929000  0.69959000  0.26487000  1.0 -0.0897939762
O  O109  1  0.69959000  0.26487000  0.30929000  1.0 -0.0897939762
O  O110  1  0.73513000  0.69071000  0.30041000  1.0 -0.0897939762
O  O111  1  0.69071000  0.30041000  0.73513000  1.0 -0.0995460187
O  O112  1  0.30041000  0.73513000  0.69071000  1.0 -0.0897939762
O  O113  1  0.38618000  0.22180000  0.41470000  1.0 -0.5472203652
O  O114  1  0.22180000  0.41470000  0.38618000  1.0 -0.5472203652
O  O115  1  0.41470000  0.38618000  0.22180000  1.0 -0.5472203652
O  O116  1  0.61382000  0.77820000  0.58530000  1.0 -0.5472203652
O  O117  1  0.77820000  0.58530000  0.61382000  1.0 -0.5472203652
O  O118  1  0.58530000  0.61382000  0.77820000  1.0 -0.5472203652
O  O119  1  0.45465000  0.25557000  0.31357000  1.0 -0.5472203652
O  O120  1  0.25557000  0.31357000  0.45465000  1.0 -0.5472203652
O  O121  1  0.31357000  0.45465000  0.25557000  1.0 -0.5472203652
O  O122  1  0.54535000  0.74443000  0.68643000  1.0 -0.5472203652
O  O123  1  0.74443000  0.68643000  0.54535000  1.0 -0.5472203652
O  O124  1  0.68643000  0.54535000  0.74443000  1.0 -0.5472203652
O  O125  1  0.28073000  0.34685000  0.61095000  1.0 -0.4315231257
O  O126  1  0.34685000  0.61095000  0.28073000  1.0 -0.4315231257
O  O127  1  0.61095000  0.28073000  0.34685000  1.0 -0.4315231257
O  O128  1  0.71927000  0.65315000  0.38905000  1.0 -0.4315231257
O  O129  1  0.65315000  0.38905000  0.71927000  1.0 -0.4315231257
O  O130  1  0.38905000  0.71927000  0.65315000  1.0 -0.4315231257
O  O131  1  0.70424000  0.25736000  0.29376000  1.0 -0.138879221
O  O132  1  0.25736000  0.29376000  0.70424000  1.0 -0.138879221
O  O133  1  0.29376000  0.70424000  0.25736000  1.0 -0.138879221
O  O134  1  0.29576000  0.74264000  0.70624000  1.0 -0.138879221
O  O135  1  0.74264000  0.70624000  0.29576000  1.0 -0.138879221
O  O136  1  0.70624000  0.29576000  0.74264000  1.0 -0.138879221
