# DDEC6 charges by PACMAN v1.1 (https://github.com/mtap-research/PACMAN-charge/)
data_ZADDUH_FSR_pacman
_symmetry_space_group_name_H-M   'P 1'
_cell_length_a   25.70200000
_cell_length_b   25.70200000
_cell_length_c   25.70200000
_cell_angle_alpha   90.00000000
_cell_angle_beta   90.00000000
_cell_angle_gamma   90.00000000
_symmetry_Int_Tables_number   1
_chemical_formula_structural   Zr3H13C30Se6(Cl3O8)2
_chemical_formula_sum   'Zr24 H104 C240 Se48 Cl48 O128'
_cell_volume   16978.55624841
_cell_formula_units_Z   8
loop_
 _symmetry_equiv_pos_site_id
 _symmetry_equiv_pos_as_xyz
  1  'x, y, z'
loop_
 _atom_site_type_symbol
 _atom_site_label
 _atom_site_symmetry_multiplicity
 _atom_site_fract_x
 _atom_site_fract_y
 _atom_site_fract_z
 _atom_site_occupancy
 _atom_site_charge
Zr  Zr1  1  0.26481000  0.24814000  0.15125000  1.0 1.9354095398
Zr  Zr2  1  0.73519000  0.75186000  0.15125000  1.0 1.9338916479
Zr  Zr3  1  0.73519000  0.24814000  0.84875000  1.0 1.9338916479
Zr  Zr4  1  0.26481000  0.75186000  0.84875000  1.0 1.9338916479
Zr  Zr5  1  0.15125000  0.26481000  0.24814000  1.0 1.9338916479
Zr  Zr6  1  0.15125000  0.73519000  0.75186000  1.0 1.9338916479
Zr  Zr7  1  0.84875000  0.73519000  0.24814000  1.0 1.9338916479
Zr  Zr8  1  0.84875000  0.26481000  0.75186000  1.0 1.9338916479
Zr  Zr9  1  0.24814000  0.15125000  0.26481000  1.0 1.9354095398
Zr  Zr10  1  0.75186000  0.15125000  0.73519000  1.0 1.9338916479
Zr  Zr11  1  0.24814000  0.84875000  0.73519000  1.0 1.9338916479
Zr  Zr12  1  0.75186000  0.84875000  0.26481000  1.0 1.9338916479
Zr  Zr13  1  0.23519000  0.25186000  0.34875000  1.0 1.9338916479
Zr  Zr14  1  0.76481000  0.74814000  0.34875000  1.0 1.9338916479
Zr  Zr15  1  0.76481000  0.25186000  0.65125000  1.0 1.9338916479
Zr  Zr16  1  0.23519000  0.74814000  0.65125000  1.0 1.9338916479
Zr  Zr17  1  0.34875000  0.23519000  0.25186000  1.0 1.9354095398
Zr  Zr18  1  0.34875000  0.76481000  0.74814000  1.0 1.9338916479
Zr  Zr19  1  0.65125000  0.76481000  0.25186000  1.0 1.9338916479
Zr  Zr20  1  0.65125000  0.23519000  0.74814000  1.0 1.9338916479
Zr  Zr21  1  0.25186000  0.34875000  0.23519000  1.0 1.9338916479
Zr  Zr22  1  0.74814000  0.34875000  0.76481000  1.0 1.9338916479
Zr  Zr23  1  0.25186000  0.65125000  0.76481000  1.0 1.9338916479
Zr  Zr24  1  0.74814000  0.65125000  0.23519000  1.0 1.9338916479
H  H1  1  0.55374000  0.21517000  0.07656000  1.0 0.1016602478
H  H2  1  0.49863000  0.22854000  0.15539000  1.0 0.1016602478
H  H3  1  0.07791000  0.26802000  0.94790000  1.0 0.1016602478
H  H4  1  0.15452000  0.25395000  0.00589000  1.0 0.1084864482
H  H5  1  0.44626000  0.78483000  0.07656000  1.0 0.1016602478
H  H6  1  0.50137000  0.77146000  0.15539000  1.0 0.1016602478
H  H7  1  0.92209000  0.73198000  0.94790000  1.0 0.1016602478
H  H8  1  0.84548000  0.74605000  0.00589000  1.0 0.1084864482
H  H9  1  0.44626000  0.21517000  0.92344000  1.0 0.1016602478
H  H10  1  0.50137000  0.22854000  0.84461000  1.0 0.1016602478
H  H11  1  0.92209000  0.26802000  0.05210000  1.0 0.1016602478
H  H12  1  0.84548000  0.25395000  0.99411000  1.0 0.1084864482
H  H13  1  0.55374000  0.78483000  0.92344000  1.0 0.1016602478
H  H14  1  0.49863000  0.77146000  0.84461000  1.0 0.1016602478
H  H15  1  0.07791000  0.73198000  0.05210000  1.0 0.1016602478
H  H16  1  0.15452000  0.74605000  0.99411000  1.0 0.1084864482
H  H17  1  0.07656000  0.55374000  0.21517000  1.0 0.1016602478
H  H18  1  0.15539000  0.49863000  0.22854000  1.0 0.1016602478
H  H19  1  0.94790000  0.07791000  0.26802000  1.0 0.1016602478
H  H20  1  0.00589000  0.15452000  0.25395000  1.0 0.1084864482
H  H21  1  0.07656000  0.44626000  0.78483000  1.0 0.1016602478
H  H22  1  0.15539000  0.50137000  0.77146000  1.0 0.1016602478
H  H23  1  0.94790000  0.92209000  0.73198000  1.0 0.1016602478
H  H24  1  0.00589000  0.84548000  0.74605000  1.0 0.1084864482
H  H25  1  0.92344000  0.44626000  0.21517000  1.0 0.1016602478
H  H26  1  0.84461000  0.50137000  0.22854000  1.0 0.1016602478
H  H27  1  0.05210000  0.92209000  0.26802000  1.0 0.1016602478
H  H28  1  0.99411000  0.84548000  0.25395000  1.0 0.1084864482
H  H29  1  0.92344000  0.55374000  0.78483000  1.0 0.1016602478
H  H30  1  0.84461000  0.49863000  0.77146000  1.0 0.1016602478
H  H31  1  0.05210000  0.07791000  0.73198000  1.0 0.1016602478
H  H32  1  0.99411000  0.15452000  0.74605000  1.0 0.1084864482
H  H33  1  0.21517000  0.07656000  0.55374000  1.0 0.1016602478
H  H34  1  0.22854000  0.15539000  0.49863000  1.0 0.1016602478
H  H35  1  0.26802000  0.94790000  0.07791000  1.0 0.1016602478
H  H36  1  0.25395000  0.00589000  0.15452000  1.0 0.1084864482
H  H37  1  0.78483000  0.07656000  0.44626000  1.0 0.1016602478
H  H38  1  0.77146000  0.15539000  0.50137000  1.0 0.1016602478
H  H39  1  0.73198000  0.94790000  0.92209000  1.0 0.1016602478
H  H40  1  0.74605000  0.00589000  0.84548000  1.0 0.1084864482
H  H41  1  0.21517000  0.92344000  0.44626000  1.0 0.1016602478
H  H42  1  0.22854000  0.84461000  0.50137000  1.0 0.1016602478
H  H43  1  0.26802000  0.05210000  0.92209000  1.0 0.1016602478
H  H44  1  0.25395000  0.99411000  0.84548000  1.0 0.1084864482
H  H45  1  0.78483000  0.92344000  0.55374000  1.0 0.1016602478
H  H46  1  0.77146000  0.84461000  0.49863000  1.0 0.1016602478
H  H47  1  0.73198000  0.05210000  0.07791000  1.0 0.1016602478
H  H48  1  0.74605000  0.99411000  0.15452000  1.0 0.1084864482
H  H49  1  0.94626000  0.28483000  0.42344000  1.0 0.1016602478
H  H50  1  0.00137000  0.27146000  0.34461000  1.0 0.1016602478
H  H51  1  0.42209000  0.23198000  0.55210000  1.0 0.1016602478
H  H52  1  0.34548000  0.24605000  0.49411000  1.0 0.1084864482
H  H53  1  0.05374000  0.71517000  0.42344000  1.0 0.1016602478
H  H54  1  0.99863000  0.72854000  0.34461000  1.0 0.1016602478
H  H55  1  0.57791000  0.76802000  0.55210000  1.0 0.1016602478
H  H56  1  0.65452000  0.75395000  0.49411000  1.0 0.1084864482
H  H57  1  0.05374000  0.28483000  0.57656000  1.0 0.1016602478
H  H58  1  0.99863000  0.27146000  0.65539000  1.0 0.1016602478
H  H59  1  0.57791000  0.23198000  0.44790000  1.0 0.1016602478
H  H60  1  0.65452000  0.24605000  0.50589000  1.0 0.1084864482
H  H61  1  0.94626000  0.71517000  0.57656000  1.0 0.1016602478
H  H62  1  0.00137000  0.72854000  0.65539000  1.0 0.1016602478
H  H63  1  0.42209000  0.76802000  0.44790000  1.0 0.1016602478
H  H64  1  0.34548000  0.75395000  0.50589000  1.0 0.1084864482
H  H65  1  0.42344000  0.94626000  0.28483000  1.0 0.1016602478
H  H66  1  0.34461000  0.00137000  0.27146000  1.0 0.1016602478
H  H67  1  0.55210000  0.42209000  0.23198000  1.0 0.1016602478
H  H68  1  0.49411000  0.34548000  0.24605000  1.0 0.1084864482
H  H69  1  0.42344000  0.05374000  0.71517000  1.0 0.1016602478
H  H70  1  0.34461000  0.99863000  0.72854000  1.0 0.1016602478
H  H71  1  0.55210000  0.57791000  0.76802000  1.0 0.1016602478
H  H72  1  0.49411000  0.65452000  0.75395000  1.0 0.1084864482
H  H73  1  0.57656000  0.05374000  0.28483000  1.0 0.1016602478
H  H74  1  0.65539000  0.99863000  0.27146000  1.0 0.1016602478
H  H75  1  0.44790000  0.57791000  0.23198000  1.0 0.1016602478
H  H76  1  0.50589000  0.65452000  0.24605000  1.0 0.1084864482
H  H77  1  0.57656000  0.94626000  0.71517000  1.0 0.1016602478
H  H78  1  0.65539000  0.00137000  0.72854000  1.0 0.1016602478
H  H79  1  0.44790000  0.42209000  0.76802000  1.0 0.1016602478
H  H80  1  0.50589000  0.34548000  0.75395000  1.0 0.1084864482
H  H81  1  0.28483000  0.42344000  0.94626000  1.0 0.1016602478
H  H82  1  0.27146000  0.34461000  0.00137000  1.0 0.1016602478
H  H83  1  0.23198000  0.55210000  0.42209000  1.0 0.1016602478
H  H84  1  0.24605000  0.49411000  0.34548000  1.0 0.1084864482
H  H85  1  0.71517000  0.42344000  0.05374000  1.0 0.1016602478
H  H86  1  0.72854000  0.34461000  0.99863000  1.0 0.1016602478
H  H87  1  0.76802000  0.55210000  0.57791000  1.0 0.1016602478
H  H88  1  0.75395000  0.49411000  0.65452000  1.0 0.1084864482
H  H89  1  0.28483000  0.57656000  0.05374000  1.0 0.1016602478
H  H90  1  0.27146000  0.65539000  0.99863000  1.0 0.1016602478
H  H91  1  0.23198000  0.44790000  0.57791000  1.0 0.1016602478
H  H92  1  0.24605000  0.50589000  0.65452000  1.0 0.1084864482
H  H93  1  0.71517000  0.57656000  0.94626000  1.0 0.1016602478
H  H94  1  0.72854000  0.65539000  0.00137000  1.0 0.1016602478
H  H95  1  0.76802000  0.44790000  0.42209000  1.0 0.1016602478
H  H96  1  0.75395000  0.50589000  0.34548000  1.0 0.1084864482
H  H97  1  0.17300000  0.17300000  0.17300000  1.0 0.3644664226
H  H98  1  0.82700000  0.82700000  0.17300000  1.0 0.3644664226
H  H99  1  0.82700000  0.17300000  0.82700000  1.0 0.3644664226
H  H100  1  0.17300000  0.82700000  0.82700000  1.0 0.3644664226
H  H101  1  0.32700000  0.32700000  0.32700000  1.0 0.3644664226
H  H102  1  0.67300000  0.67300000  0.32700000  1.0 0.3644664226
H  H103  1  0.67300000  0.32700000  0.67300000  1.0 0.3644664226
H  H104  1  0.32700000  0.67300000  0.67300000  1.0 0.3644664226
C  C1  1  0.48892000  0.22480000  0.02786000  1.0 -0.0594782017
C  C2  1  0.51739000  0.22169000  0.07511000  1.0 -0.172565254
C  C3  1  0.48537000  0.22945000  0.12090000  1.0 -0.0887551746
C  C4  1  0.43220000  0.23856000  0.10899000  1.0 -0.1015863048
C  C5  1  0.38995000  0.24774000  0.14462000  1.0 0.3442141003
C  C6  1  0.02735000  0.26669000  0.01200000  1.0 -0.0655730627
C  C7  1  0.07527000  0.26449000  0.98460000  1.0 -0.1963626573
C  C8  1  0.11978000  0.25631000  0.01829000  1.0 -0.0594782017
C  C9  1  0.10620000  0.25221000  0.07168000  1.0 -0.2087754184
C  C10  1  0.14028000  0.24409000  0.11541000  1.0 0.4203789831
C  C11  1  0.51108000  0.77520000  0.02786000  1.0 -0.0594782017
C  C12  1  0.48261000  0.77831000  0.07511000  1.0 -0.172565254
C  C13  1  0.51463000  0.77055000  0.12090000  1.0 -0.0887551746
C  C14  1  0.56780000  0.76144000  0.10899000  1.0 -0.1015863048
C  C15  1  0.61005000  0.75226000  0.14462000  1.0 0.3442141003
C  C16  1  0.97265000  0.73331000  0.01200000  1.0 -0.0594782017
C  C17  1  0.92473000  0.73551000  0.98460000  1.0 -0.1963626573
C  C18  1  0.88022000  0.74369000  0.01829000  1.0 -0.0594782017
C  C19  1  0.89380000  0.74779000  0.07168000  1.0 -0.2087754184
C  C20  1  0.85972000  0.75591000  0.11541000  1.0 0.4203789831
C  C21  1  0.51108000  0.22480000  0.97214000  1.0 -0.0594782017
C  C22  1  0.48261000  0.22169000  0.92489000  1.0 -0.172565254
C  C23  1  0.51463000  0.22945000  0.87910000  1.0 -0.0887551746
C  C24  1  0.56780000  0.23856000  0.89101000  1.0 -0.1015863048
C  C25  1  0.61005000  0.24774000  0.85538000  1.0 0.3442141003
C  C26  1  0.97265000  0.26669000  0.98800000  1.0 -0.0655730627
C  C27  1  0.92473000  0.26449000  0.01540000  1.0 -0.1963626573
C  C28  1  0.88022000  0.25631000  0.98171000  1.0 -0.0594782017
C  C29  1  0.89380000  0.25221000  0.92832000  1.0 -0.2087754184
C  C30  1  0.85972000  0.24409000  0.88459000  1.0 0.4203789831
C  C31  1  0.48892000  0.77520000  0.97214000  1.0 -0.0594782017
C  C32  1  0.51739000  0.77831000  0.92489000  1.0 -0.172565254
C  C33  1  0.48537000  0.77055000  0.87910000  1.0 -0.0887551746
C  C34  1  0.43220000  0.76144000  0.89101000  1.0 -0.1015863048
C  C35  1  0.38995000  0.75226000  0.85538000  1.0 0.3442141003
C  C36  1  0.02735000  0.73331000  0.98800000  1.0 -0.0655730627
C  C37  1  0.07527000  0.73551000  0.01540000  1.0 -0.1963626573
C  C38  1  0.11978000  0.74369000  0.98171000  1.0 -0.0594782017
C  C39  1  0.10620000  0.74779000  0.92832000  1.0 -0.2087754184
C  C40  1  0.14028000  0.75591000  0.88459000  1.0 0.4203789831
C  C41  1  0.02786000  0.48892000  0.22480000  1.0 -0.0594782017
C  C42  1  0.07511000  0.51739000  0.22169000  1.0 -0.172565254
C  C43  1  0.12090000  0.48537000  0.22945000  1.0 -0.0887551746
C  C44  1  0.10899000  0.43220000  0.23856000  1.0 -0.1015863048
C  C45  1  0.14462000  0.38995000  0.24774000  1.0 0.3442141003
C  C46  1  0.01200000  0.02735000  0.26669000  1.0 -0.0655730627
C  C47  1  0.98460000  0.07527000  0.26449000  1.0 -0.1963626573
C  C48  1  0.01829000  0.11978000  0.25631000  1.0 -0.0594782017
C  C49  1  0.07168000  0.10620000  0.25221000  1.0 -0.2087754184
C  C50  1  0.11541000  0.14028000  0.24409000  1.0 0.4203789831
C  C51  1  0.02786000  0.51108000  0.77520000  1.0 -0.0594782017
C  C52  1  0.07511000  0.48261000  0.77831000  1.0 -0.172565254
C  C53  1  0.12090000  0.51463000  0.77055000  1.0 -0.0887551746
C  C54  1  0.10899000  0.56780000  0.76144000  1.0 -0.1015863048
C  C55  1  0.14462000  0.61005000  0.75226000  1.0 0.3442141003
C  C56  1  0.01200000  0.97265000  0.73331000  1.0 -0.0655730627
C  C57  1  0.98460000  0.92473000  0.73551000  1.0 -0.1963626573
C  C58  1  0.01829000  0.88022000  0.74369000  1.0 -0.0594782017
C  C59  1  0.07168000  0.89380000  0.74779000  1.0 -0.2087754184
C  C60  1  0.11541000  0.85972000  0.75591000  1.0 0.4203789831
C  C61  1  0.97214000  0.51108000  0.22480000  1.0 -0.0594782017
C  C62  1  0.92489000  0.48261000  0.22169000  1.0 -0.172565254
C  C63  1  0.87910000  0.51463000  0.22945000  1.0 -0.0887551746
C  C64  1  0.89101000  0.56780000  0.23856000  1.0 -0.1015863048
C  C65  1  0.85538000  0.61005000  0.24774000  1.0 0.3442141003
C  C66  1  0.98800000  0.97265000  0.26669000  1.0 -0.0594782017
C  C67  1  0.01540000  0.92473000  0.26449000  1.0 -0.1963626573
C  C68  1  0.98171000  0.88022000  0.25631000  1.0 -0.0594782017
C  C69  1  0.92832000  0.89380000  0.25221000  1.0 -0.2087754184
C  C70  1  0.88459000  0.85972000  0.24409000  1.0 0.4203789831
C  C71  1  0.97214000  0.48892000  0.77520000  1.0 -0.0594782017
C  C72  1  0.92489000  0.51739000  0.77831000  1.0 -0.172565254
C  C73  1  0.87910000  0.48537000  0.77055000  1.0 -0.0887551746
C  C74  1  0.89101000  0.43220000  0.76144000  1.0 -0.1015863048
C  C75  1  0.85538000  0.38995000  0.75226000  1.0 0.3442141003
C  C76  1  0.98800000  0.02735000  0.73331000  1.0 -0.0594782017
C  C77  1  0.01540000  0.07527000  0.73551000  1.0 -0.1963626573
C  C78  1  0.98171000  0.11978000  0.74369000  1.0 -0.0594782017
C  C79  1  0.92832000  0.10620000  0.74779000  1.0 -0.2087754184
C  C80  1  0.88459000  0.14028000  0.75591000  1.0 0.4203789831
C  C81  1  0.22480000  0.02786000  0.48892000  1.0 -0.0594782017
C  C82  1  0.22169000  0.07511000  0.51739000  1.0 -0.172565254
C  C83  1  0.22945000  0.12090000  0.48537000  1.0 -0.0887551746
C  C84  1  0.23856000  0.10899000  0.43220000  1.0 -0.1015863048
C  C85  1  0.24774000  0.14462000  0.38995000  1.0 0.3442141003
C  C86  1  0.26669000  0.01200000  0.02735000  1.0 -0.0655730627
C  C87  1  0.26449000  0.98460000  0.07527000  1.0 -0.1963626573
C  C88  1  0.25631000  0.01829000  0.11978000  1.0 -0.0594782017
C  C89  1  0.25221000  0.07168000  0.10620000  1.0 -0.2087754184
C  C90  1  0.24409000  0.11541000  0.14028000  1.0 0.4203789831
C  C91  1  0.77520000  0.02786000  0.51108000  1.0 -0.0594782017
C  C92  1  0.77831000  0.07511000  0.48261000  1.0 -0.172565254
C  C93  1  0.77055000  0.12090000  0.51463000  1.0 -0.0887551746
C  C94  1  0.76144000  0.10899000  0.56780000  1.0 -0.1015863048
C  C95  1  0.75226000  0.14462000  0.61005000  1.0 0.3442141003
C  C96  1  0.73331000  0.01200000  0.97265000  1.0 -0.0655730627
C  C97  1  0.73551000  0.98460000  0.92473000  1.0 -0.1963626573
C  C98  1  0.74369000  0.01829000  0.88022000  1.0 -0.0594782017
C  C99  1  0.74779000  0.07168000  0.89380000  1.0 -0.2087754184
C  C100  1  0.75591000  0.11541000  0.85972000  1.0 0.4203789831
C  C101  1  0.22480000  0.97214000  0.51108000  1.0 -0.0594782017
C  C102  1  0.22169000  0.92489000  0.48261000  1.0 -0.172565254
C  C103  1  0.22945000  0.87910000  0.51463000  1.0 -0.0887551746
C  C104  1  0.23856000  0.89101000  0.56780000  1.0 -0.1015863048
C  C105  1  0.24774000  0.85538000  0.61005000  1.0 0.3442141003
C  C106  1  0.26669000  0.98800000  0.97265000  1.0 -0.0655730627
C  C107  1  0.26449000  0.01540000  0.92473000  1.0 -0.1963626573
C  C108  1  0.25631000  0.98171000  0.88022000  1.0 -0.0594782017
C  C109  1  0.25221000  0.92832000  0.89380000  1.0 -0.2087754184
C  C110  1  0.24409000  0.88459000  0.85972000  1.0 0.4203789831
C  C111  1  0.77520000  0.97214000  0.48892000  1.0 -0.0594782017
C  C112  1  0.77831000  0.92489000  0.51739000  1.0 -0.172565254
C  C113  1  0.77055000  0.87910000  0.48537000  1.0 -0.0887551746
C  C114  1  0.76144000  0.89101000  0.43220000  1.0 -0.1015863048
C  C115  1  0.75226000  0.85538000  0.38995000  1.0 0.3442141003
C  C116  1  0.73331000  0.98800000  0.02735000  1.0 -0.0594782017
C  C117  1  0.73551000  0.01540000  0.07527000  1.0 -0.1963626573
C  C118  1  0.74369000  0.98171000  0.11978000  1.0 -0.0594782017
C  C119  1  0.74779000  0.92832000  0.10620000  1.0 -0.2087754184
C  C120  1  0.75591000  0.88459000  0.14028000  1.0 0.4203789831
C  C121  1  0.01108000  0.27520000  0.47214000  1.0 -0.0594782017
C  C122  1  0.98261000  0.27831000  0.42489000  1.0 -0.172565254
C  C123  1  0.01463000  0.27055000  0.37910000  1.0 -0.0887551746
C  C124  1  0.06780000  0.26144000  0.39101000  1.0 -0.1015863048
C  C125  1  0.11005000  0.25226000  0.35538000  1.0 0.3442141003
C  C126  1  0.47265000  0.23331000  0.48800000  1.0 -0.0655730627
C  C127  1  0.42473000  0.23551000  0.51540000  1.0 -0.1963626573
C  C128  1  0.38022000  0.24369000  0.48171000  1.0 -0.0594782017
C  C129  1  0.39380000  0.24779000  0.42832000  1.0 -0.2087754184
C  C130  1  0.35972000  0.25591000  0.38459000  1.0 0.4203789831
C  C131  1  0.98892000  0.72480000  0.47214000  1.0 -0.0594782017
C  C132  1  0.01739000  0.72169000  0.42489000  1.0 -0.172565254
C  C133  1  0.98537000  0.72945000  0.37910000  1.0 -0.0887551746
C  C134  1  0.93220000  0.73856000  0.39101000  1.0 -0.1015863048
C  C135  1  0.88995000  0.74774000  0.35538000  1.0 0.3452459214
C  C136  1  0.52735000  0.76669000  0.48800000  1.0 -0.0655730627
C  C137  1  0.57527000  0.76449000  0.51540000  1.0 -0.1963626573
C  C138  1  0.61978000  0.75631000  0.48171000  1.0 -0.0594782017
C  C139  1  0.60620000  0.75221000  0.42832000  1.0 -0.2087754184
C  C140  1  0.64028000  0.74409000  0.38459000  1.0 0.4203789831
C  C141  1  0.98892000  0.27520000  0.52786000  1.0 -0.0594782017
C  C142  1  0.01739000  0.27831000  0.57511000  1.0 -0.172565254
C  C143  1  0.98537000  0.27055000  0.62090000  1.0 -0.0887551746
C  C144  1  0.93220000  0.26144000  0.60899000  1.0 -0.1015863048
C  C145  1  0.88995000  0.25226000  0.64462000  1.0 0.3442141003
C  C146  1  0.52735000  0.23331000  0.51200000  1.0 -0.0655730627
C  C147  1  0.57527000  0.23551000  0.48460000  1.0 -0.1963626573
C  C148  1  0.61978000  0.24369000  0.51829000  1.0 -0.0594782017
C  C149  1  0.60620000  0.24779000  0.57168000  1.0 -0.2087754184
C  C150  1  0.64028000  0.25591000  0.61541000  1.0 0.4203789831
C  C151  1  0.01108000  0.72480000  0.52786000  1.0 -0.0594782017
C  C152  1  0.98261000  0.72169000  0.57511000  1.0 -0.172565254
C  C153  1  0.01463000  0.72945000  0.62090000  1.0 -0.0887551746
C  C154  1  0.06780000  0.73856000  0.60899000  1.0 -0.1015863048
C  C155  1  0.11005000  0.74774000  0.64462000  1.0 0.3442141003
C  C156  1  0.47265000  0.76669000  0.51200000  1.0 -0.0655730627
C  C157  1  0.42473000  0.76449000  0.48460000  1.0 -0.1963626573
C  C158  1  0.38022000  0.75631000  0.51829000  1.0 -0.0594782017
C  C159  1  0.39380000  0.75221000  0.57168000  1.0 -0.2087754184
C  C160  1  0.35972000  0.74409000  0.61541000  1.0 0.4203789831
C  C161  1  0.47214000  0.01108000  0.27520000  1.0 -0.0594782017
C  C162  1  0.42489000  0.98261000  0.27831000  1.0 -0.172565254
C  C163  1  0.37910000  0.01463000  0.27055000  1.0 -0.0887551746
C  C164  1  0.39101000  0.06780000  0.26144000  1.0 -0.1015863048
C  C165  1  0.35538000  0.11005000  0.25226000  1.0 0.3442141003
C  C166  1  0.48800000  0.47265000  0.23331000  1.0 -0.0655730627
C  C167  1  0.51540000  0.42473000  0.23551000  1.0 -0.1963626573
C  C168  1  0.48171000  0.38022000  0.24369000  1.0 -0.0594782017
C  C169  1  0.42832000  0.39380000  0.24779000  1.0 -0.2087754184
C  C170  1  0.38459000  0.35972000  0.25591000  1.0 0.4203789831
C  C171  1  0.47214000  0.98892000  0.72480000  1.0 -0.0594782017
C  C172  1  0.42489000  0.01739000  0.72169000  1.0 -0.172565254
C  C173  1  0.37910000  0.98537000  0.72945000  1.0 -0.0887551746
C  C174  1  0.39101000  0.93220000  0.73856000  1.0 -0.1015863048
C  C175  1  0.35538000  0.88995000  0.74774000  1.0 0.3442141003
C  C176  1  0.48800000  0.52735000  0.76669000  1.0 -0.0655730627
C  C177  1  0.51540000  0.57527000  0.76449000  1.0 -0.1963626573
C  C178  1  0.48171000  0.61978000  0.75631000  1.0 -0.0594782017
C  C179  1  0.42832000  0.60620000  0.75221000  1.0 -0.2087754184
C  C180  1  0.38459000  0.64028000  0.74409000  1.0 0.4203789831
C  C181  1  0.52786000  0.98892000  0.27520000  1.0 -0.0594782017
C  C182  1  0.57511000  0.01739000  0.27831000  1.0 -0.172565254
C  C183  1  0.62090000  0.98537000  0.27055000  1.0 -0.0887551746
C  C184  1  0.60899000  0.93220000  0.26144000  1.0 -0.1015863048
C  C185  1  0.64462000  0.88995000  0.25226000  1.0 0.3442141003
C  C186  1  0.51200000  0.52735000  0.23331000  1.0 -0.0655730627
C  C187  1  0.48460000  0.57527000  0.23551000  1.0 -0.1963626573
C  C188  1  0.51829000  0.61978000  0.24369000  1.0 -0.0594782017
C  C189  1  0.57168000  0.60620000  0.24779000  1.0 -0.2087754184
C  C190  1  0.61541000  0.64028000  0.25591000  1.0 0.4203789831
C  C191  1  0.52786000  0.01108000  0.72480000  1.0 -0.0594782017
C  C192  1  0.57511000  0.98261000  0.72169000  1.0 -0.172565254
C  C193  1  0.62090000  0.01463000  0.72945000  1.0 -0.0887551746
C  C194  1  0.60899000  0.06780000  0.73856000  1.0 -0.1015863048
C  C195  1  0.64462000  0.11005000  0.74774000  1.0 0.3442141003
C  C196  1  0.51200000  0.47265000  0.76669000  1.0 -0.0655730627
C  C197  1  0.48460000  0.42473000  0.76449000  1.0 -0.1963626573
C  C198  1  0.51829000  0.38022000  0.75631000  1.0 -0.0594782017
C  C199  1  0.57168000  0.39380000  0.75221000  1.0 -0.2087754184
C  C200  1  0.61541000  0.35972000  0.74409000  1.0 0.4203789831
C  C201  1  0.27520000  0.47214000  0.01108000  1.0 -0.0594782017
C  C202  1  0.27831000  0.42489000  0.98261000  1.0 -0.172565254
C  C203  1  0.27055000  0.37910000  0.01463000  1.0 -0.0887551746
C  C204  1  0.26144000  0.39101000  0.06780000  1.0 -0.1015863048
C  C205  1  0.25226000  0.35538000  0.11005000  1.0 0.3442141003
C  C206  1  0.23331000  0.48800000  0.47265000  1.0 -0.0655730627
C  C207  1  0.23551000  0.51540000  0.42473000  1.0 -0.1963626573
C  C208  1  0.24369000  0.48171000  0.38022000  1.0 -0.0594782017
C  C209  1  0.24779000  0.42832000  0.39380000  1.0 -0.2087754184
C  C210  1  0.25591000  0.38459000  0.35972000  1.0 0.4203789831
C  C211  1  0.72480000  0.47214000  0.98892000  1.0 -0.0594782017
C  C212  1  0.72169000  0.42489000  0.01739000  1.0 -0.172565254
C  C213  1  0.72945000  0.37910000  0.98537000  1.0 -0.0887551746
C  C214  1  0.73856000  0.39101000  0.93220000  1.0 -0.1015863048
C  C215  1  0.74774000  0.35538000  0.88995000  1.0 0.3442141003
C  C216  1  0.76669000  0.48800000  0.52735000  1.0 -0.0655730627
C  C217  1  0.76449000  0.51540000  0.57527000  1.0 -0.1963626573
C  C218  1  0.75631000  0.48171000  0.61978000  1.0 -0.0594782017
C  C219  1  0.75221000  0.42832000  0.60620000  1.0 -0.2087754184
C  C220  1  0.74409000  0.38459000  0.64028000  1.0 0.4203789831
C  C221  1  0.27520000  0.52786000  0.98892000  1.0 -0.0594782017
C  C222  1  0.27831000  0.57511000  0.01739000  1.0 -0.172565254
C  C223  1  0.27055000  0.62090000  0.98537000  1.0 -0.0887551746
C  C224  1  0.26144000  0.60899000  0.93220000  1.0 -0.1015863048
C  C225  1  0.25226000  0.64462000  0.88995000  1.0 0.3442141003
C  C226  1  0.23331000  0.51200000  0.52735000  1.0 -0.0655730627
C  C227  1  0.23551000  0.48460000  0.57527000  1.0 -0.1963626573
C  C228  1  0.24369000  0.51829000  0.61978000  1.0 -0.0594782017
C  C229  1  0.24779000  0.57168000  0.60620000  1.0 -0.2087754184
C  C230  1  0.25591000  0.61541000  0.64028000  1.0 0.4203789831
C  C231  1  0.72480000  0.52786000  0.01108000  1.0 -0.0594782017
C  C232  1  0.72169000  0.57511000  0.98261000  1.0 -0.172565254
C  C233  1  0.72945000  0.62090000  0.01463000  1.0 -0.0887551746
C  C234  1  0.73856000  0.60899000  0.06780000  1.0 -0.1015863048
C  C235  1  0.74774000  0.64462000  0.11005000  1.0 0.3442141003
C  C236  1  0.76669000  0.51200000  0.47265000  1.0 -0.0655730627
C  C237  1  0.76449000  0.48460000  0.42473000  1.0 -0.1963626573
C  C238  1  0.75631000  0.51829000  0.38022000  1.0 -0.0594782017
C  C239  1  0.75221000  0.57168000  0.39380000  1.0 -0.2087754184
C  C240  1  0.74409000  0.61541000  0.35972000  1.0 0.4203789831
Se  Se1  1  0.41936000  0.23785000  0.03856000  1.0 0.1016602478
Se  Se2  1  0.03573000  0.25848000  0.08261000  1.0 0.2237202129
Se  Se3  1  0.58064000  0.76215000  0.03856000  1.0 0.1016602478
Se  Se4  1  0.96427000  0.74152000  0.08261000  1.0 0.2237202129
Se  Se5  1  0.58064000  0.23785000  0.96144000  1.0 0.1016602478
Se  Se6  1  0.96427000  0.25848000  0.91739000  1.0 0.2237202129
Se  Se7  1  0.41936000  0.76215000  0.96144000  1.0 0.1016602478
Se  Se8  1  0.03573000  0.74152000  0.91739000  1.0 0.2237202129
Se  Se9  1  0.03856000  0.41936000  0.23785000  1.0 0.1016602478
Se  Se10  1  0.08261000  0.03573000  0.25848000  1.0 0.2237202129
Se  Se11  1  0.03856000  0.58064000  0.76215000  1.0 0.1016602478
Se  Se12  1  0.08261000  0.96427000  0.74152000  1.0 0.2237202129
Se  Se13  1  0.96144000  0.58064000  0.23785000  1.0 0.1016602478
Se  Se14  1  0.91739000  0.96427000  0.25848000  1.0 0.2237202129
Se  Se15  1  0.96144000  0.41936000  0.76215000  1.0 0.1016602478
Se  Se16  1  0.91739000  0.03573000  0.74152000  1.0 0.2237202129
Se  Se17  1  0.23785000  0.03856000  0.41936000  1.0 0.1016602478
Se  Se18  1  0.25848000  0.08261000  0.03573000  1.0 0.2237202129
Se  Se19  1  0.76215000  0.03856000  0.58064000  1.0 0.1016602478
Se  Se20  1  0.74152000  0.08261000  0.96427000  1.0 0.2237202129
Se  Se21  1  0.23785000  0.96144000  0.58064000  1.0 0.1016602478
Se  Se22  1  0.25848000  0.91739000  0.96427000  1.0 0.2237202129
Se  Se23  1  0.76215000  0.96144000  0.41936000  1.0 0.1016602478
Se  Se24  1  0.74152000  0.91739000  0.03573000  1.0 0.2237202129
Se  Se25  1  0.08064000  0.26215000  0.46144000  1.0 0.1016602478
Se  Se26  1  0.46427000  0.24152000  0.41739000  1.0 0.2237202129
Se  Se27  1  0.91936000  0.73785000  0.46144000  1.0 0.1016602478
Se  Se28  1  0.53573000  0.75848000  0.41739000  1.0 0.2237202129
Se  Se29  1  0.91936000  0.26215000  0.53856000  1.0 0.1016602478
Se  Se30  1  0.53573000  0.24152000  0.58261000  1.0 0.2237202129
Se  Se31  1  0.08064000  0.73785000  0.53856000  1.0 0.1016602478
Se  Se32  1  0.46427000  0.75848000  0.58261000  1.0 0.2237202129
Se  Se33  1  0.46144000  0.08064000  0.26215000  1.0 0.1016602478
Se  Se34  1  0.41739000  0.46427000  0.24152000  1.0 0.2237202129
Se  Se35  1  0.46144000  0.91936000  0.73785000  1.0 0.1016602478
Se  Se36  1  0.41739000  0.53573000  0.75848000  1.0 0.2237202129
Se  Se37  1  0.53856000  0.91936000  0.26215000  1.0 0.1016602478
Se  Se38  1  0.58261000  0.53573000  0.24152000  1.0 0.2237202129
Se  Se39  1  0.53856000  0.08064000  0.73785000  1.0 0.1016602478
Se  Se40  1  0.58261000  0.46427000  0.75848000  1.0 0.2237202129
Se  Se41  1  0.26215000  0.46144000  0.08064000  1.0 0.1016602478
Se  Se42  1  0.24152000  0.41739000  0.46427000  1.0 0.2237202129
Se  Se43  1  0.73785000  0.46144000  0.91936000  1.0 0.1016602478
Se  Se44  1  0.75848000  0.41739000  0.53573000  1.0 0.2237202129
Se  Se45  1  0.26215000  0.53856000  0.91936000  1.0 0.1016602478
Se  Se46  1  0.24152000  0.58261000  0.53573000  1.0 0.2237202129
Se  Se47  1  0.73785000  0.53856000  0.08064000  1.0 0.1016602478
Se  Se48  1  0.75848000  0.58261000  0.46427000  1.0 0.2237202129
Cl  Cl1  1  0.26794000  0.16307000  0.10561000  1.0 0.0846206256
Cl  Cl2  1  0.40715000  0.22537000  0.17434000  1.0 0.1084864482
Cl  Cl3  1  0.73206000  0.83693000  0.10561000  1.0 0.0856316699
Cl  Cl4  1  0.59285000  0.77463000  0.17434000  1.0 0.1084864482
Cl  Cl5  1  0.73206000  0.16307000  0.89439000  1.0 0.0846206256
Cl  Cl6  1  0.59285000  0.22537000  0.82566000  1.0 0.1084864482
Cl  Cl7  1  0.26794000  0.83693000  0.89439000  1.0 0.0856316699
Cl  Cl8  1  0.40715000  0.77463000  0.82566000  1.0 0.1084864482
Cl  Cl9  1  0.10561000  0.26794000  0.16307000  1.0 0.0846206256
Cl  Cl10  1  0.17434000  0.40715000  0.22537000  1.0 0.1084864482
Cl  Cl11  1  0.10561000  0.73206000  0.83693000  1.0 0.0856316699
Cl  Cl12  1  0.17434000  0.59285000  0.77463000  1.0 0.1084864482
Cl  Cl13  1  0.89439000  0.73206000  0.16307000  1.0 0.0856316699
Cl  Cl14  1  0.82566000  0.59285000  0.22537000  1.0 0.1084864482
Cl  Cl15  1  0.89439000  0.26794000  0.83693000  1.0 0.0846206256
Cl  Cl16  1  0.82566000  0.40715000  0.77463000  1.0 0.1084864482
Cl  Cl17  1  0.16307000  0.10561000  0.26794000  1.0 0.0846206256
Cl  Cl18  1  0.22537000  0.17434000  0.40715000  1.0 0.1084864482
Cl  Cl19  1  0.83693000  0.10561000  0.73206000  1.0 0.0846206256
Cl  Cl20  1  0.77463000  0.17434000  0.59285000  1.0 0.1084864482
Cl  Cl21  1  0.16307000  0.89439000  0.73206000  1.0 0.0856316699
Cl  Cl22  1  0.22537000  0.82566000  0.59285000  1.0 0.1084864482
Cl  Cl23  1  0.83693000  0.89439000  0.26794000  1.0 0.0856316699
Cl  Cl24  1  0.77463000  0.82566000  0.40715000  1.0 0.1084864482
Cl  Cl25  1  0.23206000  0.33693000  0.39439000  1.0 0.0846206256
Cl  Cl26  1  0.09285000  0.27463000  0.32566000  1.0 0.1084864482
Cl  Cl27  1  0.76794000  0.66307000  0.39439000  1.0 0.0856316699
Cl  Cl28  1  0.90715000  0.72537000  0.32566000  1.0 0.1084864482
Cl  Cl29  1  0.76794000  0.33693000  0.60561000  1.0 0.0846206256
Cl  Cl30  1  0.90715000  0.27463000  0.67434000  1.0 0.1084864482
Cl  Cl31  1  0.23206000  0.66307000  0.60561000  1.0 0.0846206256
Cl  Cl32  1  0.09285000  0.72537000  0.67434000  1.0 0.1084864482
Cl  Cl33  1  0.39439000  0.23206000  0.33693000  1.0 0.0846206256
Cl  Cl34  1  0.32566000  0.09285000  0.27463000  1.0 0.1084864482
Cl  Cl35  1  0.39439000  0.76794000  0.66307000  1.0 0.0856316699
Cl  Cl36  1  0.32566000  0.90715000  0.72537000  1.0 0.1084864482
Cl  Cl37  1  0.60561000  0.76794000  0.33693000  1.0 0.0856316699
Cl  Cl38  1  0.67434000  0.90715000  0.27463000  1.0 0.1084864482
Cl  Cl39  1  0.60561000  0.23206000  0.66307000  1.0 0.0846206256
Cl  Cl40  1  0.67434000  0.09285000  0.72537000  1.0 0.1084864482
Cl  Cl41  1  0.33693000  0.39439000  0.23206000  1.0 0.0846206256
Cl  Cl42  1  0.27463000  0.32566000  0.09285000  1.0 0.1084864482
Cl  Cl43  1  0.66307000  0.39439000  0.76794000  1.0 0.0846206256
Cl  Cl44  1  0.72537000  0.32566000  0.90715000  1.0 0.1084864482
Cl  Cl45  1  0.33693000  0.60561000  0.76794000  1.0 0.0856316699
Cl  Cl46  1  0.27463000  0.67434000  0.90715000  1.0 0.1084864482
Cl  Cl47  1  0.66307000  0.60561000  0.23206000  1.0 0.0856316699
Cl  Cl48  1  0.72537000  0.67434000  0.09285000  1.0 0.1084864482
O  O1  1  0.29140000  0.19098000  0.20401000  1.0 -0.9825652701
O  O2  1  0.39824000  0.24831000  0.19254000  1.0 -0.2900537214
O  O3  1  0.34498000  0.25515000  0.12764000  1.0 -0.5128969611
O  O4  1  0.18821000  0.23977000  0.10842000  1.0 -0.5212221704
O  O5  1  0.12191000  0.24136000  0.16036000  1.0 -0.2442549026
O  O6  1  0.70860000  0.80902000  0.20401000  1.0 -0.9825652701
O  O7  1  0.60176000  0.75169000  0.19254000  1.0 -0.2900537214
O  O8  1  0.65502000  0.74485000  0.12764000  1.0 -0.5128969611
O  O9  1  0.81179000  0.76023000  0.10842000  1.0 -0.5212221704
O  O10  1  0.87809000  0.75864000  0.16036000  1.0 -0.2442549026
O  O11  1  0.70860000  0.19098000  0.79599000  1.0 -0.9825652701
O  O12  1  0.60176000  0.24831000  0.80746000  1.0 -0.2900537214
O  O13  1  0.65502000  0.25515000  0.87236000  1.0 -0.5128969611
O  O14  1  0.81179000  0.23977000  0.89158000  1.0 -0.5212221704
O  O15  1  0.87809000  0.24136000  0.83964000  1.0 -0.2442549026
O  O16  1  0.29140000  0.80902000  0.79599000  1.0 -0.9825652701
O  O17  1  0.39824000  0.75169000  0.80746000  1.0 -0.2900537214
O  O18  1  0.34498000  0.74485000  0.87236000  1.0 -0.5128969611
O  O19  1  0.18821000  0.76023000  0.89158000  1.0 -0.5212221704
O  O20  1  0.12191000  0.75864000  0.83964000  1.0 -0.2442549026
O  O21  1  0.20401000  0.29140000  0.19098000  1.0 -0.9825652701
O  O22  1  0.19254000  0.39824000  0.24831000  1.0 -0.2900537214
O  O23  1  0.12764000  0.34498000  0.25515000  1.0 -0.5128969611
O  O24  1  0.10842000  0.18821000  0.23977000  1.0 -0.5212221704
O  O25  1  0.16036000  0.12191000  0.24136000  1.0 -0.2442549026
O  O26  1  0.20401000  0.70860000  0.80902000  1.0 -0.9825652701
O  O27  1  0.19254000  0.60176000  0.75169000  1.0 -0.2900537214
O  O28  1  0.12764000  0.65502000  0.74485000  1.0 -0.5128969611
O  O29  1  0.10842000  0.81179000  0.76023000  1.0 -0.5212221704
O  O30  1  0.16036000  0.87809000  0.75864000  1.0 -0.2442549026
O  O31  1  0.79599000  0.70860000  0.19098000  1.0 -0.9825652701
O  O32  1  0.80746000  0.60176000  0.24831000  1.0 -0.2900537214
O  O33  1  0.87236000  0.65502000  0.25515000  1.0 -0.5128969611
O  O34  1  0.89158000  0.81179000  0.23977000  1.0 -0.5212221704
O  O35  1  0.83964000  0.87809000  0.24136000  1.0 -0.2442549026
O  O36  1  0.79599000  0.29140000  0.80902000  1.0 -0.9825652701
O  O37  1  0.80746000  0.39824000  0.75169000  1.0 -0.2900537214
O  O38  1  0.87236000  0.34498000  0.74485000  1.0 -0.5128969611
O  O39  1  0.89158000  0.18821000  0.76023000  1.0 -0.5212221704
O  O40  1  0.83964000  0.12191000  0.75864000  1.0 -0.2442549026
O  O41  1  0.19098000  0.20401000  0.29140000  1.0 -0.9825652701
O  O42  1  0.24831000  0.19254000  0.39824000  1.0 -0.2900537214
O  O43  1  0.25515000  0.12764000  0.34498000  1.0 -0.5128969611
O  O44  1  0.23977000  0.10842000  0.18821000  1.0 -0.5212221704
O  O45  1  0.24136000  0.16036000  0.12191000  1.0 -0.2442549026
O  O46  1  0.80902000  0.20401000  0.70860000  1.0 -0.9825652701
O  O47  1  0.75169000  0.19254000  0.60176000  1.0 -0.2900537214
O  O48  1  0.74485000  0.12764000  0.65502000  1.0 -0.5128969611
O  O49  1  0.76023000  0.10842000  0.81179000  1.0 -0.5212221704
O  O50  1  0.75864000  0.16036000  0.87809000  1.0 -0.2442549026
O  O51  1  0.19098000  0.79599000  0.70860000  1.0 -0.9825652701
O  O52  1  0.24831000  0.80746000  0.60176000  1.0 -0.2900537214
O  O53  1  0.25515000  0.87236000  0.65502000  1.0 -0.5128969611
O  O54  1  0.23977000  0.89158000  0.81179000  1.0 -0.5212221704
O  O55  1  0.24136000  0.83964000  0.87809000  1.0 -0.2442549026
O  O56  1  0.80902000  0.79599000  0.29140000  1.0 -0.9825652701
O  O57  1  0.75169000  0.80746000  0.39824000  1.0 -0.2900537214
O  O58  1  0.74485000  0.87236000  0.34498000  1.0 -0.5128969611
O  O59  1  0.76023000  0.89158000  0.18821000  1.0 -0.5212221704
O  O60  1  0.75864000  0.83964000  0.12191000  1.0 -0.2442549026
O  O61  1  0.20860000  0.30902000  0.29599000  1.0 -0.9825652701
O  O62  1  0.10176000  0.25169000  0.30746000  1.0 -0.2900537214
O  O63  1  0.15502000  0.24485000  0.37236000  1.0 -0.5128969611
O  O64  1  0.31179000  0.26023000  0.39158000  1.0 -0.5212221704
O  O65  1  0.37809000  0.25864000  0.33964000  1.0 -0.2442549026
O  O66  1  0.79140000  0.69098000  0.29599000  1.0 -0.9825652701
O  O67  1  0.89824000  0.74831000  0.30746000  1.0 -0.2900537214
O  O68  1  0.84498000  0.75515000  0.37236000  1.0 -0.5128969611
O  O69  1  0.68821000  0.73977000  0.39158000  1.0 -0.5212221704
O  O70  1  0.62191000  0.74136000  0.33964000  1.0 -0.2442549026
O  O71  1  0.79140000  0.30902000  0.70401000  1.0 -0.9825652701
O  O72  1  0.89824000  0.25169000  0.69254000  1.0 -0.2900537214
O  O73  1  0.84498000  0.24485000  0.62764000  1.0 -0.5128969611
O  O74  1  0.68821000  0.26023000  0.60842000  1.0 -0.5212221704
O  O75  1  0.62191000  0.25864000  0.66036000  1.0 -0.2442549026
O  O76  1  0.20860000  0.69098000  0.70401000  1.0 -0.9825652701
O  O77  1  0.10176000  0.74831000  0.69254000  1.0 -0.2900537214
O  O78  1  0.15502000  0.75515000  0.62764000  1.0 -0.5128969611
O  O79  1  0.31179000  0.73977000  0.60842000  1.0 -0.5212221704
O  O80  1  0.37809000  0.74136000  0.66036000  1.0 -0.2442549026
O  O81  1  0.29599000  0.20860000  0.30902000  1.0 -0.9825652701
O  O82  1  0.30746000  0.10176000  0.25169000  1.0 -0.2900537214
O  O83  1  0.37236000  0.15502000  0.24485000  1.0 -0.5128969611
O  O84  1  0.39158000  0.31179000  0.26023000  1.0 -0.5212221704
O  O85  1  0.33964000  0.37809000  0.25864000  1.0 -0.2442549026
O  O86  1  0.29599000  0.79140000  0.69098000  1.0 -0.9825652701
O  O87  1  0.30746000  0.89824000  0.74831000  1.0 -0.2900537214
O  O88  1  0.37236000  0.84498000  0.75515000  1.0 -0.5128969611
O  O89  1  0.39158000  0.68821000  0.73977000  1.0 -0.5212221704
O  O90  1  0.33964000  0.62191000  0.74136000  1.0 -0.2442549026
O  O91  1  0.70401000  0.79140000  0.30902000  1.0 -0.9825652701
O  O92  1  0.69254000  0.89824000  0.25169000  1.0 -0.2900537214
O  O93  1  0.62764000  0.84498000  0.24485000  1.0 -0.5128969611
O  O94  1  0.60842000  0.68821000  0.26023000  1.0 -0.5212221704
O  O95  1  0.66036000  0.62191000  0.25864000  1.0 -0.2442549026
O  O96  1  0.70401000  0.20860000  0.69098000  1.0 -0.9825652701
O  O97  1  0.69254000  0.10176000  0.74831000  1.0 -0.2900537214
O  O98  1  0.62764000  0.15502000  0.75515000  1.0 -0.5128969611
O  O99  1  0.60842000  0.31179000  0.73977000  1.0 -0.5212221704
O  O100  1  0.66036000  0.37809000  0.74136000  1.0 -0.2442549026
O  O101  1  0.30902000  0.29599000  0.20860000  1.0 -0.9825652701
O  O102  1  0.25169000  0.30746000  0.10176000  1.0 -0.2900537214
O  O103  1  0.24485000  0.37236000  0.15502000  1.0 -0.5128969611
O  O104  1  0.26023000  0.39158000  0.31179000  1.0 -0.5212221704
O  O105  1  0.25864000  0.33964000  0.37809000  1.0 -0.2442549026
O  O106  1  0.69098000  0.29599000  0.79140000  1.0 -0.9825652701
O  O107  1  0.74831000  0.30746000  0.89824000  1.0 -0.2900537214
O  O108  1  0.75515000  0.37236000  0.84498000  1.0 -0.5128969611
O  O109  1  0.73977000  0.39158000  0.68821000  1.0 -0.5212221704
O  O110  1  0.74136000  0.33964000  0.62191000  1.0 -0.2442549026
O  O111  1  0.30902000  0.70401000  0.79140000  1.0 -0.9825652701
O  O112  1  0.25169000  0.69254000  0.89824000  1.0 -0.2900537214
O  O113  1  0.24485000  0.62764000  0.84498000  1.0 -0.5128969611
O  O114  1  0.26023000  0.60842000  0.68821000  1.0 -0.5212221704
O  O115  1  0.25864000  0.66036000  0.62191000  1.0 -0.2442549026
O  O116  1  0.69098000  0.70401000  0.20860000  1.0 -0.9825652701
O  O117  1  0.74831000  0.69254000  0.10176000  1.0 -0.2900537214
O  O118  1  0.75515000  0.62764000  0.15502000  1.0 -0.5128969611
O  O119  1  0.73977000  0.60842000  0.31179000  1.0 -0.5212221704
O  O120  1  0.74136000  0.66036000  0.37809000  1.0 -0.2442549026
O  O121  1  0.19460000  0.19460000  0.19460000  1.0 -0.7502186956
O  O122  1  0.80540000  0.80540000  0.19460000  1.0 -0.7502186956
O  O123  1  0.80540000  0.19460000  0.80540000  1.0 -0.7502186956
O  O124  1  0.19460000  0.80540000  0.80540000  1.0 -0.7502186956
O  O125  1  0.30540000  0.30540000  0.30540000  1.0 -0.7502186956
O  O126  1  0.69460000  0.69460000  0.30540000  1.0 -0.7502186956
O  O127  1  0.69460000  0.30540000  0.69460000  1.0 -0.7502186956
O  O128  1  0.30540000  0.69460000  0.69460000  1.0 -0.7502186956
