# DDEC6 charges by PACMAN v1.1 (https://github.com/mtap-research/PACMAN-charge/)
data_ZADFAP_FSR_pacman
_symmetry_space_group_name_H-M   'P 1'
_cell_length_a   25.54600000
_cell_length_b   25.54600000
_cell_length_c   25.54600000
_cell_angle_alpha   90.00000000
_cell_angle_beta   90.00000000
_cell_angle_gamma   90.00000000
_symmetry_Int_Tables_number   1
_chemical_formula_structural   Zr3H13C30Se6S6Cl9O16
_chemical_formula_sum   'Zr24 H104 C240 Se48 S48 Cl72 O128'
_cell_volume   16671.27147134
_cell_formula_units_Z   8
loop_
 _symmetry_equiv_pos_site_id
 _symmetry_equiv_pos_as_xyz
  1  'x, y, z'
loop_
 _atom_site_type_symbol
 _atom_site_label
 _atom_site_symmetry_multiplicity
 _atom_site_fract_x
 _atom_site_fract_y
 _atom_site_fract_z
 _atom_site_occupancy
 _atom_site_charge
Zr  Zr1  1  0.25844000  0.23776000  0.15070000  1.0 1.7784048485
Zr  Zr2  1  0.74156000  0.76224000  0.15070000  1.0 1.7784048485
Zr  Zr3  1  0.74156000  0.23776000  0.84930000  1.0 1.7784048485
Zr  Zr4  1  0.25844000  0.76224000  0.84930000  1.0 1.7784048485
Zr  Zr5  1  0.15070000  0.25844000  0.23776000  1.0 1.7784048485
Zr  Zr6  1  0.15070000  0.74156000  0.76224000  1.0 1.7784048485
Zr  Zr7  1  0.84930000  0.74156000  0.23776000  1.0 1.7784048485
Zr  Zr8  1  0.84930000  0.25844000  0.76224000  1.0 1.7784048485
Zr  Zr9  1  0.23776000  0.15070000  0.25844000  1.0 1.7784048485
Zr  Zr10  1  0.76224000  0.15070000  0.74156000  1.0 1.7784048485
Zr  Zr11  1  0.23776000  0.84930000  0.74156000  1.0 1.7784048485
Zr  Zr12  1  0.76224000  0.84930000  0.25844000  1.0 1.7784048485
Zr  Zr13  1  0.24156000  0.26224000  0.34930000  1.0 1.7784048485
Zr  Zr14  1  0.75844000  0.73776000  0.34930000  1.0 1.7784048485
Zr  Zr15  1  0.75844000  0.26224000  0.65070000  1.0 1.7784048485
Zr  Zr16  1  0.24156000  0.73776000  0.65070000  1.0 1.7784048485
Zr  Zr17  1  0.34930000  0.24156000  0.26224000  1.0 1.7784048485
Zr  Zr18  1  0.34930000  0.75844000  0.73776000  1.0 1.7784048485
Zr  Zr19  1  0.65070000  0.75844000  0.26224000  1.0 1.7784048485
Zr  Zr20  1  0.65070000  0.24156000  0.73776000  1.0 1.7784048485
Zr  Zr21  1  0.26224000  0.34930000  0.24156000  1.0 1.7784048485
Zr  Zr22  1  0.73776000  0.34930000  0.75844000  1.0 1.7784048485
Zr  Zr23  1  0.26224000  0.65070000  0.75844000  1.0 1.7784048485
Zr  Zr24  1  0.73776000  0.65070000  0.24156000  1.0 1.7784048485
H  H1  1  0.07251000  0.24529000  0.94553000  1.0 0.0797341937
H  H2  1  0.15119000  0.23791000  0.00209000  1.0 0.1001727003
H  H3  1  0.55539000  0.21164000  0.07244000  1.0 0.0797341937
H  H4  1  0.50074000  0.21698000  0.15261000  1.0 0.1001727003
H  H5  1  0.92749000  0.75471000  0.94553000  1.0 0.0797341937
H  H6  1  0.84881000  0.76209000  0.00209000  1.0 0.1001727003
H  H7  1  0.44461000  0.78836000  0.07244000  1.0 0.0797341937
H  H8  1  0.49926000  0.78302000  0.15261000  1.0 0.1001727003
H  H9  1  0.92749000  0.24529000  0.05447000  1.0 0.0797341937
H  H10  1  0.84881000  0.23791000  0.99791000  1.0 0.1001727003
H  H11  1  0.44461000  0.21164000  0.92756000  1.0 0.0797341937
H  H12  1  0.49926000  0.21698000  0.84739000  1.0 0.1001727003
H  H13  1  0.07251000  0.75471000  0.05447000  1.0 0.0797341937
H  H14  1  0.15119000  0.76209000  0.99791000  1.0 0.1001727003
H  H15  1  0.55539000  0.78836000  0.92756000  1.0 0.0797341937
H  H16  1  0.50074000  0.78302000  0.84739000  1.0 0.1001727003
H  H17  1  0.94553000  0.07251000  0.24529000  1.0 0.0797341937
H  H18  1  0.00209000  0.15119000  0.23791000  1.0 0.1001727003
H  H19  1  0.07244000  0.55539000  0.21164000  1.0 0.0797341937
H  H20  1  0.15261000  0.50074000  0.21698000  1.0 0.1001727003
H  H21  1  0.94553000  0.92749000  0.75471000  1.0 0.0797341937
H  H22  1  0.00209000  0.84881000  0.76209000  1.0 0.1001727003
H  H23  1  0.07244000  0.44461000  0.78836000  1.0 0.0797341937
H  H24  1  0.15261000  0.49926000  0.78302000  1.0 0.1001727003
H  H25  1  0.05447000  0.92749000  0.24529000  1.0 0.0797341937
H  H26  1  0.99791000  0.84881000  0.23791000  1.0 0.1001727003
H  H27  1  0.92756000  0.44461000  0.21164000  1.0 0.0797341937
H  H28  1  0.84739000  0.49926000  0.21698000  1.0 0.1001727003
H  H29  1  0.05447000  0.07251000  0.75471000  1.0 0.0797341937
H  H30  1  0.99791000  0.15119000  0.76209000  1.0 0.1001727003
H  H31  1  0.92756000  0.55539000  0.78836000  1.0 0.0797341937
H  H32  1  0.84739000  0.50074000  0.78302000  1.0 0.1001727003
H  H33  1  0.24529000  0.94553000  0.07251000  1.0 0.0797341937
H  H34  1  0.23791000  0.00209000  0.15119000  1.0 0.1001727003
H  H35  1  0.21164000  0.07244000  0.55539000  1.0 0.0797341937
H  H36  1  0.21698000  0.15261000  0.50074000  1.0 0.1001727003
H  H37  1  0.75471000  0.94553000  0.92749000  1.0 0.0797341937
H  H38  1  0.76209000  0.00209000  0.84881000  1.0 0.1001727003
H  H39  1  0.78836000  0.07244000  0.44461000  1.0 0.0797341937
H  H40  1  0.78302000  0.15261000  0.49926000  1.0 0.1001727003
H  H41  1  0.24529000  0.05447000  0.92749000  1.0 0.0797341937
H  H42  1  0.23791000  0.99791000  0.84881000  1.0 0.1001727003
H  H43  1  0.21164000  0.92756000  0.44461000  1.0 0.0797341937
H  H44  1  0.21698000  0.84739000  0.49926000  1.0 0.1001727003
H  H45  1  0.75471000  0.05447000  0.07251000  1.0 0.0797341937
H  H46  1  0.76209000  0.99791000  0.15119000  1.0 0.1001727003
H  H47  1  0.78836000  0.92756000  0.55539000  1.0 0.0797341937
H  H48  1  0.78302000  0.84739000  0.50074000  1.0 0.1001727003
H  H49  1  0.42749000  0.25471000  0.55447000  1.0 0.0797341937
H  H50  1  0.34881000  0.26209000  0.49791000  1.0 0.1001727003
H  H51  1  0.94461000  0.28836000  0.42756000  1.0 0.0797341937
H  H52  1  0.99926000  0.28302000  0.34739000  1.0 0.1001727003
H  H53  1  0.57251000  0.74529000  0.55447000  1.0 0.0797341937
H  H54  1  0.65119000  0.73791000  0.49791000  1.0 0.1001727003
H  H55  1  0.05539000  0.71164000  0.42756000  1.0 0.0797341937
H  H56  1  0.00074000  0.71698000  0.34739000  1.0 0.1001727003
H  H57  1  0.57251000  0.25471000  0.44553000  1.0 0.0797341937
H  H58  1  0.65119000  0.26209000  0.50209000  1.0 0.1001727003
H  H59  1  0.05539000  0.28836000  0.57244000  1.0 0.0797341937
H  H60  1  0.00074000  0.28302000  0.65261000  1.0 0.1001727003
H  H61  1  0.42749000  0.74529000  0.44553000  1.0 0.0797341937
H  H62  1  0.34881000  0.73791000  0.50209000  1.0 0.1001727003
H  H63  1  0.94461000  0.71164000  0.57244000  1.0 0.0797341937
H  H64  1  0.99926000  0.71698000  0.65261000  1.0 0.1001727003
H  H65  1  0.55447000  0.42749000  0.25471000  1.0 0.0797341937
H  H66  1  0.49791000  0.34881000  0.26209000  1.0 0.1001727003
H  H67  1  0.42756000  0.94461000  0.28836000  1.0 0.0797341937
H  H68  1  0.34739000  0.99926000  0.28302000  1.0 0.1001727003
H  H69  1  0.55447000  0.57251000  0.74529000  1.0 0.0797341937
H  H70  1  0.49791000  0.65119000  0.73791000  1.0 0.1001727003
H  H71  1  0.42756000  0.05539000  0.71164000  1.0 0.0797341937
H  H72  1  0.34739000  0.00074000  0.71698000  1.0 0.1001727003
H  H73  1  0.44553000  0.57251000  0.25471000  1.0 0.0797341937
H  H74  1  0.50209000  0.65119000  0.26209000  1.0 0.1001727003
H  H75  1  0.57244000  0.05539000  0.28836000  1.0 0.0797341937
H  H76  1  0.65261000  0.00074000  0.28302000  1.0 0.1001727003
H  H77  1  0.44553000  0.42749000  0.74529000  1.0 0.0797341937
H  H78  1  0.50209000  0.34881000  0.73791000  1.0 0.1001727003
H  H79  1  0.57244000  0.94461000  0.71164000  1.0 0.0797341937
H  H80  1  0.65261000  0.99926000  0.71698000  1.0 0.1001727003
H  H81  1  0.25471000  0.55447000  0.42749000  1.0 0.0797341937
H  H82  1  0.26209000  0.49791000  0.34881000  1.0 0.1001727003
H  H83  1  0.28836000  0.42756000  0.94461000  1.0 0.0797341937
H  H84  1  0.28302000  0.34739000  0.99926000  1.0 0.1001727003
H  H85  1  0.74529000  0.55447000  0.57251000  1.0 0.0797341937
H  H86  1  0.73791000  0.49791000  0.65119000  1.0 0.1001727003
H  H87  1  0.71164000  0.42756000  0.05539000  1.0 0.0797341937
H  H88  1  0.71698000  0.34739000  0.00074000  1.0 0.1001727003
H  H89  1  0.25471000  0.44553000  0.57251000  1.0 0.0797341937
H  H90  1  0.26209000  0.50209000  0.65119000  1.0 0.1001727003
H  H91  1  0.28836000  0.57244000  0.05539000  1.0 0.0797341937
H  H92  1  0.28302000  0.65261000  0.00074000  1.0 0.1001727003
H  H93  1  0.74529000  0.44553000  0.42749000  1.0 0.0797341937
H  H94  1  0.73791000  0.50209000  0.34881000  1.0 0.1001727003
H  H95  1  0.71164000  0.57244000  0.94461000  1.0 0.0797341937
H  H96  1  0.71698000  0.65261000  0.99926000  1.0 0.1001727003
H  H97  1  0.17170000  0.17170000  0.17170000  1.0 0.3565853405
H  H98  1  0.82830000  0.82830000  0.17170000  1.0 0.3565853405
H  H99  1  0.82830000  0.17170000  0.82830000  1.0 0.3565853405
H  H100  1  0.17170000  0.82830000  0.82830000  1.0 0.3565853405
H  H101  1  0.32830000  0.32830000  0.32830000  1.0 0.3565853405
H  H102  1  0.67170000  0.67170000  0.32830000  1.0 0.3565853405
H  H103  1  0.67170000  0.32830000  0.67170000  1.0 0.3565853405
H  H104  1  0.32830000  0.67170000  0.67170000  1.0 0.3565853405
C  C1  1  0.02565000  0.25618000  0.01060000  1.0 -0.082453345
C  C2  1  0.07139000  0.24789000  0.98262000  1.0 -0.1705000231
C  C3  1  0.11692000  0.24362000  0.01534000  1.0 -0.137144878
C  C4  1  0.10579000  0.24866000  0.06820000  1.0 -0.1020235074
C  C5  1  0.14171000  0.24645000  0.11159000  1.0 0.3565853405
C  C6  1  0.48996000  0.22229000  0.02603000  1.0 -0.1020235074
C  C7  1  0.51858000  0.21687000  0.07181000  1.0 -0.1912100508
C  C8  1  0.48695000  0.21996000  0.11820000  1.0 -0.1280169075
C  C9  1  0.43429000  0.22773000  0.10769000  1.0 -0.1705000231
C  C10  1  0.39191000  0.23262000  0.14453000  1.0 0.2103822727
C  C11  1  0.97435000  0.74382000  0.01060000  1.0 -0.082453345
C  C12  1  0.92861000  0.75211000  0.98262000  1.0 -0.1705000231
C  C13  1  0.88308000  0.75638000  0.01534000  1.0 -0.137144878
C  C14  1  0.89421000  0.75134000  0.06820000  1.0 -0.1020235074
C  C15  1  0.85829000  0.75355000  0.11159000  1.0 0.3565853405
C  C16  1  0.51004000  0.77771000  0.02603000  1.0 -0.1020235074
C  C17  1  0.48142000  0.78313000  0.07181000  1.0 -0.1912100508
C  C18  1  0.51305000  0.78004000  0.11820000  1.0 -0.1280169075
C  C19  1  0.56571000  0.77227000  0.10769000  1.0 -0.1705000231
C  C20  1  0.60809000  0.76738000  0.14453000  1.0 0.2103822727
C  C21  1  0.97435000  0.25618000  0.98940000  1.0 -0.082453345
C  C22  1  0.92861000  0.24789000  0.01738000  1.0 -0.1705000231
C  C23  1  0.88308000  0.24362000  0.98466000  1.0 -0.137144878
C  C24  1  0.89421000  0.24866000  0.93180000  1.0 -0.1020235074
C  C25  1  0.85829000  0.24645000  0.88841000  1.0 0.3565853405
C  C26  1  0.51004000  0.22229000  0.97397000  1.0 -0.1020235074
C  C27  1  0.48142000  0.21687000  0.92819000  1.0 -0.1912100508
C  C28  1  0.51305000  0.21996000  0.88180000  1.0 -0.1280169075
C  C29  1  0.56571000  0.22773000  0.89231000  1.0 -0.1705000231
C  C30  1  0.60809000  0.23262000  0.85547000  1.0 0.2103822727
C  C31  1  0.02565000  0.74382000  0.98940000  1.0 -0.082453345
C  C32  1  0.07139000  0.75211000  0.01738000  1.0 -0.1705000231
C  C33  1  0.11692000  0.75638000  0.98466000  1.0 -0.137144878
C  C34  1  0.10579000  0.75134000  0.93180000  1.0 -0.1020235074
C  C35  1  0.14171000  0.75355000  0.88841000  1.0 0.3565853405
C  C36  1  0.48996000  0.77771000  0.97397000  1.0 -0.1020235074
C  C37  1  0.51858000  0.78313000  0.92819000  1.0 -0.1912100508
C  C38  1  0.48695000  0.78004000  0.88180000  1.0 -0.1280169075
C  C39  1  0.43429000  0.77227000  0.89231000  1.0 -0.1705000231
C  C40  1  0.39191000  0.76738000  0.85547000  1.0 0.2103822727
C  C41  1  0.01060000  0.02565000  0.25618000  1.0 -0.082453345
C  C42  1  0.98262000  0.07139000  0.24789000  1.0 -0.1705000231
C  C43  1  0.01534000  0.11692000  0.24362000  1.0 -0.137144878
C  C44  1  0.06820000  0.10579000  0.24866000  1.0 -0.1020235074
C  C45  1  0.11159000  0.14171000  0.24645000  1.0 0.3565853405
C  C46  1  0.02603000  0.48996000  0.22229000  1.0 -0.1020235074
C  C47  1  0.07181000  0.51858000  0.21687000  1.0 -0.1912100508
C  C48  1  0.11820000  0.48695000  0.21996000  1.0 -0.1280169075
C  C49  1  0.10769000  0.43429000  0.22773000  1.0 -0.1705000231
C  C50  1  0.14453000  0.39191000  0.23262000  1.0 0.2103822727
C  C51  1  0.01060000  0.97435000  0.74382000  1.0 -0.082453345
C  C52  1  0.98262000  0.92861000  0.75211000  1.0 -0.1705000231
C  C53  1  0.01534000  0.88308000  0.75638000  1.0 -0.137144878
C  C54  1  0.06820000  0.89421000  0.75134000  1.0 -0.1020235074
C  C55  1  0.11159000  0.85829000  0.75355000  1.0 0.3565853405
C  C56  1  0.02603000  0.51004000  0.77771000  1.0 -0.1020235074
C  C57  1  0.07181000  0.48142000  0.78313000  1.0 -0.1912100508
C  C58  1  0.11820000  0.51305000  0.78004000  1.0 -0.1280169075
C  C59  1  0.10769000  0.56571000  0.77227000  1.0 -0.1705000231
C  C60  1  0.14453000  0.60809000  0.76738000  1.0 0.2103822727
C  C61  1  0.98940000  0.97435000  0.25618000  1.0 -0.082453345
C  C62  1  0.01738000  0.92861000  0.24789000  1.0 -0.1705000231
C  C63  1  0.98466000  0.88308000  0.24362000  1.0 -0.137144878
C  C64  1  0.93180000  0.89421000  0.24866000  1.0 -0.1020235074
C  C65  1  0.88841000  0.85829000  0.24645000  1.0 0.3565853405
C  C66  1  0.97397000  0.51004000  0.22229000  1.0 -0.1020235074
C  C67  1  0.92819000  0.48142000  0.21687000  1.0 -0.1912100508
C  C68  1  0.88180000  0.51305000  0.21996000  1.0 -0.1280169075
C  C69  1  0.89231000  0.56571000  0.22773000  1.0 -0.1705000231
C  C70  1  0.85547000  0.60809000  0.23262000  1.0 0.2103822727
C  C71  1  0.98940000  0.02565000  0.74382000  1.0 -0.082453345
C  C72  1  0.01738000  0.07139000  0.75211000  1.0 -0.1705000231
C  C73  1  0.98466000  0.11692000  0.75638000  1.0 -0.137144878
C  C74  1  0.93180000  0.10579000  0.75134000  1.0 -0.1020235074
C  C75  1  0.88841000  0.14171000  0.75355000  1.0 0.3565853405
C  C76  1  0.97397000  0.48996000  0.77771000  1.0 -0.1020235074
C  C77  1  0.92819000  0.51858000  0.78313000  1.0 -0.1912100508
C  C78  1  0.88180000  0.48695000  0.78004000  1.0 -0.1280169075
C  C79  1  0.89231000  0.43429000  0.77227000  1.0 -0.1705000231
C  C80  1  0.85547000  0.39191000  0.76738000  1.0 0.2103822727
C  C81  1  0.25618000  0.01060000  0.02565000  1.0 -0.082453345
C  C82  1  0.24789000  0.98262000  0.07139000  1.0 -0.1705000231
C  C83  1  0.24362000  0.01534000  0.11692000  1.0 -0.137144878
C  C84  1  0.24866000  0.06820000  0.10579000  1.0 -0.1020235074
C  C85  1  0.24645000  0.11159000  0.14171000  1.0 0.3565853405
C  C86  1  0.22229000  0.02603000  0.48996000  1.0 -0.1020235074
C  C87  1  0.21687000  0.07181000  0.51858000  1.0 -0.1912100508
C  C88  1  0.21996000  0.11820000  0.48695000  1.0 -0.1280169075
C  C89  1  0.22773000  0.10769000  0.43429000  1.0 -0.1705000231
C  C90  1  0.23262000  0.14453000  0.39191000  1.0 0.2103822727
C  C91  1  0.74382000  0.01060000  0.97435000  1.0 -0.082453345
C  C92  1  0.75211000  0.98262000  0.92861000  1.0 -0.1705000231
C  C93  1  0.75638000  0.01534000  0.88308000  1.0 -0.137144878
C  C94  1  0.75134000  0.06820000  0.89421000  1.0 -0.1020235074
C  C95  1  0.75355000  0.11159000  0.85829000  1.0 0.3565853405
C  C96  1  0.77771000  0.02603000  0.51004000  1.0 -0.1020235074
C  C97  1  0.78313000  0.07181000  0.48142000  1.0 -0.1912100508
C  C98  1  0.78004000  0.11820000  0.51305000  1.0 -0.1280169075
C  C99  1  0.77227000  0.10769000  0.56571000  1.0 -0.1705000231
C  C100  1  0.76738000  0.14453000  0.60809000  1.0 0.2103822727
C  C101  1  0.25618000  0.98940000  0.97435000  1.0 -0.082453345
C  C102  1  0.24789000  0.01738000  0.92861000  1.0 -0.1705000231
C  C103  1  0.24362000  0.98466000  0.88308000  1.0 -0.137144878
C  C104  1  0.24866000  0.93180000  0.89421000  1.0 -0.1020235074
C  C105  1  0.24645000  0.88841000  0.85829000  1.0 0.3565853405
C  C106  1  0.22229000  0.97397000  0.51004000  1.0 -0.1020235074
C  C107  1  0.21687000  0.92819000  0.48142000  1.0 -0.1912100508
C  C108  1  0.21996000  0.88180000  0.51305000  1.0 -0.1280169075
C  C109  1  0.22773000  0.89231000  0.56571000  1.0 -0.1705000231
C  C110  1  0.23262000  0.85547000  0.60809000  1.0 0.2103822727
C  C111  1  0.74382000  0.98940000  0.02565000  1.0 -0.082453345
C  C112  1  0.75211000  0.01738000  0.07139000  1.0 -0.1705000231
C  C113  1  0.75638000  0.98466000  0.11692000  1.0 -0.137144878
C  C114  1  0.75134000  0.93180000  0.10579000  1.0 -0.1020235074
C  C115  1  0.75355000  0.88841000  0.14171000  1.0 0.3565853405
C  C116  1  0.77771000  0.97397000  0.48996000  1.0 -0.1020235074
C  C117  1  0.78313000  0.92819000  0.51858000  1.0 -0.1912100508
C  C118  1  0.78004000  0.88180000  0.48695000  1.0 -0.1280169075
C  C119  1  0.77227000  0.89231000  0.43429000  1.0 -0.1705000231
C  C120  1  0.76738000  0.85547000  0.39191000  1.0 0.2103822727
C  C121  1  0.47435000  0.24382000  0.48940000  1.0 -0.082453345
C  C122  1  0.42861000  0.25211000  0.51738000  1.0 -0.1705000231
C  C123  1  0.38308000  0.25638000  0.48466000  1.0 -0.137144878
C  C124  1  0.39421000  0.25134000  0.43180000  1.0 -0.1020235074
C  C125  1  0.35829000  0.25355000  0.38841000  1.0 0.3565853405
C  C126  1  0.01004000  0.27771000  0.47397000  1.0 -0.1020235074
C  C127  1  0.98142000  0.28313000  0.42819000  1.0 -0.1912100508
C  C128  1  0.01305000  0.28004000  0.38180000  1.0 -0.1280169075
C  C129  1  0.06571000  0.27227000  0.39231000  1.0 -0.1705000231
C  C130  1  0.10809000  0.26738000  0.35547000  1.0 0.2103822727
C  C131  1  0.52565000  0.75618000  0.48940000  1.0 -0.082453345
C  C132  1  0.57139000  0.74789000  0.51738000  1.0 -0.1705000231
C  C133  1  0.61692000  0.74362000  0.48466000  1.0 -0.137144878
C  C134  1  0.60579000  0.74866000  0.43180000  1.0 -0.1020235074
C  C135  1  0.64171000  0.74645000  0.38841000  1.0 0.3565853405
C  C136  1  0.98996000  0.72229000  0.47397000  1.0 -0.1020235074
C  C137  1  0.01858000  0.71687000  0.42819000  1.0 -0.1912100508
C  C138  1  0.98695000  0.71996000  0.38180000  1.0 -0.1280169075
C  C139  1  0.93429000  0.72773000  0.39231000  1.0 -0.1705000231
C  C140  1  0.89191000  0.73262000  0.35547000  1.0 0.2103822727
C  C141  1  0.52565000  0.24382000  0.51060000  1.0 -0.082453345
C  C142  1  0.57139000  0.25211000  0.48262000  1.0 -0.1705000231
C  C143  1  0.61692000  0.25638000  0.51534000  1.0 -0.137144878
C  C144  1  0.60579000  0.25134000  0.56820000  1.0 -0.1020235074
C  C145  1  0.64171000  0.25355000  0.61159000  1.0 0.3565853405
C  C146  1  0.98996000  0.27771000  0.52603000  1.0 -0.1020235074
C  C147  1  0.01858000  0.28313000  0.57181000  1.0 -0.1912100508
C  C148  1  0.98695000  0.28004000  0.61820000  1.0 -0.1280169075
C  C149  1  0.93429000  0.27227000  0.60769000  1.0 -0.1705000231
C  C150  1  0.89191000  0.26738000  0.64453000  1.0 0.2103822727
C  C151  1  0.47435000  0.75618000  0.51060000  1.0 -0.082453345
C  C152  1  0.42861000  0.74789000  0.48262000  1.0 -0.1705000231
C  C153  1  0.38308000  0.74362000  0.51534000  1.0 -0.137144878
C  C154  1  0.39421000  0.74866000  0.56820000  1.0 -0.1020235074
C  C155  1  0.35829000  0.74645000  0.61159000  1.0 0.3565853405
C  C156  1  0.01004000  0.72229000  0.52603000  1.0 -0.1020235074
C  C157  1  0.98142000  0.71687000  0.57181000  1.0 -0.1912100508
C  C158  1  0.01305000  0.71996000  0.61820000  1.0 -0.1280169075
C  C159  1  0.06571000  0.72773000  0.60769000  1.0 -0.1705000231
C  C160  1  0.10809000  0.73262000  0.64453000  1.0 0.2103822727
C  C161  1  0.48940000  0.47435000  0.24382000  1.0 -0.082453345
C  C162  1  0.51738000  0.42861000  0.25211000  1.0 -0.1705000231
C  C163  1  0.48466000  0.38308000  0.25638000  1.0 -0.137144878
C  C164  1  0.43180000  0.39421000  0.25134000  1.0 -0.1020235074
C  C165  1  0.38841000  0.35829000  0.25355000  1.0 0.3565853405
C  C166  1  0.47397000  0.01004000  0.27771000  1.0 -0.1020235074
C  C167  1  0.42819000  0.98142000  0.28313000  1.0 -0.1912100508
C  C168  1  0.38180000  0.01305000  0.28004000  1.0 -0.1280169075
C  C169  1  0.39231000  0.06571000  0.27227000  1.0 -0.1705000231
C  C170  1  0.35547000  0.10809000  0.26738000  1.0 0.2103822727
C  C171  1  0.48940000  0.52565000  0.75618000  1.0 -0.082453345
C  C172  1  0.51738000  0.57139000  0.74789000  1.0 -0.1705000231
C  C173  1  0.48466000  0.61692000  0.74362000  1.0 -0.137144878
C  C174  1  0.43180000  0.60579000  0.74866000  1.0 -0.1020235074
C  C175  1  0.38841000  0.64171000  0.74645000  1.0 0.3565853405
C  C176  1  0.47397000  0.98996000  0.72229000  1.0 -0.1020235074
C  C177  1  0.42819000  0.01858000  0.71687000  1.0 -0.1912100508
C  C178  1  0.38180000  0.98695000  0.71996000  1.0 -0.1280169075
C  C179  1  0.39231000  0.93429000  0.72773000  1.0 -0.1705000231
C  C180  1  0.35547000  0.89191000  0.73262000  1.0 0.2103822727
C  C181  1  0.51060000  0.52565000  0.24382000  1.0 -0.082453345
C  C182  1  0.48262000  0.57139000  0.25211000  1.0 -0.1705000231
C  C183  1  0.51534000  0.61692000  0.25638000  1.0 -0.137144878
C  C184  1  0.56820000  0.60579000  0.25134000  1.0 -0.1020235074
C  C185  1  0.61159000  0.64171000  0.25355000  1.0 0.3565853405
C  C186  1  0.52603000  0.98996000  0.27771000  1.0 -0.1020235074
C  C187  1  0.57181000  0.01858000  0.28313000  1.0 -0.1912100508
C  C188  1  0.61820000  0.98695000  0.28004000  1.0 -0.1280169075
C  C189  1  0.60769000  0.93429000  0.27227000  1.0 -0.1705000231
C  C190  1  0.64453000  0.89191000  0.26738000  1.0 0.2103822727
C  C191  1  0.51060000  0.47435000  0.75618000  1.0 -0.082453345
C  C192  1  0.48262000  0.42861000  0.74789000  1.0 -0.1705000231
C  C193  1  0.51534000  0.38308000  0.74362000  1.0 -0.137144878
C  C194  1  0.56820000  0.39421000  0.74866000  1.0 -0.1020235074
C  C195  1  0.61159000  0.35829000  0.74645000  1.0 0.3565853405
C  C196  1  0.52603000  0.01004000  0.72229000  1.0 -0.1020235074
C  C197  1  0.57181000  0.98142000  0.71687000  1.0 -0.1912100508
C  C198  1  0.61820000  0.01305000  0.71996000  1.0 -0.1280169075
C  C199  1  0.60769000  0.06571000  0.72773000  1.0 -0.1705000231
C  C200  1  0.64453000  0.10809000  0.73262000  1.0 0.2103822727
C  C201  1  0.24382000  0.48940000  0.47435000  1.0 -0.082453345
C  C202  1  0.25211000  0.51738000  0.42861000  1.0 -0.1705000231
C  C203  1  0.25638000  0.48466000  0.38308000  1.0 -0.137144878
C  C204  1  0.25134000  0.43180000  0.39421000  1.0 -0.1020235074
C  C205  1  0.25355000  0.38841000  0.35829000  1.0 0.3565853405
C  C206  1  0.27771000  0.47397000  0.01004000  1.0 -0.1020235074
C  C207  1  0.28313000  0.42819000  0.98142000  1.0 -0.1912100508
C  C208  1  0.28004000  0.38180000  0.01305000  1.0 -0.1280169075
C  C209  1  0.27227000  0.39231000  0.06571000  1.0 -0.1705000231
C  C210  1  0.26738000  0.35547000  0.10809000  1.0 0.2103822727
C  C211  1  0.75618000  0.48940000  0.52565000  1.0 -0.082453345
C  C212  1  0.74789000  0.51738000  0.57139000  1.0 -0.1705000231
C  C213  1  0.74362000  0.48466000  0.61692000  1.0 -0.137144878
C  C214  1  0.74866000  0.43180000  0.60579000  1.0 -0.1020235074
C  C215  1  0.74645000  0.38841000  0.64171000  1.0 0.3565853405
C  C216  1  0.72229000  0.47397000  0.98996000  1.0 -0.1020235074
C  C217  1  0.71687000  0.42819000  0.01858000  1.0 -0.1912100508
C  C218  1  0.71996000  0.38180000  0.98695000  1.0 -0.1280169075
C  C219  1  0.72773000  0.39231000  0.93429000  1.0 -0.1705000231
C  C220  1  0.73262000  0.35547000  0.89191000  1.0 0.2103822727
C  C221  1  0.24382000  0.51060000  0.52565000  1.0 -0.082453345
C  C222  1  0.25211000  0.48262000  0.57139000  1.0 -0.1705000231
C  C223  1  0.25638000  0.51534000  0.61692000  1.0 -0.137144878
C  C224  1  0.25134000  0.56820000  0.60579000  1.0 -0.1020235074
C  C225  1  0.25355000  0.61159000  0.64171000  1.0 0.3565853405
C  C226  1  0.27771000  0.52603000  0.98996000  1.0 -0.1020235074
C  C227  1  0.28313000  0.57181000  0.01858000  1.0 -0.1912100508
C  C228  1  0.28004000  0.61820000  0.98695000  1.0 -0.1280169075
C  C229  1  0.27227000  0.60769000  0.93429000  1.0 -0.1705000231
C  C230  1  0.26738000  0.64453000  0.89191000  1.0 0.2103822727
C  C231  1  0.75618000  0.51060000  0.47435000  1.0 -0.082453345
C  C232  1  0.74789000  0.48262000  0.42861000  1.0 -0.1705000231
C  C233  1  0.74362000  0.51534000  0.38308000  1.0 -0.137144878
C  C234  1  0.74866000  0.56820000  0.39421000  1.0 -0.1020235074
C  C235  1  0.74645000  0.61159000  0.35829000  1.0 0.3565853405
C  C236  1  0.72229000  0.52603000  0.01004000  1.0 -0.1020235074
C  C237  1  0.71687000  0.57181000  0.98142000  1.0 -0.1912100508
C  C238  1  0.71996000  0.61820000  0.01305000  1.0 -0.1280169075
C  C239  1  0.72773000  0.60769000  0.06571000  1.0 -0.1705000231
C  C240  1  0.73262000  0.64453000  0.10809000  1.0 0.2103822727
Se  Se1  1  0.03589000  0.25942000  0.08182000  1.0 0.0739611092
Se  Se2  1  0.41948000  0.23193000  0.03733000  1.0 0.2222742144
Se  Se3  1  0.96411000  0.74058000  0.08182000  1.0 0.0739611092
Se  Se4  1  0.58052000  0.76807000  0.03733000  1.0 0.2222742144
Se  Se5  1  0.96411000  0.25942000  0.91818000  1.0 0.0739611092
Se  Se6  1  0.58052000  0.23193000  0.96267000  1.0 0.2250536549
Se  Se7  1  0.03589000  0.74058000  0.91818000  1.0 0.0739611092
Se  Se8  1  0.41948000  0.76807000  0.96267000  1.0 0.2222742144
Se  Se9  1  0.08182000  0.03589000  0.25942000  1.0 0.0739611092
Se  Se10  1  0.03733000  0.41948000  0.23193000  1.0 0.2222742144
Se  Se11  1  0.08182000  0.96411000  0.74058000  1.0 0.0739611092
Se  Se12  1  0.03733000  0.58052000  0.76807000  1.0 0.2222742144
Se  Se13  1  0.91818000  0.96411000  0.25942000  1.0 0.0739611092
Se  Se14  1  0.96267000  0.58052000  0.23193000  1.0 0.2222742144
Se  Se15  1  0.91818000  0.03589000  0.74058000  1.0 0.0739611092
Se  Se16  1  0.96267000  0.41948000  0.76807000  1.0 0.2222742144
Se  Se17  1  0.25942000  0.08182000  0.03589000  1.0 0.0739611092
Se  Se18  1  0.23193000  0.03733000  0.41948000  1.0 0.2222742144
Se  Se19  1  0.74058000  0.08182000  0.96411000  1.0 0.0739611092
Se  Se20  1  0.76807000  0.03733000  0.58052000  1.0 0.2222742144
Se  Se21  1  0.25942000  0.91818000  0.96411000  1.0 0.0739611092
Se  Se22  1  0.23193000  0.96267000  0.58052000  1.0 0.2222742144
Se  Se23  1  0.74058000  0.91818000  0.03589000  1.0 0.0739611092
Se  Se24  1  0.76807000  0.96267000  0.41948000  1.0 0.2222742144
Se  Se25  1  0.46411000  0.24058000  0.41818000  1.0 0.0739611092
Se  Se26  1  0.08052000  0.26807000  0.46267000  1.0 0.2222742144
Se  Se27  1  0.53589000  0.75942000  0.41818000  1.0 0.0739611092
Se  Se28  1  0.91948000  0.73193000  0.46267000  1.0 0.2222742144
Se  Se29  1  0.53589000  0.24058000  0.58182000  1.0 0.0739611092
Se  Se30  1  0.91948000  0.26807000  0.53733000  1.0 0.2222742144
Se  Se31  1  0.46411000  0.75942000  0.58182000  1.0 0.0739611092
Se  Se32  1  0.08052000  0.73193000  0.53733000  1.0 0.2222742144
Se  Se33  1  0.41818000  0.46411000  0.24058000  1.0 0.0739611092
Se  Se34  1  0.46267000  0.08052000  0.26807000  1.0 0.2222742144
Se  Se35  1  0.41818000  0.53589000  0.75942000  1.0 0.0739611092
Se  Se36  1  0.46267000  0.91948000  0.73193000  1.0 0.2222742144
Se  Se37  1  0.58182000  0.53589000  0.24058000  1.0 0.0739611092
Se  Se38  1  0.53733000  0.91948000  0.26807000  1.0 0.2222742144
Se  Se39  1  0.58182000  0.46411000  0.75942000  1.0 0.0739611092
Se  Se40  1  0.53733000  0.08052000  0.73193000  1.0 0.2222742144
Se  Se41  1  0.24058000  0.41818000  0.46411000  1.0 0.0739611092
Se  Se42  1  0.26807000  0.46267000  0.08052000  1.0 0.2222742144
Se  Se43  1  0.75942000  0.41818000  0.53589000  1.0 0.0739611092
Se  Se44  1  0.73193000  0.46267000  0.91948000  1.0 0.2250536549
Se  Se45  1  0.24058000  0.58182000  0.53589000  1.0 0.0739611092
Se  Se46  1  0.26807000  0.53733000  0.91948000  1.0 0.2222742144
Se  Se47  1  0.75942000  0.58182000  0.46411000  1.0 0.0739611092
Se  Se48  1  0.73193000  0.53733000  0.08052000  1.0 0.2222742144
S  S1  1  0.03965000  0.25854000  0.07650000  1.0 0.1184783006
S  S2  1  0.42483000  0.23106000  0.04105000  1.0 0.1416295306
S  S3  1  0.96035000  0.74146000  0.07650000  1.0 0.1184783006
S  S4  1  0.57517000  0.76894000  0.04105000  1.0 0.1416295306
S  S5  1  0.96035000  0.25854000  0.92350000  1.0 0.1184783006
S  S6  1  0.57517000  0.23106000  0.95895000  1.0 0.1416295306
S  S7  1  0.03965000  0.74146000  0.92350000  1.0 0.1184783006
S  S8  1  0.42483000  0.76894000  0.95895000  1.0 0.1416295306
S  S9  1  0.07650000  0.03965000  0.25854000  1.0 0.1184783006
S  S10  1  0.04105000  0.42483000  0.23106000  1.0 0.1416295306
S  S11  1  0.07650000  0.96035000  0.74146000  1.0 0.1184783006
S  S12  1  0.04105000  0.57517000  0.76894000  1.0 0.1416295306
S  S13  1  0.92350000  0.96035000  0.25854000  1.0 0.1184783006
S  S14  1  0.95895000  0.57517000  0.23106000  1.0 0.1416295306
S  S15  1  0.92350000  0.03965000  0.74146000  1.0 0.1184783006
S  S16  1  0.95895000  0.42483000  0.76894000  1.0 0.1416295306
S  S17  1  0.25854000  0.07650000  0.03965000  1.0 0.1184783006
S  S18  1  0.23106000  0.04105000  0.42483000  1.0 0.1416295306
S  S19  1  0.74146000  0.07650000  0.96035000  1.0 0.1184783006
S  S20  1  0.76894000  0.04105000  0.57517000  1.0 0.1416295306
S  S21  1  0.25854000  0.92350000  0.96035000  1.0 0.1184783006
S  S22  1  0.23106000  0.95895000  0.57517000  1.0 0.1416295306
S  S23  1  0.74146000  0.92350000  0.03965000  1.0 0.1184783006
S  S24  1  0.76894000  0.95895000  0.42483000  1.0 0.1416295306
S  S25  1  0.46035000  0.24146000  0.42350000  1.0 0.1184783006
S  S26  1  0.07517000  0.26894000  0.45895000  1.0 0.1416295306
S  S27  1  0.53965000  0.75854000  0.42350000  1.0 0.1184783006
S  S28  1  0.92483000  0.73106000  0.45895000  1.0 0.1416295306
S  S29  1  0.53965000  0.24146000  0.57650000  1.0 0.1184783006
S  S30  1  0.92483000  0.26894000  0.54105000  1.0 0.1416295306
S  S31  1  0.46035000  0.75854000  0.57650000  1.0 0.1184783006
S  S32  1  0.07517000  0.73106000  0.54105000  1.0 0.1416295306
S  S33  1  0.42350000  0.46035000  0.24146000  1.0 0.1184783006
S  S34  1  0.45895000  0.07517000  0.26894000  1.0 0.1416295306
S  S35  1  0.42350000  0.53965000  0.75854000  1.0 0.1184783006
S  S36  1  0.45895000  0.92483000  0.73106000  1.0 0.1416295306
S  S37  1  0.57650000  0.53965000  0.24146000  1.0 0.1184783006
S  S38  1  0.54105000  0.92483000  0.26894000  1.0 0.1416295306
S  S39  1  0.57650000  0.46035000  0.75854000  1.0 0.1184783006
S  S40  1  0.54105000  0.07517000  0.73106000  1.0 0.1416295306
S  S41  1  0.24146000  0.42350000  0.46035000  1.0 0.1184783006
S  S42  1  0.26894000  0.45895000  0.07517000  1.0 0.1416295306
S  S43  1  0.75854000  0.42350000  0.53965000  1.0 0.1184783006
S  S44  1  0.73106000  0.45895000  0.92483000  1.0 0.1416295306
S  S45  1  0.24146000  0.57650000  0.53965000  1.0 0.1184783006
S  S46  1  0.26894000  0.54105000  0.92483000  1.0 0.1416295306
S  S47  1  0.75854000  0.57650000  0.46035000  1.0 0.1184783006
S  S48  1  0.73106000  0.54105000  0.07517000  1.0 0.1416295306
Cl  Cl1  1  0.34070000  0.21220000  0.10620000  1.0 0.0335842985
Cl  Cl2  1  0.17728000  0.24119000  0.09272000  1.0 0.0797341937
Cl  Cl3  1  0.41960000  0.20870000  0.20170000  1.0 0.0888114272
Cl  Cl4  1  0.65930000  0.78780000  0.10620000  1.0 0.0335842985
Cl  Cl5  1  0.82272000  0.75881000  0.09272000  1.0 0.0797341937
Cl  Cl6  1  0.58040000  0.79130000  0.20170000  1.0 0.0888114272
Cl  Cl7  1  0.65930000  0.21220000  0.89380000  1.0 0.0335842985
Cl  Cl8  1  0.82272000  0.24119000  0.90728000  1.0 0.0797341937
Cl  Cl9  1  0.58040000  0.20870000  0.79830000  1.0 0.0888114272
Cl  Cl10  1  0.34070000  0.78780000  0.89380000  1.0 0.0335842985
Cl  Cl11  1  0.17728000  0.75881000  0.90728000  1.0 0.0797341937
Cl  Cl12  1  0.41960000  0.79130000  0.79830000  1.0 0.0888114272
Cl  Cl13  1  0.10620000  0.34070000  0.21220000  1.0 0.0335842985
Cl  Cl14  1  0.09272000  0.17728000  0.24119000  1.0 0.0797341937
Cl  Cl15  1  0.20170000  0.41960000  0.20870000  1.0 0.0888114272
Cl  Cl16  1  0.10620000  0.65930000  0.78780000  1.0 0.0335842985
Cl  Cl17  1  0.09272000  0.82272000  0.75881000  1.0 0.0797341937
Cl  Cl18  1  0.20170000  0.58040000  0.79130000  1.0 0.0888114272
Cl  Cl19  1  0.89380000  0.65930000  0.21220000  1.0 0.0335842985
Cl  Cl20  1  0.90728000  0.82272000  0.24119000  1.0 0.0797341937
Cl  Cl21  1  0.79830000  0.58040000  0.20870000  1.0 0.0888114272
Cl  Cl22  1  0.89380000  0.34070000  0.78780000  1.0 0.0335842985
Cl  Cl23  1  0.90728000  0.17728000  0.75881000  1.0 0.0797341937
Cl  Cl24  1  0.79830000  0.41960000  0.79130000  1.0 0.0888114272
Cl  Cl25  1  0.21220000  0.10620000  0.34070000  1.0 0.0335842985
Cl  Cl26  1  0.24119000  0.09272000  0.17728000  1.0 0.0797341937
Cl  Cl27  1  0.20870000  0.20170000  0.41960000  1.0 0.0888114272
Cl  Cl28  1  0.78780000  0.10620000  0.65930000  1.0 0.0335842985
Cl  Cl29  1  0.75881000  0.09272000  0.82272000  1.0 0.0797341937
Cl  Cl30  1  0.79130000  0.20170000  0.58040000  1.0 0.0888114272
Cl  Cl31  1  0.21220000  0.89380000  0.65930000  1.0 0.0335842985
Cl  Cl32  1  0.24119000  0.90728000  0.82272000  1.0 0.0797341937
Cl  Cl33  1  0.20870000  0.79830000  0.58040000  1.0 0.0888114272
Cl  Cl34  1  0.78780000  0.89380000  0.34070000  1.0 0.0335842985
Cl  Cl35  1  0.75881000  0.90728000  0.17728000  1.0 0.0797341937
Cl  Cl36  1  0.79130000  0.79830000  0.41960000  1.0 0.0888114272
Cl  Cl37  1  0.15930000  0.28780000  0.39380000  1.0 0.0335842985
Cl  Cl38  1  0.32272000  0.25881000  0.40728000  1.0 0.0797341937
Cl  Cl39  1  0.08040000  0.29130000  0.29830000  1.0 0.0888114272
Cl  Cl40  1  0.84070000  0.71220000  0.39380000  1.0 0.0335842985
Cl  Cl41  1  0.67728000  0.74119000  0.40728000  1.0 0.0797341937
Cl  Cl42  1  0.91960000  0.70870000  0.29830000  1.0 0.0888114272
Cl  Cl43  1  0.84070000  0.28780000  0.60620000  1.0 0.0335842985
Cl  Cl44  1  0.67728000  0.25881000  0.59272000  1.0 0.0797341937
Cl  Cl45  1  0.91960000  0.29130000  0.70170000  1.0 0.0888114272
Cl  Cl46  1  0.15930000  0.71220000  0.60620000  1.0 0.0335842985
Cl  Cl47  1  0.32272000  0.74119000  0.59272000  1.0 0.0797341937
Cl  Cl48  1  0.08040000  0.70870000  0.70170000  1.0 0.0888114272
Cl  Cl49  1  0.39380000  0.15930000  0.28780000  1.0 0.0335842985
Cl  Cl50  1  0.40728000  0.32272000  0.25881000  1.0 0.0797341937
Cl  Cl51  1  0.29830000  0.08040000  0.29130000  1.0 0.0888114272
Cl  Cl52  1  0.39380000  0.84070000  0.71220000  1.0 0.0335842985
Cl  Cl53  1  0.40728000  0.67728000  0.74119000  1.0 0.0797341937
Cl  Cl54  1  0.29830000  0.91960000  0.70870000  1.0 0.0888114272
Cl  Cl55  1  0.60620000  0.84070000  0.28780000  1.0 0.0335842985
Cl  Cl56  1  0.59272000  0.67728000  0.25881000  1.0 0.0797341937
Cl  Cl57  1  0.70170000  0.91960000  0.29130000  1.0 0.0888114272
Cl  Cl58  1  0.60620000  0.15930000  0.71220000  1.0 0.0335842985
Cl  Cl59  1  0.59272000  0.32272000  0.74119000  1.0 0.0797341937
Cl  Cl60  1  0.70170000  0.08040000  0.70870000  1.0 0.0888114272
Cl  Cl61  1  0.28780000  0.39380000  0.15930000  1.0 0.0335842985
Cl  Cl62  1  0.25881000  0.40728000  0.32272000  1.0 0.0797341937
Cl  Cl63  1  0.29130000  0.29830000  0.08040000  1.0 0.0888114272
Cl  Cl64  1  0.71220000  0.39380000  0.84070000  1.0 0.0335842985
Cl  Cl65  1  0.74119000  0.40728000  0.67728000  1.0 0.0797341937
Cl  Cl66  1  0.70870000  0.29830000  0.91960000  1.0 0.0888114272
Cl  Cl67  1  0.28780000  0.60620000  0.84070000  1.0 0.0335842985
Cl  Cl68  1  0.25881000  0.59272000  0.67728000  1.0 0.0797341937
Cl  Cl69  1  0.29130000  0.70170000  0.91960000  1.0 0.0888114272
Cl  Cl70  1  0.71220000  0.60620000  0.15930000  1.0 0.0335842985
Cl  Cl71  1  0.74119000  0.59272000  0.32272000  1.0 0.0797341937
Cl  Cl72  1  0.70870000  0.70170000  0.08040000  1.0 0.0888114272
O  O1  1  0.29820000  0.17950000  0.20840000  1.0 -0.9105103147
O  O2  1  0.18942000  0.23919000  0.10351000  1.0 -0.3290936209
O  O3  1  0.12518000  0.25179000  0.15733000  1.0 -0.4983419411
O  O4  1  0.40081000  0.22993000  0.19257000  1.0 -0.2407636724
O  O5  1  0.34621000  0.23957000  0.12847000  1.0 -0.2346973482
O  O6  1  0.70180000  0.82050000  0.20840000  1.0 -0.9105103147
O  O7  1  0.81058000  0.76081000  0.10351000  1.0 -0.3290936209
O  O8  1  0.87482000  0.74821000  0.15733000  1.0 -0.4983419411
O  O9  1  0.59919000  0.77007000  0.19257000  1.0 -0.2407636724
O  O10  1  0.65379000  0.76043000  0.12847000  1.0 -0.2346973482
O  O11  1  0.70180000  0.17950000  0.79160000  1.0 -0.9105103147
O  O12  1  0.81058000  0.23919000  0.89649000  1.0 -0.3290936209
O  O13  1  0.87482000  0.25179000  0.84267000  1.0 -0.4983419411
O  O14  1  0.59919000  0.22993000  0.80743000  1.0 -0.2407636724
O  O15  1  0.65379000  0.23957000  0.87153000  1.0 -0.2346973482
O  O16  1  0.29820000  0.82050000  0.79160000  1.0 -0.9105103147
O  O17  1  0.18942000  0.76081000  0.89649000  1.0 -0.3290936209
O  O18  1  0.12518000  0.74821000  0.84267000  1.0 -0.4983419411
O  O19  1  0.40081000  0.77007000  0.80743000  1.0 -0.2407636724
O  O20  1  0.34621000  0.76043000  0.87153000  1.0 -0.2346973482
O  O21  1  0.20840000  0.29820000  0.17950000  1.0 -0.9105103147
O  O22  1  0.10351000  0.18942000  0.23919000  1.0 -0.3290936209
O  O23  1  0.15733000  0.12518000  0.25179000  1.0 -0.4983419411
O  O24  1  0.19257000  0.40081000  0.22993000  1.0 -0.2407636724
O  O25  1  0.12847000  0.34621000  0.23957000  1.0 -0.2346973482
O  O26  1  0.20840000  0.70180000  0.82050000  1.0 -0.9105103147
O  O27  1  0.10351000  0.81058000  0.76081000  1.0 -0.3290936209
O  O28  1  0.15733000  0.87482000  0.74821000  1.0 -0.4983419411
O  O29  1  0.19257000  0.59919000  0.77007000  1.0 -0.2407636724
O  O30  1  0.12847000  0.65379000  0.76043000  1.0 -0.2346973482
O  O31  1  0.79160000  0.70180000  0.17950000  1.0 -0.9105103147
O  O32  1  0.89649000  0.81058000  0.23919000  1.0 -0.3290936209
O  O33  1  0.84267000  0.87482000  0.25179000  1.0 -0.4983419411
O  O34  1  0.80743000  0.59919000  0.22993000  1.0 -0.2407636724
O  O35  1  0.87153000  0.65379000  0.23957000  1.0 -0.2346973482
O  O36  1  0.79160000  0.29820000  0.82050000  1.0 -0.9105103147
O  O37  1  0.89649000  0.18942000  0.76081000  1.0 -0.3290936209
O  O38  1  0.84267000  0.12518000  0.74821000  1.0 -0.4983419411
O  O39  1  0.80743000  0.40081000  0.77007000  1.0 -0.2407636724
O  O40  1  0.87153000  0.34621000  0.76043000  1.0 -0.2346973482
O  O41  1  0.17950000  0.20840000  0.29820000  1.0 -0.9105103147
O  O42  1  0.23919000  0.10351000  0.18942000  1.0 -0.3290936209
O  O43  1  0.25179000  0.15733000  0.12518000  1.0 -0.4983419411
O  O44  1  0.22993000  0.19257000  0.40081000  1.0 -0.2407636724
O  O45  1  0.23957000  0.12847000  0.34621000  1.0 -0.2346973482
O  O46  1  0.82050000  0.20840000  0.70180000  1.0 -0.9105103147
O  O47  1  0.76081000  0.10351000  0.81058000  1.0 -0.3290936209
O  O48  1  0.74821000  0.15733000  0.87482000  1.0 -0.4983419411
O  O49  1  0.77007000  0.19257000  0.59919000  1.0 -0.2407636724
O  O50  1  0.76043000  0.12847000  0.65379000  1.0 -0.2346973482
O  O51  1  0.17950000  0.79160000  0.70180000  1.0 -0.9105103147
O  O52  1  0.23919000  0.89649000  0.81058000  1.0 -0.3290936209
O  O53  1  0.25179000  0.84267000  0.87482000  1.0 -0.4983419411
O  O54  1  0.22993000  0.80743000  0.59919000  1.0 -0.2407636724
O  O55  1  0.23957000  0.87153000  0.65379000  1.0 -0.2346973482
O  O56  1  0.82050000  0.79160000  0.29820000  1.0 -0.9105103147
O  O57  1  0.76081000  0.89649000  0.18942000  1.0 -0.3290936209
O  O58  1  0.74821000  0.84267000  0.12518000  1.0 -0.4983419411
O  O59  1  0.77007000  0.80743000  0.40081000  1.0 -0.2407636724
O  O60  1  0.76043000  0.87153000  0.34621000  1.0 -0.2346973482
O  O61  1  0.20180000  0.32050000  0.29160000  1.0 -0.9105103147
O  O62  1  0.31058000  0.26081000  0.39649000  1.0 -0.3290936209
O  O63  1  0.37482000  0.24821000  0.34267000  1.0 -0.4983419411
O  O64  1  0.09919000  0.27007000  0.30743000  1.0 -0.2407636724
O  O65  1  0.15379000  0.26043000  0.37153000  1.0 -0.2346973482
O  O66  1  0.79820000  0.67950000  0.29160000  1.0 -0.9105103147
O  O67  1  0.68942000  0.73919000  0.39649000  1.0 -0.3290936209
O  O68  1  0.62518000  0.75179000  0.34267000  1.0 -0.4983419411
O  O69  1  0.90081000  0.72993000  0.30743000  1.0 -0.2407636724
O  O70  1  0.84621000  0.73957000  0.37153000  1.0 -0.2346973482
O  O71  1  0.79820000  0.32050000  0.70840000  1.0 -0.9105103147
O  O72  1  0.68942000  0.26081000  0.60351000  1.0 -0.3290936209
O  O73  1  0.62518000  0.24821000  0.65733000  1.0 -0.4983419411
O  O74  1  0.90081000  0.27007000  0.69257000  1.0 -0.2407636724
O  O75  1  0.84621000  0.26043000  0.62847000  1.0 -0.2346973482
O  O76  1  0.20180000  0.67950000  0.70840000  1.0 -0.9105103147
O  O77  1  0.31058000  0.73919000  0.60351000  1.0 -0.3290936209
O  O78  1  0.37482000  0.75179000  0.65733000  1.0 -0.4983419411
O  O79  1  0.09919000  0.72993000  0.69257000  1.0 -0.2407636724
O  O80  1  0.15379000  0.73957000  0.62847000  1.0 -0.2346973482
O  O81  1  0.29160000  0.20180000  0.32050000  1.0 -0.9105103147
O  O82  1  0.39649000  0.31058000  0.26081000  1.0 -0.3290936209
O  O83  1  0.34267000  0.37482000  0.24821000  1.0 -0.4983419411
O  O84  1  0.30743000  0.09919000  0.27007000  1.0 -0.2407636724
O  O85  1  0.37153000  0.15379000  0.26043000  1.0 -0.2346973482
O  O86  1  0.29160000  0.79820000  0.67950000  1.0 -0.9105103147
O  O87  1  0.39649000  0.68942000  0.73919000  1.0 -0.3290936209
O  O88  1  0.34267000  0.62518000  0.75179000  1.0 -0.4983419411
O  O89  1  0.30743000  0.90081000  0.72993000  1.0 -0.2407636724
O  O90  1  0.37153000  0.84621000  0.73957000  1.0 -0.2346973482
O  O91  1  0.70840000  0.79820000  0.32050000  1.0 -0.9105103147
O  O92  1  0.60351000  0.68942000  0.26081000  1.0 -0.3290936209
O  O93  1  0.65733000  0.62518000  0.24821000  1.0 -0.4983419411
O  O94  1  0.69257000  0.90081000  0.27007000  1.0 -0.2407636724
O  O95  1  0.62847000  0.84621000  0.26043000  1.0 -0.2346973482
O  O96  1  0.70840000  0.20180000  0.67950000  1.0 -0.9105103147
O  O97  1  0.60351000  0.31058000  0.73919000  1.0 -0.3290936209
O  O98  1  0.65733000  0.37482000  0.75179000  1.0 -0.4983419411
O  O99  1  0.69257000  0.09919000  0.72993000  1.0 -0.2407636724
O  O100  1  0.62847000  0.15379000  0.73957000  1.0 -0.2346973482
O  O101  1  0.32050000  0.29160000  0.20180000  1.0 -0.9105103147
O  O102  1  0.26081000  0.39649000  0.31058000  1.0 -0.3290936209
O  O103  1  0.24821000  0.34267000  0.37482000  1.0 -0.4983419411
O  O104  1  0.27007000  0.30743000  0.09919000  1.0 -0.2407636724
O  O105  1  0.26043000  0.37153000  0.15379000  1.0 -0.2346973482
O  O106  1  0.67950000  0.29160000  0.79820000  1.0 -0.9105103147
O  O107  1  0.73919000  0.39649000  0.68942000  1.0 -0.3290936209
O  O108  1  0.75179000  0.34267000  0.62518000  1.0 -0.4983419411
O  O109  1  0.72993000  0.30743000  0.90081000  1.0 -0.2407636724
O  O110  1  0.73957000  0.37153000  0.84621000  1.0 -0.2346973482
O  O111  1  0.32050000  0.70840000  0.79820000  1.0 -0.9105103147
O  O112  1  0.26081000  0.60351000  0.68942000  1.0 -0.3290936209
O  O113  1  0.24821000  0.65733000  0.62518000  1.0 -0.4983419411
O  O114  1  0.27007000  0.69257000  0.90081000  1.0 -0.2407636724
O  O115  1  0.26043000  0.62847000  0.84621000  1.0 -0.2346973482
O  O116  1  0.67950000  0.70840000  0.20180000  1.0 -0.9105103147
O  O117  1  0.73919000  0.60351000  0.31058000  1.0 -0.3290936209
O  O118  1  0.75179000  0.65733000  0.37482000  1.0 -0.4983419411
O  O119  1  0.72993000  0.69257000  0.09919000  1.0 -0.2407636724
O  O120  1  0.73957000  0.62847000  0.15379000  1.0 -0.2346973482
O  O121  1  0.19320000  0.19320000  0.19320000  1.0 -0.8564207536
O  O122  1  0.80680000  0.80680000  0.19320000  1.0 -0.8564207536
O  O123  1  0.80680000  0.19320000  0.80680000  1.0 -0.8564207536
O  O124  1  0.19320000  0.80680000  0.80680000  1.0 -0.8564207536
O  O125  1  0.30680000  0.30680000  0.30680000  1.0 -0.8564207536
O  O126  1  0.69320000  0.69320000  0.30680000  1.0 -0.8564207536
O  O127  1  0.69320000  0.30680000  0.69320000  1.0 -0.8564207536
O  O128  1  0.30680000  0.69320000  0.69320000  1.0 -0.8564207536
