# DDEC6 charges by PACMAN v1.1 (https://github.com/mtap-research/PACMAN-charge/)
data_ZADFET_ASR_pacman
_chemical_formula_sum              "Zr24 O128 C228 N12 H104 Cl72 Se48 S48"
_cell_length_a       25.564
_cell_length_b       25.564
_cell_length_c       25.564
_cell_angle_alpha    90
_cell_angle_beta     90
_cell_angle_gamma    90

_symmetry_space_group_name_H-M    "P 1"
_symmetry_Int_Tables_number       1

loop_
  _symmetry_equiv_pos_as_xyz
  'x, y, z'

loop_
  _atom_site_type_symbol
  _atom_site_label
  _atom_site_symmetry_multiplicity
  _atom_site_fract_x
  _atom_site_fract_y
  _atom_site_fract_z
  _atom_site_occupancy
 _atom_site_charge
Zr  Zr1       1.0  0.26155  0.24954  0.15202  1.0000 1.8337742575
O   O1        1.0  0.29972  0.19500  0.20392  1.0000 -0.9152748547
C   C1        1.0  0.02575  0.24998  0.01123  1.0000 -0.1497684209
N   N1        1.0  0.07187  0.24421  0.98461  1.0000 -0.1935637853
C   C2        1.0  0.11495  0.24299  0.01684  1.0000 -0.1432667144
C   C3        1.0  0.10261  0.24781  0.06874  1.0000 -0.2309438275
C   C4        1.0  0.13872  0.24813  0.11416  1.0000 0.2280419047
O   O2        1.0  0.18709  0.24360  0.10710  1.0000 -0.2146910398
O   O3        1.0  0.12090  0.25294  0.15965  1.0000 -0.2428829732
H   H1        1.0  0.14988  0.23917  0.00430  1.0000 0.1001136363
Cl  Cl1       1.0  0.21056  0.31689  0.09828  1.0000 0.1879886698
Se  Se1       1.0  0.03212  0.25471  0.08306  1.0000 0.160867475
C   C5        1.0  0.92813  0.24421  0.01539  1.0000 -0.3455927831
Cl  Cl2       1.0  0.18356  0.21239  0.10014  1.0000 0.1001136363
Cl  Cl3       1.0  0.10471  0.28419  0.16265  1.0000 0.0729612448
C   C6        1.0  0.24614  0.42800  0.98371  1.0000 -0.1987801603
S   S1        1.0  0.25328  0.46204  0.07559  1.0000 0.1817214923
H   H2        1.0  0.07392  0.24132  0.94747  1.0000 0.0802040497
C   C7        1.0  0.24837  0.47409  0.01091  1.0000 -0.1130697708
C   C8        1.0  0.24842  0.38455  0.01539  1.0000 -0.1497684209
C   C9        1.0  0.25244  0.39658  0.06743  1.0000 -0.1842121794
Se  Se2       1.0  0.25384  0.46720  0.08264  1.0000 0.160867475
C   C10       1.0  0.25576  0.36004  0.11239  1.0000 0.2515570224
O   O4        1.0  0.25501  0.31156  0.10472  1.0000 -0.2924106567
O   O5        1.0  0.25931  0.37761  0.15809  1.0000 -0.5375786932
H   H3        1.0  0.24329  0.42619  0.94655  1.0000 0.0802040497
H   H4        1.0  0.24731  0.34959  0.00242  1.0000 0.1001136363
S   S2        1.0  0.03732  0.25377  0.07608  1.0000 0.1360302258
Zr  Zr2       1.0  0.73845  0.75046  0.15202  1.0000 1.8337742575
O   O6        1.0  0.70028  0.80500  0.20392  1.0000 -0.9136048915
C   C11       1.0  0.97425  0.75001  0.01123  1.0000 -0.1497684209
N   N2        1.0  0.92813  0.75579  0.98461  1.0000 -0.1935637853
C   C12       1.0  0.88505  0.75701  0.01684  1.0000 -0.1432667144
C   C13       1.0  0.89739  0.75219  0.06874  1.0000 -0.2309438275
C   C14       1.0  0.86128  0.75187  0.11416  1.0000 0.2280419047
O   O7        1.0  0.81291  0.75640  0.10710  1.0000 -0.2146910398
O   O8        1.0  0.87910  0.74706  0.15965  1.0000 -0.2428829732
H   H5        1.0  0.85012  0.76083  0.00430  1.0000 0.1001136363
Cl  Cl4       1.0  0.78944  0.68311  0.09828  1.0000 0.1879886698
Se  Se3       1.0  0.96788  0.74529  0.08306  1.0000 0.160867475
C   C15       1.0  0.07187  0.75579  0.01539  1.0000 -0.3455927831
Cl  Cl5       1.0  0.81644  0.78761  0.10014  1.0000 0.1001136363
Cl  Cl6       1.0  0.89529  0.71581  0.16265  1.0000 0.0729612448
C   C16       1.0  0.75386  0.57200  0.98371  1.0000 -0.1987801603
S   S3        1.0  0.74672  0.53796  0.07559  1.0000 0.1817214923
H   H6        1.0  0.92608  0.75868  0.94747  1.0000 0.0802040497
C   C17       1.0  0.75163  0.52591  0.01091  1.0000 -0.1130697708
C   C18       1.0  0.75158  0.61545  0.01539  1.0000 -0.1497684209
C   C19       1.0  0.74756  0.60342  0.06743  1.0000 -0.1842121794
Se  Se4       1.0  0.74616  0.53280  0.08264  1.0000 0.160867475
C   C20       1.0  0.74424  0.63996  0.11239  1.0000 0.2515570224
O   O9        1.0  0.74499  0.68844  0.10472  1.0000 -0.2924106567
O   O10       1.0  0.74069  0.62239  0.15809  1.0000 -0.5375786932
H   H7        1.0  0.75671  0.57381  0.94655  1.0000 0.0802040497
H   H8        1.0  0.75269  0.65041  0.00242  1.0000 0.1001136363
S   S4        1.0  0.96268  0.74623  0.07608  1.0000 0.1360302258
Zr  Zr3       1.0  0.73845  0.24954  0.84798  1.0000 1.8337742575
O   O11       1.0  0.70028  0.19500  0.79608  1.0000 -0.9136048915
C   C21       1.0  0.97425  0.24998  0.98877  1.0000 -0.0089641278
C   C22       1.0  0.88505  0.24299  0.98316  1.0000 -0.0580129709
C   C23       1.0  0.89739  0.24781  0.93126  1.0000 -0.273237591
C   C24       1.0  0.86128  0.24813  0.88584  1.0000 0.2280419047
O   O12       1.0  0.81291  0.24360  0.89290  1.0000 -0.2146910398
O   O13       1.0  0.87910  0.25294  0.84035  1.0000 -0.2428829732
H   H9        1.0  0.85012  0.23917  0.99570  1.0000 0.0802040497
Cl  Cl7       1.0  0.78944  0.31689  0.90172  1.0000 0.1817214923
Se  Se5       1.0  0.96788  0.25471  0.91694  1.0000 0.1879886698
Cl  Cl8       1.0  0.81644  0.21239  0.89986  1.0000 0.0881214038
Cl  Cl9       1.0  0.89529  0.28419  0.83735  1.0000 0.0729612448
C   C25       1.0  0.75386  0.42800  0.01629  1.0000 -0.1987801603
S   S5        1.0  0.74672  0.46204  0.92441  1.0000 0.1817214923
H   H10       1.0  0.92608  0.24132  0.05253  1.0000 0.2280419047
C   C26       1.0  0.75163  0.47409  0.98909  1.0000 -0.1130697708
C   C27       1.0  0.75158  0.38455  0.98461  1.0000 -0.1497684209
C   C28       1.0  0.74756  0.39658  0.93257  1.0000 -0.1842121794
Se  Se6       1.0  0.74616  0.46720  0.91736  1.0000 0.160867475
C   C29       1.0  0.74424  0.36004  0.88761  1.0000 0.2515570224
O   O14       1.0  0.74499  0.31156  0.89528  1.0000 -0.2924106567
O   O15       1.0  0.74069  0.37761  0.84191  1.0000 -0.5375786932
H   H11       1.0  0.75671  0.42619  0.05345  1.0000 0.0802040497
H   H12       1.0  0.75269  0.34959  0.99758  1.0000 0.1001136363
S   S6        1.0  0.96268  0.25377  0.92392  1.0000 0.1293463335
Zr  Zr4       1.0  0.26155  0.75046  0.84798  1.0000 1.8337742575
O   O16       1.0  0.29972  0.80500  0.79608  1.0000 -0.9136048915
C   C30       1.0  0.02575  0.75001  0.98877  1.0000 -0.0089641278
C   C31       1.0  0.11495  0.75701  0.98316  1.0000 -0.0580129709
C   C32       1.0  0.10261  0.75219  0.93126  1.0000 -0.273237591
C   C33       1.0  0.13872  0.75187  0.88584  1.0000 0.2280419047
O   O17       1.0  0.18709  0.75640  0.89290  1.0000 -0.2158659957
O   O18       1.0  0.12090  0.74706  0.84035  1.0000 -0.2428829732
H   H13       1.0  0.14988  0.76083  0.99570  1.0000 0.0802040497
Cl  Cl10      1.0  0.21056  0.68311  0.90172  1.0000 0.1817214923
Se  Se7       1.0  0.03212  0.74529  0.91694  1.0000 0.1879886698
Cl  Cl11      1.0  0.18356  0.78761  0.89986  1.0000 0.0881214038
Cl  Cl12      1.0  0.10471  0.71581  0.83735  1.0000 0.0729612448
C   C34       1.0  0.24614  0.57200  0.01629  1.0000 -0.1987801603
S   S7        1.0  0.25328  0.53796  0.92441  1.0000 0.1817214923
H   H14       1.0  0.07392  0.75868  0.05253  1.0000 0.2280419047
C   C35       1.0  0.24837  0.52591  0.98909  1.0000 -0.1130697708
C   C36       1.0  0.24842  0.61545  0.98461  1.0000 -0.1497684209
C   C37       1.0  0.25244  0.60342  0.93257  1.0000 -0.1842121794
Se  Se8       1.0  0.25384  0.53280  0.91736  1.0000 0.160867475
C   C38       1.0  0.25576  0.63996  0.88761  1.0000 0.2515570224
O   O19       1.0  0.25501  0.68844  0.89528  1.0000 -0.2924106567
O   O20       1.0  0.25931  0.62239  0.84191  1.0000 -0.5375786932
H   H15       1.0  0.24329  0.57381  0.05345  1.0000 0.0802040497
H   H16       1.0  0.24731  0.65041  0.99758  1.0000 0.1001136363
S   S8        1.0  0.03732  0.74623  0.92392  1.0000 0.1293463335
Zr  Zr5       1.0  0.15202  0.26155  0.24954  1.0000 1.8337742575
O   O21       1.0  0.20392  0.29972  0.19500  1.0000 -0.9152748547
C   C39       1.0  0.01123  0.02575  0.24998  1.0000 -0.1497684209
N   N3        1.0  0.98461  0.07187  0.24421  1.0000 -0.1935637853
C   C40       1.0  0.01684  0.11495  0.24299  1.0000 -0.1432667144
C   C41       1.0  0.06874  0.10261  0.24781  1.0000 -0.2309438275
C   C42       1.0  0.11416  0.13872  0.24813  1.0000 0.2280419047
O   O22       1.0  0.10710  0.18709  0.24360  1.0000 -0.2146910398
O   O23       1.0  0.15965  0.12090  0.25294  1.0000 -0.2428829732
H   H17       1.0  0.00430  0.14988  0.23917  1.0000 0.1001136363
Cl  Cl13      1.0  0.09828  0.21056  0.31689  1.0000 0.1879886698
Se  Se9       1.0  0.08306  0.03212  0.25471  1.0000 0.160867475
C   C43       1.0  0.01539  0.92813  0.24421  1.0000 -0.3455927831
Cl  Cl14      1.0  0.10014  0.18356  0.21239  1.0000 0.1001136363
Cl  Cl15      1.0  0.16265  0.10471  0.28419  1.0000 0.0729612448
C   C44       1.0  0.98371  0.24614  0.42800  1.0000 -0.1987801603
S   S9        1.0  0.07559  0.25328  0.46204  1.0000 0.1817214923
H   H18       1.0  0.94747  0.07392  0.24132  1.0000 0.0802040497
C   C45       1.0  0.01091  0.24837  0.47409  1.0000 -0.1130697708
C   C46       1.0  0.01539  0.24842  0.38455  1.0000 -0.1497684209
C   C47       1.0  0.06743  0.25244  0.39658  1.0000 -0.1842121794
Se  Se10      1.0  0.08264  0.25384  0.46720  1.0000 0.160867475
C   C48       1.0  0.11239  0.25576  0.36004  1.0000 0.2515570224
O   O24       1.0  0.10472  0.25501  0.31156  1.0000 -0.2924106567
O   O25       1.0  0.15809  0.25931  0.37761  1.0000 -0.5375786932
H   H19       1.0  0.94655  0.24329  0.42619  1.0000 0.0802040497
H   H20       1.0  0.00242  0.24731  0.34959  1.0000 0.1001136363
S   S10       1.0  0.07608  0.03732  0.25377  1.0000 0.1360302258
Zr  Zr6       1.0  0.15202  0.73845  0.75046  1.0000 1.8337742575
O   O26       1.0  0.20392  0.70028  0.80500  1.0000 -0.9136048915
C   C49       1.0  0.01123  0.97425  0.75001  1.0000 -0.1497684209
N   N4        1.0  0.98461  0.92813  0.75579  1.0000 -0.1935637853
C   C50       1.0  0.01684  0.88505  0.75701  1.0000 -0.1432667144
C   C51       1.0  0.06874  0.89739  0.75219  1.0000 -0.2309438275
C   C52       1.0  0.11416  0.86128  0.75187  1.0000 0.2280419047
O   O27       1.0  0.10710  0.81291  0.75640  1.0000 -0.2146910398
O   O28       1.0  0.15965  0.87910  0.74706  1.0000 -0.2428829732
H   H21       1.0  0.00430  0.85012  0.76083  1.0000 0.1001136363
Cl  Cl16      1.0  0.09828  0.78944  0.68311  1.0000 0.1879886698
Se  Se11      1.0  0.08306  0.96788  0.74529  1.0000 0.160867475
C   C53       1.0  0.01539  0.07187  0.75579  1.0000 -0.3455927831
Cl  Cl17      1.0  0.10014  0.81644  0.78761  1.0000 0.1001136363
Cl  Cl18      1.0  0.16265  0.89529  0.71581  1.0000 0.0729612448
C   C54       1.0  0.98371  0.75386  0.57200  1.0000 -0.1987801603
S   S11       1.0  0.07559  0.74672  0.53796  1.0000 0.1817214923
H   H22       1.0  0.94747  0.92608  0.75868  1.0000 0.0802040497
C   C55       1.0  0.01091  0.75163  0.52591  1.0000 -0.1130697708
C   C56       1.0  0.01539  0.75158  0.61545  1.0000 -0.1497684209
C   C57       1.0  0.06743  0.74756  0.60342  1.0000 -0.1842121794
Se  Se12      1.0  0.08264  0.74616  0.53280  1.0000 0.160867475
C   C58       1.0  0.11239  0.74424  0.63996  1.0000 0.2515570224
O   O29       1.0  0.10472  0.74499  0.68844  1.0000 -0.2924106567
O   O30       1.0  0.15809  0.74069  0.62239  1.0000 -0.5375786932
H   H23       1.0  0.94655  0.75671  0.57381  1.0000 0.0802040497
H   H24       1.0  0.00242  0.75269  0.65041  1.0000 0.1001136363
S   S12       1.0  0.07608  0.96268  0.74623  1.0000 0.1360302258
Zr  Zr7       1.0  0.84798  0.73845  0.24954  1.0000 1.8337742575
O   O31       1.0  0.79608  0.70028  0.19500  1.0000 -0.9136048915
C   C59       1.0  0.98877  0.97425  0.24998  1.0000 -0.0089641278
C   C60       1.0  0.98316  0.88505  0.24299  1.0000 -0.0580129709
C   C61       1.0  0.93126  0.89739  0.24781  1.0000 -0.273237591
C   C62       1.0  0.88584  0.86128  0.24813  1.0000 0.2280419047
O   O32       1.0  0.89290  0.81291  0.24360  1.0000 -0.2146910398
O   O33       1.0  0.84035  0.87910  0.25294  1.0000 -0.2428829732
H   H25       1.0  0.99570  0.85012  0.23917  1.0000 0.0802040497
Cl  Cl19      1.0  0.90172  0.78944  0.31689  1.0000 0.1817214923
Se  Se13      1.0  0.91694  0.96788  0.25471  1.0000 0.1817214923
Cl  Cl20      1.0  0.89986  0.81644  0.21239  1.0000 0.0881214038
Cl  Cl21      1.0  0.83735  0.89529  0.28419  1.0000 0.0729612448
C   C63       1.0  0.01629  0.75386  0.42800  1.0000 -0.1987801603
S   S13       1.0  0.92441  0.74672  0.46204  1.0000 0.1817214923
H   H26       1.0  0.05253  0.92608  0.24132  1.0000 0.2280419047
C   C64       1.0  0.98909  0.75163  0.47409  1.0000 -0.1130697708
C   C65       1.0  0.98461  0.75158  0.38455  1.0000 -0.1497684209
C   C66       1.0  0.93257  0.74756  0.39658  1.0000 -0.1842121794
Se  Se14      1.0  0.91736  0.74616  0.46720  1.0000 0.160867475
C   C67       1.0  0.88761  0.74424  0.36004  1.0000 0.2515570224
O   O34       1.0  0.89528  0.74499  0.31156  1.0000 -0.2924106567
O   O35       1.0  0.84191  0.74069  0.37761  1.0000 -0.5375786932
H   H27       1.0  0.05345  0.75671  0.42619  1.0000 0.0802040497
H   H28       1.0  0.99758  0.75269  0.34959  1.0000 0.1001136363
S   S14       1.0  0.92392  0.96268  0.25377  1.0000 0.1293463335
Zr  Zr8       1.0  0.84798  0.26155  0.75046  1.0000 1.8337742575
O   O36       1.0  0.79608  0.29972  0.80500  1.0000 -0.9136048915
C   C68       1.0  0.98877  0.02575  0.75001  1.0000 -0.0089641278
C   C69       1.0  0.98316  0.11495  0.75701  1.0000 -0.0580129709
C   C70       1.0  0.93126  0.10261  0.75219  1.0000 -0.273237591
C   C71       1.0  0.88584  0.13872  0.75187  1.0000 0.2280419047
O   O37       1.0  0.89290  0.18709  0.75640  1.0000 -0.2146910398
O   O38       1.0  0.84035  0.12090  0.74706  1.0000 -0.2428829732
H   H29       1.0  0.99570  0.14988  0.76083  1.0000 0.0802040497
Cl  Cl22      1.0  0.90172  0.21056  0.68311  1.0000 0.1817214923
Se  Se15      1.0  0.91694  0.03212  0.74529  1.0000 0.1879886698
Cl  Cl23      1.0  0.89986  0.18356  0.78761  1.0000 0.0802040497
Cl  Cl24      1.0  0.83735  0.10471  0.71581  1.0000 0.0729612448
C   C72       1.0  0.01629  0.24614  0.57200  1.0000 -0.1987801603
S   S15       1.0  0.92441  0.25328  0.53796  1.0000 0.1817214923
H   H30       1.0  0.05253  0.07392  0.75868  1.0000 0.2280419047
C   C73       1.0  0.98909  0.24837  0.52591  1.0000 -0.1130697708
C   C74       1.0  0.98461  0.24842  0.61545  1.0000 -0.1497684209
C   C75       1.0  0.93257  0.25244  0.60342  1.0000 -0.1842121794
Se  Se16      1.0  0.91736  0.25384  0.53280  1.0000 0.160867475
C   C76       1.0  0.88761  0.25576  0.63996  1.0000 0.2515570224
O   O39       1.0  0.89528  0.25501  0.68844  1.0000 -0.2924106567
O   O40       1.0  0.84191  0.25931  0.62239  1.0000 -0.5375786932
H   H31       1.0  0.05345  0.24329  0.57381  1.0000 0.0802040497
H   H32       1.0  0.99758  0.24731  0.65041  1.0000 0.1001136363
S   S16       1.0  0.92392  0.03732  0.74623  1.0000 0.1293463335
Zr  Zr9       1.0  0.24954  0.15202  0.26155  1.0000 1.8337742575
O   O41       1.0  0.19500  0.20392  0.29972  1.0000 -0.9152748547
C   C77       1.0  0.24998  0.01123  0.02575  1.0000 -0.1497684209
N   N5        1.0  0.24421  0.98461  0.07187  1.0000 -0.1935637853
C   C78       1.0  0.24299  0.01684  0.11495  1.0000 -0.1432667144
C   C79       1.0  0.24781  0.06874  0.10261  1.0000 -0.2309438275
C   C80       1.0  0.24813  0.11416  0.13872  1.0000 0.2280419047
O   O42       1.0  0.24360  0.10710  0.18709  1.0000 -0.2146910398
O   O43       1.0  0.25294  0.15965  0.12090  1.0000 -0.2428829732
H   H33       1.0  0.23917  0.00430  0.14988  1.0000 0.1001136363
Cl  Cl25      1.0  0.31689  0.09828  0.21056  1.0000 0.1879886698
Se  Se17      1.0  0.25471  0.08306  0.03212  1.0000 0.160867475
C   C81       1.0  0.24421  0.01539  0.92813  1.0000 -0.3455927831
Cl  Cl26      1.0  0.21239  0.10014  0.18356  1.0000 0.1001136363
Cl  Cl27      1.0  0.28419  0.16265  0.10471  1.0000 0.0729612448
C   C82       1.0  0.42800  0.98371  0.24614  1.0000 -0.1987801603
S   S17       1.0  0.46204  0.07559  0.25328  1.0000 0.1817214923
H   H34       1.0  0.24132  0.94747  0.07392  1.0000 0.0802040497
C   C83       1.0  0.47409  0.01091  0.24837  1.0000 -0.1130697708
C   C84       1.0  0.38455  0.01539  0.24842  1.0000 -0.1497684209
C   C85       1.0  0.39658  0.06743  0.25244  1.0000 -0.1842121794
Se  Se18      1.0  0.46720  0.08264  0.25384  1.0000 0.160867475
C   C86       1.0  0.36004  0.11239  0.25576  1.0000 0.2515570224
O   O44       1.0  0.31156  0.10472  0.25501  1.0000 -0.2924106567
O   O45       1.0  0.37761  0.15809  0.25931  1.0000 -0.5375786932
H   H35       1.0  0.42619  0.94655  0.24329  1.0000 0.0802040497
H   H36       1.0  0.34959  0.00242  0.24731  1.0000 0.1001136363
S   S18       1.0  0.25377  0.07608  0.03732  1.0000 0.1360302258
Zr  Zr10      1.0  0.75046  0.15202  0.73845  1.0000 1.8337742575
O   O46       1.0  0.80500  0.20392  0.70028  1.0000 -0.9136048915
C   C87       1.0  0.75001  0.01123  0.97425  1.0000 -0.1497684209
N   N6        1.0  0.75579  0.98461  0.92813  1.0000 -0.1935637853
C   C88       1.0  0.75701  0.01684  0.88505  1.0000 -0.1432667144
C   C89       1.0  0.75219  0.06874  0.89739  1.0000 -0.2309438275
C   C90       1.0  0.75187  0.11416  0.86128  1.0000 0.2239648142
O   O47       1.0  0.75640  0.10710  0.81291  1.0000 -0.2146910398
O   O48       1.0  0.74706  0.15965  0.87910  1.0000 -0.2428829732
H   H37       1.0  0.76083  0.00430  0.85012  1.0000 0.1001136363
Cl  Cl28      1.0  0.68311  0.09828  0.78944  1.0000 0.1879886698
Se  Se19      1.0  0.74529  0.08306  0.96788  1.0000 0.160867475
C   C91       1.0  0.75579  0.01539  0.07187  1.0000 -0.3455927831
Cl  Cl29      1.0  0.78761  0.10014  0.81644  1.0000 0.1001136363
Cl  Cl30      1.0  0.71581  0.16265  0.89529  1.0000 0.0729612448
C   C92       1.0  0.57200  0.98371  0.75386  1.0000 -0.1987801603
S   S19       1.0  0.53796  0.07559  0.74672  1.0000 0.1817214923
H   H38       1.0  0.75868  0.94747  0.92608  1.0000 0.0802040497
C   C93       1.0  0.52591  0.01091  0.75163  1.0000 -0.1130697708
C   C94       1.0  0.61545  0.01539  0.75158  1.0000 -0.1497684209
C   C95       1.0  0.60342  0.06743  0.74756  1.0000 -0.1842121794
Se  Se20      1.0  0.53280  0.08264  0.74616  1.0000 0.160867475
C   C96       1.0  0.63996  0.11239  0.74424  1.0000 0.2515570224
O   O49       1.0  0.68844  0.10472  0.74499  1.0000 -0.2924106567
O   O50       1.0  0.62239  0.15809  0.74069  1.0000 -0.5375786932
H   H39       1.0  0.57381  0.94655  0.75671  1.0000 0.0802040497
H   H40       1.0  0.65041  0.00242  0.75269  1.0000 0.1001136363
S   S20       1.0  0.74623  0.07608  0.96268  1.0000 0.1360302258
Zr  Zr11      1.0  0.24954  0.84798  0.73845  1.0000 1.8337742575
O   O51       1.0  0.19500  0.79608  0.70028  1.0000 -0.9136048915
C   C97       1.0  0.24998  0.98877  0.97425  1.0000 -0.0089641278
C   C98       1.0  0.24299  0.98316  0.88505  1.0000 -0.0580129709
C   C99       1.0  0.24781  0.93126  0.89739  1.0000 -0.273237591
C   C100      1.0  0.24813  0.88584  0.86128  1.0000 0.2280419047
O   O52       1.0  0.24360  0.89290  0.81291  1.0000 -0.2146910398
O   O53       1.0  0.25294  0.84035  0.87910  1.0000 -0.2428829732
H   H41       1.0  0.23917  0.99570  0.85012  1.0000 0.0802040497
Cl  Cl31      1.0  0.31689  0.90172  0.78944  1.0000 0.1817214923
Se  Se21      1.0  0.25471  0.91694  0.96788  1.0000 0.1817214923
Cl  Cl32      1.0  0.21239  0.89986  0.81644  1.0000 0.0881214038
Cl  Cl33      1.0  0.28419  0.83735  0.89529  1.0000 0.0729612448
C   C101      1.0  0.42800  0.01629  0.75386  1.0000 -0.1987801603
S   S21       1.0  0.46204  0.92441  0.74672  1.0000 0.1817214923
H   H42       1.0  0.24132  0.05253  0.92608  1.0000 0.2280419047
C   C102      1.0  0.47409  0.98909  0.75163  1.0000 -0.1130697708
C   C103      1.0  0.38455  0.98461  0.75158  1.0000 -0.1497684209
C   C104      1.0  0.39658  0.93257  0.74756  1.0000 -0.1842121794
Se  Se22      1.0  0.46720  0.91736  0.74616  1.0000 0.160867475
C   C105      1.0  0.36004  0.88761  0.74424  1.0000 0.2515570224
O   O54       1.0  0.31156  0.89528  0.74499  1.0000 -0.2924106567
O   O55       1.0  0.37761  0.84191  0.74069  1.0000 -0.5375786932
H   H43       1.0  0.42619  0.05345  0.75671  1.0000 0.0802040497
H   H44       1.0  0.34959  0.99758  0.75269  1.0000 0.1001136363
S   S22       1.0  0.25377  0.92392  0.96268  1.0000 0.1293463335
Zr  Zr12      1.0  0.75046  0.84798  0.26155  1.0000 1.8337742575
O   O56       1.0  0.80500  0.79608  0.29972  1.0000 -0.9136048915
C   C106      1.0  0.75001  0.98877  0.02575  1.0000 -0.0089641278
C   C107      1.0  0.75701  0.98316  0.11495  1.0000 -0.0580129709
C   C108      1.0  0.75219  0.93126  0.10261  1.0000 -0.273237591
C   C109      1.0  0.75187  0.88584  0.13872  1.0000 0.2280419047
O   O57       1.0  0.75640  0.89290  0.18709  1.0000 -0.2146910398
O   O58       1.0  0.74706  0.84035  0.12090  1.0000 -0.2428829732
H   H45       1.0  0.76083  0.99570  0.14988  1.0000 0.0802040497
Cl  Cl34      1.0  0.68311  0.90172  0.21056  1.0000 0.1817214923
Se  Se23      1.0  0.74529  0.91694  0.03212  1.0000 0.1879886698
Cl  Cl35      1.0  0.78761  0.89986  0.18356  1.0000 0.0881214038
Cl  Cl36      1.0  0.71581  0.83735  0.10471  1.0000 0.0729612448
C   C110      1.0  0.57200  0.01629  0.24614  1.0000 -0.1987801603
S   S23       1.0  0.53796  0.92441  0.25328  1.0000 0.1817214923
H   H46       1.0  0.75868  0.05253  0.07392  1.0000 0.2280419047
C   C111      1.0  0.52591  0.98909  0.24837  1.0000 -0.1130697708
C   C112      1.0  0.61545  0.98461  0.24842  1.0000 -0.1497684209
C   C113      1.0  0.60342  0.93257  0.25244  1.0000 -0.1842121794
Se  Se24      1.0  0.53280  0.91736  0.25384  1.0000 0.160867475
C   C114      1.0  0.63996  0.88761  0.25576  1.0000 0.2515570224
O   O59       1.0  0.68844  0.89528  0.25501  1.0000 -0.2924106567
O   O60       1.0  0.62239  0.84191  0.25931  1.0000 -0.5375786932
H   H47       1.0  0.57381  0.05345  0.24329  1.0000 0.0802040497
H   H48       1.0  0.65041  0.99758  0.24731  1.0000 0.1001136363
S   S24       1.0  0.74623  0.92392  0.03732  1.0000 0.1293463335
Zr  Zr13      1.0  0.23845  0.25046  0.34798  1.0000 1.8337742575
O   O61       1.0  0.20028  0.30500  0.29608  1.0000 -0.9152748547
C   C115      1.0  0.47425  0.25002  0.48877  1.0000 -0.1497684209
N   N7        1.0  0.42813  0.25579  0.51539  1.0000 -0.1935637853
C   C116      1.0  0.38505  0.25701  0.48316  1.0000 -0.1432667144
C   C117      1.0  0.39739  0.25219  0.43126  1.0000 -0.2309438275
C   C118      1.0  0.36128  0.25187  0.38584  1.0000 0.2280419047
O   O62       1.0  0.31291  0.25640  0.39290  1.0000 -0.2146910398
O   O63       1.0  0.37910  0.24706  0.34035  1.0000 -0.2428829732
H   H49       1.0  0.35012  0.26083  0.49570  1.0000 0.1001136363
Cl  Cl37      1.0  0.28944  0.18311  0.40172  1.0000 0.1879886698
Se  Se25      1.0  0.46788  0.24529  0.41694  1.0000 0.160867475
C   C119      1.0  0.57187  0.25579  0.48461  1.0000 -0.3455927831
Cl  Cl38      1.0  0.31644  0.28761  0.39986  1.0000 0.1001136363
Cl  Cl39      1.0  0.39529  0.21581  0.33735  1.0000 0.0729612448
C   C120      1.0  0.25386  0.07200  0.51629  1.0000 -0.1987801603
S   S25       1.0  0.24672  0.03796  0.42441  1.0000 0.1817214923
H   H50       1.0  0.42608  0.25868  0.55253  1.0000 0.0802040497
C   C121      1.0  0.25163  0.02591  0.48909  1.0000 -0.1130697708
C   C122      1.0  0.25158  0.11545  0.48461  1.0000 -0.1497684209
C   C123      1.0  0.24756  0.10342  0.43257  1.0000 -0.1842121794
Se  Se26      1.0  0.24616  0.03280  0.41736  1.0000 0.160867475
C   C124      1.0  0.24424  0.13996  0.38761  1.0000 0.2515570224
O   O64       1.0  0.24499  0.18844  0.39528  1.0000 -0.2924106567
O   O65       1.0  0.24069  0.12239  0.34191  1.0000 -0.5375786932
H   H51       1.0  0.25671  0.07381  0.55345  1.0000 0.0802040497
H   H52       1.0  0.25269  0.15041  0.49758  1.0000 0.1001136363
S   S26       1.0  0.46268  0.24623  0.42392  1.0000 0.1360302258
Zr  Zr14      1.0  0.76155  0.74954  0.34798  1.0000 1.8337742575
O   O66       1.0  0.79972  0.69500  0.29608  1.0000 -0.9136048915
C   C125      1.0  0.52575  0.74998  0.48877  1.0000 -0.1497684209
N   N8        1.0  0.57187  0.74421  0.51539  1.0000 -0.1935637853
C   C126      1.0  0.61495  0.74299  0.48316  1.0000 -0.1432667144
C   C127      1.0  0.60261  0.74781  0.43126  1.0000 -0.2309438275
C   C128      1.0  0.63872  0.74813  0.38584  1.0000 0.2280419047
O   O67       1.0  0.68709  0.74360  0.39290  1.0000 -0.2146910398
O   O68       1.0  0.62090  0.75294  0.34035  1.0000 -0.2428829732
H   H53       1.0  0.64988  0.73917  0.49570  1.0000 0.1001136363
Cl  Cl40      1.0  0.71056  0.81689  0.40172  1.0000 0.1879886698
Se  Se27      1.0  0.53212  0.75471  0.41694  1.0000 0.160867475
C   C129      1.0  0.42813  0.74421  0.48461  1.0000 -0.3455927831
Cl  Cl41      1.0  0.68356  0.71239  0.39986  1.0000 0.1001136363
Cl  Cl42      1.0  0.60471  0.78419  0.33735  1.0000 0.0729612448
C   C130      1.0  0.74614  0.92800  0.51629  1.0000 -0.1987801603
S   S27       1.0  0.75328  0.96204  0.42441  1.0000 0.1817214923
H   H54       1.0  0.57392  0.74132  0.55253  1.0000 0.0802040497
C   C131      1.0  0.74837  0.97409  0.48909  1.0000 -0.1130697708
C   C132      1.0  0.74842  0.88455  0.48461  1.0000 -0.1497684209
C   C133      1.0  0.75244  0.89658  0.43257  1.0000 -0.1842121794
Se  Se28      1.0  0.75384  0.96720  0.41736  1.0000 0.160867475
C   C134      1.0  0.75576  0.86004  0.38761  1.0000 0.2515570224
O   O69       1.0  0.75501  0.81156  0.39528  1.0000 -0.2924106567
O   O70       1.0  0.75931  0.87761  0.34191  1.0000 -0.5375786932
H   H55       1.0  0.74329  0.92619  0.55345  1.0000 0.0802040497
H   H56       1.0  0.74731  0.84959  0.49758  1.0000 0.1001136363
S   S28       1.0  0.53732  0.75377  0.42392  1.0000 0.1360302258
Zr  Zr15      1.0  0.76155  0.25046  0.65202  1.0000 1.8337742575
O   O71       1.0  0.79972  0.30500  0.70392  1.0000 -0.9136048915
C   C135      1.0  0.52575  0.25002  0.51123  1.0000 -0.0089641278
C   C136      1.0  0.61495  0.25701  0.51684  1.0000 -0.0580129709
C   C137      1.0  0.60261  0.25219  0.56874  1.0000 -0.273237591
C   C138      1.0  0.63872  0.25187  0.61416  1.0000 0.2280419047
O   O72       1.0  0.68709  0.25640  0.60710  1.0000 -0.2146910398
O   O73       1.0  0.62090  0.24706  0.65965  1.0000 -0.2428829732
H   H57       1.0  0.64988  0.26083  0.50430  1.0000 0.0802040497
Cl  Cl43      1.0  0.71056  0.18311  0.59828  1.0000 0.1817214923
Se  Se29      1.0  0.53212  0.24529  0.58306  1.0000 0.1879886698
Cl  Cl44      1.0  0.68356  0.28761  0.60014  1.0000 0.0881214038
Cl  Cl45      1.0  0.60471  0.21581  0.66265  1.0000 0.0729612448
C   C139      1.0  0.74614  0.07200  0.48371  1.0000 -0.1987801603
S   S29       1.0  0.75328  0.03796  0.57559  1.0000 0.1817214923
H   H58       1.0  0.57392  0.25868  0.44747  1.0000 0.2280419047
C   C140      1.0  0.74837  0.02591  0.51091  1.0000 -0.1130697708
C   C141      1.0  0.74842  0.11545  0.51539  1.0000 -0.1497684209
C   C142      1.0  0.75244  0.10342  0.56743  1.0000 -0.1842121794
Se  Se30      1.0  0.75384  0.03280  0.58264  1.0000 0.160867475
C   C143      1.0  0.75576  0.13996  0.61239  1.0000 0.2515570224
O   O74       1.0  0.75501  0.18844  0.60472  1.0000 -0.2924106567
O   O75       1.0  0.75931  0.12239  0.65809  1.0000 -0.5375786932
H   H59       1.0  0.74329  0.07381  0.44655  1.0000 0.0802040497
H   H60       1.0  0.74731  0.15041  0.50242  1.0000 0.1001136363
S   S30       1.0  0.53732  0.24623  0.57608  1.0000 0.1293463335
Zr  Zr16      1.0  0.23845  0.74954  0.65202  1.0000 1.8337742575
O   O76       1.0  0.20028  0.69500  0.70392  1.0000 -0.9136048915
C   C144      1.0  0.47425  0.74998  0.51123  1.0000 -0.0089641278
C   C145      1.0  0.38505  0.74299  0.51684  1.0000 -0.0580129709
C   C146      1.0  0.39739  0.74781  0.56874  1.0000 -0.273237591
C   C147      1.0  0.36128  0.74813  0.61416  1.0000 0.2280419047
O   O77       1.0  0.31291  0.74360  0.60710  1.0000 -0.2146910398
O   O78       1.0  0.37910  0.75294  0.65965  1.0000 -0.2428829732
H   H61       1.0  0.35012  0.73917  0.50430  1.0000 0.0802040497
Cl  Cl46      1.0  0.28944  0.81689  0.59828  1.0000 0.1817214923
Se  Se31      1.0  0.46788  0.75471  0.58306  1.0000 0.1879886698
Cl  Cl47      1.0  0.31644  0.71239  0.60014  1.0000 0.0881214038
Cl  Cl48      1.0  0.39529  0.78419  0.66265  1.0000 0.0729612448
C   C148      1.0  0.25386  0.92800  0.48371  1.0000 -0.1987801603
S   S31       1.0  0.24672  0.96204  0.57559  1.0000 0.1817214923
H   H62       1.0  0.42608  0.74132  0.44747  1.0000 0.2280419047
C   C149      1.0  0.25163  0.97409  0.51091  1.0000 -0.1130697708
C   C150      1.0  0.25158  0.88455  0.51539  1.0000 -0.1497684209
C   C151      1.0  0.24756  0.89658  0.56743  1.0000 -0.1842121794
Se  Se32      1.0  0.24616  0.96720  0.58264  1.0000 0.160867475
C   C152      1.0  0.24424  0.86004  0.61239  1.0000 0.2515570224
O   O79       1.0  0.24499  0.81156  0.60472  1.0000 -0.2924106567
O   O80       1.0  0.24069  0.87761  0.65809  1.0000 -0.5375786932
H   H63       1.0  0.25671  0.92619  0.44655  1.0000 0.0802040497
H   H64       1.0  0.25269  0.84959  0.50242  1.0000 0.1001136363
S   S32       1.0  0.46268  0.75377  0.57608  1.0000 0.1293463335
Zr  Zr17      1.0  0.34798  0.23845  0.25046  1.0000 1.8337742575
O   O81       1.0  0.29608  0.20028  0.30500  1.0000 -0.9152748547
C   C153      1.0  0.48877  0.47425  0.25002  1.0000 -0.1497684209
N   N9        1.0  0.51539  0.42813  0.25579  1.0000 -0.1935637853
C   C154      1.0  0.48316  0.38505  0.25701  1.0000 -0.1432667144
C   C155      1.0  0.43126  0.39739  0.25219  1.0000 -0.2309438275
C   C156      1.0  0.38584  0.36128  0.25187  1.0000 0.2280419047
O   O82       1.0  0.39290  0.31291  0.25640  1.0000 -0.2146910398
O   O83       1.0  0.34035  0.37910  0.24706  1.0000 -0.2428829732
H   H65       1.0  0.49570  0.35012  0.26083  1.0000 0.1001136363
Cl  Cl49      1.0  0.40172  0.28944  0.18311  1.0000 0.1879886698
Se  Se33      1.0  0.41694  0.46788  0.24529  1.0000 0.160867475
C   C157      1.0  0.48461  0.57187  0.25579  1.0000 -0.3455927831
Cl  Cl50      1.0  0.39986  0.31644  0.28761  1.0000 0.1001136363
Cl  Cl51      1.0  0.33735  0.39529  0.21581  1.0000 0.0729612448
C   C158      1.0  0.51629  0.25386  0.07200  1.0000 -0.1987801603
S   S33       1.0  0.42441  0.24672  0.03796  1.0000 0.1817214923
H   H66       1.0  0.55253  0.42608  0.25868  1.0000 0.0802040497
C   C159      1.0  0.48909  0.25163  0.02591  1.0000 -0.1130697708
C   C160      1.0  0.48461  0.25158  0.11545  1.0000 -0.1497684209
C   C161      1.0  0.43257  0.24756  0.10342  1.0000 -0.1842121794
Se  Se34      1.0  0.41736  0.24616  0.03280  1.0000 0.160867475
C   C162      1.0  0.38761  0.24424  0.13996  1.0000 0.2515570224
O   O84       1.0  0.39528  0.24499  0.18844  1.0000 -0.2924106567
O   O85       1.0  0.34191  0.24069  0.12239  1.0000 -0.5375786932
H   H67       1.0  0.55345  0.25671  0.07381  1.0000 0.0802040497
H   H68       1.0  0.49758  0.25269  0.15041  1.0000 0.1001136363
S   S34       1.0  0.42392  0.46268  0.24623  1.0000 0.1360302258
Zr  Zr18      1.0  0.34798  0.76155  0.74954  1.0000 1.8337742575
O   O86       1.0  0.29608  0.79972  0.69500  1.0000 -0.9136048915
C   C163      1.0  0.48877  0.52575  0.74998  1.0000 -0.1497684209
N   N10       1.0  0.51539  0.57187  0.74421  1.0000 -0.1935637853
C   C164      1.0  0.48316  0.61495  0.74299  1.0000 -0.1432667144
C   C165      1.0  0.43126  0.60261  0.74781  1.0000 -0.2309438275
C   C166      1.0  0.38584  0.63872  0.74813  1.0000 0.2280419047
O   O87       1.0  0.39290  0.68709  0.74360  1.0000 -0.2146910398
O   O88       1.0  0.34035  0.62090  0.75294  1.0000 -0.2428829732
H   H69       1.0  0.49570  0.64988  0.73917  1.0000 0.1001136363
Cl  Cl52      1.0  0.40172  0.71056  0.81689  1.0000 0.1879886698
Se  Se35      1.0  0.41694  0.53212  0.75471  1.0000 0.160867475
C   C167      1.0  0.48461  0.42813  0.74421  1.0000 -0.3455927831
Cl  Cl53      1.0  0.39986  0.68356  0.71239  1.0000 0.1001136363
Cl  Cl54      1.0  0.33735  0.60471  0.78419  1.0000 0.0729612448
C   C168      1.0  0.51629  0.74614  0.92800  1.0000 -0.1987801603
S   S35       1.0  0.42441  0.75328  0.96204  1.0000 0.1817214923
H   H70       1.0  0.55253  0.57392  0.74132  1.0000 0.0802040497
C   C169      1.0  0.48909  0.74837  0.97409  1.0000 -0.1130697708
C   C170      1.0  0.48461  0.74842  0.88455  1.0000 -0.1497684209
C   C171      1.0  0.43257  0.75244  0.89658  1.0000 -0.1935637853
Se  Se36      1.0  0.41736  0.75384  0.96720  1.0000 0.160867475
C   C172      1.0  0.38761  0.75576  0.86004  1.0000 0.2515570224
O   O89       1.0  0.39528  0.75501  0.81156  1.0000 -0.2924106567
O   O90       1.0  0.34191  0.75931  0.87761  1.0000 -0.5375786932
H   H71       1.0  0.55345  0.74329  0.92619  1.0000 0.0802040497
H   H72       1.0  0.49758  0.74731  0.84959  1.0000 0.1001136363
S   S36       1.0  0.42392  0.53732  0.75377  1.0000 0.1360302258
Zr  Zr19      1.0  0.65202  0.76155  0.25046  1.0000 1.8337742575
O   O91       1.0  0.70392  0.79972  0.30500  1.0000 -0.9136048915
C   C173      1.0  0.51123  0.52575  0.25002  1.0000 -0.0089641278
C   C174      1.0  0.51684  0.61495  0.25701  1.0000 -0.0580129709
C   C175      1.0  0.56874  0.60261  0.25219  1.0000 -0.273237591
C   C176      1.0  0.61416  0.63872  0.25187  1.0000 0.2280419047
O   O92       1.0  0.60710  0.68709  0.25640  1.0000 -0.2146910398
O   O93       1.0  0.65965  0.62090  0.24706  1.0000 -0.2428829732
H   H73       1.0  0.50430  0.64988  0.26083  1.0000 0.0802040497
Cl  Cl55      1.0  0.59828  0.71056  0.18311  1.0000 0.1817214923
Se  Se37      1.0  0.58306  0.53212  0.24529  1.0000 0.1879886698
Cl  Cl56      1.0  0.60014  0.68356  0.28761  1.0000 0.0881214038
Cl  Cl57      1.0  0.66265  0.60471  0.21581  1.0000 0.0729612448
C   C177      1.0  0.48371  0.74614  0.07200  1.0000 -0.1987801603
S   S37       1.0  0.57559  0.75328  0.03796  1.0000 0.1817214923
H   H74       1.0  0.44747  0.57392  0.25868  1.0000 0.2280419047
C   C178      1.0  0.51091  0.74837  0.02591  1.0000 -0.1130697708
C   C179      1.0  0.51539  0.74842  0.11545  1.0000 -0.1497684209
C   C180      1.0  0.56743  0.75244  0.10342  1.0000 -0.1842121794
Se  Se38      1.0  0.58264  0.75384  0.03280  1.0000 0.160867475
C   C181      1.0  0.61239  0.75576  0.13996  1.0000 0.2515570224
O   O94       1.0  0.60472  0.75501  0.18844  1.0000 -0.2924106567
O   O95       1.0  0.65809  0.75931  0.12239  1.0000 -0.5375786932
H   H75       1.0  0.44655  0.74329  0.07381  1.0000 0.0802040497
H   H76       1.0  0.50242  0.74731  0.15041  1.0000 0.1001136363
S   S38       1.0  0.57608  0.53732  0.24623  1.0000 0.1293463335
Zr  Zr20      1.0  0.65202  0.23845  0.74954  1.0000 1.8337742575
O   O96       1.0  0.70392  0.20028  0.69500  1.0000 -0.9136048915
C   C182      1.0  0.51123  0.47425  0.74998  1.0000 -0.0089641278
C   C183      1.0  0.51684  0.38505  0.74299  1.0000 -0.0580129709
C   C184      1.0  0.56874  0.39739  0.74781  1.0000 -0.273237591
C   C185      1.0  0.61416  0.36128  0.74813  1.0000 0.2280419047
O   O97       1.0  0.60710  0.31291  0.74360  1.0000 -0.2146910398
O   O98       1.0  0.65965  0.37910  0.75294  1.0000 -0.2428829732
H   H77       1.0  0.50430  0.35012  0.73917  1.0000 0.0802040497
Cl  Cl58      1.0  0.59828  0.28944  0.81689  1.0000 0.1817214923
Se  Se39      1.0  0.58306  0.46788  0.75471  1.0000 0.1879886698
Cl  Cl59      1.0  0.60014  0.31644  0.71239  1.0000 0.0802040497
Cl  Cl60      1.0  0.66265  0.39529  0.78419  1.0000 0.0729612448
C   C186      1.0  0.48371  0.25386  0.92800  1.0000 -0.1987801603
S   S39       1.0  0.57559  0.24672  0.96204  1.0000 0.1817214923
H   H78       1.0  0.44747  0.42608  0.74132  1.0000 0.2280419047
C   C187      1.0  0.51091  0.25163  0.97409  1.0000 -0.1130697708
C   C188      1.0  0.51539  0.25158  0.88455  1.0000 -0.1497684209
C   C189      1.0  0.56743  0.24756  0.89658  1.0000 -0.1842121794
Se  Se40      1.0  0.58264  0.24616  0.96720  1.0000 0.160867475
C   C190      1.0  0.61239  0.24424  0.86004  1.0000 0.2515570224
O   O99       1.0  0.60472  0.24499  0.81156  1.0000 -0.2924106567
O   O100      1.0  0.65809  0.24069  0.87761  1.0000 -0.5375786932
H   H79       1.0  0.44655  0.25671  0.92619  1.0000 0.0802040497
H   H80       1.0  0.50242  0.25269  0.84959  1.0000 0.1001136363
S   S40       1.0  0.57608  0.46268  0.75377  1.0000 0.1293463335
Zr  Zr21      1.0  0.25046  0.34798  0.23845  1.0000 1.8337742575
O   O101      1.0  0.30500  0.29608  0.20028  1.0000 -0.9152748547
C   C191      1.0  0.25002  0.48877  0.47425  1.0000 -0.1497684209
N   N11       1.0  0.25579  0.51539  0.42813  1.0000 -0.1935637853
C   C192      1.0  0.25701  0.48316  0.38505  1.0000 -0.1432667144
C   C193      1.0  0.25219  0.43126  0.39739  1.0000 -0.2309438275
C   C194      1.0  0.25187  0.38584  0.36128  1.0000 0.2280419047
O   O102      1.0  0.25640  0.39290  0.31291  1.0000 -0.2146910398
O   O103      1.0  0.24706  0.34035  0.37910  1.0000 -0.2428829732
H   H81       1.0  0.26083  0.49570  0.35012  1.0000 0.1001136363
Cl  Cl61      1.0  0.18311  0.40172  0.28944  1.0000 0.1879886698
Se  Se41      1.0  0.24529  0.41694  0.46788  1.0000 0.160867475
C   C195      1.0  0.25579  0.48461  0.57187  1.0000 -0.3455927831
Cl  Cl62      1.0  0.28761  0.39986  0.31644  1.0000 0.1001136363
Cl  Cl63      1.0  0.21581  0.33735  0.39529  1.0000 0.0729612448
C   C196      1.0  0.07200  0.51629  0.25386  1.0000 -0.1987801603
S   S41       1.0  0.03796  0.42441  0.24672  1.0000 0.1817214923
H   H82       1.0  0.25868  0.55253  0.42608  1.0000 0.0802040497
C   C197      1.0  0.02591  0.48909  0.25163  1.0000 -0.1130697708
C   C198      1.0  0.11545  0.48461  0.25158  1.0000 -0.1497684209
C   C199      1.0  0.10342  0.43257  0.24756  1.0000 -0.1842121794
Se  Se42      1.0  0.03280  0.41736  0.24616  1.0000 0.160867475
C   C200      1.0  0.13996  0.38761  0.24424  1.0000 0.2515570224
O   O104      1.0  0.18844  0.39528  0.24499  1.0000 -0.2924106567
O   O105      1.0  0.12239  0.34191  0.24069  1.0000 -0.5375786932
H   H83       1.0  0.07381  0.55345  0.25671  1.0000 0.0802040497
H   H84       1.0  0.15041  0.49758  0.25269  1.0000 0.1001136363
S   S42       1.0  0.24623  0.42392  0.46268  1.0000 0.1360302258
Zr  Zr22      1.0  0.74954  0.34798  0.76155  1.0000 1.8337742575
O   O106      1.0  0.69500  0.29608  0.79972  1.0000 -0.9136048915
C   C201      1.0  0.74998  0.48877  0.52575  1.0000 -0.1497684209
N   N12       1.0  0.74421  0.51539  0.57187  1.0000 -0.1935637853
C   C202      1.0  0.74299  0.48316  0.61495  1.0000 -0.1432667144
C   C203      1.0  0.74781  0.43126  0.60261  1.0000 -0.2309438275
C   C204      1.0  0.74813  0.38584  0.63872  1.0000 0.2280419047
O   O107      1.0  0.74360  0.39290  0.68709  1.0000 -0.2146910398
O   O108      1.0  0.75294  0.34035  0.62090  1.0000 -0.2428829732
H   H85       1.0  0.73917  0.49570  0.64988  1.0000 0.1001136363
Cl  Cl64      1.0  0.81689  0.40172  0.71056  1.0000 0.1879886698
Se  Se43      1.0  0.75471  0.41694  0.53212  1.0000 0.160867475
C   C205      1.0  0.74421  0.48461  0.42813  1.0000 -0.3455927831
Cl  Cl65      1.0  0.71239  0.39986  0.68356  1.0000 0.1001136363
Cl  Cl66      1.0  0.78419  0.33735  0.60471  1.0000 0.0729612448
C   C206      1.0  0.92800  0.51629  0.74614  1.0000 -0.1987801603
S   S43       1.0  0.96204  0.42441  0.75328  1.0000 0.1817214923
H   H86       1.0  0.74132  0.55253  0.57392  1.0000 0.0802040497
C   C207      1.0  0.97409  0.48909  0.74837  1.0000 -0.1130697708
C   C208      1.0  0.88455  0.48461  0.74842  1.0000 -0.1497684209
C   C209      1.0  0.89658  0.43257  0.75244  1.0000 -0.1842121794
Se  Se44      1.0  0.96720  0.41736  0.75384  1.0000 0.160867475
C   C210      1.0  0.86004  0.38761  0.75576  1.0000 0.2515570224
O   O109      1.0  0.81156  0.39528  0.75501  1.0000 -0.2924106567
O   O110      1.0  0.87761  0.34191  0.75931  1.0000 -0.5375786932
H   H87       1.0  0.92619  0.55345  0.74329  1.0000 0.0802040497
H   H88       1.0  0.84959  0.49758  0.74731  1.0000 0.1001136363
S   S44       1.0  0.75377  0.42392  0.53732  1.0000 0.1360302258
Zr  Zr23      1.0  0.25046  0.65202  0.76155  1.0000 1.8337742575
O   O111      1.0  0.30500  0.70392  0.79972  1.0000 -0.9136048915
C   C211      1.0  0.25002  0.51123  0.52575  1.0000 -0.0089641278
C   C212      1.0  0.25701  0.51684  0.61495  1.0000 -0.0580129709
C   C213      1.0  0.25219  0.56874  0.60261  1.0000 -0.273237591
C   C214      1.0  0.25187  0.61416  0.63872  1.0000 0.2280419047
O   O112      1.0  0.25640  0.60710  0.68709  1.0000 -0.2146910398
O   O113      1.0  0.24706  0.65965  0.62090  1.0000 -0.2428829732
H   H89       1.0  0.26083  0.50430  0.64988  1.0000 0.0802040497
Cl  Cl67      1.0  0.18311  0.59828  0.71056  1.0000 0.1817214923
Se  Se45      1.0  0.24529  0.58306  0.53212  1.0000 0.1879886698
Cl  Cl68      1.0  0.28761  0.60014  0.68356  1.0000 0.0881214038
Cl  Cl69      1.0  0.21581  0.66265  0.60471  1.0000 0.0729612448
C   C215      1.0  0.07200  0.48371  0.74614  1.0000 -0.1987801603
S   S45       1.0  0.03796  0.57559  0.75328  1.0000 0.1817214923
H   H90       1.0  0.25868  0.44747  0.57392  1.0000 0.2280419047
C   C216      1.0  0.02591  0.51091  0.74837  1.0000 -0.1130697708
C   C217      1.0  0.11545  0.51539  0.74842  1.0000 -0.1497684209
C   C218      1.0  0.10342  0.56743  0.75244  1.0000 -0.1842121794
Se  Se46      1.0  0.03280  0.58264  0.75384  1.0000 0.160867475
C   C219      1.0  0.13996  0.61239  0.75576  1.0000 0.2515570224
O   O114      1.0  0.18844  0.60472  0.75501  1.0000 -0.2924106567
O   O115      1.0  0.12239  0.65809  0.75931  1.0000 -0.5375786932
H   H91       1.0  0.07381  0.44655  0.74329  1.0000 0.0802040497
H   H92       1.0  0.15041  0.50242  0.74731  1.0000 0.1001136363
S   S46       1.0  0.24623  0.57608  0.53732  1.0000 0.1293463335
Zr  Zr24      1.0  0.74954  0.65202  0.23845  1.0000 1.8337742575
O   O116      1.0  0.69500  0.70392  0.20028  1.0000 -0.9136048915
C   C220      1.0  0.74998  0.51123  0.47425  1.0000 -0.0089641278
C   C221      1.0  0.74299  0.51684  0.38505  1.0000 -0.0580129709
C   C222      1.0  0.74781  0.56874  0.39739  1.0000 -0.273237591
C   C223      1.0  0.74813  0.61416  0.36128  1.0000 0.2280419047
O   O117      1.0  0.74360  0.60710  0.31291  1.0000 -0.2146910398
O   O118      1.0  0.75294  0.65965  0.37910  1.0000 -0.2428829732
H   H93       1.0  0.73917  0.50430  0.35012  1.0000 0.0802040497
Cl  Cl70      1.0  0.81689  0.59828  0.28944  1.0000 0.1817214923
Se  Se47      1.0  0.75471  0.58306  0.46788  1.0000 0.1879886698
Cl  Cl71      1.0  0.71239  0.60014  0.31644  1.0000 0.0881214038
Cl  Cl72      1.0  0.78419  0.66265  0.39529  1.0000 0.0729612448
C   C224      1.0  0.92800  0.48371  0.25386  1.0000 -0.1987801603
S   S47       1.0  0.96204  0.57559  0.24672  1.0000 0.1817214923
H   H94       1.0  0.74132  0.44747  0.42608  1.0000 0.2280419047
C   C225      1.0  0.97409  0.51091  0.25163  1.0000 -0.1130697708
C   C226      1.0  0.88455  0.51539  0.25158  1.0000 -0.1497684209
C   C227      1.0  0.89658  0.56743  0.24756  1.0000 -0.1842121794
Se  Se48      1.0  0.96720  0.58264  0.24616  1.0000 0.160867475
C   C228      1.0  0.86004  0.61239  0.24424  1.0000 0.2515570224
O   O119      1.0  0.81156  0.60472  0.24499  1.0000 -0.2924106567
O   O120      1.0  0.87761  0.65809  0.24069  1.0000 -0.5375786932
H   H95       1.0  0.92619  0.44655  0.25671  1.0000 0.0802040497
H   H96       1.0  0.84959  0.50242  0.25269  1.0000 0.1001136363
S   S48       1.0  0.75377  0.57608  0.46268  1.0000 0.1293463335
O   O121      1.0  0.19890  0.19890  0.19890  1.0000 -0.8087778947
H   H97       1.0  0.17700  0.17700  0.17700  1.0000 0.2425880768
O   O122      1.0  0.80110  0.80110  0.19890  1.0000 -0.8087778947
H   H98       1.0  0.82300  0.82300  0.17700  1.0000 0.2425880768
O   O123      1.0  0.80110  0.19890  0.80110  1.0000 -0.8087778947
H   H99       1.0  0.82300  0.17700  0.82300  1.0000 0.2425880768
O   O124      1.0  0.19890  0.80110  0.80110  1.0000 -0.8087778947
H   H100      1.0  0.17700  0.82300  0.82300  1.0000 0.2425880768
O   O125      1.0  0.30110  0.30110  0.30110  1.0000 -0.8087778947
H   H101      1.0  0.32300  0.32300  0.32300  1.0000 0.2425880768
O   O126      1.0  0.69890  0.69890  0.30110  1.0000 -0.8087778947
H   H102      1.0  0.67700  0.67700  0.32300  1.0000 0.2425880768
O   O127      1.0  0.69890  0.30110  0.69890  1.0000 -0.8087778947
H   H103      1.0  0.67700  0.32300  0.67700  1.0000 0.2425880768
O   O128      1.0  0.30110  0.69890  0.69890  1.0000 -0.8087778947
H   H104      1.0  0.32300  0.67700  0.67700  1.0000 0.2425880768
  C   C229      1.0  0.07187  0.24421  0.98461  1.0000
  N   N13       1.0  0.92813  0.24421  0.01539  1.0000
  C   C230      1.0  0.92813  0.75579  0.98461  1.0000
  N   N14       1.0  0.07187  0.75579  0.01539  1.0000
  C   C231      1.0  0.98461  0.07187  0.24421  1.0000
  N   N15       1.0  0.01539  0.92813  0.24421  1.0000
  C   C232      1.0  0.98461  0.92813  0.75579  1.0000
  N   N16       1.0  0.01539  0.07187  0.75579  1.0000
  C   C233      1.0  0.24421  0.98461  0.07187  1.0000
  N   N17       1.0  0.24421  0.01539  0.92813  1.0000
  C   C234      1.0  0.75579  0.98461  0.92813  1.0000
  N   N18       1.0  0.75579  0.01539  0.07187  1.0000
  C   C235      1.0  0.42813  0.25579  0.51539  1.0000
  N   N19       1.0  0.57187  0.25579  0.48461  1.0000
  C   C236      1.0  0.57187  0.74421  0.51539  1.0000
  N   N20       1.0  0.42813  0.74421  0.48461  1.0000
  C   C237      1.0  0.51539  0.42813  0.25579  1.0000
  N   N21       1.0  0.48461  0.57187  0.25579  1.0000
  C   C238      1.0  0.51539  0.57187  0.74421  1.0000
  N   N22       1.0  0.48461  0.42813  0.74421  1.0000
  C   C239      1.0  0.25579  0.51539  0.42813  1.0000
  N   N23       1.0  0.25579  0.48461  0.57187  1.0000
  C   C240      1.0  0.74421  0.51539  0.57187  1.0000
  N   N24       1.0  0.74421  0.48461  0.42813  1.0000
