# DDEC6 charges by PACMAN v1.1 (https://github.com/mtap-research/PACMAN-charge/)
data_ZADFIX_ASR_pacman
_chemical_formula_sum              "Zr24 O128 C228 S48 H104 Cl48 N12 Se48"
_cell_length_a       25.4156
_cell_length_b       25.4156
_cell_length_c       25.4156
_cell_angle_alpha    90
_cell_angle_beta     90
_cell_angle_gamma    90

_symmetry_space_group_name_H-M    "P 1"
_symmetry_Int_Tables_number       1

loop_
  _symmetry_equiv_pos_as_xyz
  'x, y, z'

loop_
  _atom_site_type_symbol
  _atom_site_label
  _atom_site_symmetry_multiplicity
  _atom_site_fract_x
  _atom_site_fract_y
  _atom_site_fract_z
  _atom_site_occupancy
 _atom_site_charge
Zr  Zr1       1.0  0.25800  0.24006  0.14646  1.0000 1.9482179841
O   O1        1.0  0.30386  0.18825  0.21245  1.0000 -0.8573600262
C   C1        1.0  0.48903  0.25472  0.02700  1.0000 -0.123319686
C   C2        1.0  0.48474  0.25056  0.12107  1.0000 -0.123319686
C   C3        1.0  0.43099  0.24162  0.10869  1.0000 -0.2174693182
S   S1        1.0  0.42592  0.24312  0.04280  1.0000 0.1472264677
C   C4        1.0  0.38795  0.23281  0.14446  1.0000 0.5204887306
O   O2        1.0  0.39598  0.23246  0.19299  1.0000 -0.5613136277
O   O3        1.0  0.34256  0.22551  0.12700  1.0000 -0.4940869744
H   H1        1.0  0.49790  0.25160  0.15604  1.0000 0.1087190456
Cl  Cl1       1.0  0.28678  0.16600  0.08882  1.0000 -0.0102316468
N   N1        1.0  0.51749  0.25795  0.07496  1.0000 -0.2009348879
C   C5        1.0  0.48251  0.25795  0.92504  1.0000 -0.3665538813
Cl  Cl2       1.0  0.17169  0.24199  0.09834  1.0000 0.1087190456
Se  Se1       1.0  0.41850  0.24202  0.03738  1.0000 0.1206984435
C   C6        1.0  0.02597  0.27197  0.01076  1.0000 -0.0962096136
C   C7        1.0  0.06792  0.24862  0.98219  1.0000 -0.1862806638
C   C8        1.0  0.11351  0.23720  0.01451  1.0000 -0.123319686
C   C9        1.0  0.10674  0.25173  0.06803  1.0000 -0.1111488104
Se  Se2       1.0  0.04177  0.28097  0.08086  1.0000 0.2196877384
S   S2        1.0  0.04614  0.27756  0.07345  1.0000 0.1711345268
C   C10       1.0  0.14366  0.24610  0.11064  1.0000 0.1412192682
O   O4        1.0  0.18791  0.22629  0.10238  1.0000 -0.2744342123
O   O5        1.0  0.13145  0.26102  0.15589  1.0000 -0.2599551365
H   H2        1.0  0.06628  0.24123  0.94558  1.0000 0.0871326044
H   H3        1.0  0.14476  0.22157  0.00123  1.0000 0.1003285323
H   H4        1.0  0.55428  0.26432  0.07667  1.0000 0.0820543409
Zr  Zr2       1.0  0.74200  0.75994  0.14646  1.0000 1.9482179841
O   O6        1.0  0.69614  0.81175  0.21245  1.0000 -0.8573600262
C   C11       1.0  0.51097  0.74528  0.02700  1.0000 -0.123319686
C   C12       1.0  0.51526  0.74944  0.12107  1.0000 -0.123319686
C   C13       1.0  0.56901  0.75838  0.10869  1.0000 -0.2174693182
S   S3        1.0  0.57408  0.75688  0.04280  1.0000 0.1472264677
C   C14       1.0  0.61205  0.76719  0.14446  1.0000 0.5204887306
O   O7        1.0  0.60402  0.76754  0.19299  1.0000 -0.5613136277
O   O8        1.0  0.65744  0.77449  0.12700  1.0000 -0.4940869744
H   H5        1.0  0.50210  0.74840  0.15604  1.0000 0.1087190456
Cl  Cl3       1.0  0.71322  0.83400  0.08882  1.0000 -0.0102316468
N   N2        1.0  0.48251  0.74205  0.07496  1.0000 -0.2009348879
C   C15       1.0  0.51749  0.74205  0.92504  1.0000 -0.3665538813
Cl  Cl4       1.0  0.82831  0.75801  0.09834  1.0000 0.1087190456
Se  Se3       1.0  0.58150  0.75798  0.03738  1.0000 0.1206984435
C   C16       1.0  0.97403  0.72803  0.01076  1.0000 -0.0962096136
C   C17       1.0  0.93208  0.75138  0.98219  1.0000 -0.1862806638
C   C18       1.0  0.88649  0.76280  0.01451  1.0000 -0.123319686
C   C19       1.0  0.89326  0.74827  0.06803  1.0000 -0.1111488104
Se  Se4       1.0  0.95823  0.71903  0.08086  1.0000 0.2196877384
S   S4        1.0  0.95386  0.72244  0.07345  1.0000 0.1711345268
C   C20       1.0  0.85634  0.75390  0.11064  1.0000 0.1472264677
O   O9        1.0  0.81209  0.77371  0.10238  1.0000 -0.2744342123
O   O10       1.0  0.86855  0.73898  0.15589  1.0000 -0.2599551365
H   H6        1.0  0.93372  0.75877  0.94558  1.0000 0.0871326044
H   H7        1.0  0.85524  0.77843  0.00123  1.0000 0.1003285323
H   H8        1.0  0.44572  0.73568  0.07667  1.0000 0.0820543409
Zr  Zr3       1.0  0.74200  0.24006  0.85354  1.0000 1.9482179841
O   O11       1.0  0.69614  0.18825  0.78755  1.0000 -0.8573600262
C   C21       1.0  0.51097  0.25472  0.97300  1.0000 -0.0102316468
C   C22       1.0  0.51526  0.25056  0.87893  1.0000 -0.0102316468
C   C23       1.0  0.56901  0.24162  0.89131  1.0000 -0.2468056937
S   S5        1.0  0.57408  0.24312  0.95720  1.0000 0.1412192682
C   C24       1.0  0.61205  0.23281  0.85554  1.0000 0.5204887306
O   O12       1.0  0.60402  0.23246  0.80701  1.0000 -0.5677957719
O   O13       1.0  0.65744  0.22551  0.87300  1.0000 -0.4968976363
H   H9        1.0  0.50210  0.25160  0.84396  1.0000 0.1003285323
Cl  Cl5       1.0  0.71322  0.16600  0.91118  1.0000 -0.0102316468
Cl  Cl6       1.0  0.82831  0.24199  0.90166  1.0000 0.1087190456
Se  Se5       1.0  0.58150  0.24202  0.96262  1.0000 0.1412192682
C   C25       1.0  0.97403  0.27197  0.98924  1.0000 -0.0962096136
C   C26       1.0  0.93208  0.24862  0.01781  1.0000 -0.1862806638
C   C27       1.0  0.88649  0.23720  0.98549  1.0000 -0.123319686
C   C28       1.0  0.89326  0.25173  0.93197  1.0000 -0.1111488104
Se  Se6       1.0  0.95823  0.28097  0.91914  1.0000 0.2196877384
S   S6        1.0  0.95386  0.27756  0.92655  1.0000 0.1711345268
C   C29       1.0  0.85634  0.24610  0.88936  1.0000 0.1472264677
O   O14       1.0  0.81209  0.22629  0.89762  1.0000 -0.2744342123
O   O15       1.0  0.86855  0.26102  0.84411  1.0000 -0.2599551365
H   H10       1.0  0.93372  0.24123  0.05442  1.0000 0.0871326044
H   H11       1.0  0.85524  0.22157  0.99877  1.0000 0.1003285323
H   H12       1.0  0.44572  0.26432  0.92333  1.0000 0.2457219229
Zr  Zr4       1.0  0.25800  0.75994  0.85354  1.0000 1.9449636951
O   O16       1.0  0.30386  0.81175  0.78755  1.0000 -0.8573600262
C   C30       1.0  0.48903  0.74528  0.97300  1.0000 -0.0102316468
C   C31       1.0  0.48474  0.74944  0.87893  1.0000 -0.0102316468
C   C32       1.0  0.43099  0.75838  0.89131  1.0000 -0.2468056937
S   S7        1.0  0.42592  0.75688  0.95720  1.0000 0.1412192682
C   C33       1.0  0.38795  0.76719  0.85554  1.0000 0.5204887306
O   O17       1.0  0.39598  0.76754  0.80701  1.0000 -0.5677957719
O   O18       1.0  0.34256  0.77449  0.87300  1.0000 -0.4968976363
H   H13       1.0  0.49790  0.74840  0.84396  1.0000 0.1003285323
Cl  Cl7       1.0  0.28678  0.83400  0.91118  1.0000 -0.0102316468
Cl  Cl8       1.0  0.17169  0.75801  0.90166  1.0000 0.1087190456
Se  Se7       1.0  0.41850  0.75798  0.96262  1.0000 0.1412192682
C   C34       1.0  0.02597  0.72803  0.98924  1.0000 -0.0962096136
C   C35       1.0  0.06792  0.75138  0.01781  1.0000 -0.1862806638
C   C36       1.0  0.11351  0.76280  0.98549  1.0000 -0.123319686
C   C37       1.0  0.10674  0.74827  0.93197  1.0000 -0.1111488104
Se  Se8       1.0  0.04177  0.71903  0.91914  1.0000 0.2196877384
S   S8        1.0  0.04614  0.72244  0.92655  1.0000 0.1711345268
C   C38       1.0  0.14366  0.75390  0.88936  1.0000 0.1472264677
O   O19       1.0  0.18791  0.77371  0.89762  1.0000 -0.2744342123
O   O20       1.0  0.13145  0.73898  0.84411  1.0000 -0.2599551365
H   H14       1.0  0.06628  0.75877  0.05442  1.0000 0.0871326044
H   H15       1.0  0.14476  0.77843  0.99877  1.0000 0.1003285323
H   H16       1.0  0.55428  0.73568  0.92333  1.0000 0.2457219229
Zr  Zr5       1.0  0.14646  0.25800  0.24006  1.0000 1.9482179841
O   O21       1.0  0.21245  0.30386  0.18825  1.0000 -0.8573600262
C   C39       1.0  0.02700  0.48903  0.25472  1.0000 -0.123319686
C   C40       1.0  0.12107  0.48474  0.25056  1.0000 -0.123319686
C   C41       1.0  0.10869  0.43099  0.24162  1.0000 -0.2174693182
S   S9        1.0  0.04280  0.42592  0.24312  1.0000 0.1472264677
C   C42       1.0  0.14446  0.38795  0.23281  1.0000 0.5204887306
O   O22       1.0  0.19299  0.39598  0.23246  1.0000 -0.5613136277
O   O23       1.0  0.12700  0.34256  0.22551  1.0000 -0.4940869744
H   H17       1.0  0.15604  0.49790  0.25160  1.0000 0.1087190456
Cl  Cl9       1.0  0.08882  0.28678  0.16600  1.0000 -0.0102316468
N   N3        1.0  0.07496  0.51749  0.25795  1.0000 -0.2009348879
C   C43       1.0  0.92504  0.48251  0.25795  1.0000 -0.3665538813
Cl  Cl10      1.0  0.09834  0.17169  0.24199  1.0000 0.1087190456
Se  Se9       1.0  0.03738  0.41850  0.24202  1.0000 0.1206984435
C   C44       1.0  0.01076  0.02597  0.27197  1.0000 -0.0962096136
C   C45       1.0  0.98219  0.06792  0.24862  1.0000 -0.1862806638
C   C46       1.0  0.01451  0.11351  0.23720  1.0000 -0.123319686
C   C47       1.0  0.06803  0.10674  0.25173  1.0000 -0.1111488104
Se  Se10      1.0  0.08086  0.04177  0.28097  1.0000 0.2196877384
S   S10       1.0  0.07345  0.04614  0.27756  1.0000 0.1711345268
C   C48       1.0  0.11064  0.14366  0.24610  1.0000 0.1412192682
O   O24       1.0  0.10238  0.18791  0.22629  1.0000 -0.2744342123
O   O25       1.0  0.15589  0.13145  0.26102  1.0000 -0.2599551365
H   H18       1.0  0.94558  0.06628  0.24123  1.0000 0.0871326044
H   H19       1.0  0.00123  0.14476  0.22157  1.0000 0.1003285323
H   H20       1.0  0.07667  0.55428  0.26432  1.0000 0.0820543409
Zr  Zr6       1.0  0.14646  0.74200  0.75994  1.0000 1.9482179841
O   O26       1.0  0.21245  0.69614  0.81175  1.0000 -0.8573600262
C   C49       1.0  0.02700  0.51097  0.74528  1.0000 -0.123319686
C   C50       1.0  0.12107  0.51526  0.74944  1.0000 -0.123319686
C   C51       1.0  0.10869  0.56901  0.75838  1.0000 -0.2174693182
S   S11       1.0  0.04280  0.57408  0.75688  1.0000 0.1472264677
C   C52       1.0  0.14446  0.61205  0.76719  1.0000 0.5204887306
O   O27       1.0  0.19299  0.60402  0.76754  1.0000 -0.5613136277
O   O28       1.0  0.12700  0.65744  0.77449  1.0000 -0.4940869744
H   H21       1.0  0.15604  0.50210  0.74840  1.0000 0.1087190456
Cl  Cl11      1.0  0.08882  0.71322  0.83400  1.0000 -0.0102316468
N   N4        1.0  0.07496  0.48251  0.74205  1.0000 -0.2009348879
C   C53       1.0  0.92504  0.51749  0.74205  1.0000 -0.3665538813
Cl  Cl12      1.0  0.09834  0.82831  0.75801  1.0000 0.1087190456
Se  Se11      1.0  0.03738  0.58150  0.75798  1.0000 0.1206984435
C   C54       1.0  0.01076  0.97403  0.72803  1.0000 -0.0962096136
C   C55       1.0  0.98219  0.93208  0.75138  1.0000 -0.1862806638
C   C56       1.0  0.01451  0.88649  0.76280  1.0000 -0.123319686
C   C57       1.0  0.06803  0.89326  0.74827  1.0000 -0.1111488104
Se  Se12      1.0  0.08086  0.95823  0.71903  1.0000 0.2196877384
S   S12       1.0  0.07345  0.95386  0.72244  1.0000 0.1711345268
C   C58       1.0  0.11064  0.85634  0.75390  1.0000 0.1472264677
O   O29       1.0  0.10238  0.81209  0.77371  1.0000 -0.2744342123
O   O30       1.0  0.15589  0.86855  0.73898  1.0000 -0.2599551365
H   H22       1.0  0.94558  0.93372  0.75877  1.0000 0.0871326044
H   H23       1.0  0.00123  0.85524  0.77843  1.0000 0.1003285323
H   H24       1.0  0.07667  0.44572  0.73568  1.0000 0.0820543409
Zr  Zr7       1.0  0.85354  0.74200  0.24006  1.0000 1.9482179841
O   O31       1.0  0.78755  0.69614  0.18825  1.0000 -0.8573600262
C   C59       1.0  0.97300  0.51097  0.25472  1.0000 -0.0102316468
C   C60       1.0  0.87893  0.51526  0.25056  1.0000 -0.0102316468
C   C61       1.0  0.89131  0.56901  0.24162  1.0000 -0.2468056937
S   S13       1.0  0.95720  0.57408  0.24312  1.0000 0.1412192682
C   C62       1.0  0.85554  0.61205  0.23281  1.0000 0.5204887306
O   O32       1.0  0.80701  0.60402  0.23246  1.0000 -0.5677957719
O   O33       1.0  0.87300  0.65744  0.22551  1.0000 -0.4968976363
H   H25       1.0  0.84396  0.50210  0.25160  1.0000 0.1003285323
Cl  Cl13      1.0  0.91118  0.71322  0.16600  1.0000 -0.0102316468
Cl  Cl14      1.0  0.90166  0.82831  0.24199  1.0000 0.1087190456
Se  Se13      1.0  0.96262  0.58150  0.24202  1.0000 0.1412192682
C   C63       1.0  0.98924  0.97403  0.27197  1.0000 -0.0962096136
C   C64       1.0  0.01781  0.93208  0.24862  1.0000 -0.1862806638
C   C65       1.0  0.98549  0.88649  0.23720  1.0000 -0.123319686
C   C66       1.0  0.93197  0.89326  0.25173  1.0000 -0.1111488104
Se  Se14      1.0  0.91914  0.95823  0.28097  1.0000 0.2196877384
S   S14       1.0  0.92655  0.95386  0.27756  1.0000 0.1711345268
C   C67       1.0  0.88936  0.85634  0.24610  1.0000 0.1472264677
O   O34       1.0  0.89762  0.81209  0.22629  1.0000 -0.2744342123
O   O35       1.0  0.84411  0.86855  0.26102  1.0000 -0.2599551365
H   H26       1.0  0.05442  0.93372  0.24123  1.0000 0.0871326044
H   H27       1.0  0.99877  0.85524  0.22157  1.0000 0.1003285323
H   H28       1.0  0.92333  0.44572  0.26432  1.0000 0.2457219229
Zr  Zr8       1.0  0.85354  0.25800  0.75994  1.0000 1.9482179841
O   O36       1.0  0.78755  0.30386  0.81175  1.0000 -0.8573600262
C   C68       1.0  0.97300  0.48903  0.74528  1.0000 -0.0102316468
C   C69       1.0  0.87893  0.48474  0.74944  1.0000 -0.0102316468
C   C70       1.0  0.89131  0.43099  0.75838  1.0000 -0.2468056937
S   S15       1.0  0.95720  0.42592  0.75688  1.0000 0.1412192682
C   C71       1.0  0.85554  0.38795  0.76719  1.0000 0.5204887306
O   O37       1.0  0.80701  0.39598  0.76754  1.0000 -0.5677957719
O   O38       1.0  0.87300  0.34256  0.77449  1.0000 -0.4968976363
H   H29       1.0  0.84396  0.49790  0.74840  1.0000 0.1003285323
Cl  Cl15      1.0  0.91118  0.28678  0.83400  1.0000 -0.0102316468
Cl  Cl16      1.0  0.90166  0.17169  0.75801  1.0000 0.1087190456
Se  Se15      1.0  0.96262  0.41850  0.75798  1.0000 0.1412192682
C   C72       1.0  0.98924  0.02597  0.72803  1.0000 -0.0962096136
C   C73       1.0  0.01781  0.06792  0.75138  1.0000 -0.1862806638
C   C74       1.0  0.98549  0.11351  0.76280  1.0000 -0.123319686
C   C75       1.0  0.93197  0.10674  0.74827  1.0000 -0.1111488104
Se  Se16      1.0  0.91914  0.04177  0.71903  1.0000 0.2196877384
S   S16       1.0  0.92655  0.04614  0.72244  1.0000 0.1711345268
C   C76       1.0  0.88936  0.14366  0.75390  1.0000 0.1472264677
O   O39       1.0  0.89762  0.18791  0.77371  1.0000 -0.2744342123
O   O40       1.0  0.84411  0.13145  0.73898  1.0000 -0.2599551365
H   H30       1.0  0.05442  0.06628  0.75877  1.0000 0.0871326044
H   H31       1.0  0.99877  0.14476  0.77843  1.0000 0.1003285323
H   H32       1.0  0.92333  0.55428  0.73568  1.0000 0.2457219229
Zr  Zr9       1.0  0.24006  0.14646  0.25800  1.0000 1.9482179841
O   O41       1.0  0.18825  0.21245  0.30386  1.0000 -0.8573600262
C   C77       1.0  0.25472  0.02700  0.48903  1.0000 -0.123319686
C   C78       1.0  0.25056  0.12107  0.48474  1.0000 -0.123319686
C   C79       1.0  0.24162  0.10869  0.43099  1.0000 -0.2174693182
S   S17       1.0  0.24312  0.04280  0.42592  1.0000 0.1472264677
C   C80       1.0  0.23281  0.14446  0.38795  1.0000 0.5204887306
O   O42       1.0  0.23246  0.19299  0.39598  1.0000 -0.5613136277
O   O43       1.0  0.22551  0.12700  0.34256  1.0000 -0.4940869744
H   H33       1.0  0.25160  0.15604  0.49790  1.0000 0.1087190456
Cl  Cl17      1.0  0.16600  0.08882  0.28678  1.0000 -0.0102316468
N   N5        1.0  0.25795  0.07496  0.51749  1.0000 -0.2009348879
C   C81       1.0  0.25795  0.92504  0.48251  1.0000 -0.3665538813
Cl  Cl18      1.0  0.24199  0.09834  0.17169  1.0000 0.1087190456
Se  Se17      1.0  0.24202  0.03738  0.41850  1.0000 0.1206984435
C   C82       1.0  0.27197  0.01076  0.02597  1.0000 -0.0962096136
C   C83       1.0  0.24862  0.98219  0.06792  1.0000 -0.1862806638
C   C84       1.0  0.23720  0.01451  0.11351  1.0000 -0.123319686
C   C85       1.0  0.25173  0.06803  0.10674  1.0000 -0.1111488104
Se  Se18      1.0  0.28097  0.08086  0.04177  1.0000 0.2196877384
S   S18       1.0  0.27756  0.07345  0.04614  1.0000 0.1711345268
C   C86       1.0  0.24610  0.11064  0.14366  1.0000 0.1412192682
O   O44       1.0  0.22629  0.10238  0.18791  1.0000 -0.2744342123
O   O45       1.0  0.26102  0.15589  0.13145  1.0000 -0.2599551365
H   H34       1.0  0.24123  0.94558  0.06628  1.0000 0.0871326044
H   H35       1.0  0.22157  0.00123  0.14476  1.0000 0.1003285323
H   H36       1.0  0.26432  0.07667  0.55428  1.0000 0.0820543409
Zr  Zr10      1.0  0.75994  0.14646  0.74200  1.0000 1.9482179841
O   O46       1.0  0.81175  0.21245  0.69614  1.0000 -0.8573600262
C   C87       1.0  0.74528  0.02700  0.51097  1.0000 -0.123319686
C   C88       1.0  0.74944  0.12107  0.51526  1.0000 -0.123319686
C   C89       1.0  0.75838  0.10869  0.56901  1.0000 -0.2174693182
S   S19       1.0  0.75688  0.04280  0.57408  1.0000 0.1472264677
C   C90       1.0  0.76719  0.14446  0.61205  1.0000 0.5204887306
O   O47       1.0  0.76754  0.19299  0.60402  1.0000 -0.5613136277
O   O48       1.0  0.77449  0.12700  0.65744  1.0000 -0.4940869744
H   H37       1.0  0.74840  0.15604  0.50210  1.0000 0.1087190456
Cl  Cl19      1.0  0.83400  0.08882  0.71322  1.0000 -0.0038963094
N   N6        1.0  0.74205  0.07496  0.48251  1.0000 -0.2009348879
C   C91       1.0  0.74205  0.92504  0.51749  1.0000 -0.3665538813
Cl  Cl20      1.0  0.75801  0.09834  0.82831  1.0000 0.1003285323
Se  Se19      1.0  0.75798  0.03738  0.58150  1.0000 0.1206984435
C   C92       1.0  0.72803  0.01076  0.97403  1.0000 -0.0962096136
C   C93       1.0  0.75138  0.98219  0.93208  1.0000 -0.1862806638
C   C94       1.0  0.76280  0.01451  0.88649  1.0000 -0.123319686
C   C95       1.0  0.74827  0.06803  0.89326  1.0000 -0.1111488104
Se  Se20      1.0  0.71903  0.08086  0.95823  1.0000 0.2196877384
S   S20       1.0  0.72244  0.07345  0.95386  1.0000 0.1711345268
C   C96       1.0  0.75390  0.11064  0.85634  1.0000 0.1472264677
O   O49       1.0  0.77371  0.10238  0.81209  1.0000 -0.2744342123
O   O50       1.0  0.73898  0.15589  0.86855  1.0000 -0.2599551365
H   H38       1.0  0.75877  0.94558  0.93372  1.0000 0.0871326044
H   H39       1.0  0.77843  0.00123  0.85524  1.0000 0.1003285323
H   H40       1.0  0.73568  0.07667  0.44572  1.0000 0.0820543409
Zr  Zr11      1.0  0.24006  0.85354  0.74200  1.0000 1.9482179841
O   O51       1.0  0.18825  0.78755  0.69614  1.0000 -0.8573600262
C   C97       1.0  0.25472  0.97300  0.51097  1.0000 -0.0102316468
C   C98       1.0  0.25056  0.87893  0.51526  1.0000 -0.0102316468
C   C99       1.0  0.24162  0.89131  0.56901  1.0000 -0.2468056937
S   S21       1.0  0.24312  0.95720  0.57408  1.0000 0.1412192682
C   C100      1.0  0.23281  0.85554  0.61205  1.0000 0.5204887306
O   O52       1.0  0.23246  0.80701  0.60402  1.0000 -0.5677957719
O   O53       1.0  0.22551  0.87300  0.65744  1.0000 -0.4968976363
H   H41       1.0  0.25160  0.84396  0.50210  1.0000 0.1003285323
Cl  Cl21      1.0  0.16600  0.91118  0.71322  1.0000 -0.0102316468
Cl  Cl22      1.0  0.24199  0.90166  0.82831  1.0000 0.1087190456
Se  Se21      1.0  0.24202  0.96262  0.58150  1.0000 0.1412192682
C   C101      1.0  0.27197  0.98924  0.97403  1.0000 -0.0962096136
C   C102      1.0  0.24862  0.01781  0.93208  1.0000 -0.1862806638
C   C103      1.0  0.23720  0.98549  0.88649  1.0000 -0.123319686
C   C104      1.0  0.25173  0.93197  0.89326  1.0000 -0.1111488104
Se  Se22      1.0  0.28097  0.91914  0.95823  1.0000 0.2196877384
S   S22       1.0  0.27756  0.92655  0.95386  1.0000 0.1711345268
C   C105      1.0  0.24610  0.88936  0.85634  1.0000 0.1472264677
O   O54       1.0  0.22629  0.89762  0.81209  1.0000 -0.2744342123
O   O55       1.0  0.26102  0.84411  0.86855  1.0000 -0.2599551365
H   H42       1.0  0.24123  0.05442  0.93372  1.0000 0.0871326044
H   H43       1.0  0.22157  0.99877  0.85524  1.0000 0.1003285323
H   H44       1.0  0.26432  0.92333  0.44572  1.0000 0.2457219229
Zr  Zr12      1.0  0.75994  0.85354  0.25800  1.0000 1.9482179841
O   O56       1.0  0.81175  0.78755  0.30386  1.0000 -0.8573600262
C   C106      1.0  0.74528  0.97300  0.48903  1.0000 -0.0102316468
C   C107      1.0  0.74944  0.87893  0.48474  1.0000 -0.0102316468
C   C108      1.0  0.75838  0.89131  0.43099  1.0000 -0.2468056937
S   S23       1.0  0.75688  0.95720  0.42592  1.0000 0.1412192682
C   C109      1.0  0.76719  0.85554  0.38795  1.0000 0.5204887306
O   O57       1.0  0.76754  0.80701  0.39598  1.0000 -0.5677957719
O   O58       1.0  0.77449  0.87300  0.34256  1.0000 -0.4968976363
H   H45       1.0  0.74840  0.84396  0.49790  1.0000 0.1003285323
Cl  Cl23      1.0  0.83400  0.91118  0.28678  1.0000 -0.0102316468
Cl  Cl24      1.0  0.75801  0.90166  0.17169  1.0000 0.1087190456
Se  Se23      1.0  0.75798  0.96262  0.41850  1.0000 0.1412192682
C   C110      1.0  0.72803  0.98924  0.02597  1.0000 -0.0962096136
C   C111      1.0  0.75138  0.01781  0.06792  1.0000 -0.1862806638
C   C112      1.0  0.76280  0.98549  0.11351  1.0000 -0.1257137343
C   C113      1.0  0.74827  0.93197  0.10674  1.0000 -0.1111488104
Se  Se24      1.0  0.71903  0.91914  0.04177  1.0000 0.2196877384
S   S24       1.0  0.72244  0.92655  0.04614  1.0000 0.1711345268
C   C114      1.0  0.75390  0.88936  0.14366  1.0000 0.1472264677
O   O59       1.0  0.77371  0.89762  0.18791  1.0000 -0.2744342123
O   O60       1.0  0.73898  0.84411  0.13145  1.0000 -0.2599551365
H   H46       1.0  0.75877  0.05442  0.06628  1.0000 0.0871326044
H   H47       1.0  0.77843  0.99877  0.14476  1.0000 0.1003285323
H   H48       1.0  0.73568  0.92333  0.55428  1.0000 0.2457219229
Zr  Zr13      1.0  0.24200  0.25994  0.35354  1.0000 1.9482179841
O   O61       1.0  0.19614  0.31175  0.28755  1.0000 -0.8573600262
C   C115      1.0  0.01097  0.24528  0.47300  1.0000 -0.123319686
C   C116      1.0  0.01526  0.24944  0.37893  1.0000 -0.123319686
C   C117      1.0  0.06901  0.25838  0.39131  1.0000 -0.2174693182
S   S25       1.0  0.07408  0.25688  0.45720  1.0000 0.1472264677
C   C118      1.0  0.11205  0.26719  0.35554  1.0000 0.5204887306
O   O62       1.0  0.10402  0.26754  0.30701  1.0000 -0.5613136277
O   O63       1.0  0.15744  0.27449  0.37300  1.0000 -0.4940869744
H   H49       1.0  0.00210  0.24840  0.34396  1.0000 0.1087190456
Cl  Cl25      1.0  0.21322  0.33400  0.41118  1.0000 -0.0102316468
N   N7        1.0  0.98251  0.24205  0.42504  1.0000 -0.2009348879
C   C119      1.0  0.01749  0.24205  0.57496  1.0000 -0.3665538813
Cl  Cl26      1.0  0.32831  0.25801  0.40166  1.0000 0.1087190456
Se  Se25      1.0  0.08150  0.25798  0.46262  1.0000 0.1206984435
C   C120      1.0  0.47403  0.22803  0.48924  1.0000 -0.0962096136
C   C121      1.0  0.43208  0.25138  0.51781  1.0000 -0.1862806638
C   C122      1.0  0.38649  0.26280  0.48549  1.0000 -0.123319686
C   C123      1.0  0.39326  0.24827  0.43197  1.0000 -0.1111488104
Se  Se26      1.0  0.45823  0.21903  0.41914  1.0000 0.2196877384
S   S26       1.0  0.45386  0.22244  0.42655  1.0000 0.1711345268
C   C124      1.0  0.35634  0.25390  0.38936  1.0000 0.1412192682
O   O64       1.0  0.31209  0.27371  0.39762  1.0000 -0.2744342123
O   O65       1.0  0.36855  0.23898  0.34411  1.0000 -0.2599551365
H   H50       1.0  0.43372  0.25877  0.55442  1.0000 0.0871326044
H   H51       1.0  0.35524  0.27843  0.49878  1.0000 0.1003285323
H   H52       1.0  0.94572  0.23568  0.42333  1.0000 0.0820543409
Zr  Zr14      1.0  0.75800  0.74006  0.35354  1.0000 1.9482179841
O   O66       1.0  0.80386  0.68825  0.28755  1.0000 -0.8573600262
C   C125      1.0  0.98903  0.75472  0.47300  1.0000 -0.123319686
C   C126      1.0  0.98474  0.75056  0.37893  1.0000 -0.123319686
C   C127      1.0  0.93099  0.74162  0.39131  1.0000 -0.2174693182
S   S27       1.0  0.92592  0.74312  0.45720  1.0000 0.1472264677
C   C128      1.0  0.88795  0.73281  0.35554  1.0000 0.5204887306
O   O67       1.0  0.89598  0.73246  0.30701  1.0000 -0.5613136277
O   O68       1.0  0.84256  0.72551  0.37300  1.0000 -0.4940869744
H   H53       1.0  0.99790  0.75160  0.34396  1.0000 0.1087190456
Cl  Cl27      1.0  0.78678  0.66600  0.41118  1.0000 -0.0102316468
N   N8        1.0  0.01749  0.75795  0.42504  1.0000 -0.2009348879
C   C129      1.0  0.98251  0.75795  0.57496  1.0000 -0.3665538813
Cl  Cl28      1.0  0.67169  0.74199  0.40166  1.0000 0.1087190456
Se  Se27      1.0  0.91850  0.74202  0.46262  1.0000 0.1206984435
C   C130      1.0  0.52597  0.77197  0.48924  1.0000 -0.0962096136
C   C131      1.0  0.56792  0.74862  0.51781  1.0000 -0.1862806638
C   C132      1.0  0.61351  0.73720  0.48549  1.0000 -0.123319686
C   C133      1.0  0.60674  0.75173  0.43197  1.0000 -0.1111488104
Se  Se28      1.0  0.54177  0.78097  0.41914  1.0000 0.2196877384
S   S28       1.0  0.54614  0.77756  0.42655  1.0000 0.1711345268
C   C134      1.0  0.64366  0.74610  0.38936  1.0000 0.1472264677
O   O69       1.0  0.68791  0.72629  0.39762  1.0000 -0.2744342123
O   O70       1.0  0.63145  0.76102  0.34411  1.0000 -0.2599551365
H   H54       1.0  0.56628  0.74123  0.55442  1.0000 0.0871326044
H   H55       1.0  0.64476  0.72157  0.49878  1.0000 0.1003285323
H   H56       1.0  0.05428  0.76432  0.42333  1.0000 0.0820543409
Zr  Zr15      1.0  0.75800  0.25994  0.64646  1.0000 1.9482179841
O   O71       1.0  0.80386  0.31175  0.71245  1.0000 -0.8573600262
C   C135      1.0  0.98903  0.24528  0.52700  1.0000 -0.0102316468
C   C136      1.0  0.98474  0.24944  0.62107  1.0000 -0.0102316468
C   C137      1.0  0.93099  0.25838  0.60869  1.0000 -0.2468056937
S   S29       1.0  0.92592  0.25688  0.54280  1.0000 0.1412192682
C   C138      1.0  0.88795  0.26719  0.64446  1.0000 0.5204887306
O   O72       1.0  0.89598  0.26754  0.69299  1.0000 -0.5677957719
O   O73       1.0  0.84256  0.27449  0.62700  1.0000 -0.4968976363
H   H57       1.0  0.99790  0.24840  0.65604  1.0000 0.1003285323
Cl  Cl29      1.0  0.78678  0.33400  0.58882  1.0000 -0.0102316468
Cl  Cl30      1.0  0.67169  0.25801  0.59834  1.0000 0.1087190456
Se  Se29      1.0  0.91850  0.25798  0.53738  1.0000 0.1412192682
C   C139      1.0  0.52597  0.22803  0.51076  1.0000 -0.0962096136
C   C140      1.0  0.56792  0.25138  0.48219  1.0000 -0.1862806638
C   C141      1.0  0.61351  0.26280  0.51451  1.0000 -0.123319686
C   C142      1.0  0.60674  0.24827  0.56803  1.0000 -0.1111488104
Se  Se30      1.0  0.54177  0.21903  0.58086  1.0000 0.2196877384
S   S30       1.0  0.54614  0.22244  0.57345  1.0000 0.1711345268
C   C143      1.0  0.64366  0.25390  0.61064  1.0000 0.1472264677
O   O74       1.0  0.68791  0.27371  0.60238  1.0000 -0.2744342123
O   O75       1.0  0.63145  0.23898  0.65589  1.0000 -0.2599551365
H   H58       1.0  0.56628  0.25877  0.44558  1.0000 0.0871326044
H   H59       1.0  0.64476  0.27843  0.50123  1.0000 0.1003285323
H   H60       1.0  0.05428  0.23568  0.57667  1.0000 0.2457219229
Zr  Zr16      1.0  0.24200  0.74006  0.64646  1.0000 1.9449636951
O   O76       1.0  0.19614  0.68825  0.71245  1.0000 -0.8573600262
C   C144      1.0  0.01097  0.75472  0.52700  1.0000 -0.0102316468
C   C145      1.0  0.01526  0.75056  0.62107  1.0000 -0.0102316468
C   C146      1.0  0.06901  0.74162  0.60869  1.0000 -0.2468056937
S   S31       1.0  0.07408  0.74312  0.54280  1.0000 0.1412192682
C   C147      1.0  0.11205  0.73281  0.64446  1.0000 0.5204887306
O   O77       1.0  0.10402  0.73246  0.69299  1.0000 -0.5677957719
O   O78       1.0  0.15744  0.72551  0.62700  1.0000 -0.4968976363
H   H61       1.0  0.00210  0.75160  0.65604  1.0000 0.1003285323
Cl  Cl31      1.0  0.21322  0.66600  0.58882  1.0000 -0.0102316468
Cl  Cl32      1.0  0.32831  0.74199  0.59834  1.0000 0.1087190456
Se  Se31      1.0  0.08150  0.74202  0.53738  1.0000 0.1412192682
C   C148      1.0  0.47403  0.77197  0.51076  1.0000 -0.0962096136
C   C149      1.0  0.43208  0.74862  0.48219  1.0000 -0.1862806638
C   C150      1.0  0.38649  0.73720  0.51451  1.0000 -0.123319686
C   C151      1.0  0.39326  0.75173  0.56803  1.0000 -0.1111488104
Se  Se32      1.0  0.45823  0.78097  0.58086  1.0000 0.2196877384
S   S32       1.0  0.45386  0.77756  0.57345  1.0000 0.1711345268
C   C152      1.0  0.35634  0.74610  0.61064  1.0000 0.1472264677
O   O79       1.0  0.31209  0.72629  0.60238  1.0000 -0.2744342123
O   O80       1.0  0.36855  0.76102  0.65589  1.0000 -0.2599551365
H   H62       1.0  0.43372  0.74123  0.44558  1.0000 0.0871326044
H   H63       1.0  0.35524  0.72157  0.50123  1.0000 0.1003285323
H   H64       1.0  0.94572  0.76432  0.57667  1.0000 0.2457219229
Zr  Zr17      1.0  0.35354  0.24200  0.25994  1.0000 1.9482179841
O   O81       1.0  0.28755  0.19614  0.31175  1.0000 -0.8573600262
C   C153      1.0  0.47300  0.01097  0.24528  1.0000 -0.123319686
C   C154      1.0  0.37893  0.01526  0.24944  1.0000 -0.123319686
C   C155      1.0  0.39131  0.06901  0.25838  1.0000 -0.2174693182
S   S33       1.0  0.45720  0.07408  0.25688  1.0000 0.1472264677
C   C156      1.0  0.35554  0.11205  0.26719  1.0000 0.5204887306
O   O82       1.0  0.30701  0.10402  0.26754  1.0000 -0.5613136277
O   O83       1.0  0.37300  0.15744  0.27449  1.0000 -0.4940869744
H   H65       1.0  0.34396  0.00210  0.24840  1.0000 0.1087190456
Cl  Cl33      1.0  0.41118  0.21322  0.33400  1.0000 -0.0102316468
N   N9        1.0  0.42504  0.98251  0.24205  1.0000 -0.2009348879
C   C157      1.0  0.57496  0.01749  0.24205  1.0000 -0.3665538813
Cl  Cl34      1.0  0.40166  0.32831  0.25801  1.0000 0.1087190456
Se  Se33      1.0  0.46262  0.08150  0.25798  1.0000 0.1206984435
C   C158      1.0  0.48924  0.47403  0.22803  1.0000 -0.0962096136
C   C159      1.0  0.51781  0.43208  0.25138  1.0000 -0.1862806638
C   C160      1.0  0.48549  0.38649  0.26280  1.0000 -0.123319686
C   C161      1.0  0.43197  0.39326  0.24827  1.0000 -0.1111488104
Se  Se34      1.0  0.41914  0.45823  0.21903  1.0000 0.2196877384
S   S34       1.0  0.42655  0.45386  0.22244  1.0000 0.1711345268
C   C162      1.0  0.38936  0.35634  0.25390  1.0000 0.1412192682
O   O84       1.0  0.39762  0.31209  0.27371  1.0000 -0.2744342123
O   O85       1.0  0.34411  0.36855  0.23898  1.0000 -0.2599551365
H   H66       1.0  0.55442  0.43372  0.25877  1.0000 0.0871326044
H   H67       1.0  0.49878  0.35524  0.27843  1.0000 0.1003285323
H   H68       1.0  0.42333  0.94572  0.23568  1.0000 0.0820543409
Zr  Zr18      1.0  0.35354  0.75800  0.74006  1.0000 1.9482179841
O   O86       1.0  0.28755  0.80386  0.68825  1.0000 -0.8573600262
C   C163      1.0  0.47300  0.98903  0.75472  1.0000 -0.123319686
C   C164      1.0  0.37893  0.98474  0.75056  1.0000 -0.123319686
C   C165      1.0  0.39131  0.93099  0.74162  1.0000 -0.2174693182
S   S35       1.0  0.45720  0.92592  0.74312  1.0000 0.1472264677
C   C166      1.0  0.35554  0.88795  0.73281  1.0000 0.5204887306
O   O87       1.0  0.30701  0.89598  0.73246  1.0000 -0.5613136277
O   O88       1.0  0.37300  0.84256  0.72551  1.0000 -0.4940869744
H   H69       1.0  0.34396  0.99790  0.75160  1.0000 0.1087190456
Cl  Cl35      1.0  0.41118  0.78678  0.66600  1.0000 -0.0102316468
N   N10       1.0  0.42504  0.01749  0.75795  1.0000 -0.2009348879
C   C167      1.0  0.57496  0.98251  0.75795  1.0000 -0.3665538813
Cl  Cl36      1.0  0.40166  0.67169  0.74199  1.0000 0.1087190456
Se  Se35      1.0  0.46262  0.91850  0.74202  1.0000 0.1206984435
C   C168      1.0  0.48924  0.52597  0.77197  1.0000 -0.0962096136
C   C169      1.0  0.51781  0.56792  0.74862  1.0000 -0.1862806638
C   C170      1.0  0.48549  0.61351  0.73720  1.0000 -0.123319686
C   C171      1.0  0.43197  0.60674  0.75173  1.0000 -0.1111488104
Se  Se36      1.0  0.41914  0.54177  0.78097  1.0000 0.2196877384
S   S36       1.0  0.42655  0.54614  0.77756  1.0000 0.1711345268
C   C172      1.0  0.38936  0.64366  0.74610  1.0000 0.1472264677
O   O89       1.0  0.39762  0.68791  0.72629  1.0000 -0.2744342123
O   O90       1.0  0.34411  0.63145  0.76102  1.0000 -0.2599551365
H   H70       1.0  0.55442  0.56628  0.74123  1.0000 0.0871326044
H   H71       1.0  0.49878  0.64476  0.72157  1.0000 0.1003285323
H   H72       1.0  0.42333  0.05428  0.76432  1.0000 0.0820543409
Zr  Zr19      1.0  0.64646  0.75800  0.25994  1.0000 1.9482179841
O   O91       1.0  0.71245  0.80386  0.31175  1.0000 -0.8573600262
C   C173      1.0  0.52700  0.98903  0.24528  1.0000 -0.0102316468
C   C174      1.0  0.62107  0.98474  0.24944  1.0000 -0.0102316468
C   C175      1.0  0.60869  0.93099  0.25838  1.0000 -0.2468056937
S   S37       1.0  0.54280  0.92592  0.25688  1.0000 0.1412192682
C   C176      1.0  0.64446  0.88795  0.26719  1.0000 0.5204887306
O   O92       1.0  0.69299  0.89598  0.26754  1.0000 -0.5677957719
O   O93       1.0  0.62700  0.84256  0.27449  1.0000 -0.4968976363
H   H73       1.0  0.65604  0.99790  0.24840  1.0000 0.1003285323
Cl  Cl37      1.0  0.58882  0.78678  0.33400  1.0000 -0.0102316468
Cl  Cl38      1.0  0.59834  0.67169  0.25801  1.0000 0.1087190456
Se  Se37      1.0  0.53738  0.91850  0.25798  1.0000 0.1412192682
C   C177      1.0  0.51076  0.52597  0.22803  1.0000 -0.0962096136
C   C178      1.0  0.48219  0.56792  0.25138  1.0000 -0.1862806638
C   C179      1.0  0.51451  0.61351  0.26280  1.0000 -0.123319686
C   C180      1.0  0.56803  0.60674  0.24827  1.0000 -0.1111488104
Se  Se38      1.0  0.58086  0.54177  0.21903  1.0000 0.2196877384
S   S38       1.0  0.57345  0.54614  0.22244  1.0000 0.1711345268
C   C181      1.0  0.61064  0.64366  0.25390  1.0000 0.1472264677
O   O94       1.0  0.60238  0.68791  0.27371  1.0000 -0.2744342123
O   O95       1.0  0.65589  0.63145  0.23898  1.0000 -0.2599551365
H   H74       1.0  0.44558  0.56628  0.25877  1.0000 0.0871326044
H   H75       1.0  0.50123  0.64476  0.27843  1.0000 0.1003285323
H   H76       1.0  0.57667  0.05428  0.23568  1.0000 0.2457219229
Zr  Zr20      1.0  0.64646  0.24200  0.74006  1.0000 1.9482179841
O   O96       1.0  0.71245  0.19614  0.68825  1.0000 -0.8573600262
C   C182      1.0  0.52700  0.01097  0.75472  1.0000 -0.0102316468
C   C183      1.0  0.62107  0.01526  0.75056  1.0000 -0.0102316468
C   C184      1.0  0.60869  0.06901  0.74162  1.0000 -0.2468056937
S   S39       1.0  0.54280  0.07408  0.74312  1.0000 0.1412192682
C   C185      1.0  0.64446  0.11205  0.73281  1.0000 0.5204887306
O   O97       1.0  0.69299  0.10402  0.73246  1.0000 -0.5677957719
O   O98       1.0  0.62700  0.15744  0.72551  1.0000 -0.4968976363
H   H77       1.0  0.65604  0.00210  0.75160  1.0000 0.1003285323
Cl  Cl39      1.0  0.58882  0.21322  0.66600  1.0000 -0.0102316468
Cl  Cl40      1.0  0.59834  0.32831  0.74199  1.0000 0.1087190456
Se  Se39      1.0  0.53738  0.08150  0.74202  1.0000 0.1412192682
C   C186      1.0  0.51076  0.47403  0.77197  1.0000 -0.0962096136
C   C187      1.0  0.48219  0.43208  0.74862  1.0000 -0.1862806638
C   C188      1.0  0.51451  0.38649  0.73720  1.0000 -0.123319686
C   C189      1.0  0.56803  0.39326  0.75173  1.0000 -0.1111488104
Se  Se40      1.0  0.58086  0.45823  0.78097  1.0000 0.2196877384
S   S40       1.0  0.57345  0.45386  0.77756  1.0000 0.1711345268
C   C190      1.0  0.61064  0.35634  0.74610  1.0000 0.1472264677
O   O99       1.0  0.60238  0.31209  0.72629  1.0000 -0.2744342123
O   O100      1.0  0.65589  0.36855  0.76102  1.0000 -0.2599551365
H   H78       1.0  0.44558  0.43372  0.74123  1.0000 0.0871326044
H   H79       1.0  0.50123  0.35524  0.72157  1.0000 0.1003285323
H   H80       1.0  0.57667  0.94572  0.76432  1.0000 0.2457219229
Zr  Zr21      1.0  0.25994  0.35354  0.24200  1.0000 1.9482179841
O   O101      1.0  0.31175  0.28755  0.19614  1.0000 -0.8573600262
C   C191      1.0  0.24528  0.47300  0.01097  1.0000 -0.123319686
C   C192      1.0  0.24944  0.37893  0.01526  1.0000 -0.123319686
C   C193      1.0  0.25838  0.39131  0.06901  1.0000 -0.2174693182
S   S41       1.0  0.25688  0.45720  0.07408  1.0000 0.1472264677
C   C194      1.0  0.26719  0.35554  0.11205  1.0000 0.5204887306
O   O102      1.0  0.26754  0.30701  0.10402  1.0000 -0.5613136277
O   O103      1.0  0.27449  0.37300  0.15744  1.0000 -0.4940869744
H   H81       1.0  0.24840  0.34396  0.00210  1.0000 0.1087190456
Cl  Cl41      1.0  0.33400  0.41118  0.21322  1.0000 -0.0102316468
N   N11       1.0  0.24205  0.42504  0.98251  1.0000 -0.2009348879
C   C195      1.0  0.24205  0.57496  0.01749  1.0000 -0.3665538813
Cl  Cl42      1.0  0.25801  0.40166  0.32831  1.0000 0.1087190456
Se  Se41      1.0  0.25798  0.46262  0.08150  1.0000 0.1206984435
C   C196      1.0  0.22803  0.48924  0.47403  1.0000 -0.0962096136
C   C197      1.0  0.25138  0.51781  0.43208  1.0000 -0.1862806638
C   C198      1.0  0.26280  0.48549  0.38649  1.0000 -0.123319686
C   C199      1.0  0.24827  0.43197  0.39326  1.0000 -0.1111488104
Se  Se42      1.0  0.21903  0.41914  0.45823  1.0000 0.2196877384
S   S42       1.0  0.22244  0.42655  0.45386  1.0000 0.1711345268
C   C200      1.0  0.25390  0.38936  0.35634  1.0000 0.1412192682
O   O104      1.0  0.27371  0.39762  0.31209  1.0000 -0.2744342123
O   O105      1.0  0.23898  0.34411  0.36855  1.0000 -0.2599551365
H   H82       1.0  0.25877  0.55442  0.43372  1.0000 0.0871326044
H   H83       1.0  0.27843  0.49878  0.35524  1.0000 0.1003285323
H   H84       1.0  0.23568  0.42333  0.94572  1.0000 0.0820543409
Zr  Zr22      1.0  0.74006  0.35354  0.75800  1.0000 1.9482179841
O   O106      1.0  0.68825  0.28755  0.80386  1.0000 -0.8573600262
C   C201      1.0  0.75472  0.47300  0.98903  1.0000 -0.123319686
C   C202      1.0  0.75056  0.37893  0.98474  1.0000 -0.123319686
C   C203      1.0  0.74162  0.39131  0.93099  1.0000 -0.2174693182
S   S43       1.0  0.74312  0.45720  0.92592  1.0000 0.1472264677
C   C204      1.0  0.73281  0.35554  0.88795  1.0000 0.5204887306
O   O107      1.0  0.73246  0.30701  0.89598  1.0000 -0.5613136277
O   O108      1.0  0.72551  0.37300  0.84256  1.0000 -0.4940869744
H   H85       1.0  0.75160  0.34396  0.99790  1.0000 0.1087190456
Cl  Cl43      1.0  0.66600  0.41118  0.78678  1.0000 -0.0038963094
N   N12       1.0  0.75795  0.42504  0.01749  1.0000 -0.2009348879
C   C205      1.0  0.75795  0.57496  0.98251  1.0000 -0.3665538813
Cl  Cl44      1.0  0.74199  0.40166  0.67169  1.0000 0.1087190456
Se  Se43      1.0  0.74202  0.46262  0.91850  1.0000 0.1206984435
C   C206      1.0  0.77197  0.48924  0.52597  1.0000 -0.0962096136
C   C207      1.0  0.74862  0.51781  0.56792  1.0000 -0.1862806638
C   C208      1.0  0.73720  0.48549  0.61351  1.0000 -0.123319686
C   C209      1.0  0.75173  0.43197  0.60674  1.0000 -0.1111488104
Se  Se44      1.0  0.78097  0.41914  0.54177  1.0000 0.2196877384
S   S44       1.0  0.77756  0.42655  0.54614  1.0000 0.1711345268
C   C210      1.0  0.74610  0.38936  0.64366  1.0000 0.1472264677
O   O109      1.0  0.72629  0.39762  0.68791  1.0000 -0.2744342123
O   O110      1.0  0.76102  0.34411  0.63145  1.0000 -0.2599551365
H   H86       1.0  0.74123  0.55442  0.56628  1.0000 0.0871326044
H   H87       1.0  0.72157  0.49878  0.64476  1.0000 0.1003285323
H   H88       1.0  0.76432  0.42333  0.05428  1.0000 0.0820543409
Zr  Zr23      1.0  0.25994  0.64646  0.75800  1.0000 1.9482179841
O   O111      1.0  0.31175  0.71245  0.80386  1.0000 -0.8573600262
C   C211      1.0  0.24528  0.52700  0.98903  1.0000 -0.0102316468
C   C212      1.0  0.24944  0.62107  0.98474  1.0000 -0.0102316468
C   C213      1.0  0.25838  0.60869  0.93099  1.0000 -0.2468056937
S   S45       1.0  0.25688  0.54280  0.92592  1.0000 0.1412192682
C   C214      1.0  0.26719  0.64446  0.88795  1.0000 0.5204887306
O   O112      1.0  0.26754  0.69299  0.89598  1.0000 -0.5677957719
O   O113      1.0  0.27449  0.62700  0.84256  1.0000 -0.4968976363
H   H89       1.0  0.24840  0.65604  0.99790  1.0000 0.1003285323
Cl  Cl45      1.0  0.33400  0.58882  0.78678  1.0000 -0.0102316468
Cl  Cl46      1.0  0.25801  0.59834  0.67169  1.0000 0.1087190456
Se  Se45      1.0  0.25798  0.53738  0.91850  1.0000 0.1412192682
C   C215      1.0  0.22803  0.51076  0.52597  1.0000 -0.0962096136
C   C216      1.0  0.25138  0.48219  0.56792  1.0000 -0.1862806638
C   C217      1.0  0.26280  0.51451  0.61351  1.0000 -0.123319686
C   C218      1.0  0.24827  0.56803  0.60674  1.0000 -0.1111488104
Se  Se46      1.0  0.21903  0.58086  0.54177  1.0000 0.2196877384
S   S46       1.0  0.22244  0.57345  0.54614  1.0000 0.1711345268
C   C219      1.0  0.25390  0.61064  0.64366  1.0000 0.1472264677
O   O114      1.0  0.27371  0.60238  0.68791  1.0000 -0.2744342123
O   O115      1.0  0.23898  0.65589  0.63145  1.0000 -0.2599551365
H   H90       1.0  0.25877  0.44558  0.56628  1.0000 0.0871326044
H   H91       1.0  0.27843  0.50123  0.64476  1.0000 0.1003285323
H   H92       1.0  0.23568  0.57667  0.05428  1.0000 0.2457219229
Zr  Zr24      1.0  0.74006  0.64646  0.24200  1.0000 1.9482179841
O   O116      1.0  0.68825  0.71245  0.19614  1.0000 -0.8573600262
C   C220      1.0  0.75472  0.52700  0.01097  1.0000 -0.0102316468
C   C221      1.0  0.75056  0.62107  0.01526  1.0000 -0.0102316468
C   C222      1.0  0.74162  0.60869  0.06901  1.0000 -0.2468056937
S   S47       1.0  0.74312  0.54280  0.07408  1.0000 0.1412192682
C   C223      1.0  0.73281  0.64446  0.11205  1.0000 0.5204887306
O   O117      1.0  0.73246  0.69299  0.10402  1.0000 -0.5677957719
O   O118      1.0  0.72551  0.62700  0.15744  1.0000 -0.4968976363
H   H93       1.0  0.75160  0.65604  0.00210  1.0000 0.1003285323
Cl  Cl47      1.0  0.66600  0.58882  0.21322  1.0000 -0.0102316468
Cl  Cl48      1.0  0.74199  0.59834  0.32831  1.0000 0.1087190456
Se  Se47      1.0  0.74202  0.53738  0.08150  1.0000 0.1412192682
C   C224      1.0  0.77197  0.51076  0.47403  1.0000 -0.0962096136
C   C225      1.0  0.74862  0.48219  0.43208  1.0000 -0.1862806638
C   C226      1.0  0.73720  0.51451  0.38649  1.0000 -0.123319686
C   C227      1.0  0.75173  0.56803  0.39326  1.0000 -0.1111488104
Se  Se48      1.0  0.78097  0.58086  0.45823  1.0000 0.2196877384
S   S48       1.0  0.77756  0.57345  0.45386  1.0000 0.1711345268
C   C228      1.0  0.74610  0.61064  0.35634  1.0000 0.1472264677
O   O119      1.0  0.72629  0.60238  0.31209  1.0000 -0.2744342123
O   O120      1.0  0.76102  0.65589  0.36855  1.0000 -0.2599551365
H   H94       1.0  0.74123  0.44558  0.43372  1.0000 0.0871326044
H   H95       1.0  0.72157  0.50123  0.35524  1.0000 0.1003285323
H   H96       1.0  0.76432  0.57667  0.94572  1.0000 0.2457219229
O   O121      1.0  0.20212  0.20212  0.20212  1.0000 -0.9590042665
H   H97       1.0  0.18050  0.18050  0.18050  1.0000 0.3097597227
O   O122      1.0  0.79788  0.79788  0.20212  1.0000 -0.9590042665
H   H98       1.0  0.81950  0.81950  0.18050  1.0000 0.3097597227
O   O123      1.0  0.79788  0.20212  0.79788  1.0000 -0.9590042665
H   H99       1.0  0.81950  0.18050  0.81950  1.0000 0.3097597227
O   O124      1.0  0.20212  0.79788  0.79788  1.0000 -0.9590042665
H   H100      1.0  0.18050  0.81950  0.81950  1.0000 0.3097597227
O   O125      1.0  0.29788  0.29788  0.29788  1.0000 -0.9590042665
H   H101      1.0  0.31950  0.31950  0.31950  1.0000 0.3097597227
O   O126      1.0  0.70212  0.70212  0.29788  1.0000 -0.9590042665
H   H102      1.0  0.68050  0.68050  0.31950  1.0000 0.3097597227
O   O127      1.0  0.70212  0.29788  0.70212  1.0000 -0.9590042665
H   H103      1.0  0.68050  0.31950  0.68050  1.0000 0.3097597227
O   O128      1.0  0.29788  0.70212  0.70212  1.0000 -0.9590042665
H   H104      1.0  0.31950  0.68050  0.68050  1.0000 0.3097597227
  C   C229      1.0  0.51749  0.25795  0.07496  1.0000
  N   N13       1.0  0.48251  0.25795  0.92504  1.0000
  C   C230      1.0  0.48251  0.74205  0.07496  1.0000
  N   N14       1.0  0.51749  0.74205  0.92504  1.0000
  C   C231      1.0  0.07496  0.51749  0.25795  1.0000
  N   N15       1.0  0.92504  0.48251  0.25795  1.0000
  C   C232      1.0  0.07496  0.48251  0.74205  1.0000
  N   N16       1.0  0.92504  0.51749  0.74205  1.0000
  C   C233      1.0  0.25795  0.07496  0.51749  1.0000
  N   N17       1.0  0.25795  0.92504  0.48251  1.0000
  C   C234      1.0  0.74205  0.07496  0.48251  1.0000
  N   N18       1.0  0.74205  0.92504  0.51749  1.0000
  C   C235      1.0  0.98251  0.24205  0.42504  1.0000
  N   N19       1.0  0.01749  0.24205  0.57496  1.0000
  C   C236      1.0  0.01749  0.75795  0.42504  1.0000
  N   N20       1.0  0.98251  0.75795  0.57496  1.0000
  C   C237      1.0  0.42504  0.98251  0.24205  1.0000
  N   N21       1.0  0.57496  0.01749  0.24205  1.0000
  C   C238      1.0  0.42504  0.01749  0.75795  1.0000
  N   N22       1.0  0.57496  0.98251  0.75795  1.0000
  C   C239      1.0  0.24205  0.42504  0.98251  1.0000
  N   N23       1.0  0.24205  0.57496  0.01749  1.0000
  C   C240      1.0  0.75795  0.42504  0.01749  1.0000
  N   N24       1.0  0.75795  0.57496  0.98251  1.0000
