# DDEC6 charges by PACMAN v1.1 (https://github.com/mtap-research/PACMAN-charge/)
data_ZADREE_ASR_pacman
_symmetry_space_group_name_H-M   'P 1'
_cell_length_a   14.10880000
_cell_length_b   14.10880000
_cell_length_c   14.10880000
_cell_angle_alpha   119.54100000
_cell_angle_beta   119.54100000
_cell_angle_gamma   90.79680000
_symmetry_Int_Tables_number   1
_chemical_formula_structural   Cu4H40C56N24ClO16
_chemical_formula_sum   'Cu4 H40 C56 N24 Cl1 O16'
_cell_volume   1999.45970256
_cell_formula_units_Z   1
loop_
 _symmetry_equiv_pos_site_id
 _symmetry_equiv_pos_as_xyz
  1  'x, y, z'
loop_
 _atom_site_type_symbol
 _atom_site_label
 _atom_site_symmetry_multiplicity
 _atom_site_fract_x
 _atom_site_fract_y
 _atom_site_fract_z
 _atom_site_occupancy
 _atom_site_charge
Cu  Cu1  1  0.00000000  0.17997000  0.17997000  1.0 0.2305061127
Cu  Cu2  1  0.17997000  0.00000000  0.17997000  1.0 0.2305061127
Cu  Cu3  1  0.00000000  0.82003000  0.82003000  1.0 0.2305061127
Cu  Cu4  1  0.82003000  0.00000000  0.82003000  1.0 0.2305061127
H  H1  1  0.21610000  0.41220000  0.36170000  1.0 0.063024491
H  H2  1  0.41220000  0.05050000  0.19610000  1.0 0.063024491
H  H3  1  0.78390000  0.14560000  0.19610000  1.0 0.063024491
H  H4  1  0.05050000  0.85440000  0.63830000  1.0 0.063024491
H  H5  1  0.58780000  0.78390000  0.63830000  1.0 0.063024491
H  H6  1  0.14560000  0.94950000  0.36170000  1.0 0.063024491
H  H7  1  0.85440000  0.21610000  0.80390000  1.0 0.063024491
H  H8  1  0.94950000  0.58780000  0.80390000  1.0 0.063024491
H  H9  1  0.78390000  0.58780000  0.63830000  1.0 0.063024491
H  H10  1  0.58780000  0.94950000  0.80390000  1.0 0.063024491
H  H11  1  0.21610000  0.85440000  0.80390000  1.0 0.063024491
H  H12  1  0.94950000  0.14560000  0.36170000  1.0 0.063024491
H  H13  1  0.41220000  0.21610000  0.36170000  1.0 0.063024491
H  H14  1  0.85440000  0.05050000  0.63830000  1.0 0.063024491
H  H15  1  0.14560000  0.78390000  0.19610000  1.0 0.063024491
H  H16  1  0.05050000  0.41220000  0.19610000  1.0 0.063024491
H  H17  1  0.39630000  0.60370000  0.50000000  1.0 0.1044046263
H  H18  1  0.60370000  0.10370000  0.20740000  1.0 0.1044046263
H  H19  1  0.10370000  0.89630000  0.50000000  1.0 0.1044046263
H  H20  1  0.89630000  0.39630000  0.79260000  1.0 0.1044046263
H  H21  1  0.60370000  0.39630000  0.50000000  1.0 0.1044046263
H  H22  1  0.39630000  0.89630000  0.79260000  1.0 0.1044046263
H  H23  1  0.89630000  0.10370000  0.50000000  1.0 0.1044046263
H  H24  1  0.10370000  0.60370000  0.20740000  1.0 0.1044046263
H  H25  1  0.27510000  0.47160000  0.39730000  1.0 0.0474088751
H  H26  1  0.47160000  0.07430000  0.19650000  1.0 0.0474088751
H  H27  1  0.72490000  0.12220000  0.19650000  1.0 0.0474088751
H  H28  1  0.07430000  0.87780000  0.60270000  1.0 0.0474088751
H  H29  1  0.52840000  0.72490000  0.60270000  1.0 0.0474088751
H  H30  1  0.12220000  0.92570000  0.39730000  1.0 0.0474088751
H  H31  1  0.87780000  0.27510000  0.80350000  1.0 0.0474088751
H  H32  1  0.92570000  0.52840000  0.80350000  1.0 0.0474088751
H  H33  1  0.72490000  0.52840000  0.60270000  1.0 0.0474088751
H  H34  1  0.52840000  0.92570000  0.80350000  1.0 0.0474088751
H  H35  1  0.27510000  0.87780000  0.80350000  1.0 0.0474088751
H  H36  1  0.92570000  0.12220000  0.39730000  1.0 0.0474088751
H  H37  1  0.47160000  0.27510000  0.39730000  1.0 0.0474088751
H  H38  1  0.87780000  0.07430000  0.60270000  1.0 0.0474088751
H  H39  1  0.12220000  0.72490000  0.19650000  1.0 0.0474088751
H  H40  1  0.07430000  0.47160000  0.19650000  1.0 0.0474088751
C  C1  1  0.24160000  0.34910000  0.34670000  1.0 0.0740934362
C  C2  1  0.34910000  0.00240000  0.10750000  1.0 0.0740934362
C  C3  1  0.75840000  0.10510000  0.10750000  1.0 0.0750645268
C  C4  1  0.00240000  0.89490000  0.65330000  1.0 0.0740934362
C  C5  1  0.65090000  0.75840000  0.65330000  1.0 0.0740934362
C  C6  1  0.10510000  0.99760000  0.34670000  1.0 0.0740934362
C  C7  1  0.89490000  0.24160000  0.89250000  1.0 0.0740934362
C  C8  1  0.99760000  0.65090000  0.89250000  1.0 0.0740934362
C  C9  1  0.75840000  0.65090000  0.65330000  1.0 0.0740934362
C  C10  1  0.65090000  0.99760000  0.89250000  1.0 0.0740934362
C  C11  1  0.24160000  0.89490000  0.89250000  1.0 0.0740934362
C  C12  1  0.99760000  0.10510000  0.34670000  1.0 0.0750645268
C  C13  1  0.34910000  0.24160000  0.34670000  1.0 0.0740934362
C  C14  1  0.89490000  0.00240000  0.65330000  1.0 0.0740934362
C  C15  1  0.10510000  0.75840000  0.10750000  1.0 0.0750645268
C  C16  1  0.00240000  0.34910000  0.10750000  1.0 0.0750645268
C  C17  1  0.45220000  0.45220000  0.46720000  1.0 0.0449821967
C  C18  1  0.45220000  0.98500000  0.00000000  1.0 0.0449821967
C  C19  1  0.54780000  0.01500000  0.00000000  1.0 0.0474088751
C  C20  1  0.98500000  0.98500000  0.53280000  1.0 0.0449821967
C  C21  1  0.54780000  0.54780000  0.53280000  1.0 0.0449821967
C  C22  1  0.01500000  0.01500000  0.46720000  1.0 0.0449821967
C  C23  1  0.98500000  0.45220000  0.00000000  1.0 0.0474088751
C  C24  1  0.01500000  0.54780000  0.00000000  1.0 0.0474088751
C  C25  1  0.44260000  0.55740000  0.50000000  1.0 -0.1374434923
C  C26  1  0.55740000  0.05740000  0.11480000  1.0 -0.1374434923
C  C27  1  0.05740000  0.94260000  0.50000000  1.0 -0.1374434923
C  C28  1  0.94260000  0.44260000  0.88520000  1.0 -0.1374434923
C  C29  1  0.55740000  0.44260000  0.50000000  1.0 -0.1374434923
C  C30  1  0.44260000  0.94260000  0.88520000  1.0 -0.1374434923
C  C31  1  0.94260000  0.05740000  0.50000000  1.0 -0.1374434923
C  C32  1  0.05740000  0.55740000  0.11480000  1.0 -0.1374434923
C  C33  1  0.25580000  0.25580000  0.31600000  1.0 0.2149866018
C  C34  1  0.25580000  0.93980000  0.00000000  1.0 0.2166888657
C  C35  1  0.74420000  0.06020000  0.00000000  1.0 0.2149866018
C  C36  1  0.93980000  0.93980000  0.68400000  1.0 0.2166888657
C  C37  1  0.74420000  0.74420000  0.68400000  1.0 0.2149866018
C  C38  1  0.06020000  0.06020000  0.31600000  1.0 0.2149866018
C  C39  1  0.93980000  0.25580000  0.00000000  1.0 0.2149866018
C  C40  1  0.06020000  0.74420000  0.00000000  1.0 0.2149866018
C  C41  1  0.34750000  0.46310000  0.42620000  1.0 -0.0638240977
C  C42  1  0.46310000  0.03690000  0.11560000  1.0 -0.0638240977
C  C43  1  0.65250000  0.07870000  0.11560000  1.0 -0.0638240977
C  C44  1  0.03690000  0.92130000  0.57380000  1.0 -0.0638240977
C  C45  1  0.53690000  0.65250000  0.57380000  1.0 -0.0638240977
C  C46  1  0.07870000  0.96310000  0.42620000  1.0 -0.0638240977
C  C47  1  0.92130000  0.34750000  0.88440000  1.0 -0.0638240977
C  C48  1  0.96310000  0.53690000  0.88440000  1.0 -0.0638240977
C  C49  1  0.65250000  0.53690000  0.57380000  1.0 -0.0638240977
C  C50  1  0.53690000  0.96310000  0.88440000  1.0 -0.0638240977
C  C51  1  0.34750000  0.92130000  0.88440000  1.0 -0.0638240977
C  C52  1  0.96310000  0.07870000  0.42620000  1.0 -0.0638240977
C  C53  1  0.46310000  0.34750000  0.42620000  1.0 -0.0638240977
C  C54  1  0.92130000  0.03690000  0.57380000  1.0 -0.0638240977
C  C55  1  0.07870000  0.65250000  0.11560000  1.0 -0.0638240977
C  C56  1  0.03690000  0.46310000  0.11560000  1.0 -0.0638240977
N  N1  1  0.17310000  0.24120000  0.27810000  1.0 -0.1198498818
N  N2  1  0.24120000  0.96310000  0.06810000  1.0 -0.1198498818
N  N3  1  0.82690000  0.10500000  0.06810000  1.0 -0.1198498818
N  N4  1  0.96310000  0.89500000  0.72190000  1.0 -0.1198498818
N  N5  1  0.75880000  0.82690000  0.72190000  1.0 -0.1198498818
N  N6  1  0.10500000  0.03690000  0.27810000  1.0 -0.1198498818
N  N7  1  0.89500000  0.17310000  0.93190000  1.0 -0.1198498818
N  N8  1  0.03690000  0.75880000  0.93190000  1.0 -0.1198498818
N  N9  1  0.82690000  0.75880000  0.72190000  1.0 -0.1198498818
N  N10  1  0.75880000  0.03690000  0.93190000  1.0 -0.1198498818
N  N11  1  0.17310000  0.89500000  0.93190000  1.0 -0.1198498818
N  N12  1  0.03690000  0.10500000  0.27810000  1.0 -0.1198498818
N  N13  1  0.24120000  0.17310000  0.27810000  1.0 -0.1198498818
N  N14  1  0.89500000  0.96310000  0.72190000  1.0 -0.1198498818
N  N15  1  0.10500000  0.82690000  0.06810000  1.0 -0.1198498818
N  N16  1  0.96310000  0.24120000  0.06810000  1.0 -0.1198498818
N  N17  1  0.35590000  0.35590000  0.39320000  1.0 -0.0638240977
N  N18  1  0.35590000  0.96270000  0.00000000  1.0 -0.0665253839
N  N19  1  0.64410000  0.03730000  0.00000000  1.0 -0.0665253839
N  N20  1  0.96270000  0.96270000  0.60680000  1.0 -0.0665253839
N  N21  1  0.64410000  0.64410000  0.60680000  1.0 -0.0638240977
N  N22  1  0.03730000  0.03730000  0.39320000  1.0 -0.0638240977
N  N23  1  0.96270000  0.35590000  0.00000000  1.0 -0.0665253839
N  N24  1  0.03730000  0.64410000  0.00000000  1.0 -0.0638240977
Cl  Cl1  1  0.00000000  0.00000000  0.00000000  1.0 -0.3784453776
O  O1  1  0.16300000  0.27290000  0.28750000  1.0 -0.1198498818
O  O2  1  0.27290000  0.98540000  0.10990000  1.0 -0.1124551087
O  O3  1  0.83700000  0.12450000  0.10990000  1.0 -0.1124551087
O  O4  1  0.98540000  0.87550000  0.71250000  1.0 -0.1198498818
O  O5  1  0.72710000  0.83700000  0.71250000  1.0 -0.1198498818
O  O6  1  0.12450000  0.01460000  0.28750000  1.0 -0.1198498818
O  O7  1  0.87550000  0.16300000  0.89010000  1.0 -0.1198498818
O  O8  1  0.01460000  0.72710000  0.89010000  1.0 -0.1198498818
O  O9  1  0.83700000  0.72710000  0.71250000  1.0 -0.1198498818
O  O10  1  0.72710000  0.01460000  0.89010000  1.0 -0.1124551087
O  O11  1  0.16300000  0.87550000  0.89010000  1.0 -0.1124551087
O  O12  1  0.01460000  0.12450000  0.28750000  1.0 -0.1198498818
O  O13  1  0.27290000  0.16300000  0.28750000  1.0 -0.1124551087
O  O14  1  0.87550000  0.98540000  0.71250000  1.0 -0.1198498818
O  O15  1  0.12450000  0.83700000  0.10990000  1.0 -0.1124551087
O  O16  1  0.98540000  0.27290000  0.10990000  1.0 -0.1124551087
