# DDEC6 charges by PACMAN v1.1 (https://github.com/mtap-research/PACMAN-charge/)
data_ZAKROV_FSR_pacman
_symmetry_space_group_name_H-M   'P 1'
_cell_length_a   16.24100000
_cell_length_b   16.86800000
_cell_length_c   26.29000000
_cell_angle_alpha   89.45700000
_cell_angle_beta   72.01000000
_cell_angle_gamma   88.24300000
_symmetry_Int_Tables_number   1
_chemical_formula_structural   Cu8H137C160(N3O10)4
_chemical_formula_sum   'Cu16 H274 C320 N24 O80'
_cell_volume   6846.89489204
_cell_formula_units_Z   2
loop_
 _symmetry_equiv_pos_site_id
 _symmetry_equiv_pos_as_xyz
  1  'x, y, z'
loop_
 _atom_site_type_symbol
 _atom_site_label
 _atom_site_symmetry_multiplicity
 _atom_site_fract_x
 _atom_site_fract_y
 _atom_site_fract_z
 _atom_site_occupancy
 _atom_site_charge
Cu  Cu1  1  0.56860000  0.55220000  0.99960000  1.0 0.5698300636
Cu  Cu2  1  0.45800000  0.49380000  0.11850000  1.0 0.6958004153
Cu  Cu3  1  0.08970000  0.96720000  0.99990000  1.0 0.5754397428
Cu  Cu4  1  0.93520000  0.98480000  0.11910000  1.0 0.554660908
Cu  Cu5  1  0.53210000  0.58250000  0.00010000  1.0 0.5698300636
Cu  Cu6  1  0.42320000  0.50640000  0.11890000  1.0 0.6735412991
Cu  Cu7  1  0.05640000  0.93110000  0.00030000  1.0 0.5297894097
Cu  Cu8  1  0.94590000  0.01660000  0.12030000  1.0 0.54218804
Cu  Cu9  1  0.43140000  0.44780000  0.00040000  1.0 0.5698300636
Cu  Cu10  1  0.54200000  0.50620000  0.88150000  1.0 0.6958004153
Cu  Cu11  1  0.91030000  0.03280000  0.00010000  1.0 0.5698300636
Cu  Cu12  1  0.06480000  0.01520000  0.88090000  1.0 0.554660908
Cu  Cu13  1  0.46790000  0.41750000  0.99990000  1.0 0.5698300636
Cu  Cu14  1  0.57680000  0.49360000  0.88110000  1.0 0.6735412991
Cu  Cu15  1  0.94360000  0.06890000  0.99970000  1.0 0.5297894097
Cu  Cu16  1  0.05410000  0.98340000  0.87970000  1.0 0.54218804
H  H1  1  0.62770000  0.71260000  0.11010000  1.0 0.1300655549
H  H2  1  0.55020000  0.76190000  0.10070000  1.0 0.1300655549
H  H3  1  0.62110000  0.85830000  0.12570000  1.0 0.1196875013
H  H4  1  0.48630000  0.77350000  0.27040000  1.0 0.138877239
H  H5  1  0.66570000  0.96850000  0.16600000  1.0 0.1107014612
H  H6  1  0.11910000  0.46870000  0.17780000  1.0 0.1107014612
H  H7  1  0.09270000  0.56840000  0.32080000  1.0 0.1300655549
H  H8  1  0.60320000  0.98170000  0.25760000  1.0 0.1196875013
H  H9  1  0.11560000  0.34370000  0.22330000  1.0 0.100816511
H  H10  1  0.64090000  0.85240000  0.33440000  1.0 0.1107014612
H  H11  1  0.58220000  0.77820000  0.34490000  1.0 0.1196875013
H  H12  1  0.57330000  0.83950000  0.39090000  1.0 0.100816511
H  H13  1  0.04890000  0.34210000  0.31450000  1.0 0.0904874075
H  H14  1  0.36830000  0.90160000  0.31330000  1.0 0.2785158462
H  H15  1  0.42760000  0.77340000  0.42280000  1.0 0.1196875013
H  H16  1  0.43710000  0.02310000  0.31910000  1.0 0.2684323555
H  H17  1  0.59460000  0.96770000  0.40160000  1.0 0.1300655549
H  H18  1  0.12080000  0.38860000  0.39840000  1.0 0.0904874075
H  H19  1  0.07780000  0.44470000  0.44720000  1.0 0.0904874075
H  H20  1  0.14010000  0.47930000  0.39420000  1.0 0.1107014612
H  H21  1  0.27850000  0.74860000  0.42450000  1.0 0.1300655549
H  H22  1  0.54970000  0.11430000  0.41320000  1.0 0.1300655549
H  H23  1  0.89840000  0.55180000  0.36790000  1.0 0.2785158462
H  H24  1  0.04330000  0.57870000  0.46010000  1.0 0.100816511
H  H25  1  0.87120000  0.42160000  0.37220000  1.0 0.2177722371
H  H26  1  0.98700000  0.33050000  0.46870000  1.0 0.0714857286
H  H27  1  0.94560000  0.70090000  0.46550000  1.0 0.1107014612
H  H28  1  0.86650000  0.24460000  0.46670000  1.0 0.1300655549
H  H29  1  0.11040000  0.74790000  0.35440000  1.0 0.1107014612
H  H30  1  0.11410000  0.77150000  0.41120000  1.0 0.100816511
H  H31  1  0.18320000  0.71130000  0.37590000  1.0 0.1107014612
H  H32  1  0.53860000  0.24140000  0.36530000  1.0 0.1107014612
H  H33  1  0.45690000  0.23050000  0.41530000  1.0 0.100816511
H  H34  1  0.45310000  0.29100000  0.37040000  1.0 0.1196875013
H  H35  1  0.24490000  0.97570000  0.32020000  1.0 0.2785158462
H  H36  1  0.03770000  0.88720000  0.41490000  1.0 0.138877239
H  H37  1  0.32460000  0.73700000  0.28240000  1.0 0.1196875013
H  H38  1  0.13690000  0.87860000  0.27800000  1.0 0.1300655549
H  H39  1  0.31950000  0.10000000  0.31370000  1.0 0.2785158462
H  H40  1  0.29140000  0.25230000  0.42700000  1.0 0.1300655549
H  H41  1  0.38820000  0.26400000  0.28040000  1.0 0.1300655549
H  H42  1  0.58680000  0.11900000  0.27510000  1.0 0.1300655549
H  H43  1  0.81600000  0.82750000  0.40360000  1.0 0.0793397939
H  H44  1  0.90090000  0.80060000  0.41610000  1.0 0.1107014612
H  H45  1  0.81030000  0.78350000  0.45730000  1.0 0.0904874075
H  H46  1  0.70310000  0.18400000  0.40490000  1.0 0.0904874075
H  H47  1  0.71090000  0.21650000  0.45890000  1.0 0.1107014612
H  H48  1  0.79160000  0.17600000  0.41720000  1.0 0.0904874075
H  H49  1  0.00770000  0.03620000  0.39730000  1.0 0.138877239
H  H50  1  0.37450000  0.71920000  0.18610000  1.0 0.1107014612
H  H51  1  0.14490000  0.22390000  0.42390000  1.0 0.1196875013
H  H52  1  0.44250000  0.28470000  0.18800000  1.0 0.1196875013
H  H53  1  0.76240000  0.58520000  0.36120000  1.0 0.2517620838
H  H54  1  0.67190000  0.75730000  0.46480000  1.0 0.100816511
H  H55  1  0.99830000  0.69190000  0.32240000  1.0 0.1196875013
H  H56  1  0.76230000  0.75620000  0.32240000  1.0 0.100816511
H  H57  1  0.73920000  0.44730000  0.37080000  1.0 0.2122566567
H  H58  1  0.59100000  0.30150000  0.46720000  1.0 0.100816511
H  H59  1  0.67050000  0.28800000  0.32960000  1.0 0.1107014612
H  H60  1  0.92160000  0.25330000  0.31850000  1.0 0.0793397939
H  H61  1  0.27300000  0.76430000  0.14540000  1.0 0.1107014612
H  H62  1  0.57570000  0.23870000  0.14410000  1.0 0.1107014612
H  H63  1  0.56300000  0.69630000  0.43280000  1.0 0.1107014612
H  H64  1  0.05150000  0.72360000  0.23410000  1.0 0.0793397939
H  H65  1  0.50620000  0.42860000  0.46950000  1.0 0.0904874075
H  H66  1  0.71000000  0.28340000  0.23850000  1.0 0.0904874075
H  H67  1  0.07070000  0.22070000  0.33820000  1.0 0.1107014612
H  H68  1  0.04740000  0.17790000  0.39380000  1.0 0.100816511
H  H69  1  0.01880000  0.14220000  0.34730000  1.0 0.1107014612
H  H70  1  0.16890000  0.80910000  0.11470000  1.0 0.100816511
H  H71  1  0.22410000  0.88580000  0.10730000  1.0 0.1196875013
H  H72  1  0.71880000  0.19370000  0.11390000  1.0 0.100816511
H  H73  1  0.66970000  0.11810000  0.10540000  1.0 0.1196875013
H  H74  1  0.96070000  0.76610000  0.18620000  1.0 0.0714857286
H  H75  1  0.85480000  0.24330000  0.18620000  1.0 0.0607232691
H  H76  1  0.13290000  0.01820000  0.25750000  1.0 0.1196875013
H  H77  1  0.23460000  0.22760000  0.27040000  1.0 0.1300655549
H  H78  1  0.48250000  0.61180000  0.39530000  1.0 0.0904874075
H  H79  1  0.47480000  0.55370000  0.44330000  1.0 0.0714857286
H  H80  1  0.46730000  0.52150000  0.38920000  1.0 0.1107014612
H  H81  1  0.75670000  0.76930000  0.15800000  1.0 0.0607232691
H  H82  1  0.84480000  0.72660000  0.15560000  1.0 0.0793397939
H  H83  1  0.07960000  0.24490000  0.15580000  1.0 0.0607232691
H  H84  1  0.98700000  0.27450000  0.15640000  1.0 0.0714857286
H  H85  1  0.17270000  0.03100000  0.16330000  1.0 0.100816511
H  H86  1  0.65530000  0.66080000  0.31110000  1.0 0.1196875013
H  H87  1  0.58980000  0.43590000  0.31900000  1.0 0.1196875013
H  H88  1  0.25610000  0.14230000  0.12430000  1.0 0.1107014612
H  H89  1  0.68980000  0.65600000  0.22010000  1.0 0.1107014612
H  H90  1  0.26200000  0.28360000  0.10920000  1.0 0.1107014612
H  H91  1  0.34920000  0.23510000  0.10110000  1.0 0.1196875013
H  H92  1  0.67320000  0.54480000  0.17580000  1.0 0.1196875013
H  H93  1  0.67230000  0.33640000  0.15320000  1.0 0.1196875013
H  H94  1  0.71410000  0.41960000  0.14330000  1.0 0.1107014612
H  H95  1  0.91670000  0.56020000  0.35780000  1.0 0.2785158462
H  H96  1  0.87710000  0.40220000  0.35670000  1.0 0.2122566567
H  H97  1  0.72240000  0.44250000  0.35730000  1.0 0.2122566567
H  H98  1  0.95390000  0.68080000  0.47270000  1.0 0.1196875013
H  H99  1  0.03450000  0.54800000  0.46660000  1.0 0.0793397939
H  H100  1  0.99210000  0.30360000  0.45050000  1.0 0.100816511
H  H101  1  0.84240000  0.25300000  0.47310000  1.0 0.1300655549
H  H102  1  0.57040000  0.31830000  0.46840000  1.0 0.1196875013
H  H103  1  0.48700000  0.43920000  0.45360000  1.0 0.0714857286
H  H104  1  0.57550000  0.65800000  0.47520000  1.0 0.1300655549
H  H105  1  0.58370000  0.71920000  0.42860000  1.0 0.1196875013
H  H106  1  0.68520000  0.74710000  0.48070000  1.0 0.0793397939
H  H107  1  0.80810000  0.81730000  0.43220000  1.0 0.0793397939
H  H108  1  0.90930000  0.80730000  0.41550000  1.0 0.1107014612
H  H109  1  0.85170000  0.76730000  0.46800000  1.0 0.0793397939
H  H110  1  0.11820000  0.37060000  0.38550000  1.0 0.1107014612
H  H111  1  0.07830000  0.42150000  0.43760000  1.0 0.0904874075
H  H112  1  0.13860000  0.46110000  0.38550000  1.0 0.1196875013
H  H113  1  0.66450000  0.20110000  0.42180000  1.0 0.0793397939
H  H114  1  0.70340000  0.22790000  0.46650000  1.0 0.100816511
H  H115  1  0.76020000  0.17620000  0.41830000  1.0 0.0793397939
H  H116  1  0.48770000  0.62240000  0.37830000  1.0 0.1107014612
H  H117  1  0.48540000  0.60350000  0.43740000  1.0 0.0714857286
H  H118  1  0.46510000  0.53700000  0.40200000  1.0 0.0904874075
H  H119  1  0.02150000  0.33890000  0.30660000  1.0 0.0714857286
H  H120  1  0.08070000  0.34200000  0.21510000  1.0 0.0607232691
H  H121  1  0.17470000  0.44750000  0.17490000  1.0 0.1107014612
H  H122  1  0.08430000  0.55960000  0.31560000  1.0 0.1300655549
H  H123  1  0.01170000  0.69880000  0.32460000  1.0 0.1107014612
H  H124  1  0.05520000  0.75420000  0.24130000  1.0 0.0793397939
H  H125  1  0.95410000  0.79100000  0.19900000  1.0 0.100816511
H  H126  1  0.77090000  0.76900000  0.34130000  1.0 0.0904874075
H  H127  1  0.72430000  0.81760000  0.19360000  1.0 0.0904874075
H  H128  1  0.80260000  0.75660000  0.18210000  1.0 0.100816511
H  H129  1  0.66910000  0.30930000  0.31820000  1.0 0.1107014612
H  H130  1  0.70990000  0.25430000  0.23500000  1.0 0.0904874075
H  H131  1  0.85020000  0.20620000  0.19630000  1.0 0.0904874075
H  H132  1  0.88980000  0.23420000  0.33830000  1.0 0.0904874075
H  H133  1  0.07920000  0.19280000  0.18950000  1.0 0.0904874075
H  H134  1  0.00200000  0.24210000  0.18000000  1.0 0.100816511
H  H135  1  0.66610000  0.33820000  0.16290000  1.0 0.138877239
H  H136  1  0.70400000  0.42350000  0.15860000  1.0 0.1300655549
H  H137  1  0.58120000  0.64060000  0.47650000  1.0 0.1196875013
H  H138  1  0.37230000  0.28740000  0.88990000  1.0 0.1300655549
H  H139  1  0.44980000  0.23810000  0.89930000  1.0 0.1300655549
H  H140  1  0.37890000  0.14170000  0.87430000  1.0 0.1196875013
H  H141  1  0.51370000  0.22650000  0.72960000  1.0 0.138877239
H  H142  1  0.33430000  0.03150000  0.83400000  1.0 0.1107014612
H  H143  1  0.88090000  0.53130000  0.82220000  1.0 0.1107014612
H  H144  1  0.90730000  0.43160000  0.67920000  1.0 0.1300655549
H  H145  1  0.39680000  0.01830000  0.74240000  1.0 0.1196875013
H  H146  1  0.88440000  0.65630000  0.77670000  1.0 0.100816511
H  H147  1  0.35910000  0.14760000  0.66560000  1.0 0.1107014612
H  H148  1  0.41780000  0.22180000  0.65510000  1.0 0.1196875013
H  H149  1  0.42670000  0.16050000  0.60910000  1.0 0.100816511
H  H150  1  0.95110000  0.65790000  0.68550000  1.0 0.0904874075
H  H151  1  0.63170000  0.09840000  0.68670000  1.0 0.2785158462
H  H152  1  0.57240000  0.22660000  0.57720000  1.0 0.1196875013
H  H153  1  0.56290000  0.97690000  0.68090000  1.0 0.2684323555
H  H154  1  0.40540000  0.03230000  0.59840000  1.0 0.1300655549
H  H155  1  0.87920000  0.61140000  0.60160000  1.0 0.0904874075
H  H156  1  0.92220000  0.55530000  0.55280000  1.0 0.0904874075
H  H157  1  0.85990000  0.52070000  0.60580000  1.0 0.1107014612
H  H158  1  0.72150000  0.25140000  0.57550000  1.0 0.1300655549
H  H159  1  0.45030000  0.88570000  0.58680000  1.0 0.1300655549
H  H160  1  0.10160000  0.44820000  0.63210000  1.0 0.2785158462
H  H161  1  0.95670000  0.42130000  0.53990000  1.0 0.100816511
H  H162  1  0.12880000  0.57840000  0.62780000  1.0 0.2177722371
H  H163  1  0.01300000  0.66950000  0.53130000  1.0 0.0714857286
H  H164  1  0.05440000  0.29910000  0.53450000  1.0 0.1107014612
H  H165  1  0.13350000  0.75540000  0.53330000  1.0 0.1300655549
H  H166  1  0.88960000  0.25210000  0.64560000  1.0 0.1107014612
H  H167  1  0.88590000  0.22850000  0.58880000  1.0 0.100816511
H  H168  1  0.81680000  0.28870000  0.62410000  1.0 0.1107014612
H  H169  1  0.46140000  0.75860000  0.63470000  1.0 0.1107014612
H  H170  1  0.54310000  0.76950000  0.58470000  1.0 0.100816511
H  H171  1  0.54690000  0.70900000  0.62960000  1.0 0.1196875013
H  H172  1  0.75510000  0.02430000  0.67980000  1.0 0.2785158462
H  H173  1  0.96230000  0.11280000  0.58510000  1.0 0.138877239
H  H174  1  0.67540000  0.26300000  0.71760000  1.0 0.1196875013
H  H175  1  0.86310000  0.12140000  0.72200000  1.0 0.1300655549
H  H176  1  0.68050000  0.90000000  0.68630000  1.0 0.2785158462
H  H177  1  0.70860000  0.74770000  0.57300000  1.0 0.1300655549
H  H178  1  0.61180000  0.73600000  0.71960000  1.0 0.1300655549
H  H179  1  0.41320000  0.88100000  0.72490000  1.0 0.1300655549
H  H180  1  0.18400000  0.17250000  0.59640000  1.0 0.0793397939
H  H181  1  0.09910000  0.19940000  0.58390000  1.0 0.1107014612
H  H182  1  0.18970000  0.21650000  0.54270000  1.0 0.0904874075
H  H183  1  0.29690000  0.81600000  0.59510000  1.0 0.0904874075
H  H184  1  0.28910000  0.78350000  0.54110000  1.0 0.1107014612
H  H185  1  0.20840000  0.82400000  0.58280000  1.0 0.0904874075
H  H186  1  0.99230000  0.96380000  0.60270000  1.0 0.138877239
H  H187  1  0.62550000  0.28080000  0.81390000  1.0 0.1107014612
H  H188  1  0.85510000  0.77610000  0.57610000  1.0 0.1196875013
H  H189  1  0.55750000  0.71530000  0.81200000  1.0 0.1196875013
H  H190  1  0.23760000  0.41480000  0.63880000  1.0 0.2517620838
H  H191  1  0.32810000  0.24270000  0.53520000  1.0 0.100816511
H  H192  1  0.00170000  0.30810000  0.67760000  1.0 0.1196875013
H  H193  1  0.23770000  0.24380000  0.67760000  1.0 0.100816511
H  H194  1  0.26080000  0.55270000  0.62920000  1.0 0.2122566567
H  H195  1  0.40900000  0.69850000  0.53280000  1.0 0.100816511
H  H196  1  0.32950000  0.71200000  0.67040000  1.0 0.1107014612
H  H197  1  0.07840000  0.74670000  0.68150000  1.0 0.0793397939
H  H198  1  0.72700000  0.23570000  0.85460000  1.0 0.1107014612
H  H199  1  0.42430000  0.76130000  0.85590000  1.0 0.1107014612
H  H200  1  0.43700000  0.30370000  0.56720000  1.0 0.1107014612
H  H201  1  0.94850000  0.27640000  0.76590000  1.0 0.0793397939
H  H202  1  0.49380000  0.57140000  0.53050000  1.0 0.0904874075
H  H203  1  0.29000000  0.71660000  0.76150000  1.0 0.0904874075
H  H204  1  0.92930000  0.77930000  0.66180000  1.0 0.1107014612
H  H205  1  0.95260000  0.82210000  0.60620000  1.0 0.100816511
H  H206  1  0.98120000  0.85780000  0.65270000  1.0 0.1107014612
H  H207  1  0.83110000  0.19090000  0.88530000  1.0 0.100816511
H  H208  1  0.77590000  0.11420000  0.89270000  1.0 0.1196875013
H  H209  1  0.28120000  0.80630000  0.88610000  1.0 0.100816511
H  H210  1  0.33030000  0.88190000  0.89460000  1.0 0.1196875013
H  H211  1  0.03930000  0.23390000  0.81380000  1.0 0.0714857286
H  H212  1  0.14520000  0.75670000  0.81380000  1.0 0.0607232691
H  H213  1  0.86710000  0.98180000  0.74250000  1.0 0.1196875013
H  H214  1  0.76540000  0.77240000  0.72960000  1.0 0.1300655549
H  H215  1  0.51750000  0.38820000  0.60470000  1.0 0.0904874075
H  H216  1  0.52520000  0.44630000  0.55670000  1.0 0.0714857286
H  H217  1  0.53270000  0.47850000  0.61080000  1.0 0.1107014612
H  H218  1  0.24330000  0.23070000  0.84200000  1.0 0.0607232691
H  H219  1  0.15520000  0.27340000  0.84440000  1.0 0.0793397939
H  H220  1  0.92040000  0.75510000  0.84420000  1.0 0.0607232691
H  H221  1  0.01300000  0.72550000  0.84360000  1.0 0.0714857286
H  H222  1  0.82730000  0.96900000  0.83670000  1.0 0.100816511
H  H223  1  0.34470000  0.33920000  0.68890000  1.0 0.1196875013
H  H224  1  0.41020000  0.56410000  0.68100000  1.0 0.1196875013
H  H225  1  0.74390000  0.85770000  0.87570000  1.0 0.1107014612
H  H226  1  0.31020000  0.34400000  0.77990000  1.0 0.1107014612
H  H227  1  0.73800000  0.71640000  0.89080000  1.0 0.1107014612
H  H228  1  0.65080000  0.76490000  0.89890000  1.0 0.1196875013
H  H229  1  0.32680000  0.45520000  0.82420000  1.0 0.1196875013
H  H230  1  0.32770000  0.66360000  0.84680000  1.0 0.1196875013
H  H231  1  0.28590000  0.58040000  0.85670000  1.0 0.1107014612
H  H232  1  0.08330000  0.43980000  0.64220000  1.0 0.2785158462
H  H233  1  0.12290000  0.59780000  0.64330000  1.0 0.2122566567
H  H234  1  0.27760000  0.55750000  0.64270000  1.0 0.2122566567
H  H235  1  0.04610000  0.31920000  0.52730000  1.0 0.1196875013
H  H236  1  0.96550000  0.45200000  0.53340000  1.0 0.0793397939
H  H237  1  0.00790000  0.69640000  0.54950000  1.0 0.100816511
H  H238  1  0.15760000  0.74700000  0.52690000  1.0 0.1300655549
H  H239  1  0.42960000  0.68170000  0.53160000  1.0 0.1196875013
H  H240  1  0.51300000  0.56080000  0.54640000  1.0 0.0714857286
H  H241  1  0.42450000  0.34200000  0.52480000  1.0 0.1300655549
H  H242  1  0.41630000  0.28080000  0.57140000  1.0 0.1196875013
H  H243  1  0.31480000  0.25290000  0.51930000  1.0 0.0793397939
H  H244  1  0.19190000  0.18270000  0.56780000  1.0 0.0793397939
H  H245  1  0.09070000  0.19270000  0.58450000  1.0 0.1107014612
H  H246  1  0.14830000  0.23270000  0.53200000  1.0 0.0793397939
H  H247  1  0.88180000  0.62940000  0.61450000  1.0 0.1107014612
H  H248  1  0.92170000  0.57850000  0.56240000  1.0 0.0904874075
H  H249  1  0.86140000  0.53890000  0.61450000  1.0 0.1196875013
H  H250  1  0.33550000  0.79890000  0.57820000  1.0 0.0793397939
H  H251  1  0.29660000  0.77210000  0.53350000  1.0 0.100816511
H  H252  1  0.23980000  0.82380000  0.58170000  1.0 0.0793397939
H  H253  1  0.51230000  0.37760000  0.62170000  1.0 0.1107014612
H  H254  1  0.51460000  0.39650000  0.56260000  1.0 0.0714857286
H  H255  1  0.53490000  0.46300000  0.59800000  1.0 0.0904874075
H  H256  1  0.97850000  0.66110000  0.69340000  1.0 0.0714857286
H  H257  1  0.91930000  0.65800000  0.78490000  1.0 0.0607232691
H  H258  1  0.82530000  0.55250000  0.82510000  1.0 0.1107014612
H  H259  1  0.91570000  0.44040000  0.68440000  1.0 0.1300655549
H  H260  1  0.98830000  0.30120000  0.67540000  1.0 0.1107014612
H  H261  1  0.94480000  0.24580000  0.75870000  1.0 0.0793397939
H  H262  1  0.04590000  0.20900000  0.80100000  1.0 0.100816511
H  H263  1  0.22910000  0.23100000  0.65870000  1.0 0.0904874075
H  H264  1  0.27570000  0.18240000  0.80640000  1.0 0.0904874075
H  H265  1  0.19740000  0.24340000  0.81790000  1.0 0.100816511
H  H266  1  0.33090000  0.69070000  0.68180000  1.0 0.1107014612
H  H267  1  0.29010000  0.74570000  0.76500000  1.0 0.0904874075
H  H268  1  0.14980000  0.79380000  0.80370000  1.0 0.0904874075
H  H269  1  0.11020000  0.76580000  0.66170000  1.0 0.0904874075
H  H270  1  0.92080000  0.80720000  0.81050000  1.0 0.0904874075
H  H271  1  0.99800000  0.75790000  0.82000000  1.0 0.100816511
H  H272  1  0.33390000  0.66180000  0.83710000  1.0 0.138877239
H  H273  1  0.29600000  0.57650000  0.84140000  1.0 0.1300655549
H  H274  1  0.41880000  0.35940000  0.52350000  1.0 0.1196875013
C  C1  1  0.53180000  0.64400000  0.10370000  1.0 0.459008745
C  C2  1  0.56510000  0.71700000  0.11980000  1.0 -0.1693280748
C  C3  1  0.27330000  0.58500000  0.13920000  1.0 0.5190959788
C  C4  1  0.17800000  0.60770000  0.16430000  1.0 -0.1812908342
C  C5  1  0.55810000  0.80170000  0.19360000  1.0 0.2335715757
C  C6  1  0.60500000  0.86220000  0.16280000  1.0 -0.2600740982
C  C7  1  0.52430000  0.80950000  0.24920000  1.0 -0.3135147972
C  C8  1  0.12800000  0.52600000  0.24460000  1.0 0.2335715757
C  C9  1  0.62950000  0.93050000  0.18630000  1.0 -0.0992821603
C  C10  1  0.55230000  0.87660000  0.27060000  1.0 0.0607232691
C  C11  1  0.11700000  0.46400000  0.21340000  1.0 -0.1589011763
C  C12  1  0.09300000  0.52290000  0.30100000  1.0 -0.2693515026
C  C13  1  0.59570000  0.93550000  0.24070000  1.0 -0.1693280748
C  C14  1  0.51660000  0.88030000  0.33560000  1.0 0.0607232691
C  C15  1  0.10200000  0.39100000  0.24190000  1.0 -0.0604797871
C  C16  1  0.06000000  0.45510000  0.32690000  1.0 0.0500921747
C  C17  1  0.42310000  0.84620000  0.35880000  1.0 0.149709127
C  C18  1  0.51960000  0.96320000  0.35240000  1.0 0.1107014612
C  C19  1  0.58450000  0.83330000  0.35300000  1.0 -0.5105251753
C  C20  1  0.06700000  0.39000000  0.29750000  1.0 -0.0692925808
C  C21  1  0.02180000  0.45630000  0.38860000  1.0 0.0204596865
C  C22  1  0.39760000  0.79430000  0.40060000  1.0 -0.29971625
C  C23  1  0.55830000  0.99460000  0.38560000  1.0 -0.1812908342
C  C24  1  0.98400000  0.53720000  0.40790000  1.0 0.100816511
C  C25  1  0.95800000  0.39350000  0.40820000  1.0 -0.0104188844
C  C26  1  0.09680000  0.44090000  0.40890000  1.0 -0.2506110368
C  C27  1  0.28880000  0.82230000  0.36140000  1.0 0.0904874075
C  C28  1  0.31510000  0.78220000  0.40010000  1.0 -0.2008735008
C  C29  1  0.48030000  0.09430000  0.36100000  1.0 0.168243873
C  C30  1  0.53310000  0.07820000  0.39200000  1.0 -0.2506110368
C  C31  1  0.00300000  0.58710000  0.44180000  1.0 -0.0992821603
C  C32  1  0.95200000  0.33660000  0.44650000  1.0 -0.1119761718
C  C33  1  0.20830000  0.82880000  0.34980000  1.0 0.0204596865
C  C34  1  0.44520000  0.17390000  0.34770000  1.0 0.038483556
C  C35  1  0.89800000  0.64960000  0.41050000  1.0 0.0714857286
C  C36  1  0.94700000  0.65700000  0.44400000  1.0 -0.2100135216
C  C37  1  0.84200000  0.31600000  0.40880000  1.0 0.1107014612
C  C38  1  0.88300000  0.28900000  0.44530000  1.0 -0.2008735008
C  C39  1  0.16200000  0.90460000  0.36050000  1.0 0.168243873
C  C40  1  0.14810000  0.75800000  0.37530000  1.0 -0.4864737624
C  C41  1  0.23000000  0.80560000  0.28440000  1.0 0.0607232691
C  C42  1  0.35260000  0.18070000  0.36270000  1.0 0.1107014612
C  C43  1  0.47650000  0.24060000  0.37750000  1.0 -0.5105251753
C  C44  1  0.48390000  0.19410000  0.28430000  1.0 0.0607232691
C  C45  1  0.84170000  0.70870000  0.39330000  1.0 0.0023485238
C  C46  1  0.76710000  0.29030000  0.39480000  1.0 0.0023485238
C  C47  1  0.07620000  0.92180000  0.39260000  1.0 -0.2506110368
C  C48  1  0.29420000  0.76150000  0.26160000  1.0 -0.1500746132
C  C49  1  0.18140000  0.84380000  0.25960000  1.0 -0.2839717501
C  C50  1  0.28180000  0.21860000  0.40170000  1.0 -0.2197077916
C  C51  1  0.44080000  0.24050000  0.26070000  1.0 -0.1500746132
C  C52  1  0.55990000  0.15500000  0.25790000  1.0 -0.29971625
C  C53  1  0.75080000  0.68100000  0.40720000  1.0 0.1300655549
C  C54  1  0.84200000  0.78720000  0.42000000  1.0 -0.2307495622
C  C55  1  0.87500000  0.72400000  0.33300000  1.0 0.038483556
C  C56  1  0.69280000  0.34900000  0.41220000  1.0 0.038483556
C  C57  1  0.74100000  0.20900000  0.42150000  1.0 -0.2386080333
C  C58  1  0.79100000  0.27500000  0.33470000  1.0 0.0204596865
C  C59  1  0.13170000  0.03930000  0.35190000  1.0 0.1107014612
C  C60  1  0.06020000  0.00870000  0.38310000  1.0 -0.1693280748
C  C61  1  0.32360000  0.74680000  0.20430000  1.0 -0.041874391
C  C62  1  0.19990000  0.82950000  0.20130000  1.0 0.2177722371
C  C63  1  0.21500000  0.15490000  0.35870000  1.0 0.138877239
C  C64  1  0.19770000  0.20470000  0.40130000  1.0 -0.2911444588
C  C65  1  0.47400000  0.25450000  0.20580000  1.0 -0.041874391
C  C66  1  0.59650000  0.17370000  0.20020000  1.0 0.1877647406
C  C67  1  0.67610000  0.71300000  0.44340000  1.0 -0.1287237955
C  C68  1  0.96100000  0.71200000  0.30480000  1.0 -0.2100135216
C  C69  1  0.82100000  0.74800000  0.30450000  1.0 -0.0913084009
C  C70  1  0.61200000  0.34600000  0.44620000  1.0 -0.1589011763
C  C71  1  0.72800000  0.28000000  0.31000000  1.0 -0.1693280748
C  C72  1  0.87800000  0.25600000  0.30230000  1.0 -0.0992821603
C  C73  1  0.15240000  0.11930000  0.33620000  1.0 0.0500921747
C  C74  1  0.26510000  0.77960000  0.18050000  1.0 -0.2307495622
C  C75  1  0.55130000  0.22390000  0.17960000  1.0 -0.2197077916
C  C76  1  0.63760000  0.60400000  0.40360000  1.0 0.0904874075
C  C77  1  0.60720000  0.66400000  0.44200000  1.0 -0.2600740982
C  C78  1  0.99230000  0.72900000  0.25120000  1.0 -0.0258008958
C  C79  1  0.85210000  0.76000000  0.24850000  1.0 0.0904874075
C  C80  1  0.61300000  0.46130000  0.40650000  1.0 0.1107014612
C  C81  1  0.56100000  0.41600000  0.44690000  1.0 -0.0992821603
C  C82  1  0.75200000  0.27300000  0.25600000  1.0 -0.0798890346
C  C83  1  0.90100000  0.24200000  0.24770000  1.0 0.0904874075
C  C84  1  0.06340000  0.17010000  0.35580000  1.0 -0.5215047979
C  C85  1  0.17850000  0.12190000  0.27140000  1.0 0.0793397939
C  C86  1  0.16720000  0.86480000  0.12410000  1.0 -0.139301165
C  C87  1  0.70990000  0.13790000  0.12250000  1.0 -0.2008735008
C  C88  1  0.59210000  0.54310000  0.38540000  1.0 0.0301291325
C  C89  1  0.93860000  0.75400000  0.22230000  1.0 -0.0692925808
C  C90  1  0.84100000  0.25100000  0.22300000  1.0 -0.0692925808
C  C91  1  0.16150000  0.06300000  0.24080000  1.0 -0.2100135216
C  C92  1  0.22350000  0.18880000  0.24870000  1.0 -0.3505243519
C  C93  1  0.10060000  0.90950000  0.10440000  1.0 0.4330236084
C  C94  1  0.79100000  0.09340000  0.10550000  1.0 0.4098117119
C  C95  1  0.49530000  0.55900000  0.40510000  1.0 -0.2386080333
C  C96  1  0.62280000  0.54990000  0.32320000  1.0 0.0301291325
C  C97  1  0.80900000  0.77430000  0.16750000  1.0 -0.1171241846
C  C98  1  0.01900000  0.23130000  0.16700000  1.0 -0.139301165
C  C99  1  0.18670000  0.06910000  0.18430000  1.0 -0.1119761718
C  C100  1  0.25230000  0.19760000  0.19210000  1.0 0.2335715757
C  C101  1  0.64960000  0.61370000  0.29450000  1.0 -0.3135147972
C  C102  1  0.61190000  0.48030000  0.29860000  1.0 -0.3986204797
C  C103  1  0.85800000  0.84500000  0.13840000  1.0 0.2684323555
C  C104  1  0.00900000  0.15670000  0.13840000  1.0 0.2684323555
C  C105  1  0.23530000  0.13790000  0.16130000  1.0 -0.2506110368
C  C106  1  0.66900000  0.61070000  0.23980000  1.0 -0.1812908342
C  C107  1  0.63480000  0.47760000  0.24230000  1.0 0.2177722371
C  C108  1  0.31460000  0.28030000  0.11930000  1.0 -0.1693280748
C  C109  1  0.65930000  0.54500000  0.21300000  1.0 -0.2506110368
C  C110  1  0.36370000  0.35370000  0.10270000  1.0 0.4937235034
C  C111  1  0.66100000  0.39200000  0.16150000  1.0 -0.2307495622
C  C112  1  0.59090000  0.42200000  0.13830000  1.0 0.453534416
C  C113  1  0.85200000  0.70820000  0.40080000  1.0 0.0101119826
C  C114  1  0.90800000  0.64400000  0.41290000  1.0 0.1196875013
C  C115  1  0.95400000  0.64000000  0.44900000  1.0 -0.1589011763
C  C116  1  0.00100000  0.56500000  0.44550000  1.0 -0.1500746132
C  C117  1  0.98600000  0.52580000  0.40520000  1.0 0.038483556
C  C118  1  0.01800000  0.44460000  0.38280000  1.0 0.0101119826
C  C119  1  0.95100000  0.38500000  0.40320000  1.0 0.0793397939
C  C120  1  0.94800000  0.32200000  0.43700000  1.0 -0.0913084009
C  C121  1  0.86500000  0.29000000  0.44700000  1.0 -0.2307495622
C  C122  1  0.82100000  0.32100000  0.41300000  1.0 0.0714857286
C  C123  1  0.74700000  0.29500000  0.39820000  1.0 0.0204596865
C  C124  1  0.67500000  0.35700000  0.41100000  1.0 0.0904874075
C  C125  1  0.59300000  0.35900000  0.44400000  1.0 -0.0913084009
C  C126  1  0.54600000  0.42800000  0.43880000  1.0 -0.1500746132
C  C127  1  0.60800000  0.47700000  0.40700000  1.0 0.038483556
C  C128  1  0.59500000  0.56040000  0.38500000  1.0 0.0204596865
C  C129  1  0.64300000  0.61700000  0.40500000  1.0 0.1300655549
C  C130  1  0.61500000  0.67900000  0.44200000  1.0 -0.2386080333
C  C131  1  0.68700000  0.71200000  0.45310000  1.0 -0.1500746132
C  C132  1  0.76000000  0.68300000  0.41430000  1.0 0.038483556
C  C133  1  0.85600000  0.78170000  0.43190000  1.0 -0.2307495622
C  C134  1  0.09500000  0.42200000  0.39910000  1.0 -0.2693515026
C  C135  1  0.71600000  0.21760000  0.42890000  1.0 -0.2386080333
C  C136  1  0.50000000  0.58200000  0.40200000  1.0 -0.2307495622
C  C137  1  0.04900000  0.44690000  0.32090000  1.0 0.038483556
C  C138  1  0.04800000  0.38460000  0.29050000  1.0 -0.1171241846
C  C139  1  0.08700000  0.38500000  0.23510000  1.0 -0.0522060904
C  C140  1  0.13400000  0.45000000  0.20870000  1.0 -0.1693280748
C  C141  1  0.11400000  0.51900000  0.23890000  1.0 0.2044670349
C  C142  1  0.08200000  0.51500000  0.29550000  1.0 -0.2506110368
C  C143  1  0.88500000  0.72100000  0.34040000  1.0 0.0023485238
C  C144  1  0.97000000  0.72000000  0.31030000  1.0 -0.2100135216
C  C145  1  0.99600000  0.75200000  0.25960000  1.0 -0.0157082965
C  C146  1  0.93700000  0.77900000  0.23530000  1.0 -0.0798890346
C  C147  1  0.85300000  0.78800000  0.26640000  1.0 0.0793397939
C  C148  1  0.82800000  0.76000000  0.31980000  1.0 -0.0913084009
C  C149  1  0.78300000  0.81010000  0.19420000  1.0 0.0607232691
C  C150  1  0.84000000  0.86800000  0.15590000  1.0 0.2684323555
C  C151  1  0.77400000  0.27600000  0.33830000  1.0 0.0023485238
C  C152  1  0.72300000  0.28300000  0.30600000  1.0 -0.1693280748
C  C153  1  0.74900000  0.25300000  0.25480000  1.0 -0.0604797871
C  C154  1  0.83000000  0.22000000  0.23230000  1.0 -0.0604797871
C  C155  1  0.88100000  0.20900000  0.26470000  1.0 0.0793397939
C  C156  1  0.85300000  0.23900000  0.31740000  1.0 -0.0604797871
C  C157  1  0.26580000  0.57100000  0.13420000  1.0 0.5114234305
C  C158  1  0.01900000  0.19110000  0.19190000  1.0 0.0714857286
C  C159  1  0.00800000  0.12800000  0.15480000  1.0 0.2643738306
C  C160  1  0.65100000  0.39400000  0.16980000  1.0 -0.1287237955
C  C161  1  0.46820000  0.35600000  0.89630000  1.0 0.459008745
C  C162  1  0.43490000  0.28300000  0.88020000  1.0 -0.1693280748
C  C163  1  0.72670000  0.41500000  0.86080000  1.0 0.5190959788
C  C164  1  0.82200000  0.39230000  0.83570000  1.0 -0.1812908342
C  C165  1  0.44190000  0.19830000  0.80640000  1.0 0.2335715757
C  C166  1  0.39500000  0.13780000  0.83720000  1.0 -0.2600740982
C  C167  1  0.47570000  0.19050000  0.75080000  1.0 -0.3135147972
C  C168  1  0.87200000  0.47400000  0.75540000  1.0 0.2335715757
C  C169  1  0.37050000  0.06950000  0.81370000  1.0 -0.0992821603
C  C170  1  0.44770000  0.12340000  0.72940000  1.0 0.0607232691
C  C171  1  0.88300000  0.53600000  0.78660000  1.0 -0.1589011763
C  C172  1  0.90700000  0.47710000  0.69900000  1.0 -0.2600740982
C  C173  1  0.40430000  0.06450000  0.75930000  1.0 -0.1693280748
C  C174  1  0.48340000  0.11970000  0.66440000  1.0 0.0607232691
C  C175  1  0.89800000  0.60900000  0.75810000  1.0 -0.0604797871
C  C176  1  0.94000000  0.54490000  0.67310000  1.0 0.0500921747
C  C177  1  0.57690000  0.15380000  0.64120000  1.0 0.149709127
C  C178  1  0.48040000  0.03680000  0.64760000  1.0 0.1107014612
C  C179  1  0.41550000  0.16670000  0.64700000  1.0 -0.5105251753
C  C180  1  0.93300000  0.61000000  0.70250000  1.0 -0.0692925808
C  C181  1  0.97820000  0.54370000  0.61140000  1.0 0.0204596865
C  C182  1  0.60240000  0.20570000  0.59940000  1.0 -0.29971625
C  C183  1  0.44170000  0.00540000  0.61440000  1.0 -0.1812908342
C  C184  1  0.01600000  0.46280000  0.59210000  1.0 0.100816511
C  C185  1  0.04200000  0.60650000  0.59180000  1.0 -0.0104188844
C  C186  1  0.90320000  0.55910000  0.59110000  1.0 -0.2506110368
C  C187  1  0.71120000  0.17770000  0.63860000  1.0 0.0904874075
C  C188  1  0.68490000  0.21780000  0.59990000  1.0 -0.2008735008
C  C189  1  0.51970000  0.90570000  0.63900000  1.0 0.168243873
C  C190  1  0.46690000  0.92180000  0.60800000  1.0 -0.2506110368
C  C191  1  0.99700000  0.41290000  0.55820000  1.0 -0.0992821603
C  C192  1  0.04800000  0.66340000  0.55350000  1.0 -0.1119761718
C  C193  1  0.79170000  0.17120000  0.65020000  1.0 0.0204596865
C  C194  1  0.55480000  0.82610000  0.65230000  1.0 0.038483556
C  C195  1  0.10200000  0.35040000  0.58950000  1.0 0.0714857286
C  C196  1  0.05300000  0.34300000  0.55600000  1.0 -0.2100135216
C  C197  1  0.15800000  0.68400000  0.59120000  1.0 0.1107014612
C  C198  1  0.11700000  0.71100000  0.55470000  1.0 -0.2008735008
C  C199  1  0.83800000  0.09540000  0.63950000  1.0 0.168243873
C  C200  1  0.85190000  0.24200000  0.62470000  1.0 -0.4864737624
C  C201  1  0.77000000  0.19440000  0.71560000  1.0 0.0607232691
C  C202  1  0.64740000  0.81930000  0.63730000  1.0 0.1107014612
C  C203  1  0.52350000  0.75940000  0.62250000  1.0 -0.5105251753
C  C204  1  0.51610000  0.80590000  0.71570000  1.0 0.0607232691
C  C205  1  0.15830000  0.29130000  0.60670000  1.0 0.0023485238
C  C206  1  0.23290000  0.70970000  0.60520000  1.0 0.0023485238
C  C207  1  0.92380000  0.07820000  0.60740000  1.0 -0.2506110368
C  C208  1  0.70580000  0.23850000  0.73840000  1.0 -0.1500746132
C  C209  1  0.81860000  0.15620000  0.74040000  1.0 -0.2839717501
C  C210  1  0.71820000  0.78140000  0.59830000  1.0 -0.2197077916
C  C211  1  0.55920000  0.75950000  0.73930000  1.0 -0.1500746132
C  C212  1  0.44010000  0.84500000  0.74210000  1.0 -0.29971625
C  C213  1  0.24920000  0.31900000  0.59280000  1.0 0.1300655549
C  C214  1  0.15800000  0.21280000  0.58000000  1.0 -0.2307495622
C  C215  1  0.12500000  0.27600000  0.66700000  1.0 0.038483556
C  C216  1  0.30720000  0.65100000  0.58780000  1.0 0.038483556
C  C217  1  0.25900000  0.79100000  0.57850000  1.0 -0.2386080333
C  C218  1  0.20900000  0.72500000  0.66530000  1.0 0.0204596865
C  C219  1  0.86830000  0.96070000  0.64810000  1.0 0.1107014612
C  C220  1  0.93980000  0.99130000  0.61690000  1.0 -0.1693280748
C  C221  1  0.67640000  0.25320000  0.79570000  1.0 -0.041874391
C  C222  1  0.80010000  0.17050000  0.79870000  1.0 0.2177722371
C  C223  1  0.78500000  0.84510000  0.64130000  1.0 0.138877239
C  C224  1  0.80230000  0.79530000  0.59870000  1.0 -0.2911444588
C  C225  1  0.52600000  0.74550000  0.79420000  1.0 -0.041874391
C  C226  1  0.40350000  0.82630000  0.79980000  1.0 0.1877647406
C  C227  1  0.32390000  0.28700000  0.55660000  1.0 -0.1287237955
C  C228  1  0.03900000  0.28800000  0.69520000  1.0 -0.2100135216
C  C229  1  0.17900000  0.25200000  0.69550000  1.0 -0.0913084009
C  C230  1  0.38800000  0.65400000  0.55380000  1.0 -0.1589011763
C  C231  1  0.27200000  0.72000000  0.69000000  1.0 -0.1693280748
C  C232  1  0.12200000  0.74400000  0.69770000  1.0 -0.0992821603
C  C233  1  0.84760000  0.88070000  0.66380000  1.0 0.0500921747
C  C234  1  0.73490000  0.22040000  0.81950000  1.0 -0.2307495622
C  C235  1  0.44870000  0.77610000  0.82040000  1.0 -0.2197077916
C  C236  1  0.36240000  0.39600000  0.59640000  1.0 0.0904874075
C  C237  1  0.39280000  0.33600000  0.55800000  1.0 -0.2600740982
C  C238  1  0.00770000  0.27100000  0.74880000  1.0 -0.0258008958
C  C239  1  0.14790000  0.24000000  0.75150000  1.0 0.0904874075
C  C240  1  0.38700000  0.53870000  0.59350000  1.0 0.1107014612
C  C241  1  0.43900000  0.58400000  0.55310000  1.0 -0.0992821603
C  C242  1  0.24800000  0.72700000  0.74400000  1.0 -0.0798890346
C  C243  1  0.09900000  0.75800000  0.75230000  1.0 0.0904874075
C  C244  1  0.93660000  0.82990000  0.64420000  1.0 -0.5215047979
C  C245  1  0.82150000  0.87810000  0.72860000  1.0 0.0793397939
C  C246  1  0.83280000  0.13520000  0.87590000  1.0 -0.139301165
C  C247  1  0.29010000  0.86210000  0.87750000  1.0 -0.2008735008
C  C248  1  0.40790000  0.45690000  0.61460000  1.0 0.0301291325
C  C249  1  0.06140000  0.24600000  0.77770000  1.0 -0.0692925808
C  C250  1  0.15900000  0.74900000  0.77700000  1.0 -0.0692925808
C  C251  1  0.83850000  0.93700000  0.75920000  1.0 -0.2100135216
C  C252  1  0.77650000  0.81120000  0.75130000  1.0 -0.3505243519
C  C253  1  0.89940000  0.09050000  0.89560000  1.0 0.4330236084
C  C254  1  0.20900000  0.90660000  0.89450000  1.0 0.4098117119
C  C255  1  0.50470000  0.44100000  0.59490000  1.0 -0.2386080333
C  C256  1  0.37720000  0.45010000  0.67680000  1.0 0.0301291325
C  C257  1  0.19100000  0.22570000  0.83250000  1.0 -0.1171241846
C  C258  1  0.98100000  0.76870000  0.83300000  1.0 -0.139301165
C  C259  1  0.81330000  0.93090000  0.81570000  1.0 -0.1119761718
C  C260  1  0.74770000  0.80240000  0.80790000  1.0 0.2335715757
C  C261  1  0.35040000  0.38630000  0.70550000  1.0 -0.3135147972
C  C262  1  0.38810000  0.51970000  0.70140000  1.0 -0.3986204797
C  C263  1  0.14200000  0.15500000  0.86160000  1.0 0.2684323555
C  C264  1  0.99100000  0.84330000  0.86160000  1.0 0.2684323555
C  C265  1  0.76470000  0.86210000  0.83870000  1.0 -0.2506110368
C  C266  1  0.33100000  0.38930000  0.76020000  1.0 -0.1812908342
C  C267  1  0.36520000  0.52240000  0.75770000  1.0 0.2177722371
C  C268  1  0.68540000  0.71970000  0.88070000  1.0 -0.1693280748
C  C269  1  0.34070000  0.45500000  0.78700000  1.0 -0.2506110368
C  C270  1  0.63630000  0.64630000  0.89730000  1.0 0.4937235034
C  C271  1  0.33900000  0.60800000  0.83850000  1.0 -0.2307495622
C  C272  1  0.40910000  0.57800000  0.86170000  1.0 0.453534416
C  C273  1  0.14800000  0.29180000  0.59920000  1.0 0.0101119826
C  C274  1  0.09200000  0.35600000  0.58710000  1.0 0.1196875013
C  C275  1  0.04600000  0.36000000  0.55100000  1.0 -0.1589011763
C  C276  1  0.99900000  0.43500000  0.55450000  1.0 -0.1500746132
C  C277  1  0.01400000  0.47420000  0.59480000  1.0 0.038483556
C  C278  1  0.98200000  0.55540000  0.61720000  1.0 0.0101119826
C  C279  1  0.04900000  0.61500000  0.59680000  1.0 0.0793397939
C  C280  1  0.05200000  0.67800000  0.56300000  1.0 -0.0913084009
C  C281  1  0.13500000  0.71000000  0.55300000  1.0 -0.2307495622
C  C282  1  0.17900000  0.67900000  0.58700000  1.0 0.0714857286
C  C283  1  0.25300000  0.70500000  0.60180000  1.0 0.0204596865
C  C284  1  0.32500000  0.64300000  0.58900000  1.0 0.0904874075
C  C285  1  0.40700000  0.64100000  0.55600000  1.0 -0.0913084009
C  C286  1  0.45400000  0.57200000  0.56120000  1.0 -0.1500746132
C  C287  1  0.39200000  0.52300000  0.59300000  1.0 0.038483556
C  C288  1  0.40500000  0.43960000  0.61500000  1.0 0.0204596865
C  C289  1  0.35700000  0.38300000  0.59500000  1.0 0.1300655549
C  C290  1  0.38500000  0.32100000  0.55800000  1.0 -0.2386080333
C  C291  1  0.31300000  0.28800000  0.54690000  1.0 -0.1500746132
C  C292  1  0.24000000  0.31700000  0.58570000  1.0 0.038483556
C  C293  1  0.14400000  0.21830000  0.56810000  1.0 -0.2307495622
C  C294  1  0.90500000  0.57800000  0.60090000  1.0 -0.2693515026
C  C295  1  0.28400000  0.78240000  0.57110000  1.0 -0.2386080333
C  C296  1  0.50000000  0.41800000  0.59800000  1.0 -0.2307495622
C  C297  1  0.95100000  0.55310000  0.67910000  1.0 0.038483556
C  C298  1  0.95200000  0.61540000  0.70950000  1.0 -0.1171241846
C  C299  1  0.91300000  0.61500000  0.76490000  1.0 -0.041874391
C  C300  1  0.86600000  0.55000000  0.79130000  1.0 -0.1693280748
C  C301  1  0.88600000  0.48100000  0.76110000  1.0 0.2044670349
C  C302  1  0.91800000  0.48500000  0.70450000  1.0 -0.2506110368
C  C303  1  0.11500000  0.27900000  0.65960000  1.0 0.0023485238
C  C304  1  0.03000000  0.28000000  0.68970000  1.0 -0.2100135216
C  C305  1  0.00400000  0.24800000  0.74040000  1.0 -0.0157082965
C  C306  1  0.06300000  0.22100000  0.76470000  1.0 -0.0798890346
C  C307  1  0.14700000  0.21200000  0.73360000  1.0 0.0793397939
C  C308  1  0.17200000  0.24000000  0.68020000  1.0 -0.0913084009
C  C309  1  0.21700000  0.18990000  0.80580000  1.0 0.0607232691
C  C310  1  0.16000000  0.13200000  0.84410000  1.0 0.2684323555
C  C311  1  0.22600000  0.72400000  0.66170000  1.0 0.0023485238
C  C312  1  0.27700000  0.71700000  0.69400000  1.0 -0.1693280748
C  C313  1  0.25100000  0.74700000  0.74520000  1.0 -0.0604797871
C  C314  1  0.17000000  0.78000000  0.76770000  1.0 -0.0604797871
C  C315  1  0.11900000  0.79100000  0.73530000  1.0 0.0793397939
C  C316  1  0.14700000  0.76100000  0.68260000  1.0 -0.0604797871
C  C317  1  0.73420000  0.42900000  0.86580000  1.0 0.5114234305
C  C318  1  0.98100000  0.80890000  0.80810000  1.0 0.0714857286
C  C319  1  0.99200000  0.87200000  0.84520000  1.0 0.2643738306
C  C320  1  0.34900000  0.60600000  0.83020000  1.0 -0.1287237955
N  N1  1  0.36340000  0.86640000  0.33800000  1.0 -0.2600740982
N  N2  1  0.46980000  0.02780000  0.33910000  1.0 -0.2693515026
N  N3  1  0.92100000  0.57360000  0.38960000  1.0 -0.29971625
N  N4  1  0.88700000  0.38600000  0.39140000  1.0 -0.2008735008
N  N5  1  0.19200000  0.97140000  0.33990000  1.0 -0.2600740982
N  N6  1  0.29920000  0.13510000  0.33830000  1.0 -0.2911444588
N  N7  1  0.72660000  0.61500000  0.38400000  1.0 -0.3725265745
N  N8  1  0.69350000  0.42540000  0.39100000  1.0 -0.2307495622
N  N9  1  0.93300000  0.57300000  0.38480000  1.0 -0.2911444588
N  N10  1  0.88200000  0.37600000  0.38390000  1.0 -0.3135147972
N  N11  1  0.67960000  0.42900000  0.38440000  1.0 -0.1693280748
N  N12  1  0.73300000  0.62200000  0.38900000  1.0 -0.2506110368
N  N13  1  0.63660000  0.13360000  0.66200000  1.0 -0.2600740982
N  N14  1  0.53020000  0.97220000  0.66090000  1.0 -0.2693515026
N  N15  1  0.07900000  0.42640000  0.61040000  1.0 -0.29971625
N  N16  1  0.11300000  0.61400000  0.60860000  1.0 -0.2008735008
N  N17  1  0.80800000  0.02860000  0.66010000  1.0 -0.2600740982
N  N18  1  0.70080000  0.86490000  0.66170000  1.0 -0.2911444588
N  N19  1  0.27340000  0.38500000  0.61600000  1.0 -0.3725265745
N  N20  1  0.30650000  0.57460000  0.60900000  1.0 -0.2307495622
N  N21  1  0.06700000  0.42700000  0.61520000  1.0 -0.2911444588
N  N22  1  0.11800000  0.62400000  0.61610000  1.0 -0.3135147972
N  N23  1  0.32040000  0.57100000  0.61560000  1.0 -0.1693280748
N  N24  1  0.26700000  0.37800000  0.61100000  1.0 -0.2506110368
O  O1  1  0.51030000  0.47590000  0.05160000  1.0 -0.4090485805
O  O2  1  0.57500000  0.63630000  0.05300000  1.0 -0.4783862217
O  O3  1  0.37230000  0.36480000  0.05400000  1.0 -0.4438024246
O  O4  1  0.48300000  0.59920000  0.13010000  1.0 -0.3986204797
O  O5  1  0.32100000  0.55400000  0.16260000  1.0 -0.4783862217
O  O6  1  0.38450000  0.39740000  0.12960000  1.0 -0.3878013575
O  O7  1  0.51900000  0.44200000  0.16470000  1.0 -0.4205552609
O  O8  1  0.53010000  0.73040000  0.17580000  1.0 -0.2600740982
O  O9  1  0.29800000  0.60500000  0.09170000  1.0 -0.1171241846
O  O10  1  0.16300000  0.59840000  0.22330000  1.0 -0.0522060904
O  O11  1  0.14460000  0.87310000  0.17930000  1.0 -0.3505243519
O  O12  1  0.67820000  0.12670000  0.17890000  1.0 -0.3725265745
O  O13  1  0.78720000  0.77930000  0.22430000  1.0 -0.0522060904
O  O14  1  0.98890000  0.22400000  0.22450000  1.0 -0.0522060904
O  O15  1  0.12840000  0.90370000  0.05210000  1.0 -0.4783862217
O  O16  1  0.03740000  0.94160000  0.12890000  1.0 -0.4325156047
O  O17  1  0.81620000  0.09180000  0.05390000  1.0 -0.4325156047
O  O18  1  0.82940000  0.05540000  0.12830000  1.0 -0.4205552609
O  O19  1  0.29350000  0.26960000  0.17470000  1.0 -0.29971625
O  O20  1  0.87300000  0.89990000  0.16510000  1.0 -0.0798890346
O  O21  1  0.87500000  0.84200000  0.08800000  1.0 -0.1500746132
O  O22  1  0.96200000  0.10440000  0.16620000  1.0 -0.0522060904
O  O23  1  0.03500000  0.16010000  0.08810000  1.0 -0.1589011763
O  O24  1  0.99190000  0.02650000  0.05220000  1.0 -0.3986204797
O  O25  1  0.64500000  0.40200000  0.21830000  1.0 0.0301291325
O  O26  1  0.62600000  0.42000000  0.08630000  1.0 -0.1500746132
O  O27  1  0.43980000  0.52370000  0.05130000  1.0 -0.4205552609
O  O28  1  0.95000000  0.96050000  0.05190000  1.0 -0.4090485805
O  O29  1  0.14000000  0.59500000  0.21770000  1.0 -0.0604797871
O  O30  1  0.60800000  0.40600000  0.22610000  1.0 0.038483556
O  O31  1  0.30900000  0.54200000  0.16070000  1.0 -0.4205552609
O  O32  1  0.29100000  0.58000000  0.08520000  1.0 -0.1812908342
O  O33  1  0.52400000  0.46100000  0.15860000  1.0 -0.4325156047
O  O34  1  0.61300000  0.39000000  0.08920000  1.0 -0.1500746132
O  O35  1  0.78460000  0.81850000  0.24830000  1.0 -0.139301165
O  O36  1  0.84500000  0.85800000  0.10740000  1.0 -0.0026739502
O  O37  1  0.86300000  0.92830000  0.17510000  1.0 -0.2100135216
O  O38  1  0.96800000  0.17920000  0.24710000  1.0 -0.139301165
O  O39  1  0.96300000  0.06990000  0.17510000  1.0 -0.1943247401
O  O40  1  0.04700000  0.13800000  0.10570000  1.0 -0.0104188844
O  O41  1  0.48970000  0.52410000  0.94840000  1.0 -0.4090485805
O  O42  1  0.42500000  0.36370000  0.94700000  1.0 -0.4783862217
O  O43  1  0.62770000  0.63520000  0.94600000  1.0 -0.4438024246
O  O44  1  0.51700000  0.40080000  0.86990000  1.0 -0.3986204797
O  O45  1  0.67900000  0.44600000  0.83740000  1.0 -0.4783862217
O  O46  1  0.61550000  0.60260000  0.87040000  1.0 -0.3878013575
O  O47  1  0.48100000  0.55800000  0.83530000  1.0 -0.4205552609
O  O48  1  0.46990000  0.26960000  0.82420000  1.0 -0.2600740982
O  O49  1  0.70200000  0.39500000  0.90830000  1.0 -0.1171241846
O  O50  1  0.83700000  0.40160000  0.77670000  1.0 -0.0522060904
O  O51  1  0.85540000  0.12690000  0.82070000  1.0 -0.3505243519
O  O52  1  0.32180000  0.87330000  0.82110000  1.0 -0.3775022709
O  O53  1  0.21280000  0.22070000  0.77570000  1.0 -0.0522060904
O  O54  1  0.01110000  0.77600000  0.77550000  1.0 -0.0522060904
O  O55  1  0.87160000  0.09630000  0.94790000  1.0 -0.4783862217
O  O56  1  0.96260000  0.05840000  0.87110000  1.0 -0.4325156047
O  O57  1  0.18380000  0.90820000  0.94610000  1.0 -0.4325156047
O  O58  1  0.17060000  0.94460000  0.87170000  1.0 -0.4205552609
O  O59  1  0.70650000  0.73040000  0.82530000  1.0 -0.29971625
O  O60  1  0.12700000  0.10010000  0.83490000  1.0 -0.0692925808
O  O61  1  0.12500000  0.15800000  0.91200000  1.0 -0.1500746132
O  O62  1  0.03800000  0.89560000  0.83380000  1.0 -0.0522060904
O  O63  1  0.96500000  0.83990000  0.91190000  1.0 -0.1589011763
O  O64  1  0.00810000  0.97350000  0.94780000  1.0 -0.3986204797
O  O65  1  0.35500000  0.59800000  0.78170000  1.0 0.0301291325
O  O66  1  0.37400000  0.58000000  0.91370000  1.0 -0.1500746132
O  O67  1  0.56020000  0.47630000  0.94870000  1.0 -0.4205552609
O  O68  1  0.05000000  0.03950000  0.94810000  1.0 -0.4090485805
O  O69  1  0.86000000  0.40500000  0.78230000  1.0 -0.0604797871
O  O70  1  0.39200000  0.59400000  0.77390000  1.0 0.038483556
O  O71  1  0.69100000  0.45800000  0.83930000  1.0 -0.4205552609
O  O72  1  0.70900000  0.42000000  0.91480000  1.0 -0.1812908342
O  O73  1  0.47600000  0.53900000  0.84140000  1.0 -0.4325156047
O  O74  1  0.38700000  0.61000000  0.91080000  1.0 -0.1500746132
O  O75  1  0.21540000  0.18150000  0.75170000  1.0 -0.139301165
O  O76  1  0.15500000  0.14200000  0.89260000  1.0 0.0023485238
O  O77  1  0.13700000  0.07170000  0.82490000  1.0 -0.2100135216
O  O78  1  0.03200000  0.82080000  0.75290000  1.0 -0.139301165
O  O79  1  0.03700000  0.93010000  0.82490000  1.0 -0.2008735008
O  O80  1  0.95300000  0.86200000  0.89430000  1.0 -0.0104188844
