# DDEC6 charges by PACMAN v1.1 (https://github.com/mtap-research/PACMAN-charge/)
data_ZALGEB_FSR_pacman
_symmetry_space_group_name_H-M   'P 1'
_cell_length_a   12.93200000
_cell_length_b   14.33800000
_cell_length_c   14.51000000
_cell_angle_alpha   104.74300000
_cell_angle_beta   108.98100000
_cell_angle_gamma   108.11900000
_symmetry_Int_Tables_number   1
_chemical_formula_structural   NaEuAlMo6H7C8NO34
_chemical_formula_sum   'Na2 Eu2 Al2 Mo12 H14 C16 N2 O68'
_cell_volume   2220.62168191
_cell_formula_units_Z   2
loop_
 _symmetry_equiv_pos_site_id
 _symmetry_equiv_pos_as_xyz
  1  'x, y, z'
loop_
 _atom_site_type_symbol
 _atom_site_label
 _atom_site_symmetry_multiplicity
 _atom_site_fract_x
 _atom_site_fract_y
 _atom_site_fract_z
 _atom_site_occupancy
 _atom_site_charge
Na  Na1  1  0.54680000  0.94260000  0.90670000  1.0 1.0076957357
Na  Na2  1  0.45320000  0.05740000  0.09330000  1.0 1.0076957357
Eu  Eu1  1  0.49806000  0.89729000  0.56945000  1.0 2.1411301307
Eu  Eu2  1  0.50194000  0.10271000  0.43055000  1.0 2.1411301307
Al  Al1  1  0.00000000  0.50000000  0.50000000  1.0 1.6604882491
Al  Al2  1  0.50000000  0.50000000  0.00000000  1.0 1.5408722174
Mo  Mo1  1  0.14214000  0.71242000  0.46809000  1.0 2.1455812466
Mo  Mo2  1  0.10426000  0.47870000  0.31954000  1.0 1.9507724059
Mo  Mo3  1  0.95852000  0.26434000  0.35082000  1.0 2.0610538734
Mo  Mo4  1  0.38727000  0.64102000  0.88939000  1.0 1.9377334726
Mo  Mo5  1  0.35948000  0.40858000  0.74064000  1.0 2.0687271369
Mo  Mo6  1  0.46854000  0.26825000  0.85139000  1.0 2.0687271369
Mo  Mo7  1  0.85786000  0.28758000  0.53191000  1.0 2.1411301307
Mo  Mo8  1  0.89574000  0.52130000  0.68046000  1.0 1.9507724059
Mo  Mo9  1  0.04148000  0.73566000  0.64918000  1.0 2.0610538734
Mo  Mo10  1  0.61273000  0.35898000  0.11061000  1.0 1.9377334726
Mo  Mo11  1  0.64052000  0.59142000  0.25936000  1.0 2.0687271369
Mo  Mo12  1  0.53146000  0.73175000  0.14861000  1.0 2.0687271369
H  H1  1  0.98320000  0.87950000  0.32730000  1.0 0.1504235094
H  H2  1  0.89140000  0.98060000  0.25840000  1.0 0.1448272181
H  H3  1  0.75830000  0.02370000  0.31590000  1.0 0.1620315922
H  H4  1  0.80200000  0.86120000  0.50450000  1.0 0.1504235094
H  H5  1  0.23690000  0.74080000  0.17370000  1.0 0.193489415
H  H6  1  0.17460000  0.75500000  0.25210000  1.0 0.193489415
H  H7  1  0.28090000  0.71710000  0.27820000  1.0 0.2046505523
H  H8  1  0.01680000  0.12050000  0.67270000  1.0 0.1504235094
H  H9  1  0.10860000  0.01940000  0.74160000  1.0 0.1448272181
H  H10  1  0.24170000  0.97630000  0.68410000  1.0 0.1620315922
H  H11  1  0.19800000  0.13880000  0.49550000  1.0 0.1504235094
H  H12  1  0.76310000  0.25920000  0.82630000  1.0 0.193489415
H  H13  1  0.82540000  0.24500000  0.74790000  1.0 0.193489415
H  H14  1  0.71910000  0.28290000  0.72180000  1.0 0.2046505523
C  C1  1  0.92860000  0.89790000  0.35020000  1.0 0.0812243012
C  C2  1  0.87390000  0.95740000  0.30960000  1.0 -0.0633257168
C  C3  1  0.79540000  0.98250000  0.34280000  1.0 0.0114811927
C  C4  1  0.77050000  0.94640000  0.41710000  1.0 -0.012256107
C  C5  1  0.82170000  0.88760000  0.45570000  1.0 0.0463094393
C  C6  1  0.67590000  0.96810000  0.44960000  1.0 0.6445711863
C  C7  1  0.25080000  0.76250000  0.24810000  1.0 -0.5190777766
C  C8  1  0.34280000  0.87700000  0.30960000  1.0 0.7719967377
C  C9  1  0.07140000  0.10210000  0.64980000  1.0 0.0812243012
C  C10  1  0.12610000  0.04260000  0.69040000  1.0 -0.0633257168
C  C11  1  0.20460000  0.01750000  0.65720000  1.0 0.0114811927
C  C12  1  0.22950000  0.05360000  0.58290000  1.0 -0.012256107
C  C13  1  0.17830000  0.11240000  0.54430000  1.0 0.0463094393
C  C14  1  0.32410000  0.03190000  0.55040000  1.0 0.6445711863
C  C15  1  0.74920000  0.23750000  0.75190000  1.0 -0.5190777766
C  C16  1  0.65720000  0.12300000  0.69040000  1.0 0.7719967377
N  N1  1  0.90170000  0.86730000  0.42310000  1.0 -0.0337188883
N  N2  1  0.09830000  0.13270000  0.57690000  1.0 -0.0337188883
O  O1  1  0.65310000  0.92910000  0.51190000  1.0 -0.5805973398
O  O2  1  0.63070000  0.02120000  0.41010000  1.0 -0.5611092039
O  O3  1  0.40860000  0.90880000  0.40630000  1.0 -0.6893886017
O  O4  1  0.35170000  0.94360000  0.26720000  1.0 -0.5611092039
O  O5  1  0.29120000  0.76030000  0.48660000  1.0 -0.702413826
O  O6  1  0.14860000  0.56290000  0.49460000  1.0 -0.8667815315
O  O7  1  0.06510000  0.59800000  0.33080000  1.0 -0.7214784163
O  O8  1  0.97670000  0.61780000  0.47910000  1.0 -0.803745954
O  O9  1  0.17890000  0.76380000  0.61750000  1.0 -0.702413826
O  O10  1  0.08750000  0.79730000  0.43170000  1.0 -0.5190777766
O  O11  1  0.94230000  0.41660000  0.35320000  1.0 -0.8297707724
O  O12  1  0.10750000  0.36240000  0.35790000  1.0 -0.7721807498
O  O13  1  0.25310000  0.53780000  0.34010000  1.0 -0.4800944614
O  O14  1  0.02280000  0.41180000  0.18570000  1.0 -0.4800944614
O  O15  1  0.87740000  0.19210000  0.21840000  1.0 -0.4347135263
O  O16  1  0.01670000  0.18780000  0.40140000  1.0 -0.5401121962
O  O17  1  0.43720000  0.84900000  0.70640000  1.0 -0.3994730848
O  O18  1  0.64360000  0.84390000  0.67590000  1.0 -0.2309993865
O  O19  1  0.47070000  0.72420000  0.45570000  1.0 0.0463094393
O  O20  1  0.55190000  0.64120000  0.00700000  1.0 -0.9040744888
O  O21  1  0.34970000  0.47720000  0.89600000  1.0 -0.8595999169
O  O22  1  0.42960000  0.56280000  0.78910000  1.0 -0.7721807498
O  O23  1  0.23770000  0.60040000  0.80840000  1.0 -0.3762342918
O  O24  1  0.38010000  0.67810000  0.02360000  1.0 -0.7214784163
O  O25  1  0.45940000  0.76540000  0.89520000  1.0 -0.5805973398
O  O26  1  0.53010000  0.44470000  0.88420000  1.0 -0.8810300815
O  O27  1  0.33010000  0.28620000  0.77310000  1.0 -0.7372798311
O  O28  1  0.21150000  0.38010000  0.66330000  1.0 -0.446529566
O  O29  1  0.42220000  0.38360000  0.65410000  1.0 -0.499956547
O  O30  1  0.39920000  0.14950000  0.85730000  1.0 -0.4599628138
O  O31  1  0.52170000  0.24250000  0.75810000  1.0 -0.499956547
O  O32  1  0.37340000  0.97240000  0.90400000  1.0 -0.4599628138
O  O33  1  0.70250000  0.89070000  0.89250000  1.0 -0.1842841792
O  O34  1  0.66560000  0.12100000  0.92960000  1.0 0.105414742
O  O35  1  0.34690000  0.07090000  0.48810000  1.0 -0.5805973398
O  O36  1  0.36930000  0.97880000  0.58990000  1.0 -0.5611092039
O  O37  1  0.59140000  0.09120000  0.59370000  1.0 -0.6893886017
O  O38  1  0.64830000  0.05640000  0.73280000  1.0 -0.5540349471
O  O39  1  0.70880000  0.23970000  0.51340000  1.0 -0.702413826
O  O40  1  0.85140000  0.43710000  0.50540000  1.0 -0.8667815315
O  O41  1  0.93490000  0.40200000  0.66920000  1.0 -0.7214784163
O  O42  1  0.02330000  0.38220000  0.52090000  1.0 -0.803745954
O  O43  1  0.82110000  0.23620000  0.38250000  1.0 -0.702413826
O  O44  1  0.91250000  0.20270000  0.56830000  1.0 -0.5190777766
O  O45  1  0.05770000  0.58340000  0.64680000  1.0 -0.8297707724
O  O46  1  0.89250000  0.63760000  0.64210000  1.0 -0.7721807498
O  O47  1  0.74690000  0.46220000  0.65990000  1.0 -0.4800944614
O  O48  1  0.97720000  0.58820000  0.81430000  1.0 -0.4800944614
O  O49  1  0.12260000  0.80790000  0.78160000  1.0 -0.4347135263
O  O50  1  0.98330000  0.81220000  0.59860000  1.0 -0.5401121962
O  O51  1  0.56280000  0.15100000  0.29360000  1.0 -0.3994730848
O  O52  1  0.35640000  0.15610000  0.32410000  1.0 -0.2309993865
O  O53  1  0.52930000  0.27580000  0.54430000  1.0 0.0463094393
O  O54  1  0.44810000  0.35880000  0.99300000  1.0 -0.9056076991
O  O55  1  0.65030000  0.52280000  0.10400000  1.0 -0.8595999169
O  O56  1  0.57040000  0.43720000  0.21090000  1.0 -0.7721807498
O  O57  1  0.76230000  0.39960000  0.19160000  1.0 -0.3762342918
O  O58  1  0.61990000  0.32190000  0.97640000  1.0 -0.7214784163
O  O59  1  0.54060000  0.23460000  0.10480000  1.0 -0.5805973398
O  O60  1  0.46990000  0.55530000  0.11580000  1.0 -0.8810300815
O  O61  1  0.66990000  0.71380000  0.22690000  1.0 -0.7372798311
O  O62  1  0.78850000  0.61990000  0.33670000  1.0 -0.446529566
O  O63  1  0.57780000  0.61640000  0.34590000  1.0 -0.499956547
O  O64  1  0.60080000  0.85050000  0.14270000  1.0 -0.4599628138
O  O65  1  0.47830000  0.75750000  0.24190000  1.0 -0.499956547
O  O66  1  0.62660000  0.02760000  0.09600000  1.0 -0.4599628138
O  O67  1  0.29750000  0.10930000  0.10750000  1.0 -0.1861724692
O  O68  1  0.33440000  0.87900000  0.07040000  1.0 0.1028466386
