# DDEC6 charges by PACMAN v1.1 (https://github.com/mtap-research/PACMAN-charge/)
data_ZAQWEW_ASR_pacman
_symmetry_space_group_name_H-M   'P 1'
_cell_length_a   11.74490000
_cell_length_b   26.61520000
_cell_length_c   29.59230000
_cell_angle_alpha   90.00000000
_cell_angle_beta   90.00000000
_cell_angle_gamma   90.00000000
_symmetry_Int_Tables_number   1
_chemical_formula_structural   K2Cd5H28(C2O)32
_chemical_formula_sum   'K8 Cd20 H112 C256 O128'
_cell_volume   9250.34176437
_cell_formula_units_Z   4
loop_
 _symmetry_equiv_pos_site_id
 _symmetry_equiv_pos_as_xyz
  1  'x, y, z'
loop_
 _atom_site_type_symbol
 _atom_site_label
 _atom_site_symmetry_multiplicity
 _atom_site_fract_x
 _atom_site_fract_y
 _atom_site_fract_z
 _atom_site_occupancy
 _atom_site_charge
K  K1  1  0.89020000  0.50000000  0.25000000  1.0 0.8964632574
K  K2  1  0.60980000  0.00000000  0.75000000  1.0 0.8964632574
K  K3  1  0.59394000  0.50000000  0.25000000  1.0 0.8964632574
K  K4  1  0.90606000  0.00000000  0.75000000  1.0 0.8964632574
K  K5  1  0.10980000  0.50000000  0.75000000  1.0 0.8964632574
K  K6  1  0.39020000  0.00000000  0.25000000  1.0 0.8964632574
K  K7  1  0.40606000  0.50000000  0.75000000  1.0 0.8964632574
K  K8  1  0.09394000  0.00000000  0.25000000  1.0 0.8964632574
Cd  Cd1  1  0.22037000  0.27904000  0.51862000  1.0 1.0177154365
Cd  Cd2  1  0.27963000  0.22096000  0.01862000  1.0 1.0177154365
Cd  Cd3  1  0.22037000  0.72096000  0.98138000  1.0 1.0177154365
Cd  Cd4  1  0.27963000  0.77904000  0.48138000  1.0 1.0177154365
Cd  Cd5  1  0.23974000  0.50000000  0.25000000  1.0 1.0003039065
Cd  Cd6  1  0.26026000  0.00000000  0.75000000  1.0 1.0003039065
Cd  Cd7  1  0.73929000  0.50575000  0.37761000  1.0 1.0090337518
Cd  Cd8  1  0.76071000  0.99425000  0.87761000  1.0 1.0090337518
Cd  Cd9  1  0.73929000  0.49425000  0.12239000  1.0 1.0090337518
Cd  Cd10  1  0.76071000  0.00575000  0.62239000  1.0 1.0090337518
Cd  Cd11  1  0.77963000  0.72096000  0.48138000  1.0 1.0177154365
Cd  Cd12  1  0.72037000  0.77904000  0.98138000  1.0 1.0177154365
Cd  Cd13  1  0.77963000  0.27904000  0.01862000  1.0 1.0177154365
Cd  Cd14  1  0.72037000  0.22096000  0.51862000  1.0 1.0177154365
Cd  Cd15  1  0.76026000  0.50000000  0.75000000  1.0 1.0003039065
Cd  Cd16  1  0.73974000  0.00000000  0.25000000  1.0 1.0003039065
Cd  Cd17  1  0.26071000  0.49425000  0.62239000  1.0 1.0090337518
Cd  Cd18  1  0.23929000  0.00575000  0.12239000  1.0 1.0090337518
Cd  Cd19  1  0.26071000  0.50575000  0.87761000  1.0 1.0090337518
Cd  Cd20  1  0.23929000  0.99425000  0.37761000  1.0 1.0090337518
H  H1  1  0.33450000  0.37590000  0.30370000  1.0 0.3690063033
H  H2  1  0.16550000  0.12410000  0.80370000  1.0 0.3690063033
H  H3  1  0.33450000  0.62410000  0.19630000  1.0 0.3690063033
H  H4  1  0.16550000  0.87590000  0.69630000  1.0 0.3690063033
H  H5  1  0.14720000  0.62610000  0.29100000  1.0 0.3690063033
H  H6  1  0.35280000  0.87390000  0.79100000  1.0 0.3690063033
H  H7  1  0.14720000  0.37390000  0.20900000  1.0 0.3690063033
H  H8  1  0.35280000  0.12610000  0.70900000  1.0 0.3690063033
H  H9  1  0.19760000  0.37590000  0.37960000  1.0 0.1301108675
H  H10  1  0.30240000  0.12410000  0.87960000  1.0 0.1301108675
H  H11  1  0.19760000  0.62410000  0.12040000  1.0 0.1301108675
H  H12  1  0.30240000  0.87590000  0.62040000  1.0 0.1301108675
H  H13  1  0.93020000  0.38960000  0.29580000  1.0 0.1122246054
H  H14  1  0.56980000  0.11040000  0.79580000  1.0 0.1122246054
H  H15  1  0.93020000  0.61040000  0.20420000  1.0 0.1122246054
H  H16  1  0.56980000  0.88960000  0.70420000  1.0 0.1122246054
H  H17  1  0.91780000  0.29190000  0.39960000  1.0 0.1301108675
H  H18  1  0.58220000  0.20810000  0.89960000  1.0 0.1301108675
H  H19  1  0.91780000  0.70810000  0.10040000  1.0 0.1301108675
H  H20  1  0.58220000  0.79190000  0.60040000  1.0 0.1301108675
H  H21  1  0.49650000  0.27860000  0.29870000  1.0 0.1122246054
H  H22  1  0.00350000  0.22140000  0.79870000  1.0 0.1122246054
H  H23  1  0.49650000  0.72140000  0.20130000  1.0 0.1122246054
H  H24  1  0.00350000  0.77860000  0.70130000  1.0 0.1122246054
H  H25  1  0.64040000  0.22080000  0.30910000  1.0 0.1122246054
H  H26  1  0.85960000  0.27920000  0.80910000  1.0 0.1122246054
H  H27  1  0.64040000  0.77920000  0.19090000  1.0 0.1122246054
H  H28  1  0.85960000  0.72080000  0.69090000  1.0 0.1122246054
H  H29  1  0.81840000  0.24750000  0.33100000  1.0 0.1122246054
H  H30  1  0.68160000  0.25250000  0.83100000  1.0 0.1122246054
H  H31  1  0.81840000  0.75250000  0.16900000  1.0 0.1122246054
H  H32  1  0.68160000  0.74750000  0.66900000  1.0 0.1122246054
H  H33  1  0.27610000  0.64250000  0.36240000  1.0 0.1301108675
H  H34  1  0.22390000  0.85750000  0.86240000  1.0 0.1301108675
H  H35  1  0.27610000  0.35750000  0.13760000  1.0 0.1301108675
H  H36  1  0.22390000  0.14250000  0.63760000  1.0 0.1301108675
H  H37  1  0.56150000  0.72500000  0.37680000  1.0 0.1301108675
H  H38  1  0.93850000  0.77500000  0.87680000  1.0 0.1301108675
H  H39  1  0.56150000  0.27500000  0.12320000  1.0 0.1301108675
H  H40  1  0.93850000  0.22500000  0.62320000  1.0 0.1301108675
H  H41  1  0.55370000  0.61020000  0.28880000  1.0 0.1122246054
H  H42  1  0.94630000  0.88980000  0.78880000  1.0 0.1122246054
H  H43  1  0.55370000  0.38980000  0.21120000  1.0 0.1122246054
H  H44  1  0.94630000  0.11020000  0.71120000  1.0 0.1122246054
H  H45  1  0.98310000  0.71850000  0.27260000  1.0 0.1122246054
H  H46  1  0.51690000  0.78150000  0.77260000  1.0 0.1122246054
H  H47  1  0.98310000  0.28150000  0.22740000  1.0 0.1122246054
H  H48  1  0.51690000  0.21850000  0.72740000  1.0 0.1122246054
H  H49  1  0.83900000  0.77820000  0.27510000  1.0 0.1122246054
H  H50  1  0.66100000  0.72180000  0.77510000  1.0 0.1122246054
H  H51  1  0.83900000  0.22180000  0.22490000  1.0 0.1122246054
H  H52  1  0.66100000  0.27820000  0.72490000  1.0 0.1122246054
H  H53  1  0.66220000  0.75610000  0.30240000  1.0 0.1122246054
H  H54  1  0.83780000  0.74390000  0.80240000  1.0 0.1122246054
H  H55  1  0.66220000  0.24390000  0.19760000  1.0 0.1122246054
H  H56  1  0.83780000  0.25610000  0.69760000  1.0 0.1122246054
H  H57  1  0.66550000  0.62410000  0.69630000  1.0 0.3690063033
H  H58  1  0.83450000  0.87590000  0.19630000  1.0 0.3690063033
H  H59  1  0.66550000  0.37590000  0.80370000  1.0 0.3690063033
H  H60  1  0.83450000  0.12410000  0.30370000  1.0 0.3690063033
H  H61  1  0.85280000  0.37390000  0.70900000  1.0 0.3690063033
H  H62  1  0.64720000  0.12610000  0.20900000  1.0 0.3690063033
H  H63  1  0.85280000  0.62610000  0.79100000  1.0 0.3690063033
H  H64  1  0.64720000  0.87390000  0.29100000  1.0 0.3690063033
H  H65  1  0.80240000  0.62410000  0.62040000  1.0 0.1301108675
H  H66  1  0.69760000  0.87590000  0.12040000  1.0 0.1301108675
H  H67  1  0.80240000  0.37590000  0.87960000  1.0 0.1301108675
H  H68  1  0.69760000  0.12410000  0.37960000  1.0 0.1301108675
H  H69  1  0.06980000  0.61040000  0.70420000  1.0 0.1122246054
H  H70  1  0.43020000  0.88960000  0.20420000  1.0 0.1122246054
H  H71  1  0.06980000  0.38960000  0.79580000  1.0 0.1122246054
H  H72  1  0.43020000  0.11040000  0.29580000  1.0 0.1122246054
H  H73  1  0.08220000  0.70810000  0.60040000  1.0 0.1301108675
H  H74  1  0.41780000  0.79190000  0.10040000  1.0 0.1301108675
H  H75  1  0.08220000  0.29190000  0.89960000  1.0 0.1301108675
H  H76  1  0.41780000  0.20810000  0.39960000  1.0 0.1301108675
H  H77  1  0.50350000  0.72140000  0.70130000  1.0 0.1122246054
H  H78  1  0.99650000  0.77860000  0.20130000  1.0 0.1122246054
H  H79  1  0.50350000  0.27860000  0.79870000  1.0 0.1122246054
H  H80  1  0.99650000  0.22140000  0.29870000  1.0 0.1122246054
H  H81  1  0.35960000  0.77920000  0.69090000  1.0 0.1122246054
H  H82  1  0.14040000  0.72080000  0.19090000  1.0 0.1122246054
H  H83  1  0.35960000  0.22080000  0.80910000  1.0 0.1122246054
H  H84  1  0.14040000  0.27920000  0.30910000  1.0 0.1122246054
H  H85  1  0.18160000  0.75250000  0.66900000  1.0 0.1122246054
H  H86  1  0.31840000  0.74750000  0.16900000  1.0 0.1122246054
H  H87  1  0.18160000  0.24750000  0.83100000  1.0 0.1122246054
H  H88  1  0.31840000  0.25250000  0.33100000  1.0 0.1122246054
H  H89  1  0.72390000  0.35750000  0.63760000  1.0 0.1301108675
H  H90  1  0.77610000  0.14250000  0.13760000  1.0 0.1301108675
H  H91  1  0.72390000  0.64250000  0.86240000  1.0 0.1301108675
H  H92  1  0.77610000  0.85750000  0.36240000  1.0 0.1301108675
H  H93  1  0.43850000  0.27500000  0.62320000  1.0 0.1301108675
H  H94  1  0.06150000  0.22500000  0.12320000  1.0 0.1301108675
H  H95  1  0.43850000  0.72500000  0.87680000  1.0 0.1301108675
H  H96  1  0.06150000  0.77500000  0.37680000  1.0 0.1301108675
H  H97  1  0.44630000  0.38980000  0.71120000  1.0 0.1122246054
H  H98  1  0.05370000  0.11020000  0.21120000  1.0 0.1122246054
H  H99  1  0.44630000  0.61020000  0.78880000  1.0 0.1122246054
H  H100  1  0.05370000  0.88980000  0.28880000  1.0 0.1122246054
H  H101  1  0.01690000  0.28150000  0.72740000  1.0 0.1122246054
H  H102  1  0.48310000  0.21850000  0.22740000  1.0 0.1122246054
H  H103  1  0.01690000  0.71850000  0.77260000  1.0 0.1122246054
H  H104  1  0.48310000  0.78150000  0.27260000  1.0 0.1122246054
H  H105  1  0.16100000  0.22180000  0.72490000  1.0 0.1122246054
H  H106  1  0.33900000  0.27820000  0.22490000  1.0 0.1122246054
H  H107  1  0.16100000  0.77820000  0.77510000  1.0 0.1122246054
H  H108  1  0.33900000  0.72180000  0.27510000  1.0 0.1122246054
H  H109  1  0.33780000  0.24390000  0.69760000  1.0 0.1122246054
H  H110  1  0.16220000  0.25610000  0.19760000  1.0 0.1122246054
H  H111  1  0.33780000  0.75610000  0.80240000  1.0 0.1122246054
H  H112  1  0.16220000  0.74390000  0.30240000  1.0 0.1122246054
C  C1  1  0.11690000  0.30992000  0.43888000  1.0 0.5509116772
C  C2  1  0.38310000  0.19008000  0.93888000  1.0 0.5509116772
C  C3  1  0.11690000  0.69008000  0.06112000  1.0 0.5509116772
C  C4  1  0.38310000  0.80992000  0.56112000  1.0 0.5509116772
C  C5  1  0.06410000  0.33188000  0.39643000  1.0 0.005549299
C  C6  1  0.43590000  0.16812000  0.89643000  1.0 0.005549299
C  C7  1  0.06410000  0.66812000  0.10357000  1.0 0.005549299
C  C8  1  0.43590000  0.83188000  0.60357000  1.0 0.005549299
C  C9  1  0.12410000  0.36686000  0.37120000  1.0 -0.133436567
C  C10  1  0.37590000  0.13314000  0.87120000  1.0 -0.133436567
C  C11  1  0.12410000  0.63314000  0.12880000  1.0 -0.133436567
C  C12  1  0.37590000  0.86686000  0.62880000  1.0 -0.133436567
C  C13  1  0.07400000  0.38844000  0.33333333  1.0 -0.0181491504
C  C14  1  0.42600000  0.11156000  0.83333000  1.0 -0.0181491504
C  C15  1  0.07400000  0.61156000  0.16667000  1.0 -0.0181491504
C  C16  1  0.42600000  0.88844000  0.66666667  1.0 -0.0181491504
C  C17  1  0.96420000  0.37445000  0.32075000  1.0 -0.1521847821
C  C18  1  0.53580000  0.12555000  0.82075000  1.0 -0.1521847821
C  C19  1  0.96420000  0.62555000  0.17925000  1.0 -0.1521847821
C  C20  1  0.53580000  0.87445000  0.67925000  1.0 -0.1521847821
C  C21  1  0.90440000  0.33820000  0.34498000  1.0 0.0679242044
C  C22  1  0.59560000  0.16180000  0.84498000  1.0 0.0679242044
C  C23  1  0.90440000  0.66180000  0.15502000  1.0 0.0679242044
C  C24  1  0.59560000  0.83820000  0.65502000  1.0 0.0679242044
C  C25  1  0.95600000  0.31649000  0.38321000  1.0 -0.1521847821
C  C26  1  0.54400000  0.18351000  0.88321000  1.0 -0.1521847821
C  C27  1  0.95600000  0.68351000  0.11679000  1.0 -0.1521847821
C  C28  1  0.54400000  0.81649000  0.61679000  1.0 -0.1521847821
C  C29  1  0.13570000  0.42855000  0.30679000  1.0 0.5706046867
C  C30  1  0.36430000  0.07145000  0.80679000  1.0 0.5706046867
C  C31  1  0.13570000  0.57145000  0.19321000  1.0 0.5706046867
C  C32  1  0.36430000  0.92855000  0.69321000  1.0 0.5706046867
C  C33  1  0.78710000  0.32207000  0.33167000  1.0 0.0490405931
C  C34  1  0.71290000  0.17793000  0.83167000  1.0 0.0490405931
C  C35  1  0.78710000  0.67793000  0.16833000  1.0 0.0490405931
C  C36  1  0.71290000  0.82207000  0.66833000  1.0 0.0490405931
C  C37  1  0.69790000  0.35720000  0.32545000  1.0 -0.0599460069
C  C38  1  0.80210000  0.14280000  0.82545000  1.0 -0.0599460069
C  C39  1  0.69790000  0.64280000  0.17455000  1.0 -0.0599460069
C  C40  1  0.80210000  0.85720000  0.67455000  1.0 -0.0599460069
C  C41  1  0.58900000  0.34062000  0.31407000  1.0 -0.0599460069
C  C42  1  0.91100000  0.15938000  0.81407000  1.0 -0.0599460069
C  C43  1  0.58900000  0.65938000  0.18593000  1.0 -0.0599460069
C  C44  1  0.91100000  0.84062000  0.68593000  1.0 -0.0599460069
C  C45  1  0.56860000  0.28937000  0.30733000  1.0 -0.1192331894
C  C46  1  0.93140000  0.21063000  0.80733000  1.0 -0.1192331894
C  C47  1  0.56860000  0.71063000  0.19267000  1.0 -0.1192331894
C  C48  1  0.93140000  0.78937000  0.69267000  1.0 -0.1192331894
C  C49  1  0.65440000  0.25486000  0.31341000  1.0 -0.0913772228
C  C50  1  0.84560000  0.24514000  0.81341000  1.0 -0.0913772228
C  C51  1  0.65440000  0.74514000  0.18659000  1.0 -0.0913772228
C  C52  1  0.84560000  0.75486000  0.68659000  1.0 -0.0913772228
C  C53  1  0.76150000  0.27114000  0.32605000  1.0 -0.1192331894
C  C54  1  0.73850000  0.22886000  0.82605000  1.0 -0.1192331894
C  C55  1  0.76150000  0.72886000  0.17395000  1.0 -0.1192331894
C  C56  1  0.73850000  0.77114000  0.67395000  1.0 -0.1192331894
C  C57  1  0.72060000  0.41165000  0.33692000  1.0 0.6017673734
C  C58  1  0.77940000  0.08835000  0.83692000  1.0 0.6017673734
C  C59  1  0.72060000  0.58835000  0.16308000  1.0 0.6017673734
C  C60  1  0.77940000  0.91165000  0.66308000  1.0 0.6017673734
C  C61  1  0.49360000  0.37780000  0.31112000  1.0 0.5509116772
C  C62  1  0.00640000  0.12220000  0.81112000  1.0 0.5509116772
C  C63  1  0.49360000  0.62220000  0.18888000  1.0 0.5509116772
C  C64  1  0.00640000  0.87780000  0.68888000  1.0 0.5509116772
C  C65  1  0.34700000  0.57536000  0.30111000  1.0 0.5706046867
C  C66  1  0.15300000  0.92464000  0.80111000  1.0 0.5706046867
C  C67  1  0.34700000  0.42464000  0.19889000  1.0 0.5706046867
C  C68  1  0.15300000  0.07536000  0.69889000  1.0 0.5706046867
C  C69  1  0.40640000  0.61950000  0.32235000  1.0 -0.0260363751
C  C70  1  0.09360000  0.88050000  0.82235000  1.0 -0.0260363751
C  C71  1  0.40640000  0.38050000  0.17765000  1.0 -0.0260363751
C  C72  1  0.09360000  0.11950000  0.67765000  1.0 -0.0260363751
C  C73  1  0.35130000  0.64908000  0.35463000  1.0 -0.133436567
C  C74  1  0.14870000  0.85092000  0.85463000  1.0 -0.133436567
C  C75  1  0.35130000  0.35092000  0.14537000  1.0 -0.133436567
C  C76  1  0.14870000  0.14908000  0.64537000  1.0 -0.133436567
C  C77  1  0.40970000  0.68864000  0.37527000  1.0 -0.0086915614
C  C78  1  0.09030000  0.81136000  0.87527000  1.0 -0.0086915614
C  C79  1  0.40970000  0.31136000  0.12473000  1.0 -0.0086915614
C  C80  1  0.09030000  0.18864000  0.62473000  1.0 -0.0086915614
C  C81  1  0.52260000  0.69887000  0.36274000  1.0 -0.1408026432
C  C82  1  0.97740000  0.80113000  0.86274000  1.0 -0.1408026432
C  C83  1  0.52260000  0.30113000  0.13726000  1.0 -0.1408026432
C  C84  1  0.97740000  0.19887000  0.63726000  1.0 -0.1408026432
C  C85  1  0.57800000  0.67027000  0.32940000  1.0 0.0679242044
C  C86  1  0.92200000  0.82973000  0.82940000  1.0 0.0679242044
C  C87  1  0.57800000  0.32973000  0.17060000  1.0 0.0679242044
C  C88  1  0.92200000  0.17027000  0.67060000  1.0 0.0679242044
C  C89  1  0.51780000  0.63027000  0.31030000  1.0 -0.1521847821
C  C90  1  0.98220000  0.86973000  0.81030000  1.0 -0.1521847821
C  C91  1  0.51780000  0.36973000  0.18970000  1.0 -0.1521847821
C  C92  1  0.98220000  0.13027000  0.68970000  1.0 -0.1521847821
C  C93  1  0.35470000  0.71969000  0.41114000  1.0 0.5435745093
C  C94  1  0.14530000  0.78031000  0.91114000  1.0 0.5435745093
C  C95  1  0.35470000  0.28031000  0.08886000  1.0 0.5435745093
C  C96  1  0.14530000  0.21969000  0.58886000  1.0 0.5435745093
C  C97  1  0.69520000  0.68324000  0.31441000  1.0 0.0490405931
C  C98  1  0.80480000  0.81676000  0.81441000  1.0 0.0490405931
C  C99  1  0.69520000  0.31676000  0.18559000  1.0 0.0490405931
C  C100  1  0.80480000  0.18324000  0.68559000  1.0 0.0490405931
C  C101  1  0.78420000  0.64730000  0.31449000  1.0 -0.0443787373
C  C102  1  0.71580000  0.85270000  0.81449000  1.0 -0.0443787373
C  C103  1  0.78420000  0.35270000  0.18551000  1.0 -0.0443787373
C  C104  1  0.71580000  0.14730000  0.68551000  1.0 -0.0443787373
C  C105  1  0.89290000  0.66134000  0.29976000  1.0 -0.072608563
C  C106  1  0.60710000  0.83866000  0.79976000  1.0 -0.072608563
C  C107  1  0.89290000  0.33866000  0.20024000  1.0 -0.072608563
C  C108  1  0.60710000  0.16134000  0.70024000  1.0 -0.072608563
C  C109  1  0.91190000  0.70982000  0.28397000  1.0 -0.1192331894
C  C110  1  0.58810000  0.79018000  0.78397000  1.0 -0.1192331894
C  C111  1  0.91190000  0.29018000  0.21603000  1.0 -0.1192331894
C  C112  1  0.58810000  0.20982000  0.71603000  1.0 -0.1192331894
C  C113  1  0.82550000  0.74555000  0.28496000  1.0 -0.0913772228
C  C114  1  0.67450000  0.75445000  0.78496000  1.0 -0.0913772228
C  C115  1  0.82550000  0.25445000  0.21504000  1.0 -0.0913772228
C  C116  1  0.67450000  0.24555000  0.71504000  1.0 -0.0913772228
C  C117  1  0.71920000  0.73190000  0.30080000  1.0 -0.1139220994
C  C118  1  0.78080000  0.76810000  0.80080000  1.0 -0.1139220994
C  C119  1  0.71920000  0.26810000  0.19920000  1.0 -0.1139220994
C  C120  1  0.78080000  0.23190000  0.69920000  1.0 -0.1139220994
C  C121  1  0.98910000  0.62497000  0.30260000  1.0 0.5618495468
C  C122  1  0.51090000  0.87503000  0.80260000  1.0 0.5618495468
C  C123  1  0.98910000  0.37503000  0.19740000  1.0 0.5618495468
C  C124  1  0.51090000  0.12497000  0.69740000  1.0 0.5618495468
C  C125  1  0.76150000  0.59538000  0.33381000  1.0 0.5928431872
C  C126  1  0.73850000  0.90462000  0.83381000  1.0 0.5928431872
C  C127  1  0.76150000  0.40462000  0.16619000  1.0 0.5928431872
C  C128  1  0.73850000  0.09538000  0.66619000  1.0 0.5928431872
C  C129  1  0.88310000  0.69008000  0.56112000  1.0 0.5509116772
C  C130  1  0.61690000  0.80992000  0.06112000  1.0 0.5509116772
C  C131  1  0.88310000  0.30992000  0.93888000  1.0 0.5509116772
C  C132  1  0.61690000  0.19008000  0.43888000  1.0 0.5509116772
C  C133  1  0.93590000  0.66812000  0.60357000  1.0 0.005549299
C  C134  1  0.56410000  0.83188000  0.10357000  1.0 0.005549299
C  C135  1  0.93590000  0.33188000  0.89643000  1.0 0.005549299
C  C136  1  0.56410000  0.16812000  0.39643000  1.0 0.005549299
C  C137  1  0.87590000  0.63314000  0.62880000  1.0 -0.133436567
C  C138  1  0.62410000  0.86686000  0.12880000  1.0 -0.133436567
C  C139  1  0.87590000  0.36686000  0.87120000  1.0 -0.133436567
C  C140  1  0.62410000  0.13314000  0.37120000  1.0 -0.133436567
C  C141  1  0.92600000  0.61156000  0.66666667  1.0 -0.0181491504
C  C142  1  0.57400000  0.88844000  0.16667000  1.0 -0.0181491504
C  C143  1  0.92600000  0.38844000  0.83333000  1.0 -0.0181491504
C  C144  1  0.57400000  0.11156000  0.33333333  1.0 -0.0181491504
C  C145  1  0.03580000  0.62555000  0.67925000  1.0 -0.1521847821
C  C146  1  0.46420000  0.87445000  0.17925000  1.0 -0.1521847821
C  C147  1  0.03580000  0.37445000  0.82075000  1.0 -0.1521847821
C  C148  1  0.46420000  0.12555000  0.32075000  1.0 -0.1521847821
C  C149  1  0.09560000  0.66180000  0.65502000  1.0 0.0679242044
C  C150  1  0.40440000  0.83820000  0.15502000  1.0 0.0679242044
C  C151  1  0.09560000  0.33820000  0.84498000  1.0 0.0679242044
C  C152  1  0.40440000  0.16180000  0.34498000  1.0 0.0679242044
C  C153  1  0.04400000  0.68351000  0.61679000  1.0 -0.1521847821
C  C154  1  0.45600000  0.81649000  0.11679000  1.0 -0.1521847821
C  C155  1  0.04400000  0.31649000  0.88321000  1.0 -0.1521847821
C  C156  1  0.45600000  0.18351000  0.38321000  1.0 -0.1521847821
C  C157  1  0.86430000  0.57145000  0.69321000  1.0 0.5706046867
C  C158  1  0.63570000  0.92855000  0.19321000  1.0 0.5706046867
C  C159  1  0.86430000  0.42855000  0.80679000  1.0 0.5706046867
C  C160  1  0.63570000  0.07145000  0.30679000  1.0 0.5706046867
C  C161  1  0.21290000  0.67793000  0.66833000  1.0 0.0490405931
C  C162  1  0.28710000  0.82207000  0.16833000  1.0 0.0490405931
C  C163  1  0.21290000  0.32207000  0.83167000  1.0 0.0490405931
C  C164  1  0.28710000  0.17793000  0.33167000  1.0 0.0490405931
C  C165  1  0.30210000  0.64280000  0.67455000  1.0 -0.0599460069
C  C166  1  0.19790000  0.85720000  0.17455000  1.0 -0.0599460069
C  C167  1  0.30210000  0.35720000  0.82545000  1.0 -0.0599460069
C  C168  1  0.19790000  0.14280000  0.32545000  1.0 -0.0599460069
C  C169  1  0.41100000  0.65938000  0.68593000  1.0 -0.0599460069
C  C170  1  0.08900000  0.84062000  0.18593000  1.0 -0.0599460069
C  C171  1  0.41100000  0.34062000  0.81407000  1.0 -0.0599460069
C  C172  1  0.08900000  0.15938000  0.31407000  1.0 -0.0599460069
C  C173  1  0.43140000  0.71063000  0.69267000  1.0 -0.1192331894
C  C174  1  0.06860000  0.78937000  0.19267000  1.0 -0.1192331894
C  C175  1  0.43140000  0.28937000  0.80733000  1.0 -0.1192331894
C  C176  1  0.06860000  0.21063000  0.30733000  1.0 -0.1192331894
C  C177  1  0.34560000  0.74514000  0.68659000  1.0 -0.0913772228
C  C178  1  0.15440000  0.75486000  0.18659000  1.0 -0.0913772228
C  C179  1  0.34560000  0.25486000  0.81341000  1.0 -0.0913772228
C  C180  1  0.15440000  0.24514000  0.31341000  1.0 -0.0913772228
C  C181  1  0.23850000  0.72886000  0.67395000  1.0 -0.1192331894
C  C182  1  0.26150000  0.77114000  0.17395000  1.0 -0.1192331894
C  C183  1  0.23850000  0.27114000  0.82605000  1.0 -0.1192331894
C  C184  1  0.26150000  0.22886000  0.32605000  1.0 -0.1192331894
C  C185  1  0.27940000  0.58835000  0.66308000  1.0 0.6017673734
C  C186  1  0.22060000  0.91165000  0.16308000  1.0 0.6017673734
C  C187  1  0.27940000  0.41165000  0.83692000  1.0 0.6017673734
C  C188  1  0.22060000  0.08835000  0.33692000  1.0 0.6017673734
C  C189  1  0.50640000  0.62220000  0.68888000  1.0 0.5509116772
C  C190  1  0.99360000  0.87780000  0.18888000  1.0 0.5509116772
C  C191  1  0.50640000  0.37780000  0.81112000  1.0 0.5509116772
C  C192  1  0.99360000  0.12220000  0.31112000  1.0 0.5509116772
C  C193  1  0.65300000  0.42464000  0.69889000  1.0 0.5706046867
C  C194  1  0.84700000  0.07536000  0.19889000  1.0 0.5706046867
C  C195  1  0.65300000  0.57536000  0.80111000  1.0 0.5706046867
C  C196  1  0.84700000  0.92464000  0.30111000  1.0 0.5706046867
C  C197  1  0.59360000  0.38050000  0.67765000  1.0 -0.0260363751
C  C198  1  0.90640000  0.11950000  0.17765000  1.0 -0.0260363751
C  C199  1  0.59360000  0.61950000  0.82235000  1.0 -0.0260363751
C  C200  1  0.90640000  0.88050000  0.32235000  1.0 -0.0260363751
C  C201  1  0.64870000  0.35092000  0.64537000  1.0 -0.133436567
C  C202  1  0.85130000  0.14908000  0.14537000  1.0 -0.133436567
C  C203  1  0.64870000  0.64908000  0.85463000  1.0 -0.133436567
C  C204  1  0.85130000  0.85092000  0.35463000  1.0 -0.133436567
C  C205  1  0.59030000  0.31136000  0.62473000  1.0 -0.0086915614
C  C206  1  0.90970000  0.18864000  0.12473000  1.0 -0.0086915614
C  C207  1  0.59030000  0.68864000  0.87527000  1.0 -0.0086915614
C  C208  1  0.90970000  0.81136000  0.37527000  1.0 -0.0086915614
C  C209  1  0.47740000  0.30113000  0.63726000  1.0 -0.1408026432
C  C210  1  0.02260000  0.19887000  0.13726000  1.0 -0.1408026432
C  C211  1  0.47740000  0.69887000  0.86274000  1.0 -0.1408026432
C  C212  1  0.02260000  0.80113000  0.36274000  1.0 -0.1408026432
C  C213  1  0.42200000  0.32973000  0.67060000  1.0 0.0679242044
C  C214  1  0.07800000  0.17027000  0.17060000  1.0 0.0679242044
C  C215  1  0.42200000  0.67027000  0.82940000  1.0 0.0679242044
C  C216  1  0.07800000  0.82973000  0.32940000  1.0 0.0679242044
C  C217  1  0.48220000  0.36973000  0.68970000  1.0 -0.1521847821
C  C218  1  0.01780000  0.13027000  0.18970000  1.0 -0.1521847821
C  C219  1  0.48220000  0.63027000  0.81030000  1.0 -0.1521847821
C  C220  1  0.01780000  0.86973000  0.31030000  1.0 -0.1521847821
C  C221  1  0.64530000  0.28031000  0.58886000  1.0 0.5435745093
C  C222  1  0.85470000  0.21969000  0.08886000  1.0 0.5435745093
C  C223  1  0.64530000  0.71969000  0.91114000  1.0 0.5435745093
C  C224  1  0.85470000  0.78031000  0.41114000  1.0 0.5435745093
C  C225  1  0.30480000  0.31676000  0.68559000  1.0 0.0490405931
C  C226  1  0.19520000  0.18324000  0.18559000  1.0 0.0490405931
C  C227  1  0.30480000  0.68324000  0.81441000  1.0 0.0490405931
C  C228  1  0.19520000  0.81676000  0.31441000  1.0 0.0490405931
C  C229  1  0.21580000  0.35270000  0.68551000  1.0 -0.0443787373
C  C230  1  0.28420000  0.14730000  0.18551000  1.0 -0.0443787373
C  C231  1  0.21580000  0.64730000  0.81449000  1.0 -0.0443787373
C  C232  1  0.28420000  0.85270000  0.31449000  1.0 -0.0443787373
C  C233  1  0.10710000  0.33866000  0.70024000  1.0 -0.072608563
C  C234  1  0.39290000  0.16134000  0.20024000  1.0 -0.072608563
C  C235  1  0.10710000  0.66134000  0.79976000  1.0 -0.072608563
C  C236  1  0.39290000  0.83866000  0.29976000  1.0 -0.072608563
C  C237  1  0.08810000  0.29018000  0.71603000  1.0 -0.1192331894
C  C238  1  0.41190000  0.20982000  0.21603000  1.0 -0.1192331894
C  C239  1  0.08810000  0.70982000  0.78397000  1.0 -0.1192331894
C  C240  1  0.41190000  0.79018000  0.28397000  1.0 -0.1192331894
C  C241  1  0.17450000  0.25445000  0.71504000  1.0 -0.0913772228
C  C242  1  0.32550000  0.24555000  0.21504000  1.0 -0.0913772228
C  C243  1  0.17450000  0.74555000  0.78496000  1.0 -0.0913772228
C  C244  1  0.32550000  0.75445000  0.28496000  1.0 -0.0913772228
C  C245  1  0.28080000  0.26810000  0.69920000  1.0 -0.1139220994
C  C246  1  0.21920000  0.23190000  0.19920000  1.0 -0.1139220994
C  C247  1  0.28080000  0.73190000  0.80080000  1.0 -0.1139220994
C  C248  1  0.21920000  0.76810000  0.30080000  1.0 -0.1139220994
C  C249  1  0.01090000  0.37503000  0.69740000  1.0 0.5618495468
C  C250  1  0.48910000  0.12497000  0.19740000  1.0 0.5618495468
C  C251  1  0.01090000  0.62497000  0.80260000  1.0 0.5618495468
C  C252  1  0.48910000  0.87503000  0.30260000  1.0 0.5618495468
C  C253  1  0.23850000  0.40462000  0.66619000  1.0 0.5928431872
C  C254  1  0.26150000  0.09538000  0.16619000  1.0 0.5928431872
C  C255  1  0.23850000  0.59538000  0.83381000  1.0 0.5928431872
C  C256  1  0.26150000  0.90462000  0.33381000  1.0 0.5928431872
O  O1  1  0.06160000  0.27966000  0.46214000  1.0 -0.5195338305
O  O2  1  0.43840000  0.22034000  0.96214000  1.0 -0.5195338305
O  O3  1  0.06160000  0.72034000  0.03786000  1.0 -0.5195338305
O  O4  1  0.43840000  0.77966000  0.53786000  1.0 -0.5195338305
O  O5  1  0.21410000  0.32468000  0.45061000  1.0 -0.5503075075
O  O6  1  0.28590000  0.17532000  0.95061000  1.0 -0.5503075075
O  O7  1  0.21410000  0.67532000  0.04939000  1.0 -0.5503075075
O  O8  1  0.28590000  0.82468000  0.54939000  1.0 -0.5503075075
O  O9  1  0.24290000  0.43171000  0.30843000  1.0 -0.5406447955
O  O10  1  0.25710000  0.06829000  0.80843000  1.0 -0.5406447955
O  O11  1  0.24290000  0.56829000  0.19157000  1.0 -0.5406447955
O  O12  1  0.25710000  0.93171000  0.69157000  1.0 -0.5406447955
O  O13  1  0.08010000  0.45907000  0.28386000  1.0 -0.5631713149
O  O14  1  0.41990000  0.04093000  0.78386000  1.0 -0.5631713149
O  O15  1  0.08010000  0.54093000  0.21614000  1.0 -0.5631713149
O  O16  1  0.41990000  0.95907000  0.71614000  1.0 -0.5631713149
O  O17  1  0.71300000  0.42221000  0.37894000  1.0 -0.5406447955
O  O18  1  0.78700000  0.07779000  0.87894000  1.0 -0.5406447955
O  O19  1  0.71300000  0.57779000  0.12106000  1.0 -0.5406447955
O  O20  1  0.78700000  0.92221000  0.62106000  1.0 -0.5406447955
O  O21  1  0.74780000  0.44356000  0.30797000  1.0 -0.6326487389
O  O22  1  0.75220000  0.05644000  0.80797000  1.0 -0.6326487389
O  O23  1  0.74780000  0.55644000  0.19203000  1.0 -0.6326487389
O  O24  1  0.75220000  0.94356000  0.69203000  1.0 -0.6326487389
O  O25  1  0.39250000  0.35752000  0.30518000  1.0 -0.4627695774
O  O26  1  0.10750000  0.14248000  0.80518000  1.0 -0.4627695774
O  O27  1  0.39250000  0.64248000  0.19482000  1.0 -0.4627695774
O  O28  1  0.10750000  0.85752000  0.69482000  1.0 -0.4627695774
O  O29  1  0.50680000  0.42246000  0.31422000  1.0 -0.466755632
O  O30  1  0.99320000  0.07754000  0.81422000  1.0 -0.466755632
O  O31  1  0.50680000  0.57754000  0.18578000  1.0 -0.466755632
O  O32  1  0.99320000  0.92246000  0.68578000  1.0 -0.466755632
O  O33  1  0.40290000  0.54108000  0.28386000  1.0 -0.5503075075
O  O34  1  0.09710000  0.95892000  0.78386000  1.0 -0.5503075075
O  O35  1  0.40290000  0.45892000  0.21614000  1.0 -0.5503075075
O  O36  1  0.09710000  0.04108000  0.71614000  1.0 -0.5503075075
O  O37  1  0.23790000  0.57267000  0.30098000  1.0 -0.5503075075
O  O38  1  0.26210000  0.92733000  0.80098000  1.0 -0.5503075075
O  O39  1  0.23790000  0.42733000  0.19902000  1.0 -0.5503075075
O  O40  1  0.26210000  0.07267000  0.69902000  1.0 -0.5503075075
O  O41  1  0.24970000  0.72451000  0.41260000  1.0 -0.5406447955
O  O42  1  0.25030000  0.77549000  0.91260000  1.0 -0.5406447955
O  O43  1  0.24970000  0.27549000  0.08740000  1.0 -0.5406447955
O  O44  1  0.25030000  0.22451000  0.58740000  1.0 -0.5406447955
O  O45  1  0.41850000  0.74037000  0.43995000  1.0 -0.527821767
O  O46  1  0.08150000  0.75963000  0.93995000  1.0 -0.527821767
O  O47  1  0.41850000  0.25963000  0.06005000  1.0 -0.527821767
O  O48  1  0.08150000  0.24037000  0.56005000  1.0 -0.527821767
O  O49  1  0.08860000  0.64419000  0.29086000  1.0 -0.466755632
O  O50  1  0.41140000  0.85581000  0.79086000  1.0 -0.466755632
O  O51  1  0.08860000  0.35581000  0.20914000  1.0 -0.466755632
O  O52  1  0.41140000  0.14419000  0.70914000  1.0 -0.466755632
O  O53  1  0.97760000  0.58157000  0.31400000  1.0 -0.466755632
O  O54  1  0.52240000  0.91843000  0.81400000  1.0 -0.466755632
O  O55  1  0.97760000  0.41843000  0.18600000  1.0 -0.466755632
O  O56  1  0.52240000  0.08157000  0.68600000  1.0 -0.466755632
O  O57  1  0.76520000  0.59124000  0.37645000  1.0 -0.5406447955
O  O58  1  0.73480000  0.90876000  0.87645000  1.0 -0.5406447955
O  O59  1  0.76520000  0.40876000  0.12355000  1.0 -0.5406447955
O  O60  1  0.73480000  0.09124000  0.62355000  1.0 -0.5406447955
O  O61  1  0.73680000  0.55912000  0.30880000  1.0 -0.6355818612
O  O62  1  0.76320000  0.94088000  0.80880000  1.0 -0.6355818612
O  O63  1  0.73680000  0.44088000  0.19120000  1.0 -0.6355818612
O  O64  1  0.76320000  0.05912000  0.69120000  1.0 -0.6355818612
O  O65  1  0.93840000  0.72034000  0.53786000  1.0 -0.5195338305
O  O66  1  0.56160000  0.77966000  0.03786000  1.0 -0.5195338305
O  O67  1  0.93840000  0.27966000  0.96214000  1.0 -0.5195338305
O  O68  1  0.56160000  0.22034000  0.46214000  1.0 -0.5195338305
O  O69  1  0.78590000  0.67532000  0.54939000  1.0 -0.5503075075
O  O70  1  0.71410000  0.82468000  0.04939000  1.0 -0.5503075075
O  O71  1  0.78590000  0.32468000  0.95061000  1.0 -0.5503075075
O  O72  1  0.71410000  0.17532000  0.45061000  1.0 -0.5503075075
O  O73  1  0.75710000  0.56829000  0.69157000  1.0 -0.5406447955
O  O74  1  0.74290000  0.93171000  0.19157000  1.0 -0.5406447955
O  O75  1  0.75710000  0.43171000  0.80843000  1.0 -0.5406447955
O  O76  1  0.74290000  0.06829000  0.30843000  1.0 -0.5406447955
O  O77  1  0.91990000  0.54093000  0.71614000  1.0 -0.5631713149
O  O78  1  0.58010000  0.95907000  0.21614000  1.0 -0.5631713149
O  O79  1  0.91990000  0.45907000  0.78386000  1.0 -0.5631713149
O  O80  1  0.58010000  0.04093000  0.28386000  1.0 -0.5631713149
O  O81  1  0.28700000  0.57779000  0.62106000  1.0 -0.5406447955
O  O82  1  0.21300000  0.92221000  0.12106000  1.0 -0.5406447955
O  O83  1  0.28700000  0.42221000  0.87894000  1.0 -0.5406447955
O  O84  1  0.21300000  0.07779000  0.37894000  1.0 -0.5406447955
O  O85  1  0.25220000  0.55644000  0.69203000  1.0 -0.6326487389
O  O86  1  0.24780000  0.94356000  0.19203000  1.0 -0.6326487389
O  O87  1  0.25220000  0.44356000  0.80797000  1.0 -0.6326487389
O  O88  1  0.24780000  0.05644000  0.30797000  1.0 -0.6326487389
O  O89  1  0.60750000  0.64248000  0.69482000  1.0 -0.4627695774
O  O90  1  0.89250000  0.85752000  0.19482000  1.0 -0.4627695774
O  O91  1  0.60750000  0.35752000  0.80518000  1.0 -0.4627695774
O  O92  1  0.89250000  0.14248000  0.30518000  1.0 -0.4627695774
O  O93  1  0.49320000  0.57754000  0.68578000  1.0 -0.4627695774
O  O94  1  0.00680000  0.92246000  0.18578000  1.0 -0.4627695774
O  O95  1  0.49320000  0.42246000  0.81422000  1.0 -0.466755632
O  O96  1  0.00680000  0.07754000  0.31422000  1.0 -0.4627695774
O  O97  1  0.59710000  0.45892000  0.71614000  1.0 -0.5503075075
O  O98  1  0.90290000  0.04108000  0.21614000  1.0 -0.5503075075
O  O99  1  0.59710000  0.54108000  0.78386000  1.0 -0.5503075075
O  O100  1  0.90290000  0.95892000  0.28386000  1.0 -0.5503075075
O  O101  1  0.76210000  0.42733000  0.69902000  1.0 -0.5503075075
O  O102  1  0.73790000  0.07267000  0.19902000  1.0 -0.5503075075
O  O103  1  0.76210000  0.57267000  0.80098000  1.0 -0.5503075075
O  O104  1  0.73790000  0.92733000  0.30098000  1.0 -0.5503075075
O  O105  1  0.75030000  0.27549000  0.58740000  1.0 -0.5406447955
O  O106  1  0.74970000  0.22451000  0.08740000  1.0 -0.5406447955
O  O107  1  0.75030000  0.72451000  0.91260000  1.0 -0.5406447955
O  O108  1  0.74970000  0.77549000  0.41260000  1.0 -0.5406447955
O  O109  1  0.58150000  0.25963000  0.56005000  1.0 -0.527821767
O  O110  1  0.91850000  0.24037000  0.06005000  1.0 -0.527821767
O  O111  1  0.58150000  0.74037000  0.93995000  1.0 -0.527821767
O  O112  1  0.91850000  0.75963000  0.43995000  1.0 -0.527821767
O  O113  1  0.91140000  0.35581000  0.70914000  1.0 -0.466755632
O  O114  1  0.58860000  0.14419000  0.20914000  1.0 -0.466755632
O  O115  1  0.91140000  0.64419000  0.79086000  1.0 -0.466755632
O  O116  1  0.58860000  0.85581000  0.29086000  1.0 -0.466755632
O  O117  1  0.02240000  0.41843000  0.68600000  1.0 -0.466755632
O  O118  1  0.47760000  0.08157000  0.18600000  1.0 -0.466755632
O  O119  1  0.02240000  0.58157000  0.81400000  1.0 -0.466755632
O  O120  1  0.47760000  0.91843000  0.31400000  1.0 -0.466755632
O  O121  1  0.23480000  0.40876000  0.62355000  1.0 -0.5406447955
O  O122  1  0.26520000  0.09124000  0.12355000  1.0 -0.5406447955
O  O123  1  0.23480000  0.59124000  0.87645000  1.0 -0.5406447955
O  O124  1  0.26520000  0.90876000  0.37645000  1.0 -0.5406447955
O  O125  1  0.26320000  0.44088000  0.69120000  1.0 -0.6355818612
O  O126  1  0.23680000  0.05912000  0.19120000  1.0 -0.6355818612
O  O127  1  0.26320000  0.55912000  0.80880000  1.0 -0.6355818612
O  O128  1  0.23680000  0.94088000  0.30880000  1.0 -0.6355818612
