# DDEC6 charges by PACMAN v1.1 (https://github.com/mtap-research/PACMAN-charge/)
data_ZARLEL_ASR_pacman
_symmetry_space_group_name_H-M   'P 1'
_cell_length_a   20.26900000
_cell_length_b   20.26900000
_cell_length_c   39.64500000
_cell_angle_alpha   90.00000000
_cell_angle_beta   90.00000000
_cell_angle_gamma   90.00000000
_symmetry_Int_Tables_number   1
_chemical_formula_structural   ZnH10(C11O2)2
_chemical_formula_sum   'Zn12 H120 C264 O48'
_cell_volume   16287.44895184
_cell_formula_units_Z   12
loop_
 _symmetry_equiv_pos_site_id
 _symmetry_equiv_pos_as_xyz
  1  'x, y, z'
loop_
 _atom_site_type_symbol
 _atom_site_label
 _atom_site_symmetry_multiplicity
 _atom_site_fract_x
 _atom_site_fract_y
 _atom_site_fract_z
 _atom_site_occupancy
 _atom_site_charge
Zn  Zn1  1  0.16811000  0.00000000  0.25000000  1.0 1.0553863222
Zn  Zn2  1  0.83189000  0.00000000  0.75000000  1.0 1.0553863222
Zn  Zn3  1  0.00000000  0.83189000  0.50000000  1.0 1.0553863222
Zn  Zn4  1  0.00000000  0.16811000  0.00000000  1.0 1.0553863222
Zn  Zn5  1  0.16808000  0.85457000  0.29912000  1.0 0.9251252586
Zn  Zn6  1  0.83192000  0.14543000  0.79912000  1.0 0.9251252586
Zn  Zn7  1  0.16808000  0.14543000  0.20088000  1.0 0.9251252586
Zn  Zn8  1  0.83192000  0.85457000  0.70088000  1.0 0.9251252586
Zn  Zn9  1  0.14543000  0.83192000  0.45088000  1.0 0.9251252586
Zn  Zn10  1  0.85457000  0.16808000  0.95088000  1.0 0.9251252586
Zn  Zn11  1  0.85457000  0.83192000  0.54912000  1.0 0.9251252586
Zn  Zn12  1  0.14543000  0.16808000  0.04912000  1.0 0.9251252586
H  H1  1  0.16190000  0.11340000  0.33860000  1.0 0.1200061688
H  H2  1  0.83810000  0.88660000  0.83860000  1.0 0.1200061688
H  H3  1  0.16190000  0.88660000  0.16140000  1.0 0.1200061688
H  H4  1  0.83810000  0.11340000  0.66140000  1.0 0.1200061688
H  H5  1  0.88660000  0.83810000  0.41140000  1.0 0.1200061688
H  H6  1  0.11340000  0.16190000  0.91140000  1.0 0.1200061688
H  H7  1  0.11340000  0.83810000  0.58860000  1.0 0.1200061688
H  H8  1  0.88660000  0.16190000  0.08860000  1.0 0.1200061688
H  H9  1  0.14220000  0.17630000  0.38670000  1.0 0.1200061688
H  H10  1  0.85780000  0.82370000  0.88670000  1.0 0.1200061688
H  H11  1  0.14220000  0.82370000  0.11330000  1.0 0.1200061688
H  H12  1  0.85780000  0.17630000  0.61330000  1.0 0.1200061688
H  H13  1  0.82370000  0.85780000  0.36330000  1.0 0.1200061688
H  H14  1  0.17630000  0.14220000  0.86330000  1.0 0.1200061688
H  H15  1  0.17630000  0.85780000  0.63670000  1.0 0.1200061688
H  H16  1  0.82370000  0.14220000  0.13670000  1.0 0.1200061688
H  H17  1  0.10240000  0.00820000  0.43820000  1.0 0.1289231915
H  H18  1  0.89760000  0.99180000  0.93820000  1.0 0.1289231915
H  H19  1  0.10240000  0.99180000  0.06180000  1.0 0.1289231915
H  H20  1  0.89760000  0.00820000  0.56180000  1.0 0.1289231915
H  H21  1  0.99180000  0.89760000  0.31180000  1.0 0.1289231915
H  H22  1  0.00820000  0.10240000  0.81180000  1.0 0.1289231915
H  H23  1  0.00820000  0.89760000  0.68820000  1.0 0.1289231915
H  H24  1  0.99180000  0.10240000  0.18820000  1.0 0.1289231915
H  H25  1  0.12170000  0.94610000  0.38930000  1.0 0.1147914702
H  H26  1  0.87830000  0.05390000  0.88930000  1.0 0.1147914702
H  H27  1  0.12170000  0.05390000  0.11070000  1.0 0.1147914702
H  H28  1  0.87830000  0.94610000  0.61070000  1.0 0.1147914702
H  H29  1  0.05390000  0.87830000  0.36070000  1.0 0.1147914702
H  H30  1  0.94610000  0.12170000  0.86070000  1.0 0.1147914702
H  H31  1  0.94610000  0.87830000  0.63930000  1.0 0.1147914702
H  H32  1  0.05390000  0.12170000  0.13930000  1.0 0.1147914702
H  H33  1  0.10430000  0.29630000  0.47630000  1.0 0.139693769
H  H34  1  0.89570000  0.70370000  0.97630000  1.0 0.139693769
H  H35  1  0.10430000  0.70370000  0.02370000  1.0 0.139693769
H  H36  1  0.89570000  0.29630000  0.52370000  1.0 0.139693769
H  H37  1  0.70370000  0.89570000  0.27370000  1.0 0.139693769
H  H38  1  0.29630000  0.10430000  0.77370000  1.0 0.139693769
H  H39  1  0.29630000  0.89570000  0.72630000  1.0 0.139693769
H  H40  1  0.70370000  0.10430000  0.22630000  1.0 0.139693769
H  H41  1  0.06590000  0.31950000  0.57630000  1.0 0.139693769
H  H42  1  0.93410000  0.68050000  0.07630000  1.0 0.139693769
H  H43  1  0.06590000  0.68050000  0.92370000  1.0 0.139693769
H  H44  1  0.93410000  0.31950000  0.42370000  1.0 0.139693769
H  H45  1  0.68050000  0.93410000  0.17370000  1.0 0.139693769
H  H46  1  0.31950000  0.06590000  0.67370000  1.0 0.139693769
H  H47  1  0.31950000  0.93410000  0.82630000  1.0 0.139693769
H  H48  1  0.68050000  0.06590000  0.32630000  1.0 0.139693769
H  H49  1  0.07580000  0.13540000  0.53520000  1.0 0.1289231915
H  H50  1  0.92420000  0.86460000  0.03520000  1.0 0.1289231915
H  H51  1  0.07580000  0.86460000  0.96480000  1.0 0.1289231915
H  H52  1  0.92420000  0.13540000  0.46480000  1.0 0.1289231915
H  H53  1  0.86460000  0.92420000  0.21480000  1.0 0.1289231915
H  H54  1  0.13540000  0.07580000  0.71480000  1.0 0.1289231915
H  H55  1  0.13540000  0.92420000  0.78520000  1.0 0.1289231915
H  H56  1  0.86460000  0.07580000  0.28520000  1.0 0.1289231915
H  H57  1  0.15980000  0.50680000  0.46850000  1.0 0.1289231915
H  H58  1  0.84020000  0.49320000  0.96850000  1.0 0.1289231915
H  H59  1  0.15980000  0.49320000  0.03150000  1.0 0.1289231915
H  H60  1  0.84020000  0.50680000  0.53150000  1.0 0.1289231915
H  H61  1  0.49320000  0.84020000  0.28150000  1.0 0.1289231915
H  H62  1  0.50680000  0.15980000  0.78150000  1.0 0.1289231915
H  H63  1  0.50680000  0.84020000  0.71850000  1.0 0.1289231915
H  H64  1  0.49320000  0.15980000  0.21850000  1.0 0.1289231915
H  H65  1  0.16560000  0.61690000  0.45610000  1.0 0.1289231915
H  H66  1  0.83440000  0.38310000  0.95610000  1.0 0.1289231915
H  H67  1  0.16560000  0.38310000  0.04390000  1.0 0.1289231915
H  H68  1  0.83440000  0.61690000  0.54390000  1.0 0.1289231915
H  H69  1  0.38310000  0.83440000  0.29390000  1.0 0.1289231915
H  H70  1  0.61690000  0.16560000  0.79390000  1.0 0.1289231915
H  H71  1  0.61690000  0.83440000  0.70610000  1.0 0.1289231915
H  H72  1  0.38310000  0.16560000  0.20610000  1.0 0.1289231915
H  H73  1  0.05160000  0.65980000  0.53600000  1.0 0.1289231915
H  H74  1  0.94840000  0.34020000  0.03600000  1.0 0.1289231915
H  H75  1  0.05160000  0.34020000  0.96400000  1.0 0.1289231915
H  H76  1  0.94840000  0.65980000  0.46400000  1.0 0.1289231915
H  H77  1  0.34020000  0.94840000  0.21400000  1.0 0.1289231915
H  H78  1  0.65980000  0.05160000  0.71400000  1.0 0.1289231915
H  H79  1  0.65980000  0.94840000  0.78600000  1.0 0.1289231915
H  H80  1  0.34020000  0.05160000  0.28600000  1.0 0.1289231915
H  H81  1  0.03920000  0.55140000  0.54710000  1.0 0.1289231915
H  H82  1  0.96080000  0.44860000  0.04710000  1.0 0.1289231915
H  H83  1  0.03920000  0.44860000  0.95290000  1.0 0.1289231915
H  H84  1  0.96080000  0.55140000  0.45290000  1.0 0.1289231915
H  H85  1  0.44860000  0.96080000  0.20290000  1.0 0.1289231915
H  H86  1  0.55140000  0.03920000  0.70290000  1.0 0.1289231915
H  H87  1  0.55140000  0.96080000  0.79710000  1.0 0.1289231915
H  H88  1  0.44860000  0.03920000  0.29710000  1.0 0.1289231915
H  H89  1  0.98250000  0.25920000  0.66260000  1.0 0.1289231915
H  H90  1  0.01750000  0.74080000  0.16260000  1.0 0.1289231915
H  H91  1  0.98250000  0.74080000  0.83740000  1.0 0.1289231915
H  H92  1  0.01750000  0.25920000  0.33740000  1.0 0.1289231915
H  H93  1  0.74080000  0.01750000  0.08740000  1.0 0.1289231915
H  H94  1  0.25920000  0.98250000  0.58740000  1.0 0.1289231915
H  H95  1  0.25920000  0.01750000  0.91260000  1.0 0.1289231915
H  H96  1  0.74080000  0.98250000  0.41260000  1.0 0.1289231915
H  H97  1  0.93540000  0.23960000  0.71430000  1.0 0.1289231915
H  H98  1  0.06460000  0.76040000  0.21430000  1.0 0.1289231915
H  H99  1  0.93540000  0.76040000  0.78570000  1.0 0.1289231915
H  H100  1  0.06460000  0.23960000  0.28570000  1.0 0.1289231915
H  H101  1  0.76040000  0.06460000  0.03570000  1.0 0.1289231915
H  H102  1  0.23960000  0.93540000  0.53570000  1.0 0.1289231915
H  H103  1  0.23960000  0.06460000  0.96430000  1.0 0.1289231915
H  H104  1  0.76040000  0.93540000  0.46430000  1.0 0.1289231915
H  H105  1  0.98480000  0.04840000  0.70710000  1.0 0.1289231915
H  H106  1  0.01520000  0.95160000  0.20710000  1.0 0.1289231915
H  H107  1  0.98480000  0.95160000  0.79290000  1.0 0.1289231915
H  H108  1  0.01520000  0.04840000  0.29290000  1.0 0.1289231915
H  H109  1  0.95160000  0.01520000  0.04290000  1.0 0.1289231915
H  H110  1  0.04840000  0.98480000  0.54290000  1.0 0.1289231915
H  H111  1  0.04840000  0.01520000  0.95710000  1.0 0.1289231915
H  H112  1  0.95160000  0.98480000  0.45710000  1.0 0.1289231915
H  H113  1  0.03270000  0.06760000  0.65530000  1.0 0.1200061688
H  H114  1  0.96730000  0.93240000  0.15530000  1.0 0.1200061688
H  H115  1  0.03270000  0.93240000  0.84470000  1.0 0.1200061688
H  H116  1  0.96730000  0.06760000  0.34470000  1.0 0.1200061688
H  H117  1  0.93240000  0.96730000  0.09470000  1.0 0.1200061688
H  H118  1  0.06760000  0.03270000  0.59470000  1.0 0.1200061688
H  H119  1  0.06760000  0.96730000  0.90530000  1.0 0.1200061688
H  H120  1  0.93240000  0.03270000  0.40530000  1.0 0.1200061688
C  C1  1  0.15612000  0.98556000  0.32782000  1.0 0.5975904638
C  C2  1  0.84388000  0.01444000  0.82782000  1.0 0.5975904638
C  C3  1  0.15612000  0.01444000  0.17218000  1.0 0.5975904638
C  C4  1  0.84388000  0.98556000  0.67218000  1.0 0.5975904638
C  C5  1  0.01444000  0.84388000  0.42218000  1.0 0.5975904638
C  C6  1  0.98556000  0.15612000  0.92218000  1.0 0.5975904638
C  C7  1  0.98556000  0.84388000  0.57782000  1.0 0.5975904638
C  C8  1  0.01444000  0.15612000  0.07782000  1.0 0.5975904638
C  C9  1  0.14420000  0.02579000  0.35960000  1.0 -0.0250872163
C  C10  1  0.85580000  0.97421000  0.85960000  1.0 -0.0250872163
C  C11  1  0.14420000  0.97421000  0.14040000  1.0 -0.0250872163
C  C12  1  0.85580000  0.02579000  0.64040000  1.0 -0.0250872163
C  C13  1  0.97421000  0.85580000  0.39040000  1.0 -0.0250872163
C  C14  1  0.02579000  0.14420000  0.89040000  1.0 -0.0250872163
C  C15  1  0.02579000  0.85580000  0.60960000  1.0 -0.0250872163
C  C16  1  0.97421000  0.14420000  0.10960000  1.0 -0.0250872163
C  C17  1  0.14981000  0.09240000  0.35882000  1.0 -0.0910167646
C  C18  1  0.85019000  0.90760000  0.85882000  1.0 -0.0910167646
C  C19  1  0.14981000  0.90760000  0.14118000  1.0 -0.0910167646
C  C20  1  0.85019000  0.09240000  0.64118000  1.0 -0.0910167646
C  C21  1  0.90760000  0.85019000  0.39118000  1.0 -0.0910167646
C  C22  1  0.09240000  0.14981000  0.89118000  1.0 -0.0910167646
C  C23  1  0.09240000  0.85019000  0.60882000  1.0 -0.0910167646
C  C24  1  0.90760000  0.14981000  0.10882000  1.0 -0.0910167646
C  C25  1  0.13795000  0.13015000  0.38735000  1.0 -0.1564129399
C  C26  1  0.86205000  0.86985000  0.88735000  1.0 -0.1564129399
C  C27  1  0.13795000  0.86985000  0.11265000  1.0 -0.1564129399
C  C28  1  0.86205000  0.13015000  0.61265000  1.0 -0.1564129399
C  C29  1  0.86985000  0.86205000  0.36265000  1.0 -0.1564129399
C  C30  1  0.13015000  0.13795000  0.86265000  1.0 -0.1564129399
C  C31  1  0.13015000  0.86205000  0.63735000  1.0 -0.1564129399
C  C32  1  0.86985000  0.13795000  0.13735000  1.0 -0.1564129399
C  C33  1  0.11923000  0.09740000  0.41751000  1.0 0.139693769
C  C34  1  0.88077000  0.90260000  0.91751000  1.0 0.139693769
C  C35  1  0.11923000  0.90260000  0.08249000  1.0 0.139693769
C  C36  1  0.88077000  0.09740000  0.58249000  1.0 0.139693769
C  C37  1  0.90260000  0.88077000  0.33249000  1.0 0.139693769
C  C38  1  0.09740000  0.11923000  0.83249000  1.0 0.139693769
C  C39  1  0.09740000  0.88077000  0.66751000  1.0 0.139693769
C  C40  1  0.90260000  0.11923000  0.16751000  1.0 0.139693769
C  C41  1  0.11407000  0.02960000  0.41808000  1.0 -0.1529742604
C  C42  1  0.88593000  0.97040000  0.91808000  1.0 -0.1529742604
C  C43  1  0.11407000  0.97040000  0.08192000  1.0 -0.1529742604
C  C44  1  0.88593000  0.02960000  0.58192000  1.0 -0.1529742604
C  C45  1  0.97040000  0.88593000  0.33192000  1.0 -0.1529742604
C  C46  1  0.02960000  0.11407000  0.83192000  1.0 -0.1529742604
C  C47  1  0.02960000  0.88593000  0.66808000  1.0 -0.1529742604
C  C48  1  0.97040000  0.11407000  0.16808000  1.0 -0.1529742604
C  C49  1  0.12591000  0.99226000  0.38907000  1.0 -0.1007413965
C  C50  1  0.87409000  0.00774000  0.88907000  1.0 -0.1007413965
C  C51  1  0.12591000  0.00774000  0.11093000  1.0 -0.1007413965
C  C52  1  0.87409000  0.99226000  0.61093000  1.0 -0.1007413965
C  C53  1  0.00774000  0.87409000  0.36093000  1.0 -0.1007413965
C  C54  1  0.99226000  0.12591000  0.86093000  1.0 -0.1007413965
C  C55  1  0.99226000  0.87409000  0.63907000  1.0 -0.1007413965
C  C56  1  0.00774000  0.12591000  0.13907000  1.0 -0.1007413965
C  C57  1  0.10723000  0.13635000  0.44788000  1.0 -0.1007413965
C  C58  1  0.89277000  0.86365000  0.94788000  1.0 -0.1007413965
C  C59  1  0.10723000  0.86365000  0.05212000  1.0 -0.1007413965
C  C60  1  0.89277000  0.13635000  0.55212000  1.0 -0.1007413965
C  C61  1  0.86365000  0.89277000  0.30212000  1.0 -0.1007413965
C  C62  1  0.13635000  0.10723000  0.80212000  1.0 -0.1007413965
C  C63  1  0.13635000  0.89277000  0.69788000  1.0 -0.1007413965
C  C64  1  0.86365000  0.10723000  0.19788000  1.0 -0.1007413965
C  C65  1  0.09925000  0.16850000  0.47208000  1.0 -0.0910167646
C  C66  1  0.90075000  0.83150000  0.97208000  1.0 -0.0910167646
C  C67  1  0.09925000  0.83150000  0.02792000  1.0 -0.0910167646
C  C68  1  0.90075000  0.16850000  0.52792000  1.0 -0.0910167646
C  C69  1  0.83150000  0.90075000  0.27792000  1.0 -0.0910167646
C  C70  1  0.16850000  0.09925000  0.77792000  1.0 -0.0910167646
C  C71  1  0.16850000  0.90075000  0.72208000  1.0 -0.0910167646
C  C72  1  0.83150000  0.09925000  0.22208000  1.0 -0.0910167646
C  C73  1  0.08904000  0.21070000  0.50092000  1.0 0.139693769
C  C74  1  0.91096000  0.78930000  0.00092000  1.0 0.139693769
C  C75  1  0.08904000  0.78930000  0.99908000  1.0 0.139693769
C  C76  1  0.91096000  0.21070000  0.49908000  1.0 0.139693769
C  C77  1  0.78930000  0.91096000  0.24908000  1.0 0.139693769
C  C78  1  0.21070000  0.08904000  0.74908000  1.0 0.139693769
C  C79  1  0.21070000  0.91096000  0.75092000  1.0 0.139693769
C  C80  1  0.78930000  0.08904000  0.25092000  1.0 0.139693769
C  C81  1  0.09400000  0.27840000  0.49756000  1.0 -0.1783305447
C  C82  1  0.90600000  0.72160000  0.99756000  1.0 -0.1783305447
C  C83  1  0.09400000  0.72160000  0.00244000  1.0 -0.1783305447
C  C84  1  0.90600000  0.27840000  0.50244000  1.0 -0.1783305447
C  C85  1  0.72160000  0.90600000  0.25244000  1.0 -0.1783305447
C  C86  1  0.27840000  0.09400000  0.75244000  1.0 -0.1783305447
C  C87  1  0.27840000  0.90600000  0.74756000  1.0 -0.1783305447
C  C88  1  0.72160000  0.09400000  0.24756000  1.0 -0.1783305447
C  C89  1  0.08430000  0.32040000  0.52445000  1.0 0.1200061688
C  C90  1  0.91570000  0.67960000  0.02445000  1.0 0.1200061688
C  C91  1  0.08430000  0.67960000  0.97555000  1.0 0.1200061688
C  C92  1  0.91570000  0.32040000  0.47555000  1.0 0.1200061688
C  C93  1  0.67960000  0.91570000  0.22555000  1.0 0.1200061688
C  C94  1  0.32040000  0.08430000  0.72555000  1.0 0.1200061688
C  C95  1  0.32040000  0.91570000  0.77445000  1.0 0.1200061688
C  C96  1  0.67960000  0.08430000  0.27445000  1.0 0.1200061688
C  C97  1  0.07166000  0.29220000  0.55730000  1.0 -0.1783305447
C  C98  1  0.92834000  0.70780000  0.05730000  1.0 -0.1783305447
C  C99  1  0.07166000  0.70780000  0.94270000  1.0 -0.1783305447
C  C100  1  0.92834000  0.29220000  0.44270000  1.0 -0.1783305447
C  C101  1  0.70780000  0.92834000  0.19270000  1.0 -0.1783305447
C  C102  1  0.29220000  0.07166000  0.69270000  1.0 -0.1783305447
C  C103  1  0.29220000  0.92834000  0.80730000  1.0 -0.1783305447
C  C104  1  0.70780000  0.07166000  0.30730000  1.0 -0.1783305447
C  C105  1  0.06817000  0.22430000  0.56033000  1.0 0.139693769
C  C106  1  0.93183000  0.77570000  0.06033000  1.0 0.139693769
C  C107  1  0.06817000  0.77570000  0.93967000  1.0 0.139693769
C  C108  1  0.93183000  0.22430000  0.43967000  1.0 0.139693769
C  C109  1  0.77570000  0.93183000  0.18967000  1.0 0.139693769
C  C110  1  0.22430000  0.06817000  0.68967000  1.0 0.139693769
C  C111  1  0.22430000  0.93183000  0.81033000  1.0 0.139693769
C  C112  1  0.77570000  0.06817000  0.31033000  1.0 0.139693769
C  C113  1  0.07736000  0.18149000  0.53263000  1.0 -0.1985775879
C  C114  1  0.92264000  0.81851000  0.03263000  1.0 -0.1985775879
C  C115  1  0.07736000  0.81851000  0.96737000  1.0 -0.1985775879
C  C116  1  0.92264000  0.18149000  0.46737000  1.0 -0.1985775879
C  C117  1  0.81851000  0.92264000  0.21737000  1.0 -0.1985775879
C  C118  1  0.18149000  0.07736000  0.71737000  1.0 -0.1985775879
C  C119  1  0.18149000  0.92264000  0.78263000  1.0 -0.1985775879
C  C120  1  0.81851000  0.07736000  0.28263000  1.0 -0.1985775879
C  C121  1  0.09060000  0.38480000  0.52107000  1.0 -0.1106975129
C  C122  1  0.90940000  0.61520000  0.02107000  1.0 -0.1106975129
C  C123  1  0.09060000  0.61520000  0.97893000  1.0 -0.1106975129
C  C124  1  0.90940000  0.38480000  0.47893000  1.0 -0.1106975129
C  C125  1  0.61520000  0.90940000  0.22893000  1.0 -0.1106975129
C  C126  1  0.38480000  0.09060000  0.72893000  1.0 -0.1106975129
C  C127  1  0.38480000  0.90940000  0.77107000  1.0 -0.1106975129
C  C128  1  0.61520000  0.09060000  0.27107000  1.0 -0.1106975129
C  C129  1  0.09250000  0.44400000  0.51690000  1.0 -0.1160922613
C  C130  1  0.90750000  0.55600000  0.01690000  1.0 -0.1160922613
C  C131  1  0.09250000  0.55600000  0.98310000  1.0 -0.1160922613
C  C132  1  0.90750000  0.44400000  0.48310000  1.0 -0.1160922613
C  C133  1  0.55600000  0.90750000  0.23310000  1.0 -0.1160922613
C  C134  1  0.44400000  0.09250000  0.73310000  1.0 -0.1160922613
C  C135  1  0.44400000  0.90750000  0.76690000  1.0 -0.1160922613
C  C136  1  0.55600000  0.09250000  0.26690000  1.0 -0.1160922613
C  C137  1  0.10100000  0.51670000  0.50869000  1.0 0.139693769
C  C138  1  0.89900000  0.48330000  0.00869000  1.0 0.139693769
C  C139  1  0.10100000  0.48330000  0.99131000  1.0 0.139693769
C  C140  1  0.89900000  0.51670000  0.49131000  1.0 0.139693769
C  C141  1  0.48330000  0.89900000  0.24131000  1.0 0.139693769
C  C142  1  0.51670000  0.10100000  0.74131000  1.0 0.139693769
C  C143  1  0.51670000  0.89900000  0.75869000  1.0 0.139693769
C  C144  1  0.48330000  0.10100000  0.25869000  1.0 0.139693769
C  C145  1  0.13710000  0.53750000  0.48198000  1.0 -0.138785303
C  C146  1  0.86290000  0.46250000  0.98198000  1.0 -0.138785303
C  C147  1  0.13710000  0.46250000  0.01802000  1.0 -0.138785303
C  C148  1  0.86290000  0.53750000  0.51802000  1.0 -0.138785303
C  C149  1  0.46250000  0.86290000  0.26802000  1.0 -0.138785303
C  C150  1  0.53750000  0.13710000  0.76802000  1.0 -0.138785303
C  C151  1  0.53750000  0.86290000  0.73198000  1.0 -0.138785303
C  C152  1  0.46250000  0.13710000  0.23198000  1.0 -0.138785303
C  C153  1  0.14030000  0.60290000  0.47463000  1.0 -0.1007413965
C  C154  1  0.85970000  0.39710000  0.97463000  1.0 -0.1007413965
C  C155  1  0.14030000  0.39710000  0.02537000  1.0 -0.1007413965
C  C156  1  0.85970000  0.60290000  0.52537000  1.0 -0.1007413965
C  C157  1  0.39710000  0.85970000  0.27537000  1.0 -0.1007413965
C  C158  1  0.60290000  0.14030000  0.77537000  1.0 -0.1007413965
C  C159  1  0.60290000  0.85970000  0.72463000  1.0 -0.1007413965
C  C160  1  0.39710000  0.14030000  0.22463000  1.0 -0.1007413965
C  C161  1  0.10756000  0.64900000  0.49374000  1.0 -0.0167021336
C  C162  1  0.89244000  0.35100000  0.99374000  1.0 -0.0167021336
C  C163  1  0.10756000  0.35100000  0.00626000  1.0 -0.0167021336
C  C164  1  0.89244000  0.64900000  0.50626000  1.0 -0.0167021336
C  C165  1  0.35100000  0.89244000  0.25626000  1.0 -0.0167021336
C  C166  1  0.64900000  0.10756000  0.75626000  1.0 -0.0167021336
C  C167  1  0.64900000  0.89244000  0.74374000  1.0 -0.0167021336
C  C168  1  0.35100000  0.10756000  0.24374000  1.0 -0.0167021336
C  C169  1  0.07170000  0.62830000  0.52198000  1.0 -0.0910167646
C  C170  1  0.92830000  0.37170000  0.02198000  1.0 -0.0910167646
C  C171  1  0.07170000  0.37170000  0.97802000  1.0 -0.0910167646
C  C172  1  0.92830000  0.62830000  0.47802000  1.0 -0.0910167646
C  C173  1  0.37170000  0.92830000  0.22802000  1.0 -0.0910167646
C  C174  1  0.62830000  0.07170000  0.72802000  1.0 -0.0910167646
C  C175  1  0.62830000  0.92830000  0.77198000  1.0 -0.0910167646
C  C176  1  0.37170000  0.07170000  0.27198000  1.0 -0.0910167646
C  C177  1  0.06590000  0.56520000  0.52902000  1.0 -0.138785303
C  C178  1  0.93410000  0.43480000  0.02902000  1.0 -0.138785303
C  C179  1  0.06590000  0.43480000  0.97098000  1.0 -0.138785303
C  C180  1  0.93410000  0.56520000  0.47098000  1.0 -0.138785303
C  C181  1  0.43480000  0.93410000  0.22098000  1.0 -0.138785303
C  C182  1  0.56520000  0.06590000  0.72098000  1.0 -0.138785303
C  C183  1  0.56520000  0.93410000  0.77902000  1.0 -0.138785303
C  C184  1  0.43480000  0.06590000  0.27902000  1.0 -0.138785303
C  C185  1  0.11050000  0.72230000  0.48359000  1.0 0.5920604641
C  C186  1  0.88950000  0.27770000  0.98359000  1.0 0.5920604641
C  C187  1  0.11050000  0.27770000  0.01641000  1.0 0.5920604641
C  C188  1  0.88950000  0.72230000  0.51641000  1.0 0.5920604641
C  C189  1  0.27770000  0.88950000  0.26641000  1.0 0.5920604641
C  C190  1  0.72230000  0.11050000  0.76641000  1.0 0.5920604641
C  C191  1  0.72230000  0.88950000  0.73359000  1.0 0.5920604641
C  C192  1  0.27770000  0.11050000  0.23359000  1.0 0.5920604641
C  C193  1  0.05180000  0.19707000  0.59345000  1.0 -0.0910167646
C  C194  1  0.94820000  0.80293000  0.09345000  1.0 -0.0910167646
C  C195  1  0.05180000  0.80293000  0.90655000  1.0 -0.0910167646
C  C196  1  0.94820000  0.19707000  0.40655000  1.0 -0.0910167646
C  C197  1  0.80293000  0.94820000  0.15655000  1.0 -0.0910167646
C  C198  1  0.19707000  0.05180000  0.65655000  1.0 -0.0910167646
C  C199  1  0.19707000  0.94820000  0.84345000  1.0 -0.0910167646
C  C200  1  0.80293000  0.05180000  0.34345000  1.0 -0.0910167646
C  C201  1  0.03613000  0.18147000  0.62054000  1.0 -0.1007413965
C  C202  1  0.96387000  0.81853000  0.12054000  1.0 -0.1007413965
C  C203  1  0.03613000  0.81853000  0.87946000  1.0 -0.1007413965
C  C204  1  0.96387000  0.18147000  0.37946000  1.0 -0.1007413965
C  C205  1  0.81853000  0.96387000  0.12946000  1.0 -0.1007413965
C  C206  1  0.18147000  0.03613000  0.62946000  1.0 -0.1007413965
C  C207  1  0.18147000  0.96387000  0.87054000  1.0 -0.1007413965
C  C208  1  0.81853000  0.03613000  0.37054000  1.0 -0.1007413965
C  C209  1  0.01127000  0.16540000  0.65428000  1.0 0.1289231915
C  C210  1  0.98873000  0.83460000  0.15428000  1.0 0.1289231915
C  C211  1  0.01127000  0.83460000  0.84572000  1.0 0.1289231915
C  C212  1  0.98873000  0.16540000  0.34572000  1.0 0.1289231915
C  C213  1  0.83460000  0.98873000  0.09572000  1.0 0.1289231915
C  C214  1  0.16540000  0.01127000  0.59572000  1.0 0.1289231915
C  C215  1  0.16540000  0.98873000  0.90428000  1.0 0.1289231915
C  C216  1  0.83460000  0.01127000  0.40428000  1.0 0.1289231915
C  C217  1  0.98240000  0.21630000  0.67163000  1.0 -0.138785303
C  C218  1  0.01760000  0.78370000  0.17163000  1.0 -0.138785303
C  C219  1  0.98240000  0.78370000  0.82837000  1.0 -0.138785303
C  C220  1  0.01760000  0.21630000  0.32837000  1.0 -0.138785303
C  C221  1  0.78370000  0.01760000  0.07837000  1.0 -0.138785303
C  C222  1  0.21630000  0.98240000  0.57837000  1.0 -0.138785303
C  C223  1  0.21630000  0.01760000  0.92163000  1.0 -0.138785303
C  C224  1  0.78370000  0.98240000  0.42163000  1.0 -0.138785303
C  C225  1  0.95336000  0.20420000  0.70201000  1.0 -0.0910167646
C  C226  1  0.04664000  0.79580000  0.20201000  1.0 -0.0910167646
C  C227  1  0.95336000  0.79580000  0.79799000  1.0 -0.0910167646
C  C228  1  0.04664000  0.20420000  0.29799000  1.0 -0.0910167646
C  C229  1  0.79580000  0.04664000  0.04799000  1.0 -0.0910167646
C  C230  1  0.20420000  0.95336000  0.54799000  1.0 -0.0910167646
C  C231  1  0.20420000  0.04664000  0.95201000  1.0 -0.0910167646
C  C232  1  0.79580000  0.95336000  0.45201000  1.0 -0.0910167646
C  C233  1  0.94974000  0.14260000  0.71496000  1.0 -0.0167021336
C  C234  1  0.05026000  0.85740000  0.21496000  1.0 -0.0167021336
C  C235  1  0.94974000  0.85740000  0.78504000  1.0 -0.0167021336
C  C236  1  0.05026000  0.14260000  0.28504000  1.0 -0.0167021336
C  C237  1  0.85740000  0.05026000  0.03504000  1.0 -0.0167021336
C  C238  1  0.14260000  0.94974000  0.53504000  1.0 -0.0167021336
C  C239  1  0.14260000  0.05026000  0.96496000  1.0 -0.0167021336
C  C240  1  0.85740000  0.94974000  0.46496000  1.0 -0.0167021336
C  C241  1  0.98306000  0.09076000  0.69755000  1.0 -0.1007413965
C  C242  1  0.01694000  0.90924000  0.19755000  1.0 -0.1007413965
C  C243  1  0.98306000  0.90924000  0.80245000  1.0 -0.1007413965
C  C244  1  0.01694000  0.09076000  0.30245000  1.0 -0.1007413965
C  C245  1  0.90924000  0.01694000  0.05245000  1.0 -0.1007413965
C  C246  1  0.09076000  0.98306000  0.55245000  1.0 -0.1007413965
C  C247  1  0.09076000  0.01694000  0.94755000  1.0 -0.1007413965
C  C248  1  0.90924000  0.98306000  0.44755000  1.0 -0.1007413965
C  C249  1  0.01224000  0.10210000  0.66725000  1.0 -0.138785303
C  C250  1  0.98776000  0.89790000  0.16725000  1.0 -0.138785303
C  C251  1  0.01224000  0.89790000  0.83275000  1.0 -0.138785303
C  C252  1  0.98776000  0.10210000  0.33275000  1.0 -0.138785303
C  C253  1  0.89790000  0.98776000  0.08275000  1.0 -0.138785303
C  C254  1  0.10210000  0.01224000  0.58275000  1.0 -0.138785303
C  C255  1  0.10210000  0.98776000  0.91725000  1.0 -0.138785303
C  C256  1  0.89790000  0.01224000  0.41725000  1.0 -0.138785303
C  C257  1  0.91330000  0.12620000  0.74735000  1.0 0.5743291551
C  C258  1  0.08670000  0.87380000  0.24735000  1.0 0.5743291551
C  C259  1  0.91330000  0.87380000  0.75265000  1.0 0.5743291551
C  C260  1  0.08670000  0.12620000  0.25265000  1.0 0.5743291551
C  C261  1  0.87380000  0.08670000  0.00265000  1.0 0.5743291551
C  C262  1  0.12620000  0.91330000  0.50265000  1.0 0.5743291551
C  C263  1  0.12620000  0.08670000  0.99735000  1.0 0.5743291551
C  C264  1  0.87380000  0.91330000  0.49735000  1.0 0.5743291551
O  O1  1  0.16968000  0.01580000  0.30166000  1.0 -0.5435298806
O  O2  1  0.83032000  0.98420000  0.80166000  1.0 -0.5435298806
O  O3  1  0.16968000  0.98420000  0.19834000  1.0 -0.5435298806
O  O4  1  0.83032000  0.01580000  0.69834000  1.0 -0.5435298806
O  O5  1  0.98420000  0.83032000  0.44834000  1.0 -0.5435298806
O  O6  1  0.01580000  0.16968000  0.94834000  1.0 -0.5435298806
O  O7  1  0.01580000  0.83032000  0.55166000  1.0 -0.5435298806
O  O8  1  0.98420000  0.16968000  0.05166000  1.0 -0.5435298806
O  O9  1  0.15036000  0.92386000  0.33134000  1.0 -0.5624021789
O  O10  1  0.84964000  0.07614000  0.83134000  1.0 -0.5624021789
O  O11  1  0.15036000  0.07614000  0.16866000  1.0 -0.5624021789
O  O12  1  0.84964000  0.92386000  0.66866000  1.0 -0.5624021789
O  O13  1  0.07614000  0.84964000  0.41866000  1.0 -0.5624021789
O  O14  1  0.92386000  0.15036000  0.91866000  1.0 -0.5624021789
O  O15  1  0.92386000  0.84964000  0.58134000  1.0 -0.5624021789
O  O16  1  0.07614000  0.15036000  0.08134000  1.0 -0.5624021789
O  O17  1  0.14902000  0.73685000  0.46111000  1.0 -0.5143575569
O  O18  1  0.85098000  0.26315000  0.96111000  1.0 -0.5143575569
O  O19  1  0.14902000  0.26315000  0.03889000  1.0 -0.5143575569
O  O20  1  0.85098000  0.73685000  0.53889000  1.0 -0.5143575569
O  O21  1  0.26315000  0.85098000  0.28889000  1.0 -0.5143575569
O  O22  1  0.73685000  0.14902000  0.78889000  1.0 -0.5143575569
O  O23  1  0.73685000  0.85098000  0.71111000  1.0 -0.5143575569
O  O24  1  0.26315000  0.14902000  0.21111000  1.0 -0.5143575569
O  O25  1  0.07150000  0.76064000  0.50008000  1.0 -0.6080159968
O  O26  1  0.92850000  0.23936000  0.00008000  1.0 -0.6080159968
O  O27  1  0.07150000  0.23936000  0.99992000  1.0 -0.6080159968
O  O28  1  0.92850000  0.76064000  0.49992000  1.0 -0.6080159968
O  O29  1  0.23936000  0.92850000  0.24992000  1.0 -0.6080159968
O  O30  1  0.76064000  0.07150000  0.74992000  1.0 -0.6080159968
O  O31  1  0.76064000  0.92850000  0.75008000  1.0 -0.6080159968
O  O32  1  0.23936000  0.07150000  0.25008000  1.0 -0.6080159968
O  O33  1  0.89078000  0.17329000  0.76274000  1.0 -0.5018101124
O  O34  1  0.10922000  0.82671000  0.26274000  1.0 -0.5018101124
O  O35  1  0.89078000  0.82671000  0.73726000  1.0 -0.5018101124
O  O36  1  0.10922000  0.17329000  0.23726000  1.0 -0.5018101124
O  O37  1  0.82671000  0.10922000  0.98726000  1.0 -0.5018101124
O  O38  1  0.17329000  0.89078000  0.48726000  1.0 -0.5018101124
O  O39  1  0.17329000  0.10922000  0.01274000  1.0 -0.5018101124
O  O40  1  0.82671000  0.89078000  0.51274000  1.0 -0.5018101124
O  O41  1  0.90674000  0.06920000  0.75704000  1.0 -0.5450542992
O  O42  1  0.09326000  0.93080000  0.25704000  1.0 -0.5450542992
O  O43  1  0.90674000  0.93080000  0.74296000  1.0 -0.5450542992
O  O44  1  0.09326000  0.06920000  0.24296000  1.0 -0.5450542992
O  O45  1  0.93080000  0.09326000  0.99296000  1.0 -0.5450542992
O  O46  1  0.06920000  0.90674000  0.49296000  1.0 -0.5450542992
O  O47  1  0.06920000  0.09326000  0.00704000  1.0 -0.5450542992
O  O48  1  0.93080000  0.90674000  0.50704000  1.0 -0.5450542992
