# DDEC6 charges by PACMAN v1.1 (https://github.com/mtap-research/PACMAN-charge/)
data_ZARLOV_ASR_pacman
_symmetry_space_group_name_H-M   'P 1'
_cell_length_a   22.59200000
_cell_length_b   23.15700000
_cell_length_c   27.31700000
_cell_angle_alpha   90.00000000
_cell_angle_beta   90.00000000
_cell_angle_gamma   90.00000000
_symmetry_Int_Tables_number   1
_chemical_formula_structural   Zn9H34C78(NO4)9
_chemical_formula_sum   'Zn36 H136 C312 N36 O144'
_cell_volume   14291.24214125
_cell_formula_units_Z   4
loop_
 _symmetry_equiv_pos_site_id
 _symmetry_equiv_pos_as_xyz
  1  'x, y, z'
loop_
 _atom_site_type_symbol
 _atom_site_label
 _atom_site_symmetry_multiplicity
 _atom_site_fract_x
 _atom_site_fract_y
 _atom_site_fract_z
 _atom_site_occupancy
 _atom_site_charge
Zn  Zn1  1  0.00000000  0.58050000  0.79654000  1.0 0.8771114087
Zn  Zn2  1  0.00000000  0.41950000  0.20346000  1.0 0.8771114087
Zn  Zn3  1  0.50000000  0.91950000  0.29654000  1.0 0.8771114087
Zn  Zn4  1  0.50000000  0.08050000  0.70346000  1.0 0.8771114087
Zn  Zn5  1  0.63038000  0.76532000  0.98970000  1.0 0.8460003173
Zn  Zn6  1  0.63038000  0.23468000  0.01030000  1.0 0.8460003173
Zn  Zn7  1  0.86962000  0.73468000  0.48970000  1.0 0.8460003173
Zn  Zn8  1  0.86962000  0.26532000  0.51030000  1.0 0.8460003173
Zn  Zn9  1  0.36962000  0.23468000  0.01030000  1.0 0.8460003173
Zn  Zn10  1  0.36962000  0.76532000  0.98970000  1.0 0.8460003173
Zn  Zn11  1  0.13038000  0.26532000  0.51030000  1.0 0.8460003173
Zn  Zn12  1  0.13038000  0.73468000  0.48970000  1.0 0.8460003173
Zn  Zn13  1  0.00000000  0.88157000  0.80241000  1.0 0.8896822965
Zn  Zn14  1  0.00000000  0.11843000  0.19759000  1.0 0.8896822965
Zn  Zn15  1  0.50000000  0.61843000  0.30241000  1.0 0.8896822965
Zn  Zn16  1  0.50000000  0.38157000  0.69759000  1.0 0.8896822965
Zn  Zn17  1  0.00000000  0.73322000  0.56886000  1.0 0.9353774822
Zn  Zn18  1  0.00000000  0.26678000  0.43114000  1.0 0.9353774822
Zn  Zn19  1  0.50000000  0.76678000  0.06886000  1.0 0.9353774822
Zn  Zn20  1  0.50000000  0.23322000  0.93114000  1.0 0.9353774822
Zn  Zn21  1  0.62781000  0.45807000  0.66477000  1.0 0.8731719366
Zn  Zn22  1  0.62781000  0.54193000  0.33523000  1.0 0.8731719366
Zn  Zn23  1  0.87219000  0.04193000  0.16477000  1.0 0.8731719366
Zn  Zn24  1  0.87219000  0.95807000  0.83523000  1.0 0.8731719366
Zn  Zn25  1  0.37219000  0.54193000  0.33523000  1.0 0.8731719366
Zn  Zn26  1  0.37219000  0.45807000  0.66477000  1.0 0.8731719366
Zn  Zn27  1  0.12781000  0.95807000  0.83523000  1.0 0.8731719366
Zn  Zn28  1  0.12781000  0.04193000  0.16477000  1.0 0.8731719366
Zn  Zn29  1  0.87269000  0.50325000  0.82887000  1.0 0.82596211
Zn  Zn30  1  0.87269000  0.49675000  0.17113000  1.0 0.82596211
Zn  Zn31  1  0.62731000  0.99675000  0.32887000  1.0 0.8242120779
Zn  Zn32  1  0.62731000  0.00325000  0.67113000  1.0 0.82596211
Zn  Zn33  1  0.12731000  0.49675000  0.17113000  1.0 0.82596211
Zn  Zn34  1  0.12731000  0.50325000  0.82887000  1.0 0.82596211
Zn  Zn35  1  0.37269000  0.00325000  0.67113000  1.0 0.82596211
Zn  Zn36  1  0.37269000  0.99675000  0.32887000  1.0 0.8242120779
H  H1  1  0.57210000  0.65360000  0.15650000  1.0 0.1373869576
H  H2  1  0.57210000  0.34640000  0.84350000  1.0 0.1373869576
H  H3  1  0.92790000  0.84640000  0.65650000  1.0 0.1373869576
H  H4  1  0.92790000  0.15360000  0.34350000  1.0 0.1373869576
H  H5  1  0.42790000  0.34640000  0.84350000  1.0 0.1373869576
H  H6  1  0.42790000  0.65360000  0.15650000  1.0 0.1373869576
H  H7  1  0.07210000  0.15360000  0.34350000  1.0 0.1373869576
H  H8  1  0.07210000  0.84640000  0.65650000  1.0 0.1373869576
H  H9  1  0.78530000  0.64220000  0.89680000  1.0 0.1334087708
H  H10  1  0.78530000  0.35780000  0.10320000  1.0 0.1373869576
H  H11  1  0.71470000  0.85780000  0.39680000  1.0 0.1373869576
H  H12  1  0.71470000  0.14220000  0.60320000  1.0 0.1373869576
H  H13  1  0.21470000  0.35780000  0.10320000  1.0 0.1373869576
H  H14  1  0.21470000  0.64220000  0.89680000  1.0 0.1334087708
H  H15  1  0.28530000  0.14220000  0.60320000  1.0 0.1373869576
H  H16  1  0.28530000  0.85780000  0.39680000  1.0 0.1373869576
H  H17  1  0.92900000  0.61700000  0.65140000  1.0 0.1373869576
H  H18  1  0.92900000  0.38300000  0.34860000  1.0 0.1373869576
H  H19  1  0.57100000  0.88300000  0.15140000  1.0 0.1373869576
H  H20  1  0.57100000  0.11700000  0.84860000  1.0 0.1373869576
H  H21  1  0.07100000  0.38300000  0.34860000  1.0 0.1373869576
H  H22  1  0.07100000  0.61700000  0.65140000  1.0 0.1373869576
H  H23  1  0.42900000  0.11700000  0.84860000  1.0 0.1373869576
H  H24  1  0.42900000  0.88300000  0.15140000  1.0 0.1373869576
H  H25  1  0.92710000  0.73120000  0.85010000  1.0 0.1334087708
H  H26  1  0.92710000  0.26880000  0.14990000  1.0 0.1334087708
H  H27  1  0.57290000  0.76880000  0.35010000  1.0 0.1334087708
H  H28  1  0.57290000  0.23120000  0.64990000  1.0 0.1373869576
H  H29  1  0.07290000  0.26880000  0.14990000  1.0 0.1373869576
H  H30  1  0.07290000  0.73120000  0.85010000  1.0 0.1334087708
H  H31  1  0.42710000  0.23120000  0.64990000  1.0 0.1373869576
H  H32  1  0.42710000  0.76880000  0.35010000  1.0 0.1373869576
H  H33  1  0.79290000  0.51950000  0.70000000  1.0 0.1373869576
H  H34  1  0.79290000  0.48050000  0.30000000  1.0 0.1373869576
H  H35  1  0.70710000  0.98050000  0.20000000  1.0 0.1373869576
H  H36  1  0.70710000  0.01950000  0.80000000  1.0 0.1373869576
H  H37  1  0.20710000  0.48050000  0.30000000  1.0 0.1373869576
H  H38  1  0.20710000  0.51950000  0.70000000  1.0 0.1373869576
H  H39  1  0.29290000  0.01950000  0.80000000  1.0 0.1373869576
H  H40  1  0.29290000  0.98050000  0.20000000  1.0 0.1373869576
H  H41  1  0.78550000  0.81510000  0.90320000  1.0 0.1373869576
H  H42  1  0.78550000  0.18490000  0.09680000  1.0 0.1373869576
H  H43  1  0.71450000  0.68490000  0.40320000  1.0 0.1373869576
H  H44  1  0.71450000  0.31510000  0.59680000  1.0 0.1373869576
H  H45  1  0.21450000  0.18490000  0.09680000  1.0 0.1373869576
H  H46  1  0.21450000  0.81510000  0.90320000  1.0 0.1373869576
H  H47  1  0.28550000  0.31510000  0.59680000  1.0 0.1373869576
H  H48  1  0.28550000  0.68490000  0.40320000  1.0 0.1373869576
H  H49  1  0.70780000  0.55990000  0.20710000  1.0 0.1373869576
H  H50  1  0.70780000  0.44010000  0.79290000  1.0 0.1373869576
H  H51  1  0.79220000  0.94010000  0.70710000  1.0 0.1373869576
H  H52  1  0.79220000  0.05990000  0.29290000  1.0 0.1373869576
H  H53  1  0.29220000  0.44010000  0.79290000  1.0 0.1373869576
H  H54  1  0.29220000  0.55990000  0.20710000  1.0 0.1373869576
H  H55  1  0.20780000  0.05990000  0.29290000  1.0 0.1373869576
H  H56  1  0.20780000  0.94010000  0.70710000  1.0 0.1373869576
H  H57  1  0.71720000  0.63170000  0.07400000  1.0 0.1334087708
H  H58  1  0.71720000  0.36830000  0.92600000  1.0 0.1334087708
H  H59  1  0.78280000  0.86830000  0.57400000  1.0 0.1334087708
H  H60  1  0.78280000  0.13170000  0.42600000  1.0 0.1334087708
H  H61  1  0.28280000  0.36830000  0.92600000  1.0 0.1334087708
H  H62  1  0.28280000  0.63170000  0.07400000  1.0 0.1334087708
H  H63  1  0.21720000  0.13170000  0.42600000  1.0 0.1334087708
H  H64  1  0.21720000  0.86830000  0.57400000  1.0 0.1334087708
H  H65  1  0.78270000  0.59610000  0.56870000  1.0 0.1334087708
H  H66  1  0.78270000  0.40390000  0.43130000  1.0 0.1334087708
H  H67  1  0.71730000  0.90390000  0.06870000  1.0 0.1334087708
H  H68  1  0.71730000  0.09610000  0.93130000  1.0 0.1334087708
H  H69  1  0.21730000  0.40390000  0.43130000  1.0 0.1334087708
H  H70  1  0.21730000  0.59610000  0.56870000  1.0 0.1334087708
H  H71  1  0.28270000  0.09610000  0.93130000  1.0 0.1334087708
H  H72  1  0.28270000  0.90390000  0.06870000  1.0 0.1334087708
H  H73  1  0.89280000  0.09250000  0.88460000  1.0 0.1373869576
H  H74  1  0.89280000  0.90750000  0.11540000  1.0 0.1373869576
H  H75  1  0.60720000  0.40750000  0.38460000  1.0 0.1373869576
H  H76  1  0.60720000  0.59250000  0.61540000  1.0 0.1373869576
H  H77  1  0.10720000  0.90750000  0.11540000  1.0 0.1373869576
H  H78  1  0.10720000  0.09250000  0.88460000  1.0 0.1373869576
H  H79  1  0.39280000  0.59250000  0.61540000  1.0 0.1373869576
H  H80  1  0.39280000  0.40750000  0.38460000  1.0 0.1373869576
H  H81  1  0.60510000  0.75130000  0.87000000  1.0 0.1465812622
H  H82  1  0.60510000  0.24870000  0.13000000  1.0 0.1465812622
H  H83  1  0.89490000  0.74870000  0.37000000  1.0 0.1465812622
H  H84  1  0.89490000  0.25130000  0.63000000  1.0 0.1465812622
H  H85  1  0.39490000  0.24870000  0.13000000  1.0 0.1465812622
H  H86  1  0.39490000  0.75130000  0.87000000  1.0 0.1465812622
H  H87  1  0.10510000  0.25130000  0.63000000  1.0 0.1465812622
H  H88  1  0.10510000  0.74870000  0.37000000  1.0 0.1465812622
H  H89  1  0.55200000  0.75120000  0.79760000  1.0 0.1171389407
H  H90  1  0.55200000  0.24880000  0.20240000  1.0 0.1171389407
H  H91  1  0.94800000  0.74880000  0.29760000  1.0 0.1171389407
H  H92  1  0.94800000  0.25120000  0.70240000  1.0 0.1171389407
H  H93  1  0.44800000  0.24880000  0.20240000  1.0 0.1171389407
H  H94  1  0.44800000  0.75120000  0.79760000  1.0 0.1171389407
H  H95  1  0.05200000  0.25120000  0.70240000  1.0 0.1171389407
H  H96  1  0.05200000  0.74880000  0.29760000  1.0 0.1171389407
H  H97  1  0.94940000  0.17020000  0.91560000  1.0 0.0973787525
H  H98  1  0.94940000  0.82980000  0.08440000  1.0 0.0973787525
H  H99  1  0.55060000  0.32980000  0.41560000  1.0 0.0973787525
H  H100  1  0.55060000  0.67020000  0.58440000  1.0 0.0973787525
H  H101  1  0.05060000  0.82980000  0.08440000  1.0 0.0973787525
H  H102  1  0.05060000  0.17020000  0.91560000  1.0 0.0973787525
H  H103  1  0.44940000  0.67020000  0.58440000  1.0 0.0973787525
H  H104  1  0.44940000  0.32980000  0.41560000  1.0 0.0973787525
H  H105  1  0.89510000  0.37830000  0.88950000  1.0 0.0973787525
H  H106  1  0.89510000  0.62170000  0.11050000  1.0 0.0973787525
H  H107  1  0.60490000  0.12170000  0.38950000  1.0 0.0973787525
H  H108  1  0.60490000  0.87830000  0.61050000  1.0 0.0973787525
H  H109  1  0.10490000  0.62170000  0.11050000  1.0 0.0973787525
H  H110  1  0.10490000  0.37830000  0.88950000  1.0 0.0973787525
H  H111  1  0.39510000  0.87830000  0.61050000  1.0 0.0973787525
H  H112  1  0.39510000  0.12170000  0.38950000  1.0 0.0973787525
H  H113  1  0.94820000  0.30070000  0.92640000  1.0 0.0798052869
H  H114  1  0.94820000  0.69930000  0.07360000  1.0 0.0798052869
H  H115  1  0.55180000  0.19930000  0.42640000  1.0 0.0798052869
H  H116  1  0.55180000  0.80070000  0.57360000  1.0 0.0798052869
H  H117  1  0.05180000  0.69930000  0.07360000  1.0 0.0798052869
H  H118  1  0.05180000  0.30070000  0.92640000  1.0 0.0798052869
H  H119  1  0.44820000  0.80070000  0.57360000  1.0 0.0798052869
H  H120  1  0.44820000  0.19930000  0.42640000  1.0 0.0798052869
H  H121  1  0.10520000  0.64040000  0.14640000  1.0 0.088233467
H  H122  1  0.10520000  0.35960000  0.85360000  1.0 0.088233467
H  H123  1  0.39480000  0.85960000  0.64640000  1.0 0.088233467
H  H124  1  0.39480000  0.14040000  0.35360000  1.0 0.088233467
H  H125  1  0.89480000  0.35960000  0.85360000  1.0 0.088233467
H  H126  1  0.89480000  0.64040000  0.14640000  1.0 0.088233467
H  H127  1  0.60520000  0.14040000  0.35360000  1.0 0.088233467
H  H128  1  0.60520000  0.85960000  0.64640000  1.0 0.088233467
H  H129  1  0.05010000  0.71710000  0.11530000  1.0 0.0798052869
H  H130  1  0.05010000  0.28290000  0.88470000  1.0 0.0798052869
H  H131  1  0.44990000  0.78290000  0.61530000  1.0 0.0798052869
H  H132  1  0.44990000  0.21710000  0.38470000  1.0 0.0798052869
H  H133  1  0.94990000  0.28290000  0.88470000  1.0 0.0798052869
H  H134  1  0.94990000  0.71710000  0.11530000  1.0 0.0798052869
H  H135  1  0.55010000  0.21710000  0.38470000  1.0 0.0798052869
H  H136  1  0.55010000  0.78290000  0.61530000  1.0 0.0798052869
C  C1  1  0.85989000  0.78200000  0.87375000  1.0 -0.0206992857
C  C2  1  0.85989000  0.21800000  0.12625000  1.0 -0.0206992857
C  C3  1  0.64011000  0.71800000  0.37375000  1.0 -0.0206992857
C  C4  1  0.64011000  0.28200000  0.62625000  1.0 -0.0206992857
C  C5  1  0.14011000  0.21800000  0.12625000  1.0 -0.0206992857
C  C6  1  0.14011000  0.78200000  0.87375000  1.0 -0.0206992857
C  C7  1  0.35989000  0.28200000  0.62625000  1.0 -0.0206992857
C  C8  1  0.35989000  0.71800000  0.37375000  1.0 -0.0206992857
C  C9  1  0.60992000  0.63850000  0.15237000  1.0 -0.0890206534
C  C10  1  0.60992000  0.36150000  0.84763000  1.0 -0.0890206534
C  C11  1  0.89008000  0.86150000  0.65237000  1.0 -0.0890206534
C  C12  1  0.89008000  0.13850000  0.34763000  1.0 -0.0890206534
C  C13  1  0.39008000  0.36150000  0.84763000  1.0 -0.0890206534
C  C14  1  0.39008000  0.63850000  0.15237000  1.0 -0.0890206534
C  C15  1  0.10992000  0.13850000  0.34763000  1.0 -0.0890206534
C  C16  1  0.10992000  0.86150000  0.65237000  1.0 -0.0890206534
C  C17  1  0.80426000  0.67720000  0.89102000  1.0 -0.0890206534
C  C18  1  0.80426000  0.32280000  0.10898000  1.0 -0.0890206534
C  C19  1  0.69574000  0.82280000  0.39102000  1.0 -0.0890206534
C  C20  1  0.69574000  0.17720000  0.60898000  1.0 -0.0849934185
C  C21  1  0.19574000  0.32280000  0.10898000  1.0 -0.0890206534
C  C22  1  0.19574000  0.67720000  0.89102000  1.0 -0.0890206534
C  C23  1  0.30426000  0.17720000  0.60898000  1.0 -0.0849934185
C  C24  1  0.30426000  0.82280000  0.39102000  1.0 -0.0890206534
C  C25  1  0.86039000  0.67740000  0.87081000  1.0 -0.0287985767
C  C26  1  0.86039000  0.32260000  0.12919000  1.0 -0.0287985767
C  C27  1  0.63961000  0.82260000  0.37081000  1.0 -0.0287985767
C  C28  1  0.63961000  0.17740000  0.62919000  1.0 -0.0287985767
C  C29  1  0.13961000  0.32260000  0.12919000  1.0 -0.0287985767
C  C30  1  0.13961000  0.67740000  0.87081000  1.0 -0.0287985767
C  C31  1  0.36039000  0.17740000  0.62919000  1.0 -0.0287985767
C  C32  1  0.36039000  0.82260000  0.37081000  1.0 -0.0287985767
C  C33  1  0.89148000  0.60152000  0.64683000  1.0 -0.0988664793
C  C34  1  0.89148000  0.39848000  0.35317000  1.0 -0.0988664793
C  C35  1  0.60852000  0.89848000  0.14683000  1.0 -0.0988664793
C  C36  1  0.60852000  0.10152000  0.85317000  1.0 -0.0988664793
C  C37  1  0.10852000  0.39848000  0.35317000  1.0 -0.0988664793
C  C38  1  0.10852000  0.60152000  0.64683000  1.0 -0.0988664793
C  C39  1  0.39148000  0.10152000  0.85317000  1.0 -0.0988664793
C  C40  1  0.39148000  0.89848000  0.14683000  1.0 -0.0988664793
C  C41  1  0.88885000  0.73044000  0.86277000  1.0 -0.0890206534
C  C42  1  0.88885000  0.26956000  0.13723000  1.0 -0.0890206534
C  C43  1  0.61115000  0.76956000  0.36277000  1.0 -0.0890206534
C  C44  1  0.61115000  0.23044000  0.63723000  1.0 -0.0890206534
C  C45  1  0.11115000  0.26956000  0.13723000  1.0 -0.0890206534
C  C46  1  0.11115000  0.73044000  0.86277000  1.0 -0.0890206534
C  C47  1  0.38885000  0.23044000  0.63723000  1.0 -0.0890206534
C  C48  1  0.38885000  0.76956000  0.36277000  1.0 -0.0890206534
C  C49  1  0.86038000  0.61230000  0.60329000  1.0 -0.0206992857
C  C50  1  0.86038000  0.38770000  0.39671000  1.0 -0.0206992857
C  C51  1  0.63962000  0.88770000  0.10329000  1.0 -0.0206992857
C  C52  1  0.63962000  0.11230000  0.89671000  1.0 -0.0206992857
C  C53  1  0.13962000  0.38770000  0.39671000  1.0 -0.0206992857
C  C54  1  0.13962000  0.61230000  0.60329000  1.0 -0.0206992857
C  C55  1  0.36038000  0.11230000  0.89671000  1.0 -0.0206992857
C  C56  1  0.36038000  0.88770000  0.10329000  1.0 -0.0206992857
C  C57  1  0.88890000  0.83910000  0.86025000  1.0 0.5982916658
C  C58  1  0.88890000  0.16090000  0.13975000  1.0 0.5982916658
C  C59  1  0.61110000  0.66090000  0.36025000  1.0 0.5982916658
C  C60  1  0.61110000  0.33910000  0.63975000  1.0 0.5982916658
C  C61  1  0.11110000  0.16090000  0.13975000  1.0 0.5982916658
C  C62  1  0.11110000  0.83910000  0.86025000  1.0 0.5982916658
C  C63  1  0.38890000  0.33910000  0.63975000  1.0 0.5982916658
C  C64  1  0.38890000  0.66090000  0.36025000  1.0 0.5982916658
C  C65  1  0.80970000  0.54270000  0.67595000  1.0 -0.0988664793
C  C66  1  0.80970000  0.45730000  0.32405000  1.0 -0.0988664793
C  C67  1  0.69030000  0.95730000  0.17595000  1.0 -0.0988664793
C  C68  1  0.69030000  0.04270000  0.82405000  1.0 -0.0988664793
C  C69  1  0.19030000  0.45730000  0.32405000  1.0 -0.0988664793
C  C70  1  0.19030000  0.54270000  0.67595000  1.0 -0.0988664793
C  C71  1  0.30970000  0.04270000  0.82405000  1.0 -0.0988664793
C  C72  1  0.30970000  0.95730000  0.17595000  1.0 -0.0988664793
C  C73  1  0.80408000  0.78070000  0.89460000  1.0 -0.0890206534
C  C74  1  0.80408000  0.21930000  0.10540000  1.0 -0.0890206534
C  C75  1  0.69592000  0.71930000  0.39460000  1.0 -0.0890206534
C  C76  1  0.69592000  0.28070000  0.60540000  1.0 -0.0890206534
C  C77  1  0.19592000  0.21930000  0.10540000  1.0 -0.0890206534
C  C78  1  0.19592000  0.78070000  0.89460000  1.0 -0.0890206534
C  C79  1  0.30408000  0.28070000  0.60540000  1.0 -0.0890206534
C  C80  1  0.30408000  0.71930000  0.39460000  1.0 -0.0890206534
C  C81  1  0.88990000  0.62200000  0.85575000  1.0 0.5982916658
C  C82  1  0.88990000  0.37800000  0.14425000  1.0 0.5982916658
C  C83  1  0.61010000  0.87800000  0.35575000  1.0 0.5904939148
C  C84  1  0.61010000  0.12200000  0.64425000  1.0 0.5982916658
C  C85  1  0.11010000  0.37800000  0.14425000  1.0 0.5982916658
C  C86  1  0.11010000  0.62200000  0.85575000  1.0 0.5982916658
C  C87  1  0.38990000  0.12200000  0.64425000  1.0 0.5982916658
C  C88  1  0.38990000  0.87800000  0.35575000  1.0 0.5904939148
C  C89  1  0.63453000  0.60480000  0.18909000  1.0 -0.0287985767
C  C90  1  0.63453000  0.39520000  0.81091000  1.0 -0.0287985767
C  C91  1  0.86547000  0.89520000  0.68909000  1.0 -0.0287985767
C  C92  1  0.86547000  0.10480000  0.31091000  1.0 -0.0287985767
C  C93  1  0.36547000  0.39520000  0.81091000  1.0 -0.0287985767
C  C94  1  0.36547000  0.60480000  0.18909000  1.0 -0.0287985767
C  C95  1  0.13453000  0.10480000  0.31091000  1.0 -0.0287985767
C  C96  1  0.13453000  0.89520000  0.68909000  1.0 -0.0287985767
C  C97  1  0.69050000  0.58180000  0.18242000  1.0 -0.0988664793
C  C98  1  0.69050000  0.41820000  0.81758000  1.0 -0.0890206534
C  C99  1  0.80950000  0.91820000  0.68242000  1.0 -0.0890206534
C  C100  1  0.80950000  0.08180000  0.31758000  1.0 -0.0988664793
C  C101  1  0.30950000  0.41820000  0.81758000  1.0 -0.0890206534
C  C102  1  0.30950000  0.58180000  0.18242000  1.0 -0.0988664793
C  C103  1  0.19050000  0.08180000  0.31758000  1.0 -0.0988664793
C  C104  1  0.19050000  0.91820000  0.68242000  1.0 -0.0890206534
C  C105  1  0.69640000  0.62530000  0.10289000  1.0 -0.0890206534
C  C106  1  0.69640000  0.37470000  0.89711000  1.0 -0.0890206534
C  C107  1  0.80360000  0.87470000  0.60289000  1.0 -0.0890206534
C  C108  1  0.80360000  0.12530000  0.39711000  1.0 -0.0890206534
C  C109  1  0.30360000  0.37470000  0.89711000  1.0 -0.0890206534
C  C110  1  0.30360000  0.62530000  0.10289000  1.0 -0.0890206534
C  C111  1  0.19640000  0.12530000  0.39711000  1.0 -0.0890206534
C  C112  1  0.19640000  0.87470000  0.60289000  1.0 -0.0890206534
C  C113  1  0.77923000  0.55280000  0.63265000  1.0 -0.0131642287
C  C114  1  0.77923000  0.44720000  0.36735000  1.0 -0.0131642287
C  C115  1  0.72077000  0.94720000  0.13265000  1.0 -0.0131642287
C  C116  1  0.72077000  0.05280000  0.86735000  1.0 -0.0131642287
C  C117  1  0.22077000  0.44720000  0.36735000  1.0 -0.0131642287
C  C118  1  0.22077000  0.55280000  0.63265000  1.0 -0.0131642287
C  C119  1  0.27923000  0.05280000  0.86735000  1.0 -0.0131642287
C  C120  1  0.27923000  0.94720000  0.13265000  1.0 -0.0131642287
C  C121  1  0.80393000  0.58820000  0.59709000  1.0 -0.0890206534
C  C122  1  0.80393000  0.41180000  0.40291000  1.0 -0.0890206534
C  C123  1  0.69607000  0.91180000  0.09709000  1.0 -0.0890206534
C  C124  1  0.69607000  0.08820000  0.90291000  1.0 -0.0890206534
C  C125  1  0.19607000  0.41180000  0.40291000  1.0 -0.0890206534
C  C126  1  0.19607000  0.58820000  0.59709000  1.0 -0.0890206534
C  C127  1  0.30393000  0.08820000  0.90291000  1.0 -0.0890206534
C  C128  1  0.30393000  0.91180000  0.09709000  1.0 -0.0890206534
C  C129  1  0.78130000  0.56410000  0.13180000  1.0 0.5577163173
C  C130  1  0.78130000  0.43590000  0.86820000  1.0 0.5577163173
C  C131  1  0.71870000  0.93590000  0.63180000  1.0 0.5577163173
C  C132  1  0.71870000  0.06410000  0.36820000  1.0 0.5577163173
C  C133  1  0.21870000  0.43590000  0.86820000  1.0 0.5577163173
C  C134  1  0.21870000  0.56410000  0.13180000  1.0 0.5577163173
C  C135  1  0.28130000  0.06410000  0.36820000  1.0 0.5577163173
C  C136  1  0.28130000  0.93590000  0.63180000  1.0 0.5577163173
C  C137  1  0.71470000  0.72600000  0.92621000  1.0 0.5489329136
C  C138  1  0.71470000  0.27400000  0.07379000  1.0 0.5489329136
C  C139  1  0.78530000  0.77400000  0.42621000  1.0 0.5489329136
C  C140  1  0.78530000  0.22600000  0.57379000  1.0 0.5489329136
C  C141  1  0.28530000  0.27400000  0.07379000  1.0 0.5489329136
C  C142  1  0.28530000  0.72600000  0.92621000  1.0 0.5489329136
C  C143  1  0.21470000  0.22600000  0.57379000  1.0 0.5489329136
C  C144  1  0.21470000  0.77400000  0.42621000  1.0 0.5489329136
C  C145  1  0.77566000  0.72881000  0.90280000  1.0 -0.0131642287
C  C146  1  0.77566000  0.27119000  0.09720000  1.0 -0.0131642287
C  C147  1  0.72434000  0.77119000  0.40280000  1.0 -0.0131642287
C  C148  1  0.72434000  0.22881000  0.59720000  1.0 -0.0131642287
C  C149  1  0.22434000  0.27119000  0.09720000  1.0 -0.0131642287
C  C150  1  0.22434000  0.72881000  0.90280000  1.0 -0.0131642287
C  C151  1  0.27566000  0.22881000  0.59720000  1.0 -0.0131642287
C  C152  1  0.27566000  0.77119000  0.40280000  1.0 -0.0131642287
C  C153  1  0.72085000  0.59110000  0.13921000  1.0 -0.0206992857
C  C154  1  0.72085000  0.40890000  0.86079000  1.0 -0.0131642287
C  C155  1  0.77915000  0.90890000  0.63921000  1.0 -0.0206992857
C  C156  1  0.77915000  0.09110000  0.36079000  1.0 -0.0131642287
C  C157  1  0.27915000  0.40890000  0.86079000  1.0 -0.0206992857
C  C158  1  0.27915000  0.59110000  0.13921000  1.0 -0.0206992857
C  C159  1  0.22085000  0.09110000  0.36079000  1.0 -0.0206992857
C  C160  1  0.22085000  0.90890000  0.63921000  1.0 -0.0206992857
C  C161  1  0.88732000  0.65130000  0.56514000  1.0 0.5904939148
C  C162  1  0.88732000  0.34870000  0.43486000  1.0 0.5904939148
C  C163  1  0.61268000  0.84870000  0.06514000  1.0 0.5904939148
C  C164  1  0.61268000  0.15130000  0.93486000  1.0 0.5904939148
C  C165  1  0.11268000  0.34870000  0.43486000  1.0 0.5904939148
C  C166  1  0.11268000  0.65130000  0.56514000  1.0 0.5904939148
C  C167  1  0.38732000  0.15130000  0.93486000  1.0 0.5904939148
C  C168  1  0.38732000  0.84870000  0.06514000  1.0 0.5904939148
C  C169  1  0.71860000  0.52790000  0.62480000  1.0 0.5577163173
C  C170  1  0.71860000  0.47210000  0.37520000  1.0 0.5577163173
C  C171  1  0.78140000  0.97210000  0.12480000  1.0 0.5577163173
C  C172  1  0.78140000  0.02790000  0.87520000  1.0 0.5577163173
C  C173  1  0.28140000  0.47210000  0.37520000  1.0 0.5577163173
C  C174  1  0.28140000  0.52790000  0.62480000  1.0 0.5577163173
C  C175  1  0.21860000  0.02790000  0.87520000  1.0 0.5577163173
C  C176  1  0.21860000  0.97210000  0.12480000  1.0 0.5577163173
C  C177  1  0.86557000  0.56710000  0.68349000  1.0 -0.0206992857
C  C178  1  0.86557000  0.43290000  0.31651000  1.0 -0.0206992857
C  C179  1  0.63443000  0.93290000  0.18349000  1.0 -0.0206992857
C  C180  1  0.63443000  0.06710000  0.81651000  1.0 -0.0206992857
C  C181  1  0.13443000  0.43290000  0.31651000  1.0 -0.0206992857
C  C182  1  0.13443000  0.56710000  0.68349000  1.0 -0.0206992857
C  C183  1  0.36557000  0.06710000  0.81651000  1.0 -0.0206992857
C  C184  1  0.36557000  0.93290000  0.18349000  1.0 -0.0206992857
C  C185  1  0.64081000  0.65020000  0.10940000  1.0 -0.0287985767
C  C186  1  0.64081000  0.34980000  0.89060000  1.0 -0.0287985767
C  C187  1  0.85919000  0.84980000  0.60940000  1.0 -0.0287985767
C  C188  1  0.85919000  0.15020000  0.39060000  1.0 -0.0287985767
C  C189  1  0.35919000  0.34980000  0.89060000  1.0 -0.0287985767
C  C190  1  0.35919000  0.65020000  0.10940000  1.0 -0.0287985767
C  C191  1  0.14081000  0.15020000  0.39060000  1.0 -0.0287985767
C  C192  1  0.14081000  0.84980000  0.60940000  1.0 -0.0287985767
C  C193  1  0.89620000  0.55670000  0.73170000  1.0 0.5982916658
C  C194  1  0.89620000  0.44330000  0.26830000  1.0 0.5982916658
C  C195  1  0.60380000  0.94330000  0.23170000  1.0 0.5982916658
C  C196  1  0.60380000  0.05670000  0.76830000  1.0 0.5982916658
C  C197  1  0.10380000  0.44330000  0.26830000  1.0 0.5904939148
C  C198  1  0.10380000  0.55670000  0.73170000  1.0 0.5982916658
C  C199  1  0.39620000  0.05670000  0.76830000  1.0 0.5982916658
C  C200  1  0.39620000  0.94330000  0.23170000  1.0 0.5982916658
C  C201  1  0.60440000  0.59370000  0.23752000  1.0 0.5982916658
C  C202  1  0.60440000  0.40630000  0.76248000  1.0 0.5982916658
C  C203  1  0.89560000  0.90630000  0.73752000  1.0 0.5982916658
C  C204  1  0.89560000  0.09370000  0.26248000  1.0 0.5982916658
C  C205  1  0.39560000  0.40630000  0.76248000  1.0 0.5982916658
C  C206  1  0.39560000  0.59370000  0.23752000  1.0 0.5982916658
C  C207  1  0.10440000  0.09370000  0.26248000  1.0 0.5982916658
C  C208  1  0.10440000  0.90630000  0.73752000  1.0 0.5982916658
C  C209  1  0.96850000  0.04370000  0.86780000  1.0 0.1570145225
C  C210  1  0.96850000  0.95630000  0.13220000  1.0 0.1570145225
C  C211  1  0.53150000  0.45630000  0.36780000  1.0 0.1570145225
C  C212  1  0.53150000  0.54370000  0.63220000  1.0 0.1570145225
C  C213  1  0.03150000  0.95630000  0.13220000  1.0 0.1570145225
C  C214  1  0.03150000  0.04370000  0.86780000  1.0 0.1570145225
C  C215  1  0.46850000  0.54370000  0.63220000  1.0 0.1570145225
C  C216  1  0.46850000  0.45630000  0.36780000  1.0 0.1570145225
C  C217  1  0.53044000  0.75680000  0.91311000  1.0 0.1122525771
C  C218  1  0.53044000  0.24320000  0.08689000  1.0 0.1122525771
C  C219  1  0.96956000  0.74320000  0.41311000  1.0 0.1122525771
C  C220  1  0.96956000  0.25680000  0.58689000  1.0 0.1122525771
C  C221  1  0.46956000  0.24320000  0.08689000  1.0 0.1122525771
C  C222  1  0.46956000  0.75680000  0.91311000  1.0 0.1122525771
C  C223  1  0.03044000  0.25680000  0.58689000  1.0 0.1122525771
C  C224  1  0.03044000  0.74320000  0.41311000  1.0 0.1122525771
C  C225  1  0.93400000  0.09190000  0.88510000  1.0 -0.1517033454
C  C226  1  0.93400000  0.90810000  0.11490000  1.0 -0.1517033454
C  C227  1  0.56600000  0.40810000  0.38510000  1.0 -0.1517033454
C  C228  1  0.56600000  0.59190000  0.61490000  1.0 -0.1517033454
C  C229  1  0.06600000  0.90810000  0.11490000  1.0 -0.1517033454
C  C230  1  0.06600000  0.09190000  0.88510000  1.0 -0.1517033454
C  C231  1  0.43400000  0.59190000  0.61490000  1.0 -0.1517033454
C  C232  1  0.43400000  0.40810000  0.38510000  1.0 -0.1517033454
C  C233  1  0.61490000  0.68730000  0.07030000  1.0 0.5904939148
C  C234  1  0.61490000  0.31270000  0.92970000  1.0 0.5904939148
C  C235  1  0.88510000  0.81270000  0.57030000  1.0 0.5904939148
C  C236  1  0.88510000  0.18730000  0.42970000  1.0 0.5904939148
C  C237  1  0.38510000  0.31270000  0.92970000  1.0 0.5904939148
C  C238  1  0.38510000  0.68730000  0.07030000  1.0 0.5904939148
C  C239  1  0.11490000  0.18730000  0.42970000  1.0 0.5904939148
C  C240  1  0.11490000  0.81270000  0.57030000  1.0 0.5904939148
C  C241  1  0.56400000  0.75300000  0.86980000  1.0 -0.1357895647
C  C242  1  0.56400000  0.24700000  0.13020000  1.0 -0.1346303636
C  C243  1  0.93600000  0.74700000  0.36980000  1.0 -0.1357895647
C  C244  1  0.93600000  0.25300000  0.63020000  1.0 -0.1346303636
C  C245  1  0.43600000  0.24700000  0.13020000  1.0 -0.1357895647
C  C246  1  0.43600000  0.75300000  0.86980000  1.0 -0.1357895647
C  C247  1  0.06400000  0.25300000  0.63020000  1.0 -0.1357895647
C  C248  1  0.06400000  0.74700000  0.36980000  1.0 -0.1357895647
C  C249  1  0.53200000  0.75190000  0.82730000  1.0 -0.0890206534
C  C250  1  0.53200000  0.24810000  0.17270000  1.0 -0.0890206534
C  C251  1  0.96800000  0.74810000  0.32730000  1.0 -0.0890206534
C  C252  1  0.96800000  0.25190000  0.67270000  1.0 -0.0890206534
C  C253  1  0.46800000  0.24810000  0.17270000  1.0 -0.0890206534
C  C254  1  0.46800000  0.75190000  0.82730000  1.0 -0.0890206534
C  C255  1  0.03200000  0.25190000  0.67270000  1.0 -0.0890206534
C  C256  1  0.03200000  0.74810000  0.32730000  1.0 -0.0890206534
C  C257  1  0.96880000  0.13800000  0.90310000  1.0 -0.0988664793
C  C258  1  0.96880000  0.86200000  0.09690000  1.0 -0.0988664793
C  C259  1  0.53120000  0.36200000  0.40310000  1.0 -0.0988664793
C  C260  1  0.53120000  0.63800000  0.59690000  1.0 -0.0988664793
C  C261  1  0.03120000  0.86200000  0.09690000  1.0 -0.0988664793
C  C262  1  0.03120000  0.13800000  0.90310000  1.0 -0.0988664793
C  C263  1  0.46880000  0.63800000  0.59690000  1.0 -0.0988664793
C  C264  1  0.46880000  0.36200000  0.40310000  1.0 -0.0988664793
C  C265  1  0.96910000  0.42240000  0.86820000  1.0 0.0713646187
C  C266  1  0.96910000  0.57760000  0.13180000  1.0 0.0713646187
C  C267  1  0.53090000  0.07760000  0.36820000  1.0 0.0713646187
C  C268  1  0.53090000  0.92240000  0.63180000  1.0 0.0713646187
C  C269  1  0.03090000  0.57760000  0.13180000  1.0 0.0713646187
C  C270  1  0.03090000  0.42240000  0.86820000  1.0 0.0713646187
C  C271  1  0.46910000  0.92240000  0.63180000  1.0 0.0713646187
C  C272  1  0.46910000  0.07760000  0.36820000  1.0 0.0713646187
C  C273  1  0.93630000  0.37780000  0.88970000  1.0 -0.048898256
C  C274  1  0.93630000  0.62220000  0.11030000  1.0 -0.0446012022
C  C275  1  0.56370000  0.12220000  0.38970000  1.0 -0.048898256
C  C276  1  0.56370000  0.87780000  0.61030000  1.0 -0.048898256
C  C277  1  0.06370000  0.62220000  0.11030000  1.0 -0.0446012022
C  C278  1  0.06370000  0.37780000  0.88970000  1.0 -0.048898256
C  C279  1  0.43630000  0.87780000  0.61030000  1.0 -0.048898256
C  C280  1  0.43630000  0.12220000  0.38970000  1.0 -0.048898256
C  C281  1  0.96870000  0.33110000  0.91190000  1.0 -0.0606468743
C  C282  1  0.96870000  0.66890000  0.08810000  1.0 -0.0606468743
C  C283  1  0.53130000  0.16890000  0.41190000  1.0 -0.0606468743
C  C284  1  0.53130000  0.83110000  0.58810000  1.0 -0.0606468743
C  C285  1  0.03130000  0.66890000  0.08810000  1.0 -0.0606468743
C  C286  1  0.03130000  0.33110000  0.91190000  1.0 -0.0606468743
C  C287  1  0.46870000  0.83110000  0.58810000  1.0 -0.0606468743
C  C288  1  0.46870000  0.16890000  0.41190000  1.0 -0.0606468743
C  C289  1  0.02910000  0.58930000  0.16060000  1.0 0.0578631985
C  C290  1  0.02910000  0.41070000  0.83940000  1.0 0.0578631985
C  C291  1  0.47090000  0.91070000  0.66060000  1.0 0.0578631985
C  C292  1  0.47090000  0.08930000  0.33940000  1.0 0.0578631985
C  C293  1  0.97090000  0.41070000  0.83940000  1.0 0.0578631985
C  C294  1  0.97090000  0.58930000  0.16060000  1.0 0.0578631985
C  C295  1  0.52910000  0.08930000  0.33940000  1.0 0.0578631985
C  C296  1  0.52910000  0.91070000  0.66060000  1.0 0.0578631985
C  C297  1  0.06410000  0.63940000  0.14490000  1.0 -0.0713632574
C  C298  1  0.06410000  0.36060000  0.85510000  1.0 -0.0713632574
C  C299  1  0.43590000  0.86060000  0.64490000  1.0 -0.0713632574
C  C300  1  0.43590000  0.13940000  0.35510000  1.0 -0.0713632574
C  C301  1  0.93590000  0.36060000  0.85510000  1.0 -0.0713632574
C  C302  1  0.93590000  0.63940000  0.14490000  1.0 -0.0713632574
C  C303  1  0.56410000  0.13940000  0.35510000  1.0 -0.0713632574
C  C304  1  0.56410000  0.86060000  0.64490000  1.0 -0.0713632574
C  C305  1  0.03060000  0.68480000  0.12760000  1.0 -0.0606468743
C  C306  1  0.03060000  0.31520000  0.87240000  1.0 -0.0606468743
C  C307  1  0.46940000  0.81520000  0.62760000  1.0 -0.0606468743
C  C308  1  0.46940000  0.18480000  0.37240000  1.0 -0.048898256
C  C309  1  0.96940000  0.31520000  0.87240000  1.0 -0.0606468743
C  C310  1  0.96940000  0.68480000  0.12760000  1.0 -0.0606468743
C  C311  1  0.53060000  0.18480000  0.37240000  1.0 -0.048898256
C  C312  1  0.53060000  0.81520000  0.62760000  1.0 -0.0606468743
N  N1  1  0.54829000  0.76152000  0.96148000  1.0 -0.220591616
N  N2  1  0.54829000  0.23848000  0.03852000  1.0 -0.220591616
N  N3  1  0.95171000  0.73848000  0.46148000  1.0 -0.220591616
N  N4  1  0.95171000  0.26152000  0.53852000  1.0 -0.220591616
N  N5  1  0.45171000  0.23848000  0.03852000  1.0 -0.220591616
N  N6  1  0.45171000  0.76152000  0.96148000  1.0 -0.220591616
N  N7  1  0.04829000  0.26152000  0.53852000  1.0 -0.220591616
N  N8  1  0.04829000  0.73848000  0.46148000  1.0 -0.220591616
N  N9  1  0.00000000  0.49930000  0.82972000  1.0 -0.1517033454
N  N10  1  0.00000000  0.50070000  0.17028000  1.0 -0.1517033454
N  N11  1  0.50000000  0.00070000  0.32972000  1.0 -0.1517033454
N  N12  1  0.50000000  0.99930000  0.67028000  1.0 -0.1517033454
N  N13  1  0.50000000  0.76348000  0.98939000  1.0 -0.0287985767
N  N14  1  0.50000000  0.23652000  0.01061000  1.0 -0.0206992857
N  N15  1  0.00000000  0.73652000  0.48939000  1.0 -0.0287985767
N  N16  1  0.00000000  0.26348000  0.51061000  1.0 -0.0206992857
N  N17  1  0.00000000  0.96330000  0.83662000  1.0 -0.0606468743
N  N18  1  0.00000000  0.03670000  0.16338000  1.0 -0.0606468743
N  N19  1  0.50000000  0.53670000  0.33662000  1.0 -0.0606468743
N  N20  1  0.50000000  0.46330000  0.66338000  1.0 -0.0606468743
N  N21  1  0.95092000  0.99305000  0.84809000  1.0 -0.2469636446
N  N22  1  0.95092000  0.00695000  0.15191000  1.0 -0.2469636446
N  N23  1  0.54908000  0.50695000  0.34809000  1.0 -0.2469636446
N  N24  1  0.54908000  0.49305000  0.65191000  1.0 -0.2469636446
N  N25  1  0.04908000  0.00695000  0.15191000  1.0 -0.2469636446
N  N26  1  0.04908000  0.99305000  0.84809000  1.0 -0.2469636446
N  N27  1  0.45092000  0.49305000  0.65191000  1.0 -0.2469636446
N  N28  1  0.45092000  0.50695000  0.34809000  1.0 -0.2469636446
N  N29  1  0.95110000  0.46846000  0.84053000  1.0 -0.1987229401
N  N30  1  0.95110000  0.53154000  0.15947000  1.0 -0.1987229401
N  N31  1  0.54890000  0.03154000  0.34053000  1.0 -0.1987229401
N  N32  1  0.54890000  0.96846000  0.65947000  1.0 -0.1987229401
N  N33  1  0.04890000  0.53154000  0.15947000  1.0 -0.1987229401
N  N34  1  0.04890000  0.46846000  0.84053000  1.0 -0.1987229401
N  N35  1  0.45110000  0.96846000  0.65947000  1.0 -0.1987229401
N  N36  1  0.45110000  0.03154000  0.34053000  1.0 -0.1987229401
O  O1  1  0.69611000  0.77281000  0.94375000  1.0 -0.4935180692
O  O2  1  0.69611000  0.22719000  0.05625000  1.0 -0.4935180692
O  O3  1  0.80389000  0.72719000  0.44375000  1.0 -0.4935180692
O  O4  1  0.80389000  0.27281000  0.55625000  1.0 -0.4935180692
O  O5  1  0.30389000  0.22719000  0.05625000  1.0 -0.4935180692
O  O6  1  0.30389000  0.77281000  0.94375000  1.0 -0.4935180692
O  O7  1  0.19611000  0.27281000  0.55625000  1.0 -0.4935180692
O  O8  1  0.19611000  0.72719000  0.44375000  1.0 -0.4935180692
O  O9  1  0.93984000  0.62496000  0.83749000  1.0 -0.5014176967
O  O10  1  0.93984000  0.37504000  0.16251000  1.0 -0.5014176967
O  O11  1  0.56016000  0.87504000  0.33749000  1.0 -0.5014176967
O  O12  1  0.56016000  0.12496000  0.66251000  1.0 -0.5014176967
O  O13  1  0.06016000  0.37504000  0.16251000  1.0 -0.5014176967
O  O14  1  0.06016000  0.62496000  0.83749000  1.0 -0.5014176967
O  O15  1  0.43984000  0.12496000  0.66251000  1.0 -0.5014176967
O  O16  1  0.43984000  0.87504000  0.33749000  1.0 -0.5014176967
O  O17  1  0.93751000  0.66869000  0.57147000  1.0 -0.5272526854
O  O18  1  0.93751000  0.33131000  0.42853000  1.0 -0.5272526854
O  O19  1  0.56249000  0.83131000  0.07147000  1.0 -0.5272526854
O  O20  1  0.56249000  0.16869000  0.92853000  1.0 -0.5272526854
O  O21  1  0.06249000  0.33131000  0.42853000  1.0 -0.5272526854
O  O22  1  0.06249000  0.66869000  0.57147000  1.0 -0.5272526854
O  O23  1  0.43751000  0.16869000  0.92853000  1.0 -0.5272526854
O  O24  1  0.43751000  0.83131000  0.07147000  1.0 -0.5272526854
O  O25  1  0.93947000  0.83711000  0.84307000  1.0 -0.5094007814
O  O26  1  0.93947000  0.16289000  0.15693000  1.0 -0.5094007814
O  O27  1  0.56053000  0.66289000  0.34307000  1.0 -0.5094007814
O  O28  1  0.56053000  0.33711000  0.65693000  1.0 -0.5094007814
O  O29  1  0.06053000  0.16289000  0.15693000  1.0 -0.5094007814
O  O30  1  0.06053000  0.83711000  0.84307000  1.0 -0.5094007814
O  O31  1  0.43947000  0.33711000  0.65693000  1.0 -0.5094007814
O  O32  1  0.43947000  0.66289000  0.34307000  1.0 -0.5094007814
O  O33  1  0.80341000  0.54172000  0.17046000  1.0 -0.5094007814
O  O34  1  0.80341000  0.45828000  0.82954000  1.0 -0.5094007814
O  O35  1  0.69659000  0.95828000  0.67046000  1.0 -0.5211965472
O  O36  1  0.69659000  0.04172000  0.32954000  1.0 -0.5211965472
O  O37  1  0.19659000  0.45828000  0.82954000  1.0 -0.5094007814
O  O38  1  0.19659000  0.54172000  0.17046000  1.0 -0.5094007814
O  O39  1  0.30341000  0.04172000  0.32954000  1.0 -0.5094007814
O  O40  1  0.30341000  0.95828000  0.67046000  1.0 -0.5211965472
O  O41  1  0.62863000  0.56027000  0.26569000  1.0 -0.5094007814
O  O42  1  0.62863000  0.43973000  0.73431000  1.0 -0.5094007814
O  O43  1  0.87137000  0.93973000  0.76569000  1.0 -0.5094007814
O  O44  1  0.87137000  0.06027000  0.23431000  1.0 -0.5094007814
O  O45  1  0.37137000  0.43973000  0.73431000  1.0 -0.5094007814
O  O46  1  0.37137000  0.56027000  0.26569000  1.0 -0.5094007814
O  O47  1  0.12863000  0.06027000  0.23431000  1.0 -0.5094007814
O  O48  1  0.12863000  0.93973000  0.76569000  1.0 -0.5094007814
O  O49  1  0.85528000  0.66430000  0.52893000  1.0 -0.5014176967
O  O50  1  0.85528000  0.33570000  0.47107000  1.0 -0.5094007814
O  O51  1  0.64472000  0.83570000  0.02893000  1.0 -0.5014176967
O  O52  1  0.64472000  0.16430000  0.97107000  1.0 -0.5014176967
O  O53  1  0.14472000  0.33570000  0.47107000  1.0 -0.5014176967
O  O54  1  0.14472000  0.66430000  0.52893000  1.0 -0.5014176967
O  O55  1  0.35528000  0.16430000  0.97107000  1.0 -0.5014176967
O  O56  1  0.35528000  0.83570000  0.02893000  1.0 -0.5014176967
O  O57  1  0.94279000  0.58269000  0.73980000  1.0 -0.480237175
O  O58  1  0.94279000  0.41731000  0.26020000  1.0 -0.480237175
O  O59  1  0.55721000  0.91731000  0.23980000  1.0 -0.480237175
O  O60  1  0.55721000  0.08269000  0.76020000  1.0 -0.480237175
O  O61  1  0.05721000  0.41731000  0.26020000  1.0 -0.480237175
O  O62  1  0.05721000  0.58269000  0.73980000  1.0 -0.480237175
O  O63  1  0.44279000  0.08269000  0.76020000  1.0 -0.480237175
O  O64  1  0.44279000  0.91731000  0.23980000  1.0 -0.480237175
O  O65  1  0.69738000  0.50306000  0.66268000  1.0 -0.5211965472
O  O66  1  0.69738000  0.49694000  0.33732000  1.0 -0.5211965472
O  O67  1  0.80262000  0.99694000  0.16268000  1.0 -0.5211965472
O  O68  1  0.80262000  0.00306000  0.83732000  1.0 -0.5211965472
O  O69  1  0.30262000  0.49694000  0.33732000  1.0 -0.5211965472
O  O70  1  0.30262000  0.50306000  0.66268000  1.0 -0.5211965472
O  O71  1  0.19738000  0.00306000  0.83732000  1.0 -0.5211965472
O  O72  1  0.19738000  0.99694000  0.16268000  1.0 -0.5211965472
O  O73  1  0.85896000  0.88386000  0.86693000  1.0 -0.5211965472
O  O74  1  0.85896000  0.11614000  0.13307000  1.0 -0.5211965472
O  O75  1  0.64104000  0.61614000  0.36693000  1.0 -0.5211965472
O  O76  1  0.64104000  0.38386000  0.63307000  1.0 -0.5211965472
O  O77  1  0.14104000  0.11614000  0.13307000  1.0 -0.5211965472
O  O78  1  0.14104000  0.88386000  0.86693000  1.0 -0.5211965472
O  O79  1  0.35896000  0.38386000  0.63307000  1.0 -0.5211965472
O  O80  1  0.35896000  0.61614000  0.36693000  1.0 -0.5211965472
O  O81  1  0.87087000  0.52309000  0.75968000  1.0 -0.5014176967
O  O82  1  0.87087000  0.47691000  0.24032000  1.0 -0.5094007814
O  O83  1  0.62913000  0.97691000  0.25968000  1.0 -0.5094007814
O  O84  1  0.62913000  0.02309000  0.74032000  1.0 -0.5094007814
O  O85  1  0.12913000  0.47691000  0.24032000  1.0 -0.5014176967
O  O86  1  0.12913000  0.52309000  0.75968000  1.0 -0.5014176967
O  O87  1  0.37087000  0.02309000  0.74032000  1.0 -0.5014176967
O  O88  1  0.37087000  0.97691000  0.25968000  1.0 -0.5014176967
O  O89  1  0.86004000  0.57626000  0.86185000  1.0 -0.5211965472
O  O90  1  0.86004000  0.42374000  0.13815000  1.0 -0.5211965472
O  O91  1  0.63996000  0.92374000  0.36185000  1.0 -0.5211965472
O  O92  1  0.63996000  0.07626000  0.63815000  1.0 -0.5211965472
O  O93  1  0.13996000  0.42374000  0.13815000  1.0 -0.5211965472
O  O94  1  0.13996000  0.57626000  0.86185000  1.0 -0.5211965472
O  O95  1  0.36004000  0.07626000  0.63815000  1.0 -0.5211965472
O  O96  1  0.36004000  0.92374000  0.36185000  1.0 -0.5211965472
O  O97  1  0.55792000  0.62069000  0.24581000  1.0 -0.4935180692
O  O98  1  0.55792000  0.37931000  0.75419000  1.0 -0.4935180692
O  O99  1  0.94208000  0.87931000  0.74581000  1.0 -0.5014176967
O  O100  1  0.94208000  0.12069000  0.25419000  1.0 -0.5014176967
O  O101  1  0.44208000  0.37931000  0.75419000  1.0 -0.4935180692
O  O102  1  0.44208000  0.62069000  0.24581000  1.0 -0.4935180692
O  O103  1  0.05792000  0.12069000  0.25419000  1.0 -0.5014176967
O  O104  1  0.05792000  0.87931000  0.74581000  1.0 -0.4935180692
O  O105  1  0.69261000  0.53330000  0.58592000  1.0 -0.4690139612
O  O106  1  0.69261000  0.46670000  0.41408000  1.0 -0.4690139612
O  O107  1  0.80739000  0.96670000  0.08592000  1.0 -0.4690139612
O  O108  1  0.80739000  0.03330000  0.91408000  1.0 -0.4690139612
O  O109  1  0.30739000  0.46670000  0.41408000  1.0 -0.4690139612
O  O110  1  0.30739000  0.53330000  0.58592000  1.0 -0.4690139612
O  O111  1  0.19261000  0.03330000  0.91408000  1.0 -0.4690139612
O  O112  1  0.19261000  0.96670000  0.08592000  1.0 -0.4690139612
O  O113  1  0.68804000  0.68029000  0.92733000  1.0 -0.4690139612
O  O114  1  0.68804000  0.31971000  0.07267000  1.0 -0.4690139612
O  O115  1  0.81196000  0.81971000  0.42733000  1.0 -0.4690139612
O  O116  1  0.81196000  0.18029000  0.57267000  1.0 -0.4690139612
O  O117  1  0.31196000  0.31971000  0.07267000  1.0 -0.4690139612
O  O118  1  0.31196000  0.68029000  0.92733000  1.0 -0.4690139612
O  O119  1  0.18804000  0.18029000  0.57267000  1.0 -0.4690139612
O  O120  1  0.18804000  0.81971000  0.42733000  1.0 -0.4690139612
O  O121  1  0.80665000  0.56570000  0.09260000  1.0 -0.5014176967
O  O122  1  0.80665000  0.43430000  0.90740000  1.0 -0.5014176967
O  O123  1  0.69335000  0.93430000  0.59260000  1.0 -0.5014176967
O  O124  1  0.69335000  0.06570000  0.40740000  1.0 -0.5014176967
O  O125  1  0.19335000  0.43430000  0.90740000  1.0 -0.5014176967
O  O126  1  0.19335000  0.56570000  0.09260000  1.0 -0.5014176967
O  O127  1  0.30665000  0.06570000  0.40740000  1.0 -0.5014176967
O  O128  1  0.30665000  0.93430000  0.59260000  1.0 -0.5014176967
O  O129  1  0.56195000  0.70112000  0.07314000  1.0 -0.5404197911
O  O130  1  0.56195000  0.29888000  0.92686000  1.0 -0.5404197911
O  O131  1  0.93805000  0.79888000  0.57314000  1.0 -0.5404197911
O  O132  1  0.93805000  0.20112000  0.42686000  1.0 -0.5404197911
O  O133  1  0.43805000  0.29888000  0.92686000  1.0 -0.5404197911
O  O134  1  0.43805000  0.70112000  0.07314000  1.0 -0.5404197911
O  O135  1  0.06195000  0.20112000  0.42686000  1.0 -0.5404197911
O  O136  1  0.06195000  0.79888000  0.57314000  1.0 -0.5404197911
O  O137  1  0.64889000  0.70445000  0.03710000  1.0 -0.5014176967
O  O138  1  0.64889000  0.29555000  0.96290000  1.0 -0.5014176967
O  O139  1  0.85111000  0.79555000  0.53710000  1.0 -0.5014176967
O  O140  1  0.85111000  0.20445000  0.46290000  1.0 -0.5014176967
O  O141  1  0.35111000  0.29555000  0.96290000  1.0 -0.5014176967
O  O142  1  0.35111000  0.70445000  0.03710000  1.0 -0.5014176967
O  O143  1  0.14889000  0.20445000  0.46290000  1.0 -0.5014176967
O  O144  1  0.14889000  0.79555000  0.53710000  1.0 -0.5014176967
