# DDEC6 charges by PACMAN v1.1 (https://github.com/mtap-research/PACMAN-charge/)
data_ZARQAM_ASR_pacman
_symmetry_space_group_name_H-M   'P 1'
_cell_length_a   9.08050000
_cell_length_b   12.83030000
_cell_length_c   23.61300000
_cell_angle_alpha   90.00000000
_cell_angle_beta   90.00000000
_cell_angle_gamma   90.00000000
_symmetry_Int_Tables_number   1
_chemical_formula_structural   KU3P4H4C2O15
_chemical_formula_sum   'K4 U12 P16 H16 C8 O60'
_cell_volume   2751.04529595
_cell_formula_units_Z   4
loop_
 _symmetry_equiv_pos_site_id
 _symmetry_equiv_pos_as_xyz
  1  'x, y, z'
loop_
 _atom_site_type_symbol
 _atom_site_label
 _atom_site_symmetry_multiplicity
 _atom_site_fract_x
 _atom_site_fract_y
 _atom_site_fract_z
 _atom_site_occupancy
 _atom_site_charge
K  K1  1  0.88550000  0.93630000  0.21205000  1.0 0.8226926684
K  K2  1  0.11450000  0.93630000  0.78795000  1.0 0.8226926684
K  K3  1  0.38550000  0.06370000  0.28795000  1.0 0.8226926684
K  K4  1  0.61450000  0.06370000  0.71205000  1.0 0.8226926684
U  U1  1  0.85402000  0.65762000  0.26694000  1.0 2.513808599
U  U2  1  0.14598000  0.65762000  0.73306000  1.0 2.515948215
U  U3  1  0.35402000  0.34238000  0.23306000  1.0 2.513808599
U  U4  1  0.64598000  0.34238000  0.76694000  1.0 2.515948215
U  U5  1  0.36509000  0.92325000  0.43158000  1.0 2.436037889
U  U6  1  0.63491000  0.92325000  0.56842000  1.0 2.436037889
U  U7  1  0.86509000  0.07675000  0.06842000  1.0 2.436037889
U  U8  1  0.13491000  0.07675000  0.93158000  1.0 2.436037889
U  U9  1  0.30505000  0.85075000  0.17173000  1.0 2.513808599
U  U10  1  0.69495000  0.85075000  0.82827000  1.0 2.515948215
U  U11  1  0.80505000  0.14925000  0.32827000  1.0 2.515948215
U  U12  1  0.19495000  0.14925000  0.67173000  1.0 2.515948215
P  P1  1  0.67840000  0.87770000  0.33773000  1.0 1.4413416296
P  P2  1  0.32160000  0.87770000  0.66227000  1.0 1.4413416296
P  P3  1  0.17840000  0.12230000  0.16227000  1.0 1.4413416296
P  P4  1  0.82160000  0.12230000  0.83773000  1.0 1.4413416296
P  P5  1  0.77160000  0.96460000  0.44675000  1.0 1.4316943496
P  P6  1  0.22840000  0.96460000  0.55325000  1.0 1.4316943496
P  P7  1  0.27160000  0.03540000  0.05325000  1.0 1.4316943496
P  P8  1  0.72840000  0.03540000  0.94675000  1.0 1.4316943496
P  P9  1  0.16890000  0.81430000  0.31449000  1.0 1.4316943496
P  P10  1  0.83110000  0.81430000  0.68551000  1.0 1.4316943496
P  P11  1  0.66890000  0.18570000  0.18551000  1.0 1.4316943496
P  P12  1  0.33110000  0.18570000  0.81449000  1.0 1.4316943496
P  P13  1  0.25270000  0.61730000  0.25846000  1.0 1.4527431338
P  P14  1  0.74730000  0.61730000  0.74154000  1.0 1.4527431338
P  P15  1  0.75270000  0.38270000  0.24154000  1.0 1.4527431338
P  P16  1  0.24730000  0.38270000  0.75846000  1.0 1.4527431338
H  H1  1  0.89210000  0.84710000  0.39060000  1.0 0.1993880182
H  H2  1  0.10790000  0.84710000  0.60940000  1.0 0.1993880182
H  H3  1  0.39210000  0.15290000  0.10940000  1.0 0.1993880182
H  H4  1  0.60790000  0.15290000  0.89060000  1.0 0.1993880182
H  H5  1  0.75330000  0.79340000  0.42070000  1.0 0.1671188363
H  H6  1  0.24670000  0.79340000  0.57930000  1.0 0.1671188363
H  H7  1  0.25330000  0.20660000  0.07930000  1.0 0.1671188363
H  H8  1  0.74670000  0.20660000  0.92070000  1.0 0.1671188363
H  H9  1  0.21640000  0.65150000  0.35450000  1.0 0.1671188363
H  H10  1  0.78360000  0.65150000  0.64550000  1.0 0.1671188363
H  H11  1  0.71640000  0.34850000  0.14550000  1.0 0.1649594068
H  H12  1  0.28360000  0.34850000  0.85450000  1.0 0.1671188363
H  H13  1  0.36700000  0.70400000  0.33340000  1.0 0.1786686092
H  H14  1  0.63300000  0.70400000  0.66666667  1.0 0.1786686092
H  H15  1  0.86700000  0.29600000  0.16660000  1.0 0.1786686092
H  H16  1  0.13300000  0.29600000  0.83340000  1.0 0.1786686092
C  C1  1  0.78750000  0.85710000  0.40110000  1.0 -0.8705653681
C  C2  1  0.21250000  0.85710000  0.59890000  1.0 -0.8705653681
C  C3  1  0.28750000  0.14290000  0.09890000  1.0 -0.864672193
C  C4  1  0.71250000  0.14290000  0.90110000  1.0 -0.8705653681
C  C5  1  0.26270000  0.69140000  0.32330000  1.0 -0.8705653681
C  C6  1  0.73730000  0.69140000  0.67670000  1.0 -0.8705653681
C  C7  1  0.76270000  0.30860000  0.17670000  1.0 -0.8705653681
C  C8  1  0.23730000  0.30860000  0.82330000  1.0 -0.8705653681
O  O1  1  0.18340000  0.87620000  0.37050000  1.0 -0.8772399754
O  O2  1  0.81660000  0.87620000  0.62950000  1.0 -0.8705653681
O  O3  1  0.68340000  0.12380000  0.12950000  1.0 -0.8705653681
O  O4  1  0.31660000  0.12380000  0.87050000  1.0 -0.8705653681
O  O5  1  0.69070000  0.78610000  0.29850000  1.0 -0.9035914034
O  O6  1  0.30930000  0.78610000  0.70150000  1.0 -0.9035914034
O  O7  1  0.19070000  0.21390000  0.20150000  1.0 -0.9035914034
O  O8  1  0.80930000  0.21390000  0.79850000  1.0 -0.9035914034
O  O9  1  0.33950000  0.05470000  0.41030000  1.0 -0.689139256
O  O10  1  0.66050000  0.05470000  0.58970000  1.0 -0.689139256
O  O11  1  0.83950000  0.94530000  0.08970000  1.0 -0.689139256
O  O12  1  0.16050000  0.94530000  0.91030000  1.0 -0.689139256
O  O13  1  0.00840000  0.79150000  0.29950000  1.0 -0.9481938273
O  O14  1  0.99160000  0.79150000  0.70050000  1.0 -0.9481938273
O  O15  1  0.50840000  0.20850000  0.20050000  1.0 -0.9481938273
O  O16  1  0.49160000  0.20850000  0.79950000  1.0 -0.9481938273
O  O17  1  0.84560000  0.71560000  0.19850000  1.0 -0.7135966808
O  O18  1  0.15440000  0.71560000  0.80150000  1.0 -0.7135966808
O  O19  1  0.34560000  0.28440000  0.30150000  1.0 -0.7135966808
O  O20  1  0.65440000  0.28440000  0.69850000  1.0 -0.7135966808
O  O21  1  0.32780000  0.68220000  0.21330000  1.0 -0.9420769602
O  O22  1  0.67220000  0.68220000  0.78670000  1.0 -0.9420769602
O  O23  1  0.82780000  0.31780000  0.28670000  1.0 -0.9420769602
O  O24  1  0.17220000  0.31780000  0.71330000  1.0 -0.9420769602
O  O25  1  0.33270000  0.51390000  0.26760000  1.0 -0.8772399754
O  O26  1  0.66730000  0.51390000  0.73240000  1.0 -0.8772399754
O  O27  1  0.83270000  0.48610000  0.23240000  1.0 -0.8772399754
O  O28  1  0.16730000  0.48610000  0.76760000  1.0 -0.8772399754
O  O29  1  0.24710000  0.87250000  0.26730000  1.0 -0.9133342992
O  O30  1  0.75290000  0.87250000  0.73270000  1.0 -0.9229494423
O  O31  1  0.74710000  0.12750000  0.23270000  1.0 -0.9133342992
O  O32  1  0.25290000  0.12750000  0.76730000  1.0 -0.9133342992
O  O33  1  0.82640000  0.06040000  0.41860000  1.0 -0.8705653681
O  O34  1  0.17360000  0.06040000  0.58140000  1.0 -0.8705653681
O  O35  1  0.32640000  0.93960000  0.08140000  1.0 -0.8705653681
O  O36  1  0.67360000  0.93960000  0.91860000  1.0 -0.8705653681
O  O37  1  0.12060000  0.82400000  0.15470000  1.0 -0.7007674665
O  O38  1  0.87940000  0.82400000  0.84530000  1.0 -0.7007674665
O  O39  1  0.62060000  0.17600000  0.34530000  1.0 -0.7007674665
O  O40  1  0.37940000  0.17600000  0.65470000  1.0 -0.7007674665
O  O41  1  0.85310000  0.94210000  0.50330000  1.0 -0.7927483113
O  O42  1  0.14690000  0.94210000  0.49670000  1.0 -0.7927483113
O  O43  1  0.35310000  0.05790000  0.99670000  1.0 -0.7927483113
O  O44  1  0.64690000  0.05790000  0.00330000  1.0 -0.7927483113
O  O45  1  0.08870000  0.59770000  0.24580000  1.0 -0.9261452348
O  O46  1  0.91130000  0.59770000  0.75420000  1.0 -0.9261452348
O  O47  1  0.58870000  0.40230000  0.25420000  1.0 -0.9261452348
O  O48  1  0.41130000  0.40230000  0.74580000  1.0 -0.9261452348
O  O49  1  0.61010000  0.97060000  0.46740000  1.0 -1.0015297473
O  O50  1  0.38990000  0.97060000  0.53260000  1.0 -1.0015297473
O  O51  1  0.11010000  0.02940000  0.03260000  1.0 -1.0015297473
O  O52  1  0.88990000  0.02940000  0.96740000  1.0 -1.0015297473
O  O53  1  0.51780000  0.89480000  0.35610000  1.0 -0.9420769602
O  O54  1  0.48220000  0.89480000  0.64390000  1.0 -0.9420769602
O  O55  1  0.01780000  0.10520000  0.14390000  1.0 -0.9420769602
O  O56  1  0.98220000  0.10520000  0.85610000  1.0 -0.9420769602
O  O57  1  0.74180000  0.97520000  0.31080000  1.0 -0.9229494423
O  O58  1  0.25820000  0.97520000  0.68920000  1.0 -0.9229494423
O  O59  1  0.24180000  0.02480000  0.18920000  1.0 -0.9229494423
O  O60  1  0.75820000  0.02480000  0.81080000  1.0 -0.9229494423
