# DDEC6 charges by PACMAN v1.1 (https://github.com/mtap-research/PACMAN-charge/)
data_ZATPOC_FSR_pacman
_symmetry_space_group_name_H-M   'P 1'
_cell_length_a   19.81000000
_cell_length_b   19.81000000
_cell_length_c   19.81000000
_cell_angle_alpha   97.55740000
_cell_angle_beta   97.55740000
_cell_angle_gamma   137.47300000
_symmetry_Int_Tables_number   1
_chemical_formula_structural   Zr3H4C24S4(N3O4)4
_chemical_formula_sum   'Zr12 H16 C96 S16 N48 O64'
_cell_volume   4897.11578626
_cell_formula_units_Z   4
loop_
 _symmetry_equiv_pos_site_id
 _symmetry_equiv_pos_as_xyz
  1  'x, y, z'
loop_
 _atom_site_type_symbol
 _atom_site_label
 _atom_site_symmetry_multiplicity
 _atom_site_fract_x
 _atom_site_fract_y
 _atom_site_fract_z
 _atom_site_occupancy
 _atom_site_charge
Zr  Zr1  1  0.28085000  0.65705000  0.43668000  1.0 2.3316077038
Zr  Zr2  1  0.22037000  0.84417000  0.56332000  1.0 2.3316077038
Zr  Zr3  1  0.15583000  0.71915000  0.37620000  1.0 2.3316077038
Zr  Zr4  1  0.34295000  0.77963000  0.62380000  1.0 2.3316077038
Zr  Zr5  1  0.96915000  0.90583000  0.87620000  1.0 2.3316077038
Zr  Zr6  1  0.02963000  0.09295000  0.12380000  1.0 2.3316077038
Zr  Zr7  1  0.09417000  0.97037000  0.06332000  1.0 2.3316077038
Zr  Zr8  1  0.90705000  0.03085000  0.93668000  1.0 2.3316077038
Zr  Zr9  1  0.82295000  0.82295000  0.00000000  1.0 2.2991512164
Zr  Zr10  1  0.17705000  0.17705000  0.00000000  1.0 2.2991512164
Zr  Zr11  1  0.42705000  0.92705000  0.50000000  1.0 2.2991512164
Zr  Zr12  1  0.07295000  0.57295000  0.50000000  1.0 2.2991512164
H  H1  1  0.12348000  0.42009000  0.31061000  1.0 0.1332771207
H  H2  1  0.55046000  0.57592000  0.96860000  1.0 0.0670610496
H  H3  1  0.10948000  0.81287000  0.68939000  1.0 0.1332771207
H  H4  1  0.60732000  0.58186000  0.03140000  1.0 0.0670610496
H  H5  1  0.18713000  0.87652000  0.29661000  1.0 0.1332771207
H  H6  1  0.41814000  0.44954000  0.02546000  1.0 0.0670610496
H  H7  1  0.57991000  0.89052000  0.70339000  1.0 0.1332771207
H  H8  1  0.42408000  0.39268000  0.97454000  1.0 0.0670610496
H  H9  1  0.12652000  0.93713000  0.79661000  1.0 0.1332771207
H  H10  1  0.69954000  0.16814000  0.52546000  1.0 0.0670610496
H  H11  1  0.14052000  0.32991000  0.20339000  1.0 0.1332771207
H  H12  1  0.64268000  0.17408000  0.47454000  1.0 0.0670610496
H  H13  1  0.06287000  0.85948000  0.18939000  1.0 0.1332771207
H  H14  1  0.83186000  0.35732000  0.53140000  1.0 0.0670610496
H  H15  1  0.67009000  0.87348000  0.81061000  1.0 0.1332771207
H  H16  1  0.82592000  0.30046000  0.46860000  1.0 0.0670610496
C  C1  1  0.61976000  0.55646000  0.67452000  1.0 0.1900424675
C  C2  1  0.52962000  0.59060000  0.58986000  1.0 0.1900424675
C  C3  1  0.73799000  0.66453000  0.84952000  1.0 0.6488434716
C  C4  1  0.68414000  0.55849000  0.81631000  1.0 -0.2891126865
C  C5  1  0.48954000  0.68719000  0.61433000  1.0 -0.3108296946
C  C6  1  0.41809000  0.69200000  0.58489000  1.0 0.6690105393
C  C7  1  0.13046000  0.41237000  0.35805000  1.0 0.1677005017
C  C8  1  0.02254000  0.23989000  0.30333000  1.0 -0.0721853434
C  C9  1  0.09039000  0.31076000  0.42507000  1.0 0.0813484906
C  C10  1  0.56312000  0.63453000  0.97225000  1.0 0.2498136262
C  C11  1  0.41092000  0.54049000  0.99515000  1.0 -0.0426269949
C  C12  1  0.51222000  0.70415000  0.99097000  1.0 0.0813484906
C  C13  1  0.88194000  0.94524000  0.32548000  1.0 0.1900424675
C  C14  1  0.00074000  0.93976000  0.41014000  1.0 0.1900424675
C  C15  1  0.81501000  0.88847000  0.15048000  1.0 0.6488434716
C  C16  1  0.74218000  0.86783000  0.18369000  1.0 -0.2891126865
C  C17  1  0.07286000  0.87521000  0.38567000  1.0 -0.3108296946
C  C18  1  0.10711000  0.83320000  0.41511000  1.0 0.6690105393
C  C19  1  0.05432000  0.77241000  0.64195000  1.0 0.1677005017
C  C20  1  0.93656000  0.71921000  0.69667000  1.0 -0.0721853434
C  C21  1  0.88569000  0.66532000  0.57493000  1.0 0.0813484906
C  C22  1  0.66228000  0.59087000  0.02775000  1.0 0.2498136262
C  C23  1  0.54534000  0.41577000  0.00485000  1.0 -0.0426269949
C  C24  1  0.71318000  0.52125000  0.00903000  1.0 0.0864619818
C  C25  1  0.05476000  0.38024000  0.93670000  1.0 0.1900424675
C  C26  1  0.06024000  0.47038000  0.06098000  1.0 0.1900424675
C  C27  1  0.11153000  0.26201000  0.92654000  1.0 0.6488434716
C  C28  1  0.13217000  0.31586000  0.87435000  1.0 -0.2891126865
C  C29  1  0.12479000  0.51046000  0.19765000  1.0 -0.3108296946
C  C30  1  0.16680000  0.58191000  0.27391000  1.0 0.6690105393
C  C31  1  0.22759000  0.86954000  0.28191000  1.0 0.1677005017
C  C32  1  0.28079000  0.97746000  0.21735000  1.0 -0.0721853434
C  C33  1  0.33468000  0.90961000  0.22037000  1.0 0.0813484906
C  C34  1  0.40913000  0.43688000  0.07141000  1.0 0.2498136262
C  C35  1  0.58423000  0.58908000  0.12957000  1.0 -0.0426269949
C  C36  1  0.47875000  0.48778000  0.19193000  1.0 0.0864619818
C  C37  1  0.44354000  0.11806000  0.06330000  1.0 0.1900424675
C  C38  1  0.40940000  0.99926000  0.93902000  1.0 0.1900424675
C  C39  1  0.33547000  0.18499000  0.07346000  1.0 0.6488434716
C  C40  1  0.44151000  0.25782000  0.12565000  1.0 -0.2891126865
C  C41  1  0.31281000  0.92714000  0.80235000  1.0 -0.3108296946
C  C42  1  0.30800000  0.89289000  0.72609000  1.0 0.6690105393
C  C43  1  0.58763000  0.94568000  0.71809000  1.0 0.1754191264
C  C44  1  0.76011000  0.06344000  0.78265000  1.0 -0.0721853434
C  C45  1  0.68924000  0.11431000  0.77963000  1.0 0.0813484906
C  C46  1  0.36547000  0.33772000  0.92859000  1.0 0.2498136262
C  C47  1  0.45951000  0.45466000  0.87043000  1.0 -0.0426269949
C  C48  1  0.29585000  0.28682000  0.80807000  1.0 0.0813484906
C  C49  1  0.63024000  0.80476000  0.43670000  1.0 0.1900424675
C  C50  1  0.72038000  0.81024000  0.56098000  1.0 0.1900424675
C  C51  1  0.51201000  0.86153000  0.42654000  1.0 0.6488434716
C  C52  1  0.56586000  0.88217000  0.37435000  1.0 -0.2891126865
C  C53  1  0.76046000  0.87479000  0.69765000  1.0 -0.3108296946
C  C54  1  0.83191000  0.91680000  0.77391000  1.0 0.6690105393
C  C55  1  0.11954000  0.97759000  0.78191000  1.0 0.1754191264
C  C56  1  0.22746000  0.03079000  0.71735000  1.0 -0.0721853434
C  C57  1  0.15961000  0.08468000  0.72037000  1.0 0.0813484906
C  C58  1  0.68688000  0.15913000  0.57141000  1.0 0.2498136262
C  C59  1  0.83908000  0.33423000  0.62957000  1.0 -0.0426269949
C  C60  1  0.73778000  0.22875000  0.69193000  1.0 0.0864619818
C  C61  1  0.36806000  0.19354000  0.56330000  1.0 0.1900424675
C  C62  1  0.24926000  0.15940000  0.43902000  1.0 0.1900424675
C  C63  1  0.43499000  0.08547000  0.57346000  1.0 0.6488434716
C  C64  1  0.50782000  0.19151000  0.62565000  1.0 -0.2891126865
C  C65  1  0.17714000  0.06281000  0.30235000  1.0 -0.3108296946
C  C66  1  0.14289000  0.05800000  0.22609000  1.0 0.6690105393
C  C67  1  0.19568000  0.33763000  0.21809000  1.0 0.1677005017
C  C68  1  0.31344000  0.51011000  0.28265000  1.0 -0.0721853434
C  C69  1  0.36431000  0.43924000  0.27963000  1.0 0.0813484906
C  C70  1  0.58772000  0.11547000  0.42859000  1.0 0.2498136262
C  C71  1  0.70466000  0.20951000  0.37043000  1.0 -0.0426269949
C  C72  1  0.53682000  0.04585000  0.30807000  1.0 0.0864619818
C  C73  1  0.19524000  0.63194000  0.82548000  1.0 0.1900424675
C  C74  1  0.18976000  0.75074000  0.91014000  1.0 0.1900424675
C  C75  1  0.13847000  0.56501000  0.65048000  1.0 0.6488434716
C  C76  1  0.11783000  0.49218000  0.68369000  1.0 -0.2891126865
C  C77  1  0.12521000  0.82286000  0.88567000  1.0 -0.3108296946
C  C78  1  0.08320000  0.85711000  0.91511000  1.0 0.6690105393
C  C79  1  0.02241000  0.80432000  0.14195000  1.0 0.1677005017
C  C80  1  0.96921000  0.68656000  0.19667000  1.0 -0.0721853434
C  C81  1  0.91532000  0.63569000  0.07493000  1.0 0.0813484906
C  C82  1  0.84087000  0.41228000  0.52775000  1.0 0.2498136262
C  C83  1  0.66577000  0.29534000  0.50485000  1.0 -0.0426269949
C  C84  1  0.77125000  0.46318000  0.50903000  1.0 0.0864619818
C  C85  1  0.80646000  0.36976000  0.17452000  1.0 0.1900424675
C  C86  1  0.84060000  0.27962000  0.08986000  1.0 0.1900424675
C  C87  1  0.91453000  0.48799000  0.34952000  1.0 0.6488434716
C  C88  1  0.80849000  0.43414000  0.31631000  1.0 -0.2891126865
C  C89  1  0.93719000  0.23954000  0.11433000  1.0 -0.3108296946
C  C90  1  0.94200000  0.16809000  0.08489000  1.0 0.6690105393
C  C91  1  0.66237000  0.88046000  0.85805000  1.0 0.1677005017
C  C92  1  0.48989000  0.77254000  0.80333000  1.0 -0.0721853434
C  C93  1  0.56076000  0.84039000  0.92507000  1.0 0.0813484906
C  C94  1  0.88453000  0.31312000  0.47225000  1.0 0.2498136262
C  C95  1  0.79049000  0.16092000  0.49515000  1.0 -0.0426269949
C  C96  1  0.95415000  0.26222000  0.49097000  1.0 0.0864619818
S  S1  1  0.67481000  0.53561000  0.72622000  1.0 0.1677005017
S  S2  1  0.47457000  0.61145000  0.53816000  1.0 0.1677005017
S  S3  1  0.80939000  0.94859000  0.27378000  1.0 0.1677005017
S  S4  1  0.07329000  0.93641000  0.46184000  1.0 0.1677005017
S  S5  1  0.05141000  0.32519000  0.86080000  1.0 0.1677005017
S  S6  1  0.06359000  0.52543000  0.13688000  1.0 0.1677005017
S  S7  1  0.46439000  0.19061000  0.13920000  1.0 0.1677005017
S  S8  1  0.38855000  0.92671000  0.86312000  1.0 0.1677005017
S  S9  1  0.57519000  0.80141000  0.36080000  1.0 0.1677005017
S  S10  1  0.77543000  0.81359000  0.63688000  1.0 0.1677005017
S  S11  1  0.44061000  0.21439000  0.63920000  1.0 0.1677005017
S  S12  1  0.17671000  0.13855000  0.36312000  1.0 0.1677005017
S  S13  1  0.19859000  0.55939000  0.77378000  1.0 0.1677005017
S  S14  1  0.18641000  0.82329000  0.96184000  1.0 0.1677005017
S  S15  1  0.78561000  0.42481000  0.22622000  1.0 0.1677005017
S  S16  1  0.86145000  0.22457000  0.03816000  1.0 0.1677005017
N  N1  1  0.61343000  0.61748000  0.70735000  1.0 -0.1675313612
N  N2  1  0.56837000  0.63455000  0.66502000  1.0 -0.1382414163
N  N3  1  0.53595000  0.52960000  0.55703000  1.0 -0.1471538259
N  N4  1  0.58102000  0.51253000  0.59937000  1.0 -0.1471538259
N  N5  1  0.08113000  0.32100000  0.36215000  1.0 -0.0059975568
N  N6  1  0.49543000  0.62640000  0.98613000  1.0 -0.0764200867
N  N7  1  0.91013000  0.90608000  0.29265000  1.0 -0.1675313612
N  N8  1  0.96953000  0.90335000  0.33498000  1.0 -0.1382414163
N  N9  1  0.97257000  0.97892000  0.44297000  1.0 -0.1471538259
N  N10  1  0.91316000  0.98165000  0.40063000  1.0 -0.1471538259
N  N11  1  0.95885000  0.71898000  0.63785000  1.0 -0.0038189451
N  N12  1  0.64027000  0.50930000  0.01387000  1.0 -0.0764200867
N  N13  1  0.09392000  0.38657000  0.00405000  1.0 -0.1675313612
N  N14  1  0.09665000  0.43163000  0.06618000  1.0 -0.1320920841
N  N15  1  0.02108000  0.46405000  0.99365000  1.0 -0.1471538259
N  N16  1  0.01835000  0.41898000  0.93151000  1.0 -0.1471538259
N  N17  1  0.28102000  0.91887000  0.23987000  1.0 -0.0059975568
N  N18  1  0.49070000  0.50457000  0.13097000  1.0 -0.0764200867
N  N19  1  0.38252000  0.08987000  0.99595000  1.0 -0.1675313612
N  N20  1  0.36545000  0.03047000  0.93382000  1.0 -0.1382414163
N  N21  1  0.47040000  0.02743000  0.00635000  1.0 -0.1382414163
N  N22  1  0.48747000  0.08684000  0.06849000  1.0 -0.1471538259
N  N23  1  0.67900000  0.04115000  0.76013000  1.0 -0.0038189451
N  N24  1  0.37360000  0.35973000  0.86903000  1.0 -0.0764200867
N  N25  1  0.63657000  0.84392000  0.50405000  1.0 -0.1675313612
N  N26  1  0.68163000  0.84665000  0.56618000  1.0 -0.1382414163
N  N27  1  0.71405000  0.77108000  0.49365000  1.0 -0.1471538259
N  N28  1  0.66898000  0.76835000  0.43151000  1.0 -0.1471538259
N  N29  1  0.16887000  0.03102000  0.73987000  1.0 -0.0059975568
N  N30  1  0.75457000  0.24070000  0.63097000  1.0 -0.0764200867
N  N31  1  0.33987000  0.13252000  0.49595000  1.0 -0.1675313612
N  N32  1  0.28047000  0.11545000  0.43382000  1.0 -0.1382414163
N  N33  1  0.27743000  0.22040000  0.50635000  1.0 -0.1382414163
N  N34  1  0.33684000  0.23747000  0.56849000  1.0 -0.1471538259
N  N35  1  0.29115000  0.42900000  0.26013000  1.0 -0.0038189451
N  N36  1  0.60973000  0.12360000  0.36903000  1.0 -0.0764200867
N  N37  1  0.15608000  0.66013000  0.79265000  1.0 -0.1675313612
N  N38  1  0.15335000  0.71953000  0.83498000  1.0 -0.1382414163
N  N39  1  0.22892000  0.72257000  0.94297000  1.0 -0.1471538259
N  N40  1  0.23165000  0.66316000  0.90063000  1.0 -0.1471538259
N  N41  1  0.96898000  0.70885000  0.13785000  1.0 -0.0059975568
N  N42  1  0.75930000  0.39027000  0.51387000  1.0 -0.0764200867
N  N43  1  0.86748000  0.36343000  0.20735000  1.0 -0.1675313612
N  N44  1  0.88455000  0.31837000  0.16502000  1.0 -0.1382414163
N  N45  1  0.77960000  0.28595000  0.05703000  1.0 -0.1382414163
N  N46  1  0.76253000  0.33102000  0.09937000  1.0 -0.1471538259
N  N47  1  0.57100000  0.83113000  0.86215000  1.0 -0.0038189451
N  N48  1  0.87640000  0.24543000  0.48613000  1.0 -0.0764200867
O  O1  1  0.73109000  0.68412000  0.90403000  1.0 -0.4688545012
O  O2  1  0.35965000  0.64588000  0.51753000  1.0 -0.546510841
O  O3  1  0.39545000  0.71798000  0.63023000  1.0 -0.5799105869
O  O4  1  0.82511000  0.73869000  0.83942000  1.0 -0.5117501722
O  O5  1  0.18906000  0.49349000  0.41687000  1.0 -0.5304829509
O  O6  1  0.94352000  0.85834000  0.97106000  1.0 -0.8672178688
O  O7  1  0.97608000  0.95254000  0.07718000  1.0 -0.8641017135
O  O8  1  0.64762000  0.72043000  0.96323000  1.0 -0.5380084173
O  O9  1  0.78009000  0.82706000  0.09597000  1.0 -0.4688545012
O  O10  1  0.12835000  0.84212000  0.48247000  1.0 -0.546510841
O  O11  1  0.08775000  0.76522000  0.36977000  1.0 -0.5799105869
O  O12  1  0.89927000  0.98569000  0.16058000  1.0 -0.5117501722
O  O13  1  0.07662000  0.77219000  0.58313000  1.0 -0.5304829509
O  O14  1  0.88728000  0.97246000  0.02894000  1.0 -0.8672178688
O  O15  1  0.87536000  0.89890000  0.92282000  1.0 -0.8641017135
O  O16  1  0.75720000  0.68439000  0.03677000  1.0 -0.5380084173
O  O17  1  0.17294000  0.26891000  0.95303000  1.0 -0.4688545012
O  O18  1  0.15788000  0.64035000  0.28623000  1.0 -0.546510841
O  O19  1  0.23478000  0.60455000  0.32253000  1.0 -0.5799105869
O  O20  1  0.01431000  0.17489000  0.91358000  1.0 -0.5117501722
O  O21  1  0.22781000  0.81094000  0.30443000  1.0 -0.5304829509
O  O22  1  0.02754000  0.05648000  0.91482000  1.0 -0.8672178688
O  O23  1  0.10110000  0.02392000  0.97646000  1.0 -0.8641017135
O  O24  1  0.31561000  0.35238000  0.07281000  1.0 -0.5380084173
O  O25  1  0.31588000  0.21991000  0.04697000  1.0 -0.4688545012
O  O26  1  0.35412000  0.87165000  0.71377000  1.0 -0.546510841
O  O27  1  0.28202000  0.91225000  0.67747000  1.0 -0.5799105869
O  O28  1  0.26131000  0.10073000  0.08642000  1.0 -0.5117501722
O  O29  1  0.50651000  0.92338000  0.69557000  1.0 -0.5304829509
O  O30  1  0.14166000  0.11272000  0.08518000  1.0 -0.8672178688
O  O31  1  0.04746000  0.12464000  0.02354000  1.0 -0.8672178688
O  O32  1  0.27957000  0.24280000  0.92719000  1.0 -0.5380084173
O  O33  1  0.51891000  0.92294000  0.45303000  1.0 -0.4688545012
O  O34  1  0.89035000  0.90788000  0.78623000  1.0 -0.546510841
O  O35  1  0.85455000  0.98478000  0.82253000  1.0 -0.5799105869
O  O36  1  0.42489000  0.76431000  0.41358000  1.0 -0.5117501722
O  O37  1  0.06094000  0.97781000  0.80443000  1.0 -0.5304829509
O  O38  1  0.30648000  0.77754000  0.41482000  1.0 -0.8672178688
O  O39  1  0.27392000  0.85110000  0.47646000  1.0 -0.8672178688
O  O40  1  0.60238000  0.06561000  0.57281000  1.0 -0.5380084173
O  O41  1  0.46991000  0.06588000  0.54697000  1.0 -0.4688545012
O  O42  1  0.12165000  0.10412000  0.21377000  1.0 -0.546510841
O  O43  1  0.16225000  0.03202000  0.17747000  1.0 -0.5799105869
O  O44  1  0.35073000  0.01131000  0.58642000  1.0 -0.5117501722
O  O45  1  0.17338000  0.25651000  0.19557000  1.0 -0.5304829509
O  O46  1  0.36272000  0.89166000  0.58518000  1.0 -0.8672178688
O  O47  1  0.37464000  0.79746000  0.52354000  1.0 -0.8672178688
O  O48  1  0.49280000  0.02957000  0.42719000  1.0 -0.5380084173
O  O49  1  0.07706000  0.53009000  0.59597000  1.0 -0.4688545012
O  O50  1  0.09212000  0.87835000  0.98247000  1.0 -0.546510841
O  O51  1  0.01522000  0.83775000  0.86977000  1.0 -0.5799105869
O  O52  1  0.23569000  0.64927000  0.66058000  1.0 -0.5117501722
O  O53  1  0.02219000  0.82662000  0.08313000  1.0 -0.5304829509
O  O54  1  0.22246000  0.63728000  0.52894000  1.0 -0.8672178688
O  O55  1  0.14890000  0.62536000  0.42282000  1.0 -0.8672178688
O  O56  1  0.93439000  0.50720000  0.53677000  1.0 -0.5380084173
O  O57  1  0.93412000  0.48109000  0.40403000  1.0 -0.4688545012
O  O58  1  0.89588000  0.10965000  0.01753000  1.0 -0.546510841
O  O59  1  0.96798000  0.14545000  0.13023000  1.0 -0.5799105869
O  O60  1  0.98869000  0.57511000  0.33942000  1.0 -0.5117501722
O  O61  1  0.74349000  0.93906000  0.91687000  1.0 -0.5304829509
O  O62  1  0.10834000  0.69352000  0.47106000  1.0 -0.8672178688
O  O63  1  0.20254000  0.72608000  0.57718000  1.0 -0.8672178688
O  O64  1  0.97043000  0.39762000  0.46323000  1.0 -0.5380084173
