# DDEC6 charges by PACMAN v1.1 (https://github.com/mtap-research/PACMAN-charge/)
data_ZAXQUM_ASR_pacman
_symmetry_space_group_name_H-M   'P 1'
_cell_length_a   14.63900000
_cell_length_b   14.63900000
_cell_length_c   20.05600000
_cell_angle_alpha   90.00000000
_cell_angle_beta   90.00000000
_cell_angle_gamma   90.00000000
_symmetry_Int_Tables_number   1
_chemical_formula_structural   CuH10(C7N3)2
_chemical_formula_sum   'Cu8 H80 C112 N48'
_cell_volume   4298.00723798
_cell_formula_units_Z   8
loop_
 _symmetry_equiv_pos_site_id
 _symmetry_equiv_pos_as_xyz
  1  'x, y, z'
loop_
 _atom_site_type_symbol
 _atom_site_label
 _atom_site_symmetry_multiplicity
 _atom_site_fract_x
 _atom_site_fract_y
 _atom_site_fract_z
 _atom_site_occupancy
 _atom_site_charge
Cu  Cu1  1  0.75000000  0.25000000  0.75000000  1.0 0.5824091811
Cu  Cu2  1  0.25000000  0.25000000  0.25000000  1.0 0.5824091811
Cu  Cu3  1  0.25000000  0.75000000  0.75000000  1.0 0.5824091811
Cu  Cu4  1  0.75000000  0.75000000  0.25000000  1.0 0.5824091811
Cu  Cu5  1  0.50000000  0.50000000  0.00000000  1.0 0.2236645524
Cu  Cu6  1  0.00000000  0.00000000  0.50000000  1.0 0.2236645524
Cu  Cu7  1  0.00000000  0.00000000  0.00000000  1.0 0.2236645524
Cu  Cu8  1  0.50000000  0.50000000  0.50000000  1.0 0.2236645524
H  H1  1  0.69240000  0.53940000  0.53920000  1.0 0.0980658089
H  H2  1  0.96060000  0.19240000  0.03920000  1.0 0.0980658089
H  H3  1  0.30760000  0.46060000  0.53920000  1.0 0.0980658089
H  H4  1  0.03940000  0.80760000  0.03920000  1.0 0.0980658089
H  H5  1  0.19240000  0.96060000  0.46080000  1.0 0.0980658089
H  H6  1  0.53940000  0.69240000  0.96080000  1.0 0.0980658089
H  H7  1  0.80760000  0.03940000  0.46080000  1.0 0.0980658089
H  H8  1  0.46060000  0.30760000  0.96080000  1.0 0.0980658089
H  H9  1  0.80760000  0.96060000  0.96080000  1.0 0.0980658089
H  H10  1  0.53940000  0.30760000  0.46080000  1.0 0.0980658089
H  H11  1  0.19240000  0.03940000  0.96080000  1.0 0.0980658089
H  H12  1  0.46060000  0.69240000  0.46080000  1.0 0.0980658089
H  H13  1  0.30760000  0.53940000  0.03920000  1.0 0.0980658089
H  H14  1  0.96060000  0.80760000  0.53920000  1.0 0.0980658089
H  H15  1  0.69240000  0.46060000  0.03920000  1.0 0.0980658089
H  H16  1  0.03940000  0.19240000  0.53920000  1.0 0.0980658089
H  H17  1  0.80320000  0.49290000  0.61310000  1.0 0.0943365818
H  H18  1  0.00710000  0.30320000  0.11310000  1.0 0.0943365818
H  H19  1  0.19680000  0.50710000  0.61310000  1.0 0.0943365818
H  H20  1  0.99290000  0.69680000  0.11310000  1.0 0.0943365818
H  H21  1  0.30320000  0.00710000  0.38690000  1.0 0.0943365818
H  H22  1  0.49290000  0.80320000  0.88690000  1.0 0.0943365818
H  H23  1  0.69680000  0.99290000  0.38690000  1.0 0.0943365818
H  H24  1  0.50710000  0.19680000  0.88690000  1.0 0.0943365818
H  H25  1  0.69680000  0.00710000  0.88690000  1.0 0.0943365818
H  H26  1  0.49290000  0.19680000  0.38690000  1.0 0.0943365818
H  H27  1  0.30320000  0.99290000  0.88690000  1.0 0.0943365818
H  H28  1  0.50710000  0.80320000  0.38690000  1.0 0.0943365818
H  H29  1  0.19680000  0.49290000  0.11310000  1.0 0.0943365818
H  H30  1  0.00710000  0.69680000  0.61310000  1.0 0.0943365818
H  H31  1  0.80320000  0.50710000  0.11310000  1.0 0.0943365818
H  H32  1  0.99290000  0.30320000  0.61310000  1.0 0.0943365818
H  H33  1  0.55380000  0.18570000  0.72210000  1.0 0.0980658089
H  H34  1  0.31430000  0.05380000  0.22210000  1.0 0.0980658089
H  H35  1  0.44620000  0.81430000  0.72210000  1.0 0.0980658089
H  H36  1  0.68570000  0.94620000  0.22210000  1.0 0.0980658089
H  H37  1  0.05380000  0.31430000  0.27790000  1.0 0.0980658089
H  H38  1  0.18570000  0.55380000  0.77790000  1.0 0.0980658089
H  H39  1  0.94620000  0.68570000  0.27790000  1.0 0.0980658089
H  H40  1  0.81430000  0.44620000  0.77790000  1.0 0.0980658089
H  H41  1  0.94620000  0.31430000  0.77790000  1.0 0.0980658089
H  H42  1  0.18570000  0.44620000  0.27790000  1.0 0.0980658089
H  H43  1  0.05380000  0.68570000  0.77790000  1.0 0.0980658089
H  H44  1  0.81430000  0.55380000  0.27790000  1.0 0.0980658089
H  H45  1  0.44620000  0.18570000  0.22210000  1.0 0.0980658089
H  H46  1  0.31430000  0.94620000  0.72210000  1.0 0.0980658089
H  H47  1  0.55380000  0.81430000  0.22210000  1.0 0.0980658089
H  H48  1  0.68570000  0.05380000  0.72210000  1.0 0.0980658089
H  H49  1  0.43660000  0.22400000  0.64830000  1.0 0.1201663741
H  H50  1  0.27600000  0.93660000  0.14830000  1.0 0.1201663741
H  H51  1  0.56340000  0.77600000  0.64830000  1.0 0.1201663741
H  H52  1  0.72400000  0.06340000  0.14830000  1.0 0.1201663741
H  H53  1  0.93660000  0.27600000  0.35170000  1.0 0.1201663741
H  H54  1  0.22400000  0.43660000  0.85170000  1.0 0.1201663741
H  H55  1  0.06340000  0.72400000  0.35170000  1.0 0.1201663741
H  H56  1  0.77600000  0.56340000  0.85170000  1.0 0.1201663741
H  H57  1  0.06340000  0.27600000  0.85170000  1.0 0.1201663741
H  H58  1  0.22400000  0.56340000  0.35170000  1.0 0.1201663741
H  H59  1  0.93660000  0.72400000  0.85170000  1.0 0.1201663741
H  H60  1  0.77600000  0.43660000  0.35170000  1.0 0.1201663741
H  H61  1  0.56340000  0.22400000  0.14830000  1.0 0.1201663741
H  H62  1  0.27600000  0.06340000  0.64830000  1.0 0.1201663741
H  H63  1  0.43660000  0.77600000  0.14830000  1.0 0.1201663741
H  H64  1  0.72400000  0.93660000  0.64830000  1.0 0.1201663741
H  H65  1  0.45490000  0.34290000  0.57450000  1.0 0.1201663741
H  H66  1  0.15710000  0.95490000  0.07450000  1.0 0.1201663741
H  H67  1  0.54510000  0.65710000  0.57450000  1.0 0.1201663741
H  H68  1  0.84290000  0.04510000  0.07450000  1.0 0.1201663741
H  H69  1  0.95490000  0.15710000  0.42550000  1.0 0.1201663741
H  H70  1  0.34290000  0.45490000  0.92550000  1.0 0.1201663741
H  H71  1  0.04510000  0.84290000  0.42550000  1.0 0.1201663741
H  H72  1  0.65710000  0.54510000  0.92550000  1.0 0.1201663741
H  H73  1  0.04510000  0.15710000  0.92550000  1.0 0.1201663741
H  H74  1  0.34290000  0.54510000  0.42550000  1.0 0.1201663741
H  H75  1  0.95490000  0.84290000  0.92550000  1.0 0.1201663741
H  H76  1  0.65710000  0.45490000  0.42550000  1.0 0.1201663741
H  H77  1  0.54510000  0.34290000  0.07450000  1.0 0.1201663741
H  H78  1  0.15710000  0.04510000  0.57450000  1.0 0.1201663741
H  H79  1  0.45490000  0.65710000  0.07450000  1.0 0.1201663741
H  H80  1  0.84290000  0.95490000  0.57450000  1.0 0.1201663741
C  C1  1  0.67980000  0.48890000  0.56750000  1.0 -0.0454661181
C  C2  1  0.01110000  0.17980000  0.06750000  1.0 -0.0454661181
C  C3  1  0.32020000  0.51110000  0.56750000  1.0 -0.0454661181
C  C4  1  0.98890000  0.82020000  0.06750000  1.0 -0.0454661181
C  C5  1  0.17980000  0.01110000  0.43250000  1.0 -0.0454661181
C  C6  1  0.48890000  0.67980000  0.93250000  1.0 -0.0454661181
C  C7  1  0.82020000  0.98890000  0.43250000  1.0 -0.0454661181
C  C8  1  0.51110000  0.32020000  0.93250000  1.0 -0.0454661181
C  C9  1  0.82020000  0.01110000  0.93250000  1.0 -0.0454661181
C  C10  1  0.48890000  0.32020000  0.43250000  1.0 -0.0454661181
C  C11  1  0.17980000  0.98890000  0.93250000  1.0 -0.0454661181
C  C12  1  0.51110000  0.67980000  0.43250000  1.0 -0.0454661181
C  C13  1  0.32020000  0.48890000  0.06750000  1.0 -0.0454661181
C  C14  1  0.01110000  0.82020000  0.56750000  1.0 -0.0454661181
C  C15  1  0.67980000  0.51110000  0.06750000  1.0 -0.0454661181
C  C16  1  0.98890000  0.17980000  0.56750000  1.0 -0.0454661181
C  C17  1  0.74690000  0.46060000  0.61210000  1.0 0.0172315347
C  C18  1  0.03940000  0.24690000  0.11210000  1.0 0.0172315347
C  C19  1  0.25310000  0.53940000  0.61210000  1.0 0.0172315347
C  C20  1  0.96060000  0.75310000  0.11210000  1.0 0.0172315347
C  C21  1  0.24690000  0.03940000  0.38790000  1.0 0.0172315347
C  C22  1  0.46060000  0.74690000  0.88790000  1.0 0.0172315347
C  C23  1  0.75310000  0.96060000  0.38790000  1.0 0.0172315347
C  C24  1  0.53940000  0.25310000  0.88790000  1.0 0.0172315347
C  C25  1  0.75310000  0.03940000  0.88790000  1.0 0.0172315347
C  C26  1  0.46060000  0.25310000  0.38790000  1.0 0.0172315347
C  C27  1  0.24690000  0.96060000  0.88790000  1.0 0.0172315347
C  C28  1  0.53940000  0.74690000  0.38790000  1.0 0.0172315347
C  C29  1  0.25310000  0.46060000  0.11210000  1.0 0.0172315347
C  C30  1  0.03940000  0.75310000  0.61210000  1.0 0.0172315347
C  C31  1  0.74690000  0.53940000  0.11210000  1.0 0.0172315347
C  C32  1  0.96060000  0.24690000  0.61210000  1.0 0.0172315347
C  C33  1  0.56300000  0.23430000  0.69150000  1.0 0.0729691535
C  C34  1  0.26570000  0.06300000  0.19150000  1.0 0.0729691535
C  C35  1  0.43700000  0.76570000  0.69150000  1.0 0.0729691535
C  C36  1  0.73430000  0.93700000  0.19150000  1.0 0.0729691535
C  C37  1  0.06300000  0.26570000  0.30850000  1.0 0.0729691535
C  C38  1  0.23430000  0.56300000  0.80850000  1.0 0.0729691535
C  C39  1  0.93700000  0.73430000  0.30850000  1.0 0.0729691535
C  C40  1  0.76570000  0.43700000  0.80850000  1.0 0.0729691535
C  C41  1  0.93700000  0.26570000  0.80850000  1.0 0.0729691535
C  C42  1  0.23430000  0.43700000  0.30850000  1.0 0.0729691535
C  C43  1  0.06300000  0.73430000  0.80850000  1.0 0.0729691535
C  C44  1  0.76570000  0.56300000  0.30850000  1.0 0.0729691535
C  C45  1  0.43700000  0.23430000  0.19150000  1.0 0.0729691535
C  C46  1  0.26570000  0.93700000  0.69150000  1.0 0.0729691535
C  C47  1  0.56300000  0.76570000  0.19150000  1.0 0.0729691535
C  C48  1  0.73430000  0.06300000  0.69150000  1.0 0.0729691535
C  C49  1  0.49220000  0.25750000  0.64760000  1.0 -0.1463856702
C  C50  1  0.24250000  0.99220000  0.14760000  1.0 -0.1463856702
C  C51  1  0.50780000  0.74250000  0.64760000  1.0 -0.1463856702
C  C52  1  0.75750000  0.00780000  0.14760000  1.0 -0.1463856702
C  C53  1  0.99220000  0.24250000  0.35240000  1.0 -0.1463856702
C  C54  1  0.25750000  0.49220000  0.85240000  1.0 -0.1463856702
C  C55  1  0.00780000  0.75750000  0.35240000  1.0 -0.1463856702
C  C56  1  0.74250000  0.50780000  0.85240000  1.0 -0.1463856702
C  C57  1  0.00780000  0.24250000  0.85240000  1.0 -0.1463856702
C  C58  1  0.25750000  0.50780000  0.35240000  1.0 -0.1463856702
C  C59  1  0.99220000  0.75750000  0.85240000  1.0 -0.1463856702
C  C60  1  0.74250000  0.49220000  0.35240000  1.0 -0.1463856702
C  C61  1  0.50780000  0.25750000  0.14760000  1.0 -0.1463856702
C  C62  1  0.24250000  0.00780000  0.64760000  1.0 -0.1463856702
C  C63  1  0.49220000  0.74250000  0.14760000  1.0 -0.1463856702
C  C64  1  0.75750000  0.99220000  0.64760000  1.0 -0.1463856702
C  C65  1  0.50270000  0.32730000  0.60450000  1.0 -0.1655435036
C  C66  1  0.17270000  0.00270000  0.10450000  1.0 -0.1655435036
C  C67  1  0.49730000  0.67270000  0.60450000  1.0 -0.1655435036
C  C68  1  0.82730000  0.99730000  0.10450000  1.0 -0.1655435036
C  C69  1  0.00270000  0.17270000  0.39550000  1.0 -0.1655435036
C  C70  1  0.32730000  0.50270000  0.89550000  1.0 -0.1655435036
C  C71  1  0.99730000  0.82730000  0.39550000  1.0 -0.1655435036
C  C72  1  0.67270000  0.49730000  0.89550000  1.0 -0.1655435036
C  C73  1  0.99730000  0.17270000  0.89550000  1.0 -0.1655435036
C  C74  1  0.32730000  0.49730000  0.39550000  1.0 -0.1655435036
C  C75  1  0.00270000  0.82730000  0.89550000  1.0 -0.1655435036
C  C76  1  0.67270000  0.50270000  0.39550000  1.0 -0.1655435036
C  C77  1  0.49730000  0.32730000  0.10450000  1.0 -0.1655435036
C  C78  1  0.17270000  0.99730000  0.60450000  1.0 -0.1655435036
C  C79  1  0.50270000  0.67270000  0.10450000  1.0 -0.1655435036
C  C80  1  0.82730000  0.00270000  0.60450000  1.0 -0.1644992899
C  C81  1  0.58450000  0.37620000  0.60430000  1.0 0.1275035594
C  C82  1  0.12380000  0.08450000  0.10430000  1.0 0.1275035594
C  C83  1  0.41550000  0.62380000  0.60430000  1.0 0.1275035594
C  C84  1  0.87620000  0.91550000  0.10430000  1.0 0.1275035594
C  C85  1  0.08450000  0.12380000  0.39570000  1.0 0.1275035594
C  C86  1  0.37620000  0.58450000  0.89570000  1.0 0.1275035594
C  C87  1  0.91550000  0.87620000  0.39570000  1.0 0.1275035594
C  C88  1  0.62380000  0.41550000  0.89570000  1.0 0.1275035594
C  C89  1  0.91550000  0.12380000  0.89570000  1.0 0.1275035594
C  C90  1  0.37620000  0.41550000  0.39570000  1.0 0.1275035594
C  C91  1  0.08450000  0.87620000  0.89570000  1.0 0.1275035594
C  C92  1  0.62380000  0.58450000  0.39570000  1.0 0.1275035594
C  C93  1  0.41550000  0.37620000  0.10430000  1.0 0.1275035594
C  C94  1  0.12380000  0.91550000  0.60430000  1.0 0.1275035594
C  C95  1  0.58450000  0.62380000  0.10430000  1.0 0.1275035594
C  C96  1  0.87620000  0.08450000  0.60430000  1.0 0.1275035594
C  C97  1  0.65360000  0.34840000  0.64900000  1.0 0.2582197641
C  C98  1  0.15160000  0.15360000  0.14900000  1.0 0.2582197641
C  C99  1  0.34640000  0.65160000  0.64900000  1.0 0.2582197641
C  C100  1  0.84840000  0.84640000  0.14900000  1.0 0.2582197641
C  C101  1  0.15360000  0.15160000  0.35100000  1.0 0.2582197641
C  C102  1  0.34840000  0.65360000  0.85100000  1.0 0.2582197641
C  C103  1  0.84640000  0.84840000  0.35100000  1.0 0.2582197641
C  C104  1  0.65160000  0.34640000  0.85100000  1.0 0.2582197641
C  C105  1  0.84640000  0.15160000  0.85100000  1.0 0.2582197641
C  C106  1  0.34840000  0.34640000  0.35100000  1.0 0.2582197641
C  C107  1  0.15360000  0.84840000  0.85100000  1.0 0.2582197641
C  C108  1  0.65160000  0.65360000  0.35100000  1.0 0.2582197641
C  C109  1  0.34640000  0.34840000  0.14900000  1.0 0.2582197641
C  C110  1  0.15160000  0.84640000  0.64900000  1.0 0.2582197641
C  C111  1  0.65360000  0.65160000  0.14900000  1.0 0.2582197641
C  C112  1  0.84840000  0.15360000  0.64900000  1.0 0.2582197641
N  N1  1  0.59910000  0.44840000  0.56290000  1.0 -0.2468691269
N  N2  1  0.05160000  0.09910000  0.06290000  1.0 -0.2468691269
N  N3  1  0.40090000  0.55160000  0.56290000  1.0 -0.2468691269
N  N4  1  0.94840000  0.90090000  0.06290000  1.0 -0.2468691269
N  N5  1  0.09910000  0.05160000  0.43710000  1.0 -0.2468691269
N  N6  1  0.44840000  0.59910000  0.93710000  1.0 -0.2468691269
N  N7  1  0.90090000  0.94840000  0.43710000  1.0 -0.2468691269
N  N8  1  0.55160000  0.40090000  0.93710000  1.0 -0.2468691269
N  N9  1  0.90090000  0.05160000  0.93710000  1.0 -0.2468691269
N  N10  1  0.44840000  0.40090000  0.43710000  1.0 -0.2468691269
N  N11  1  0.09910000  0.94840000  0.93710000  1.0 -0.2468691269
N  N12  1  0.55160000  0.59910000  0.43710000  1.0 -0.2468691269
N  N13  1  0.40090000  0.44840000  0.06290000  1.0 -0.2468691269
N  N14  1  0.05160000  0.90090000  0.56290000  1.0 -0.2468691269
N  N15  1  0.59910000  0.55160000  0.06290000  1.0 -0.2468691269
N  N16  1  0.94840000  0.09910000  0.56290000  1.0 -0.2468691269
N  N17  1  0.73580000  0.39040000  0.65320000  1.0 -0.3190023317
N  N18  1  0.10960000  0.23580000  0.15320000  1.0 -0.3190023317
N  N19  1  0.26420000  0.60960000  0.65320000  1.0 -0.3190023317
N  N20  1  0.89040000  0.76420000  0.15320000  1.0 -0.3190023317
N  N21  1  0.23580000  0.10960000  0.34680000  1.0 -0.3190023317
N  N22  1  0.39040000  0.73580000  0.84680000  1.0 -0.3190023317
N  N23  1  0.76420000  0.89040000  0.34680000  1.0 -0.3190023317
N  N24  1  0.60960000  0.26420000  0.84680000  1.0 -0.3190023317
N  N25  1  0.76420000  0.10960000  0.84680000  1.0 -0.3190023317
N  N26  1  0.39040000  0.26420000  0.34680000  1.0 -0.3190023317
N  N27  1  0.23580000  0.89040000  0.84680000  1.0 -0.3190023317
N  N28  1  0.60960000  0.73580000  0.34680000  1.0 -0.3190023317
N  N29  1  0.26420000  0.39040000  0.15320000  1.0 -0.3190023317
N  N30  1  0.10960000  0.76420000  0.65320000  1.0 -0.3190023317
N  N31  1  0.73580000  0.60960000  0.15320000  1.0 -0.3190023317
N  N32  1  0.89040000  0.23580000  0.65320000  1.0 -0.3190023317
N  N33  1  0.64190000  0.27750000  0.69180000  1.0 -0.2850419055
N  N34  1  0.22250000  0.14190000  0.19180000  1.0 -0.2850419055
N  N35  1  0.35810000  0.72250000  0.69180000  1.0 -0.2850419055
N  N36  1  0.77750000  0.85810000  0.19180000  1.0 -0.2850419055
N  N37  1  0.14190000  0.22250000  0.30820000  1.0 -0.2850419055
N  N38  1  0.27750000  0.64190000  0.80820000  1.0 -0.2850419055
N  N39  1  0.85810000  0.77750000  0.30820000  1.0 -0.2850419055
N  N40  1  0.72250000  0.35810000  0.80820000  1.0 -0.2850419055
N  N41  1  0.85810000  0.22250000  0.80820000  1.0 -0.2850419055
N  N42  1  0.27750000  0.35810000  0.30820000  1.0 -0.2850419055
N  N43  1  0.14190000  0.77750000  0.80820000  1.0 -0.2850419055
N  N44  1  0.72250000  0.64190000  0.30820000  1.0 -0.2850419055
N  N45  1  0.35810000  0.27750000  0.19180000  1.0 -0.2850419055
N  N46  1  0.22250000  0.85810000  0.69180000  1.0 -0.2850419055
N  N47  1  0.64190000  0.72250000  0.19180000  1.0 -0.2850419055
N  N48  1  0.77750000  0.14190000  0.69180000  1.0 -0.2850419055
