# DDEC6 charges by PACMAN v1.1 (https://github.com/mtap-research/PACMAN-charge/)
data_ZAXTAV_FSR_pacman
_symmetry_space_group_name_H-M   'P 1'
_cell_length_a   17.28410000
_cell_length_b   17.28410000
_cell_length_c   20.97020000
_cell_angle_alpha   90.00000000
_cell_angle_beta   90.00000000
_cell_angle_gamma   90.00000000
_symmetry_Int_Tables_number   1
_chemical_formula_structural   CdH31C60(N5O7)2
_chemical_formula_sum   'Cd4 H124 C240 N40 O56'
_cell_volume   6264.63991365
_cell_formula_units_Z   4
loop_
 _symmetry_equiv_pos_site_id
 _symmetry_equiv_pos_as_xyz
  1  'x, y, z'
loop_
 _atom_site_type_symbol
 _atom_site_label
 _atom_site_symmetry_multiplicity
 _atom_site_fract_x
 _atom_site_fract_y
 _atom_site_fract_z
 _atom_site_occupancy
 _atom_site_charge
Cd  Cd1  1  0.19721000  0.75560000  0.00234000  1.0 0.7081439138
Cd  Cd2  1  0.80279000  0.24440000  0.50234000  1.0 0.7081439138
Cd  Cd3  1  0.24440000  0.19721000  0.75234000  1.0 0.7081439138
Cd  Cd4  1  0.75560000  0.80279000  0.25234000  1.0 0.7081439138
H  H1  1  0.91010000  0.78640000  0.05590000  1.0 0.1379106385
H  H2  1  0.08990000  0.21360000  0.55590000  1.0 0.1379106385
H  H3  1  0.21360000  0.91010000  0.80590000  1.0 0.1379106385
H  H4  1  0.78640000  0.08990000  0.30590000  1.0 0.1379106385
H  H5  1  0.03590000  0.81480000  0.05550000  1.0 0.1107230091
H  H6  1  0.96410000  0.18520000  0.55550000  1.0 0.1107230091
H  H7  1  0.18520000  0.03590000  0.80550000  1.0 0.1107230091
H  H8  1  0.81480000  0.96410000  0.30550000  1.0 0.1107230091
H  H9  1  0.07550000  0.65510000  0.93530000  1.0 0.086507281
H  H10  1  0.92450000  0.34490000  0.43530000  1.0 0.086507281
H  H11  1  0.34490000  0.07550000  0.68530000  1.0 0.086507281
H  H12  1  0.65510000  0.92450000  0.18530000  1.0 0.086507281
H  H13  1  0.94120000  0.62880000  0.91650000  1.0 0.1379106385
H  H14  1  0.05880000  0.37120000  0.41650000  1.0 0.1379106385
H  H15  1  0.37120000  0.94120000  0.66650000  1.0 0.1379106385
H  H16  1  0.62880000  0.05880000  0.16650000  1.0 0.1379106385
H  H17  1  0.79720000  0.69710000  0.02160000  1.0 0.1107230091
H  H18  1  0.20280000  0.30290000  0.52160000  1.0 0.1107230091
H  H19  1  0.30290000  0.79720000  0.77160000  1.0 0.1107230091
H  H20  1  0.69710000  0.20280000  0.27160000  1.0 0.1107230091
H  H21  1  0.79720000  0.74530000  0.95840000  1.0 0.1298108716
H  H22  1  0.20280000  0.25470000  0.45840000  1.0 0.1298108716
H  H23  1  0.25470000  0.79720000  0.70840000  1.0 0.1298108716
H  H24  1  0.74530000  0.20280000  0.20840000  1.0 0.1298108716
H  H25  1  0.75300000  0.61800000  0.75340000  1.0 0.1298108716
H  H26  1  0.24700000  0.38200000  0.25340000  1.0 0.1298108716
H  H27  1  0.38200000  0.75300000  0.50340000  1.0 0.1298108716
H  H28  1  0.61800000  0.24700000  0.00340000  1.0 0.1298108716
H  H29  1  0.71030000  0.51420000  0.69850000  1.0 0.1379106385
H  H30  1  0.28970000  0.48580000  0.19850000  1.0 0.1379106385
H  H31  1  0.48580000  0.71030000  0.44850000  1.0 0.1379106385
H  H32  1  0.51420000  0.28970000  0.94850000  1.0 0.1379106385
H  H33  1  0.71500000  0.31570000  0.95300000  1.0 0.1298108716
H  H34  1  0.28500000  0.68430000  0.45300000  1.0 0.1298108716
H  H35  1  0.68430000  0.71500000  0.70300000  1.0 0.1298108716
H  H36  1  0.31570000  0.28500000  0.20300000  1.0 0.1298108716
H  H37  1  0.75420000  0.41900000  0.01310000  1.0 0.1379106385
H  H38  1  0.24580000  0.58100000  0.51310000  1.0 0.1379106385
H  H39  1  0.58100000  0.75420000  0.76310000  1.0 0.1379106385
H  H40  1  0.41900000  0.24580000  0.26310000  1.0 0.1379106385
H  H41  1  0.65060000  0.19740000  0.75470000  1.0 0.1198352277
H  H42  1  0.34940000  0.80260000  0.25470000  1.0 0.1198352277
H  H43  1  0.80260000  0.65060000  0.50470000  1.0 0.1198352277
H  H44  1  0.19740000  0.34940000  0.00470000  1.0 0.1198352277
H  H45  1  0.64160000  0.25000000  0.69410000  1.0 0.1198352277
H  H46  1  0.35840000  0.75000000  0.19410000  1.0 0.1198352277
H  H47  1  0.75000000  0.64160000  0.44410000  1.0 0.1198352277
H  H48  1  0.25000000  0.35840000  0.94410000  1.0 0.1198352277
H  H49  1  0.53180000  0.17390000  0.66990000  1.0 0.1107230091
H  H50  1  0.46820000  0.82610000  0.16990000  1.0 0.1107230091
H  H51  1  0.82610000  0.53180000  0.41990000  1.0 0.1107230091
H  H52  1  0.17390000  0.46820000  0.91990000  1.0 0.1198352277
H  H53  1  0.40290000  0.16090000  0.66380000  1.0 0.1007881143
H  H54  1  0.59710000  0.83910000  0.16380000  1.0 0.1007881143
H  H55  1  0.83910000  0.40290000  0.41380000  1.0 0.1007881143
H  H56  1  0.16090000  0.59710000  0.91380000  1.0 0.1007881143
H  H57  1  0.37580000  0.28800000  0.82000000  1.0 0.1107230091
H  H58  1  0.62420000  0.71200000  0.32000000  1.0 0.1107230091
H  H59  1  0.71200000  0.37580000  0.57000000  1.0 0.1107230091
H  H60  1  0.28800000  0.62420000  0.07000000  1.0 0.1107230091
H  H61  1  0.50990000  0.30800000  0.81080000  1.0 0.1107230091
H  H62  1  0.49010000  0.69200000  0.31080000  1.0 0.1107230091
H  H63  1  0.69200000  0.50990000  0.56080000  1.0 0.1107230091
H  H64  1  0.30800000  0.49010000  0.06080000  1.0 0.1107230091
H  H65  1  0.24120000  0.04950000  0.95830000  1.0 0.1298108716
H  H66  1  0.75880000  0.95050000  0.45830000  1.0 0.1298108716
H  H67  1  0.95050000  0.24120000  0.70830000  1.0 0.1298108716
H  H68  1  0.04950000  0.75880000  0.20830000  1.0 0.1298108716
H  H69  1  0.24600000  0.91740000  0.94580000  1.0 0.1007881143
H  H70  1  0.75400000  0.08260000  0.44580000  1.0 0.1007881143
H  H71  1  0.08260000  0.24600000  0.69580000  1.0 0.1007881143
H  H72  1  0.91740000  0.75400000  0.19580000  1.0 0.1007881143
H  H73  1  0.15150000  0.89050000  0.11140000  1.0 0.1107230091
H  H74  1  0.84850000  0.10950000  0.61140000  1.0 0.1107230091
H  H75  1  0.10950000  0.15150000  0.86140000  1.0 0.1107230091
H  H76  1  0.89050000  0.84850000  0.36140000  1.0 0.1107230091
H  H77  1  0.15450000  0.02110000  0.12710000  1.0 0.1379106385
H  H78  1  0.84550000  0.97890000  0.62710000  1.0 0.1379106385
H  H79  1  0.97890000  0.15450000  0.87710000  1.0 0.1379106385
H  H80  1  0.02110000  0.84550000  0.37710000  1.0 0.1379106385
H  H81  1  0.24940000  0.14860000  0.07770000  1.0 0.1198352277
H  H82  1  0.75060000  0.85140000  0.57770000  1.0 0.1198352277
H  H83  1  0.85140000  0.24940000  0.82770000  1.0 0.1198352277
H  H84  1  0.14860000  0.75060000  0.32770000  1.0 0.1198352277
H  H85  1  0.20860000  0.16020000  0.01180000  1.0 0.1198352277
H  H86  1  0.79140000  0.83980000  0.51180000  1.0 0.1198352277
H  H87  1  0.83980000  0.20860000  0.76180000  1.0 0.1198352277
H  H88  1  0.16020000  0.79140000  0.26180000  1.0 0.1107230091
H  H89  1  0.93600000  0.21660000  0.99730000  1.0 0.1298108716
H  H90  1  0.06400000  0.78340000  0.49730000  1.0 0.1298108716
H  H91  1  0.78340000  0.93600000  0.74730000  1.0 0.1298108716
H  H92  1  0.21660000  0.06400000  0.24730000  1.0 0.1298108716
H  H93  1  0.83620000  0.29340000  0.04420000  1.0 0.1379106385
H  H94  1  0.16380000  0.70660000  0.54420000  1.0 0.1379106385
H  H95  1  0.70660000  0.83620000  0.79420000  1.0 0.1379106385
H  H96  1  0.29340000  0.16380000  0.29420000  1.0 0.1379106385
H  H97  1  0.02860000  0.33020000  0.30460000  1.0 0.1198352277
H  H98  1  0.97140000  0.66980000  0.80460000  1.0 0.1198352277
H  H99  1  0.66980000  0.02860000  0.05460000  1.0 0.1198352277
H  H100  1  0.33020000  0.97140000  0.55460000  1.0 0.1198352277
H  H101  1  0.13050000  0.25800000  0.26200000  1.0 0.1379106385
H  H102  1  0.86950000  0.74200000  0.76200000  1.0 0.1379106385
H  H103  1  0.74200000  0.13050000  0.01200000  1.0 0.1379106385
H  H104  1  0.25800000  0.86950000  0.51200000  1.0 0.1379106385
H  H105  1  0.76460000  0.40470000  0.29440000  1.0 0.1198352277
H  H106  1  0.23540000  0.59530000  0.79440000  1.0 0.1198352277
H  H107  1  0.59530000  0.76460000  0.04440000  1.0 0.1198352277
H  H108  1  0.40470000  0.23540000  0.54440000  1.0 0.1198352277
H  H109  1  0.71720000  0.39890000  0.23080000  1.0 0.1198352277
H  H110  1  0.28280000  0.60110000  0.73080000  1.0 0.1198352277
H  H111  1  0.60110000  0.71720000  0.98080000  1.0 0.1198352277
H  H112  1  0.39890000  0.28280000  0.48080000  1.0 0.1198352277
H  H113  1  0.80430000  0.52310000  0.15820000  1.0 0.1298108716
H  H114  1  0.19570000  0.47690000  0.65820000  1.0 0.1298108716
H  H115  1  0.47690000  0.80430000  0.90820000  1.0 0.1298108716
H  H116  1  0.52310000  0.19570000  0.40820000  1.0 0.1298108716
H  H117  1  0.79860000  0.64870000  0.16320000  1.0 0.1107230091
H  H118  1  0.20140000  0.35130000  0.66320000  1.0 0.1107230091
H  H119  1  0.35130000  0.79860000  0.91320000  1.0 0.1107230091
H  H120  1  0.64870000  0.20140000  0.41320000  1.0 0.1107230091
H  H121  1  0.70810000  0.51990000  0.32530000  1.0 0.1530972474
H  H122  1  0.29190000  0.48010000  0.82530000  1.0 0.1530972474
H  H123  1  0.48010000  0.70810000  0.07530000  1.0 0.1530972474
H  H124  1  0.51990000  0.29190000  0.57530000  1.0 0.1530972474
C  C1  1  0.90560000  0.70730000  0.98270000  1.0 0.17219373
C  C2  1  0.09440000  0.29270000  0.48270000  1.0 0.17219373
C  C3  1  0.29270000  0.90560000  0.73270000  1.0 0.17219373
C  C4  1  0.70730000  0.09440000  0.23270000  1.0 0.17219373
C  C5  1  0.94190000  0.76100000  0.02690000  1.0 -0.2012017764
C  C6  1  0.05810000  0.23900000  0.52690000  1.0 -0.2012017764
C  C7  1  0.23900000  0.94190000  0.77690000  1.0 -0.2012017764
C  C8  1  0.76100000  0.05810000  0.27690000  1.0 -0.2012017764
C  C9  1  0.01690000  0.77620000  0.02880000  1.0 0.0400719608
C  C10  1  0.98310000  0.22380000  0.52880000  1.0 0.0400719608
C  C11  1  0.22380000  0.01690000  0.77880000  1.0 0.0523034164
C  C12  1  0.77620000  0.98310000  0.27880000  1.0 0.0400719608
C  C13  1  0.03940000  0.68490000  0.95710000  1.0 0.1198352277
C  C14  1  0.96060000  0.31510000  0.45710000  1.0 0.1198352277
C  C15  1  0.31510000  0.03940000  0.70710000  1.0 0.1198352277
C  C16  1  0.68490000  0.96060000  0.20710000  1.0 0.1198352277
C  C17  1  0.95700000  0.66580000  0.94600000  1.0 -0.211284456
C  C18  1  0.04300000  0.33420000  0.44600000  1.0 -0.211284456
C  C19  1  0.33420000  0.95700000  0.69600000  1.0 -0.211284456
C  C20  1  0.66580000  0.04300000  0.19600000  1.0 -0.211284456
C  C21  1  0.81790000  0.69930000  0.97870000  1.0 -0.153472638
C  C22  1  0.18210000  0.30070000  0.47870000  1.0 -0.153472638
C  C23  1  0.30070000  0.81790000  0.72870000  1.0 -0.153472638
C  C24  1  0.69930000  0.18210000  0.22870000  1.0 -0.153472638
C  C25  1  0.78530000  0.63870000  0.87790000  1.0 0.4198173598
C  C26  1  0.21470000  0.36130000  0.37790000  1.0 0.4198173598
C  C27  1  0.36130000  0.78530000  0.62790000  1.0 0.4198173598
C  C28  1  0.63870000  0.21470000  0.12790000  1.0 0.4198173598
C  C29  1  0.75660000  0.56970000  0.84150000  1.0 -0.0612252416
C  C30  1  0.24340000  0.43030000  0.34150000  1.0 -0.0612252416
C  C31  1  0.43030000  0.75660000  0.59150000  1.0 -0.0612252416
C  C32  1  0.56970000  0.24340000  0.09150000  1.0 -0.0612252416
C  C33  1  0.74330000  0.57220000  0.77520000  1.0 -0.0813533022
C  C34  1  0.25670000  0.42780000  0.27520000  1.0 -0.0813533022
C  C35  1  0.42780000  0.74330000  0.52520000  1.0 -0.0813533022
C  C36  1  0.57220000  0.25670000  0.02520000  1.0 -0.0813533022
C  C37  1  0.71720000  0.51130000  0.74240000  1.0 -0.0883706047
C  C38  1  0.28280000  0.48870000  0.24240000  1.0 -0.0883706047
C  C39  1  0.48870000  0.71720000  0.49240000  1.0 -0.0883706047
C  C40  1  0.51130000  0.28280000  0.99240000  1.0 -0.0883706047
C  C41  1  0.70050000  0.44330000  0.77560000  1.0 -0.0484932822
C  C42  1  0.29950000  0.55670000  0.27560000  1.0 -0.0484932822
C  C43  1  0.55670000  0.70050000  0.52560000  1.0 -0.0484932822
C  C44  1  0.44330000  0.29950000  0.02560000  1.0 -0.0484932822
C  C45  1  0.66470000  0.37580000  0.74130000  1.0 0.4301565335
C  C46  1  0.33530000  0.62420000  0.24130000  1.0 0.4301565335
C  C47  1  0.62420000  0.66470000  0.49130000  1.0 0.4301565335
C  C48  1  0.37580000  0.33530000  0.99130000  1.0 0.4301565335
C  C49  1  0.67170000  0.29980000  0.83550000  1.0 0.4301565335
C  C50  1  0.32830000  0.70020000  0.33550000  1.0 0.4301565335
C  C51  1  0.70020000  0.67170000  0.58550000  1.0 0.4301565335
C  C52  1  0.29980000  0.32830000  0.08550000  1.0 0.4301565335
C  C53  1  0.70130000  0.36920000  0.87240000  1.0 -0.0185914995
C  C54  1  0.29870000  0.63080000  0.37240000  1.0 -0.0185914995
C  C55  1  0.63080000  0.70130000  0.62240000  1.0 -0.0185914995
C  C56  1  0.36920000  0.29870000  0.12240000  1.0 -0.0185914995
C  C57  1  0.71950000  0.36380000  0.93350000  1.0 -0.0813533022
C  C58  1  0.28050000  0.63620000  0.43350000  1.0 -0.0813533022
C  C59  1  0.63620000  0.71950000  0.68350000  1.0 -0.0813533022
C  C60  1  0.36380000  0.28050000  0.18350000  1.0 -0.0813533022
C  C61  1  0.74450000  0.42490000  0.96970000  1.0 -0.0813533022
C  C62  1  0.25550000  0.57510000  0.46970000  1.0 -0.0813533022
C  C63  1  0.57510000  0.74450000  0.71970000  1.0 -0.0813533022
C  C64  1  0.42490000  0.25550000  0.21970000  1.0 -0.0813533022
C  C65  1  0.75500000  0.49540000  0.94030000  1.0 -0.0612252416
C  C66  1  0.24500000  0.50460000  0.44030000  1.0 -0.0612252416
C  C67  1  0.50460000  0.75500000  0.69030000  1.0 -0.0612252416
C  C68  1  0.49540000  0.24500000  0.19030000  1.0 -0.0612252416
C  C69  1  0.78260000  0.56640000  0.97340000  1.0 0.4198173598
C  C70  1  0.21740000  0.43360000  0.47340000  1.0 0.4198173598
C  C71  1  0.43360000  0.78260000  0.72340000  1.0 0.4198173598
C  C72  1  0.56640000  0.21740000  0.22340000  1.0 0.4198173598
C  C73  1  0.74010000  0.50250000  0.87510000  1.0 0.0400719608
C  C74  1  0.25990000  0.49750000  0.37510000  1.0 0.0400719608
C  C75  1  0.49750000  0.74010000  0.62510000  1.0 0.0400719608
C  C76  1  0.50250000  0.25990000  0.12510000  1.0 0.0400719608
C  C77  1  0.71370000  0.43410000  0.84040000  1.0 0.0298156112
C  C78  1  0.28630000  0.56590000  0.34040000  1.0 0.0298156112
C  C79  1  0.56590000  0.71370000  0.59040000  1.0 0.0298156112
C  C80  1  0.43410000  0.28630000  0.09040000  1.0 0.0298156112
C  C81  1  0.62690000  0.24440000  0.73860000  1.0 -0.1613109618
C  C82  1  0.37310000  0.75560000  0.23860000  1.0 -0.1613109618
C  C83  1  0.75560000  0.62690000  0.48860000  1.0 -0.1613109618
C  C84  1  0.24440000  0.37310000  0.98860000  1.0 -0.1613109618
C  C85  1  0.53850000  0.23740000  0.74330000  1.0 0.0559838571
C  C86  1  0.46150000  0.76260000  0.24330000  1.0 0.0559838571
C  C87  1  0.76260000  0.53850000  0.49330000  1.0 0.0559838571
C  C88  1  0.23740000  0.46150000  0.99330000  1.0 0.0559838571
C  C89  1  0.50210000  0.19810000  0.70110000  1.0 -0.0707461296
C  C90  1  0.49790000  0.80190000  0.20110000  1.0 -0.0707461296
C  C91  1  0.80190000  0.50210000  0.45110000  1.0 -0.0707461296
C  C92  1  0.19810000  0.49790000  0.95110000  1.0 -0.0707461296
C  C93  1  0.42400000  0.18840000  0.69770000  1.0 0.0109148499
C  C94  1  0.57600000  0.81160000  0.19770000  1.0 0.0109148499
C  C95  1  0.81160000  0.42400000  0.44770000  1.0 0.0109148499
C  C96  1  0.18840000  0.57600000  0.94770000  1.0 0.0109148499
C  C97  1  0.40570000  0.26450000  0.78860000  1.0 -0.0402921244
C  C98  1  0.59430000  0.73550000  0.28860000  1.0 -0.0402921244
C  C99  1  0.73550000  0.40570000  0.53860000  1.0 -0.0402921244
C  C100  1  0.26450000  0.59430000  0.03860000  1.0 -0.0402921244
C  C101  1  0.48790000  0.27260000  0.78280000  1.0 -0.0612252416
C  C102  1  0.51210000  0.72740000  0.28280000  1.0 -0.0612252416
C  C103  1  0.72740000  0.48790000  0.53280000  1.0 -0.0612252416
C  C104  1  0.27260000  0.51210000  0.03280000  1.0 -0.0612252416
C  C105  1  0.20060000  0.04730000  0.04390000  1.0 0.1379106385
C  C106  1  0.79940000  0.95270000  0.54390000  1.0 0.1379106385
C  C107  1  0.95270000  0.20060000  0.79390000  1.0 0.1298108716
C  C108  1  0.04730000  0.79940000  0.29390000  1.0 0.1379106385
C  C109  1  0.22410000  0.01750000  0.99110000  1.0 -0.1613109618
C  C110  1  0.77590000  0.98250000  0.49110000  1.0 -0.1613109618
C  C111  1  0.98250000  0.22410000  0.74110000  1.0 -0.1613109618
C  C112  1  0.01750000  0.77590000  0.24110000  1.0 -0.1613109618
C  C113  1  0.22390000  0.93780000  0.98260000  1.0 0.0109148499
C  C114  1  0.77610000  0.06220000  0.48260000  1.0 0.0109148499
C  C115  1  0.06220000  0.22390000  0.73260000  1.0 0.0109148499
C  C116  1  0.93780000  0.77610000  0.23260000  1.0 0.0109148499
C  C117  1  0.17030000  0.92140000  0.07850000  1.0 0.1107230091
C  C118  1  0.82970000  0.07860000  0.57850000  1.0 0.1107230091
C  C119  1  0.07860000  0.17030000  0.82850000  1.0 0.1107230091
C  C120  1  0.92140000  0.82970000  0.32850000  1.0 0.1107230091
C  C121  1  0.17250000  0.00060000  0.08890000  1.0 -0.1897444988
C  C122  1  0.82750000  0.99940000  0.58890000  1.0 -0.1897444988
C  C123  1  0.99940000  0.17250000  0.83890000  1.0 -0.1897444988
C  C124  1  0.00060000  0.82750000  0.33890000  1.0 -0.1897444988
C  C125  1  0.20330000  0.13600000  0.05340000  1.0 -0.1299882292
C  C126  1  0.79670000  0.86400000  0.55340000  1.0 -0.1299882292
C  C127  1  0.86400000  0.20330000  0.80340000  1.0 -0.1299882292
C  C128  1  0.13600000  0.79670000  0.30340000  1.0 -0.1299882292
C  C129  1  0.07320000  0.18340000  0.04860000  1.0 0.4301565335
C  C130  1  0.92680000  0.81660000  0.54860000  1.0 0.4301565335
C  C131  1  0.81660000  0.07320000  0.79860000  1.0 0.4301565335
C  C132  1  0.18340000  0.92680000  0.29860000  1.0 0.4301565335
C  C133  1  0.00660000  0.22780000  0.07510000  1.0 -0.0612252416
C  C134  1  0.99340000  0.77220000  0.57510000  1.0 -0.0612252416
C  C135  1  0.77220000  0.00660000  0.82510000  1.0 -0.0612252416
C  C136  1  0.22780000  0.99340000  0.32510000  1.0 -0.0612252416
C  C137  1  0.94080000  0.23740000  0.03800000  1.0 -0.0813533022
C  C138  1  0.05920000  0.76260000  0.53800000  1.0 -0.0813533022
C  C139  1  0.76260000  0.94080000  0.78800000  1.0 -0.0813533022
C  C140  1  0.23740000  0.05920000  0.28800000  1.0 -0.0813533022
C  C141  1  0.88040000  0.28230000  0.06780000  1.0 -0.0612252416
C  C142  1  0.11960000  0.71770000  0.56780000  1.0 -0.0612252416
C  C143  1  0.71770000  0.88040000  0.81780000  1.0 -0.0612252416
C  C144  1  0.28230000  0.11960000  0.31780000  1.0 -0.0612252416
C  C145  1  0.88480000  0.30870000  0.12740000  1.0 -0.0402921244
C  C146  1  0.11520000  0.69130000  0.62740000  1.0 -0.0402921244
C  C147  1  0.69130000  0.88480000  0.87740000  1.0 -0.0402921244
C  C148  1  0.30870000  0.11520000  0.37740000  1.0 -0.0402921244
C  C149  1  0.82090000  0.35610000  0.15800000  1.0 0.4301565335
C  C150  1  0.17910000  0.64390000  0.65800000  1.0 0.4301565335
C  C151  1  0.64390000  0.82090000  0.90800000  1.0 0.4301565335
C  C152  1  0.35610000  0.17910000  0.40800000  1.0 0.4301565335
C  C153  1  0.89600000  0.37200000  0.25280000  1.0 0.4198173598
C  C154  1  0.10400000  0.62800000  0.75280000  1.0 0.4198173598
C  C155  1  0.62800000  0.89600000  0.00280000  1.0 0.4198173598
C  C156  1  0.37200000  0.10400000  0.50280000  1.0 0.4198173598
C  C157  1  0.95960000  0.32630000  0.22540000  1.0 -0.0612252416
C  C158  1  0.04040000  0.67370000  0.72540000  1.0 -0.0612252416
C  C159  1  0.67370000  0.95960000  0.97540000  1.0 -0.0612252416
C  C160  1  0.32630000  0.04040000  0.47540000  1.0 -0.0612252416
C  C161  1  0.02570000  0.31130000  0.26310000  1.0 -0.0883706047
C  C162  1  0.97430000  0.68870000  0.76310000  1.0 -0.0883706047
C  C163  1  0.68870000  0.02570000  0.01310000  1.0 -0.0883706047
C  C164  1  0.31130000  0.97430000  0.51310000  1.0 -0.0883706047
C  C165  1  0.08650000  0.26810000  0.23780000  1.0 -0.0813533022
C  C166  1  0.91350000  0.73190000  0.73780000  1.0 -0.0813533022
C  C167  1  0.73190000  0.08650000  0.98780000  1.0 -0.0813533022
C  C168  1  0.26810000  0.91350000  0.48780000  1.0 -0.0813533022
C  C169  1  0.08010000  0.24060000  0.17620000  1.0 -0.0402921244
C  C170  1  0.91990000  0.75940000  0.67620000  1.0 -0.0402921244
C  C171  1  0.75940000  0.08010000  0.92620000  1.0 -0.0402921244
C  C172  1  0.24060000  0.91990000  0.42620000  1.0 -0.0402921244
C  C173  1  0.14430000  0.19220000  0.14860000  1.0 0.4301565335
C  C174  1  0.85570000  0.80780000  0.64860000  1.0 0.4301565335
C  C175  1  0.80780000  0.14430000  0.89860000  1.0 0.4301565335
C  C176  1  0.19220000  0.85570000  0.39860000  1.0 0.4301565335
C  C177  1  0.01530000  0.25420000  0.13950000  1.0 0.0298156112
C  C178  1  0.98470000  0.74580000  0.63950000  1.0 0.0298156112
C  C179  1  0.74580000  0.01530000  0.88950000  1.0 0.0298156112
C  C180  1  0.25420000  0.98470000  0.38950000  1.0 0.0298156112
C  C181  1  0.95210000  0.29800000  0.16430000  1.0 0.0400719608
C  C182  1  0.04790000  0.70200000  0.66430000  1.0 0.0400719608
C  C183  1  0.70200000  0.95210000  0.91430000  1.0 0.0400719608
C  C184  1  0.29800000  0.04790000  0.41430000  1.0 0.0400719608
C  C185  1  0.76470000  0.41840000  0.24960000  1.0 -0.1613109618
C  C186  1  0.23530000  0.58160000  0.74960000  1.0 -0.1613109618
C  C187  1  0.58160000  0.76470000  0.99960000  1.0 -0.1613109618
C  C188  1  0.41840000  0.23530000  0.49960000  1.0 -0.1613109618
C  C189  1  0.76610000  0.50850000  0.24320000  1.0 0.0559838571
C  C190  1  0.23390000  0.49150000  0.74320000  1.0 0.0523034164
C  C191  1  0.49150000  0.76610000  0.99320000  1.0 0.0523034164
C  C192  1  0.50850000  0.23390000  0.49320000  1.0 0.0523034164
C  C193  1  0.78740000  0.54720000  0.19530000  1.0 -0.0402921244
C  C194  1  0.21260000  0.45280000  0.69530000  1.0 -0.0402921244
C  C195  1  0.45280000  0.78740000  0.94530000  1.0 -0.0402921244
C  C196  1  0.54720000  0.21260000  0.44530000  1.0 -0.0402921244
C  C197  1  0.78470000  0.62240000  0.20010000  1.0 0.0037708238
C  C198  1  0.21530000  0.37760000  0.70010000  1.0 0.0037708238
C  C199  1  0.37760000  0.78470000  0.95010000  1.0 0.0037708238
C  C200  1  0.62240000  0.21530000  0.45010000  1.0 0.0037708238
C  C201  1  0.73240000  0.62840000  0.29670000  1.0 0.0109148499
C  C202  1  0.26760000  0.37160000  0.79670000  1.0 0.0109148499
C  C203  1  0.37160000  0.73240000  0.04670000  1.0 0.0109148499
C  C204  1  0.62840000  0.26760000  0.54670000  1.0 0.0109148499
C  C205  1  0.73210000  0.54790000  0.29310000  1.0 -0.0975405632
C  C206  1  0.26790000  0.45210000  0.79310000  1.0 -0.0975405632
C  C207  1  0.45210000  0.73210000  0.04310000  1.0 -0.0975405632
C  C208  1  0.54790000  0.26790000  0.54310000  1.0 -0.0975405632
C  C209  1  0.49800000  0.28440000  0.70950000  1.0 -0.0185914995
C  C210  1  0.50200000  0.71560000  0.20950000  1.0 -0.0185914995
C  C211  1  0.71560000  0.49800000  0.45950000  1.0 -0.0185914995
C  C212  1  0.28440000  0.50200000  0.95950000  1.0 -0.0185914995
C  C213  1  0.42090000  0.28480000  0.70170000  1.0 -0.1110263228
C  C214  1  0.57910000  0.71520000  0.20170000  1.0 -0.1110263228
C  C215  1  0.71520000  0.42090000  0.45170000  1.0 -0.1110263228
C  C216  1  0.28480000  0.57910000  0.95170000  1.0 -0.1110263228
C  C217  1  0.43530000  0.17400000  0.77150000  1.0 0.0708088406
C  C218  1  0.56470000  0.82600000  0.27150000  1.0 0.0708088406
C  C219  1  0.82600000  0.43530000  0.52150000  1.0 0.0708088406
C  C220  1  0.17400000  0.56470000  0.02150000  1.0 0.0708088406
C  C221  1  0.51870000  0.18390000  0.76940000  1.0 -0.0032405142
C  C222  1  0.48130000  0.81610000  0.26940000  1.0 -0.0032405142
C  C223  1  0.81610000  0.51870000  0.51940000  1.0 -0.0032405142
C  C224  1  0.18390000  0.48130000  0.01940000  1.0 -0.0032405142
C  C225  1  0.74650000  0.55050000  0.19550000  1.0 -0.0484932822
C  C226  1  0.25350000  0.44950000  0.69550000  1.0 -0.0484932822
C  C227  1  0.44950000  0.74650000  0.94550000  1.0 -0.0484932822
C  C228  1  0.55050000  0.25350000  0.44550000  1.0 -0.0484932822
C  C229  1  0.74780000  0.62620000  0.19070000  1.0 -0.013583767
C  C230  1  0.25220000  0.37380000  0.69070000  1.0 -0.013583767
C  C231  1  0.37380000  0.74780000  0.94070000  1.0 -0.013583767
C  C232  1  0.62620000  0.25220000  0.44070000  1.0 -0.013583767
C  C233  1  0.79730000  0.63470000  0.28950000  1.0 0.0523034164
C  C234  1  0.20270000  0.36530000  0.78950000  1.0 0.0523034164
C  C235  1  0.36530000  0.79730000  0.03950000  1.0 0.0523034164
C  C236  1  0.63470000  0.20270000  0.53950000  1.0 0.0523034164
C  C237  1  0.79910000  0.55370000  0.29490000  1.0 -0.0402921244
C  C238  1  0.20090000  0.44630000  0.79490000  1.0 -0.0402921244
C  C239  1  0.44630000  0.79910000  0.04490000  1.0 -0.0402921244
C  C240  1  0.55370000  0.20090000  0.54490000  1.0 -0.0402921244
N  N1  1  0.79120000  0.63180000  0.94370000  1.0 -0.1704944412
N  N2  1  0.20880000  0.36820000  0.44370000  1.0 -0.1704944412
N  N3  1  0.36820000  0.79120000  0.69370000  1.0 -0.1704944412
N  N4  1  0.63180000  0.20880000  0.19370000  1.0 -0.1704944412
N  N5  1  0.65550000  0.30980000  0.77420000  1.0 -0.1897444988
N  N6  1  0.34450000  0.69020000  0.27420000  1.0 -0.1897444988
N  N7  1  0.69020000  0.65550000  0.52420000  1.0 -0.1897444988
N  N8  1  0.30980000  0.34450000  0.02420000  1.0 -0.1897444988
N  N9  1  0.13720000  0.17010000  0.08540000  1.0 -0.1704944412
N  N10  1  0.86280000  0.82990000  0.58540000  1.0 -0.1704944412
N  N11  1  0.82990000  0.13720000  0.83540000  1.0 -0.1704944412
N  N12  1  0.17010000  0.86280000  0.33540000  1.0 -0.1704944412
N  N13  1  0.83000000  0.38160000  0.21880000  1.0 -0.1840902029
N  N14  1  0.17000000  0.61840000  0.71880000  1.0 -0.1840902029
N  N15  1  0.61840000  0.83000000  0.96880000  1.0 -0.1840902029
N  N16  1  0.38160000  0.17000000  0.46880000  1.0 -0.1840902029
N  N17  1  0.06540000  0.73500000  0.99150000  1.0 -0.211284456
N  N18  1  0.93460000  0.26500000  0.49150000  1.0 -0.211284456
N  N19  1  0.26500000  0.06540000  0.74150000  1.0 -0.2153735815
N  N20  1  0.73500000  0.93460000  0.24150000  1.0 -0.211284456
N  N21  1  0.37750000  0.21770000  0.74190000  1.0 -0.0402921244
N  N22  1  0.62250000  0.78230000  0.24190000  1.0 -0.0402921244
N  N23  1  0.78230000  0.37750000  0.49190000  1.0 -0.0402921244
N  N24  1  0.21770000  0.62250000  0.99190000  1.0 -0.0402921244
N  N25  1  0.19200000  0.88740000  0.02700000  1.0 -0.2425235867
N  N26  1  0.80800000  0.11260000  0.52700000  1.0 -0.2425235867
N  N27  1  0.11260000  0.19200000  0.77700000  1.0 -0.2425235867
N  N28  1  0.88740000  0.80800000  0.27700000  1.0 -0.2425235867
N  N29  1  0.76690000  0.66460000  0.24510000  1.0 -0.0883706047
N  N30  1  0.23310000  0.33540000  0.74510000  1.0 -0.0883706047
N  N31  1  0.33540000  0.76690000  0.99510000  1.0 -0.0883706047
N  N32  1  0.66460000  0.23310000  0.49510000  1.0 -0.0883706047
N  N33  1  0.18600000  0.76180000  0.85260000  1.0 0.6187318504
N  N34  1  0.81400000  0.23820000  0.35260000  1.0 0.6187318504
N  N35  1  0.23820000  0.18600000  0.60260000  1.0 0.6187318504
N  N36  1  0.76180000  0.81400000  0.10260000  1.0 0.6187318504
N  N37  1  0.18360000  0.70820000  0.14560000  1.0 0.6578463705
N  N38  1  0.81640000  0.29180000  0.64560000  1.0 0.6578463705
N  N39  1  0.29180000  0.18360000  0.89560000  1.0 0.6578463705
N  N40  1  0.70820000  0.81640000  0.39560000  1.0 0.6578463705
O  O1  1  0.80170000  0.69820000  0.84950000  1.0 -0.4376024613
O  O2  1  0.19830000  0.30180000  0.34950000  1.0 -0.4376024613
O  O3  1  0.30180000  0.80170000  0.59950000  1.0 -0.4376024613
O  O4  1  0.69820000  0.19830000  0.09950000  1.0 -0.4376024613
O  O5  1  0.79730000  0.55870000  0.03080000  1.0 -0.4757672905
O  O6  1  0.20270000  0.44130000  0.53080000  1.0 -0.4757672905
O  O7  1  0.44130000  0.79730000  0.78080000  1.0 -0.4757672905
O  O8  1  0.55870000  0.20270000  0.28080000  1.0 -0.4757672905
O  O9  1  0.66030000  0.23770000  0.86480000  1.0 -0.4716154495
O  O10  1  0.33970000  0.76230000  0.36480000  1.0 -0.4716154495
O  O11  1  0.76230000  0.66030000  0.61480000  1.0 -0.4716154495
O  O12  1  0.23770000  0.33970000  0.11480000  1.0 -0.4716154495
O  O13  1  0.64430000  0.38200000  0.68550000  1.0 -0.4376024613
O  O14  1  0.35570000  0.61800000  0.18550000  1.0 -0.4376024613
O  O15  1  0.61800000  0.64430000  0.43550000  1.0 -0.4376024613
O  O16  1  0.38200000  0.35570000  0.93550000  1.0 -0.4376024613
O  O17  1  0.07330000  0.15880000  0.99410000  1.0 -0.4315445631
O  O18  1  0.92670000  0.84120000  0.49410000  1.0 -0.4315445631
O  O19  1  0.84120000  0.07330000  0.74410000  1.0 -0.4315445631
O  O20  1  0.15880000  0.92670000  0.24410000  1.0 -0.4315445631
O  O21  1  0.20100000  0.17720000  0.17950000  1.0 -0.4245503604
O  O22  1  0.79900000  0.82280000  0.67950000  1.0 -0.4245503604
O  O23  1  0.82280000  0.20100000  0.92950000  1.0 -0.4245503604
O  O24  1  0.17720000  0.79900000  0.42950000  1.0 -0.4245503604
O  O25  1  0.75870000  0.36640000  0.12790000  1.0 -0.4716154495
O  O26  1  0.24130000  0.63360000  0.62790000  1.0 -0.4716154495
O  O27  1  0.63360000  0.75870000  0.87790000  1.0 -0.4716154495
O  O28  1  0.36640000  0.24130000  0.37790000  1.0 -0.4716154495
O  O29  1  0.90230000  0.40420000  0.30490000  1.0 -0.4376024613
O  O30  1  0.09770000  0.59580000  0.80490000  1.0 -0.4376024613
O  O31  1  0.59580000  0.90230000  0.05490000  1.0 -0.4376024613
O  O32  1  0.40420000  0.09770000  0.55490000  1.0 -0.4376024613
O  O33  1  0.23180000  0.70940000  0.85640000  1.0 -0.3810554176
O  O34  1  0.76820000  0.29060000  0.35640000  1.0 -0.3810554176
O  O35  1  0.29060000  0.23180000  0.60640000  1.0 -0.3810554176
O  O36  1  0.70940000  0.76820000  0.10640000  1.0 -0.3810554176
O  O37  1  0.14830000  0.77290000  0.80250000  1.0 -0.3810554176
O  O38  1  0.85170000  0.22710000  0.30250000  1.0 -0.3810554176
O  O39  1  0.22710000  0.14830000  0.55250000  1.0 -0.3858542203
O  O40  1  0.77290000  0.85170000  0.05250000  1.0 -0.3858542203
O  O41  1  0.17700000  0.80280000  0.89790000  1.0 -0.3624488695
O  O42  1  0.82300000  0.19720000  0.39790000  1.0 -0.3624488695
O  O43  1  0.19720000  0.17700000  0.64790000  1.0 -0.3624488695
O  O44  1  0.80280000  0.82300000  0.14790000  1.0 -0.3624488695
O  O45  1  0.12970000  0.70460000  0.11060000  1.0 -0.3665643989
O  O46  1  0.87030000  0.29540000  0.61060000  1.0 -0.3665643989
O  O47  1  0.29540000  0.12970000  0.86060000  1.0 -0.3665643989
O  O48  1  0.70460000  0.87030000  0.36060000  1.0 -0.3665643989
O  O49  1  0.18880000  0.67840000  0.19780000  1.0 -0.3810554176
O  O50  1  0.81120000  0.32160000  0.69780000  1.0 -0.3810554176
O  O51  1  0.32160000  0.18880000  0.94780000  1.0 -0.3810554176
O  O52  1  0.67840000  0.81120000  0.44780000  1.0 -0.3810554176
O  O53  1  0.23880000  0.75170000  0.12470000  1.0 -0.4716154495
O  O54  1  0.76120000  0.24830000  0.62470000  1.0 -0.4716154495
O  O55  1  0.24830000  0.23880000  0.87470000  1.0 -0.4716154495
O  O56  1  0.75170000  0.76120000  0.37470000  1.0 -0.4716154495
