# DDEC6 charges by PACMAN v1.1 (https://github.com/mtap-research/PACMAN-charge/)
data_ZAXWAY_ASR_pacman
_symmetry_space_group_name_H-M   'P 1'
_cell_length_a   7.70920000
_cell_length_b   9.11320000
_cell_length_c   12.28390000
_cell_angle_alpha   90.00000000
_cell_angle_beta   90.00000000
_cell_angle_gamma   90.00000000
_symmetry_Int_Tables_number   1
_chemical_formula_structural   EuAgH24C24(NO2)4
_chemical_formula_sum   'Eu1 Ag1 H24 C24 N4 O8'
_cell_volume   863.01130846
_cell_formula_units_Z   1
loop_
 _symmetry_equiv_pos_site_id
 _symmetry_equiv_pos_as_xyz
  1  'x, y, z'
loop_
 _atom_site_type_symbol
 _atom_site_label
 _atom_site_symmetry_multiplicity
 _atom_site_fract_x
 _atom_site_fract_y
 _atom_site_fract_z
 _atom_site_occupancy
 _atom_site_charge
Eu  Eu1  1  0.00000000  0.50000000  0.50000000  1.0 2.0539315314
Ag  Ag1  1  0.50000000  0.00000000  0.00000000  1.0 0.5245345206
H  H1  1  0.45290000  0.66370000  0.40150000  1.0 0.1854261429
H  H2  1  0.54710000  0.33630000  0.40150000  1.0 0.1854261429
H  H3  1  0.54710000  0.66370000  0.59850000  1.0 0.1854261429
H  H4  1  0.45290000  0.33630000  0.59850000  1.0 0.1854261429
H  H5  1  0.47150000  0.66790000  0.27180000  1.0 0.1618992459
H  H6  1  0.52850000  0.33210000  0.27180000  1.0 0.1618992459
H  H7  1  0.52850000  0.66790000  0.72820000  1.0 0.1618992459
H  H8  1  0.47150000  0.33210000  0.72820000  1.0 0.1618992459
H  H9  1  0.48750000  0.81630000  0.34080000  1.0 0.1618992459
H  H10  1  0.51250000  0.18370000  0.34080000  1.0 0.1618992459
H  H11  1  0.51250000  0.81630000  0.65920000  1.0 0.1618992459
H  H12  1  0.48750000  0.18370000  0.65920000  1.0 0.1618992459
H  H13  1  0.21050000  0.80890000  0.19660000  1.0 0.1618992459
H  H14  1  0.78950000  0.19110000  0.19660000  1.0 0.1618992459
H  H15  1  0.78950000  0.80890000  0.80340000  1.0 0.1618992459
H  H16  1  0.21050000  0.19110000  0.80340000  1.0 0.1618992459
H  H17  1  0.03670000  0.82550000  0.12650000  1.0 0.154473287
H  H18  1  0.96330000  0.17450000  0.12650000  1.0 0.154473287
H  H19  1  0.96330000  0.82550000  0.87350000  1.0 0.154473287
H  H20  1  0.03670000  0.17450000  0.87350000  1.0 0.154473287
H  H21  1  0.14190000  0.67410000  0.12500000  1.0 0.166732815
H  H22  1  0.85810000  0.32590000  0.12500000  1.0 0.166732815
H  H23  1  0.85810000  0.67410000  0.87500000  1.0 0.166732815
H  H24  1  0.14190000  0.32590000  0.87500000  1.0 0.166732815
C  C1  1  0.51240000  0.71080000  0.34030000  1.0 -0.5395875006
C  C2  1  0.48760000  0.28920000  0.34030000  1.0 -0.5395875006
C  C3  1  0.48760000  0.71080000  0.65970000  1.0 -0.5395875006
C  C4  1  0.51240000  0.28920000  0.65970000  1.0 -0.5395875006
C  C5  1  0.70580000  0.68700000  0.35080000  1.0 0.5036182971
C  C6  1  0.29420000  0.31300000  0.35080000  1.0 0.5036182971
C  C7  1  0.29420000  0.68700000  0.64920000  1.0 0.5036182971
C  C8  1  0.70580000  0.31300000  0.64920000  1.0 0.5036182971
C  C9  1  0.81790000  0.72520000  0.26370000  1.0 -0.3503407865
C  C10  1  0.18210000  0.27480000  0.26370000  1.0 -0.3503407865
C  C11  1  0.18210000  0.72520000  0.73630000  1.0 -0.3503407865
C  C12  1  0.81790000  0.27480000  0.73630000  1.0 -0.3503407865
C  C13  1  0.00130000  0.70350000  0.26610000  1.0 0.511312005
C  C14  1  0.99870000  0.29650000  0.26610000  1.0 0.511312005
C  C15  1  0.99870000  0.70350000  0.73390000  1.0 0.511312005
C  C16  1  0.00130000  0.29650000  0.73390000  1.0 0.511312005
C  C17  1  0.10690000  0.75780000  0.17000000  1.0 -0.5395875006
C  C18  1  0.89310000  0.24220000  0.17000000  1.0 -0.5395875006
C  C19  1  0.89310000  0.75780000  0.83000000  1.0 -0.5395875006
C  C20  1  0.10690000  0.24220000  0.83000000  1.0 -0.5395875006
C  C21  1  0.74110000  0.79900000  0.17320000  1.0 0.308428225
C  C22  1  0.25890000  0.20100000  0.17320000  1.0 0.308428225
C  C23  1  0.25890000  0.79900000  0.82680000  1.0 0.308428225
C  C24  1  0.74110000  0.20100000  0.82680000  1.0 0.308428225
N  N1  1  0.67610000  0.85520000  0.10110000  1.0 -0.4093521564
N  N2  1  0.32390000  0.14480000  0.10110000  1.0 -0.4093521564
N  N3  1  0.32390000  0.85520000  0.89890000  1.0 -0.4093521564
N  N4  1  0.67610000  0.14480000  0.89890000  1.0 -0.4093521564
O  O1  1  0.75800000  0.63200000  0.43870000  1.0 -0.5818495779
O  O2  1  0.24200000  0.36800000  0.43870000  1.0 -0.5818495779
O  O3  1  0.24200000  0.63200000  0.56130000  1.0 -0.5818495779
O  O4  1  0.75800000  0.36800000  0.56130000  1.0 -0.5818495779
O  O5  1  0.07870000  0.64630000  0.34410000  1.0 -0.5395875006
O  O6  1  0.92130000  0.35370000  0.34410000  1.0 -0.5395875006
O  O7  1  0.92130000  0.64630000  0.65590000  1.0 -0.5395875006
O  O8  1  0.07870000  0.35370000  0.65590000  1.0 -0.5395875006
