# DDEC6 charges by PACMAN v1.1 (https://github.com/mtap-research/PACMAN-charge/)
data_ZAXWEC_ion_pacman
_symmetry_space_group_name_H-M   'P 1'
_cell_length_a   7.68350000
_cell_length_b   8.68050000
_cell_length_c   12.35400000
_cell_angle_alpha   90.00000000
_cell_angle_beta   90.00000000
_cell_angle_gamma   90.00000000
_symmetry_Int_Tables_number   1
_chemical_formula_structural   YbAgH36C28N5O8
_chemical_formula_sum   'Yb1 Ag1 H36 C28 N5 O8'
_cell_volume   823.97006510
_cell_formula_units_Z   1
loop_
 _symmetry_equiv_pos_site_id
 _symmetry_equiv_pos_as_xyz
  1  'x, y, z'
loop_
 _atom_site_type_symbol
 _atom_site_label
 _atom_site_symmetry_multiplicity
 _atom_site_fract_x
 _atom_site_fract_y
 _atom_site_fract_z
 _atom_site_occupancy
 _atom_site_charge
Yb  Yb1  1  0.50000000  0.00000000  0.50000000  1.0 1.9995676851
Ag  Ag1  1  0.00000000  0.50000000  0.00000000  1.0 0.5609562969
H  H1  1  0.69150000  0.64940000  0.79380000  1.0 0.1689284866
H  H2  1  0.30850000  0.35060000  0.79380000  1.0 0.1689284866
H  H3  1  0.30850000  0.64940000  0.20620000  1.0 0.1689284866
H  H4  1  0.69150000  0.35060000  0.20620000  1.0 0.1689284866
H  H5  1  0.53750000  0.69140000  0.87590000  1.0 0.1615248969
H  H6  1  0.46250000  0.30860000  0.87590000  1.0 0.1615248969
H  H7  1  0.46250000  0.69140000  0.12410000  1.0 0.1615248969
H  H8  1  0.53750000  0.30860000  0.12410000  1.0 0.1615248969
H  H9  1  0.68390000  0.81650000  0.84830000  1.0 0.1689284866
H  H10  1  0.31610000  0.18350000  0.84830000  1.0 0.1689284866
H  H11  1  0.31610000  0.81650000  0.15170000  1.0 0.1689284866
H  H12  1  0.68390000  0.18350000  0.15170000  1.0 0.1689284866
H  H13  1  0.04170000  0.18020000  0.58870000  1.0 0.1689284866
H  H14  1  0.95830000  0.81980000  0.58870000  1.0 0.1689284866
H  H15  1  0.95830000  0.18020000  0.41130000  1.0 0.1689284866
H  H16  1  0.04170000  0.81980000  0.41130000  1.0 0.1689284866
H  H17  1  0.02900000  0.17060000  0.71780000  1.0 0.1615248969
H  H18  1  0.97100000  0.82940000  0.71780000  1.0 0.1615248969
H  H19  1  0.97100000  0.17060000  0.28220000  1.0 0.1615248969
H  H20  1  0.02900000  0.82940000  0.28220000  1.0 0.1615248969
H  H21  1  0.00440000  0.33260000  0.65780000  1.0 0.1408901228
H  H22  1  0.99560000  0.66740000  0.65780000  1.0 0.1408901228
H  H23  1  0.99560000  0.33260000  0.34220000  1.0 0.1408901228
H  H24  1  0.00440000  0.66740000  0.34220000  1.0 0.1408901228
H  H25  1  0.16440000  0.45510000  0.56780000  1.0 0.1000648601
H  H26  1  0.83560000  0.54490000  0.56780000  1.0 0.1000648601
H  H27  1  0.83560000  0.45510000  0.43220000  1.0 0.1000648601
H  H28  1  0.16440000  0.54490000  0.43220000  1.0 0.1000648601
H  H29  1  0.16440000  0.43890000  0.43880000  1.0 0.0916864102
H  H30  1  0.83560000  0.56110000  0.43880000  1.0 0.0916864102
H  H31  1  0.83560000  0.43890000  0.56120000  1.0 0.0916864102
H  H32  1  0.16440000  0.56110000  0.56120000  1.0 0.0916864102
H  H33  1  0.16440000  0.60600000  0.49340000  1.0 0.1000648601
H  H34  1  0.83560000  0.39400000  0.49340000  1.0 0.1000648601
H  H35  1  0.83560000  0.60600000  0.50660000  1.0 0.1000648601
H  H36  1  0.16440000  0.39400000  0.50660000  1.0 0.1000648601
C  C1  1  0.75460000  0.29580000  0.82380000  1.0 0.3142210966
C  C2  1  0.24540000  0.70420000  0.82380000  1.0 0.3142210966
C  C3  1  0.24540000  0.29580000  0.17620000  1.0 0.3142210966
C  C4  1  0.75460000  0.70420000  0.17620000  1.0 0.3142210966
C  C5  1  0.67680000  0.22780000  0.73070000  1.0 -0.3786778176
C  C6  1  0.32320000  0.77220000  0.73070000  1.0 -0.3786778176
C  C7  1  0.32320000  0.22780000  0.26930000  1.0 -0.3786778176
C  C8  1  0.67680000  0.77220000  0.26930000  1.0 -0.3786778176
C  C9  1  0.49410000  0.21080000  0.72620000  1.0 0.5028895711
C  C10  1  0.50590000  0.78920000  0.72620000  1.0 0.5028895711
C  C11  1  0.50590000  0.21080000  0.27380000  1.0 0.5028895711
C  C12  1  0.49410000  0.78920000  0.27380000  1.0 0.5028895711
C  C13  1  0.21100000  0.80800000  0.64450000  1.0 0.4732530688
C  C14  1  0.78900000  0.19200000  0.64450000  1.0 0.4732530688
C  C15  1  0.78900000  0.80800000  0.35550000  1.0 0.4732530688
C  C16  1  0.21100000  0.19200000  0.35550000  1.0 0.4732530688
C  C17  1  0.61410000  0.73160000  0.81910000  1.0 -0.5331422115
C  C18  1  0.38590000  0.26840000  0.81910000  1.0 -0.5331422115
C  C19  1  0.38590000  0.73160000  0.18090000  1.0 -0.5331422115
C  C20  1  0.61410000  0.26840000  0.18090000  1.0 -0.5331422115
C  C21  1  0.98320000  0.22150000  0.65290000  1.0 -0.5624573851
C  C22  1  0.01680000  0.77850000  0.65290000  1.0 -0.5624573851
C  C23  1  0.01680000  0.22150000  0.34710000  1.0 -0.5624573851
C  C24  1  0.98320000  0.77850000  0.34710000  1.0 -0.5624573851
C  C25  1  0.35700000  0.50000000  0.50000000  1.0 0.1073913699
C  C26  1  0.64300000  0.50000000  0.50000000  1.0 0.1073913699
C  C27  1  0.20700000  0.50000000  0.50000000  1.0 -0.3786778176
C  C28  1  0.79300000  0.50000000  0.50000000  1.0 -0.3786778176
N  N1  1  0.82200000  0.35110000  0.89740000  1.0 -0.4309918086
N  N2  1  0.17800000  0.64890000  0.89740000  1.0 -0.4309918086
N  N3  1  0.17800000  0.35110000  0.10260000  1.0 -0.4309918086
N  N4  1  0.82200000  0.64890000  0.10260000  1.0 -0.4309918086
N  N5  1  0.50000000  0.50000000  0.50000000  1.0 -0.2761063302
O  O1  1  0.41560000  0.14920000  0.64750000  1.0 -0.5415486048
O  O2  1  0.58440000  0.85080000  0.64750000  1.0 -0.5415486048
O  O3  1  0.58440000  0.14920000  0.35250000  1.0 -0.5415486048
O  O4  1  0.41560000  0.85080000  0.35250000  1.0 -0.5415486048
O  O5  1  0.26380000  0.86540000  0.55750000  1.0 -0.5415486048
O  O6  1  0.73620000  0.13460000  0.55750000  1.0 -0.5415486048
O  O7  1  0.73620000  0.86540000  0.44250000  1.0 -0.5415486048
O  O8  1  0.26380000  0.13460000  0.44250000  1.0 -0.5415486048
