# DDEC6 charges by PACMAN v1.1 (https://github.com/mtap-research/PACMAN-charge/)
data_ZAZBUZ_ASR_pacman
_symmetry_space_group_name_H-M   'P 1'
_cell_length_a   6.60500000
_cell_length_b   10.44780000
_cell_length_c   11.08810000
_cell_angle_alpha   62.06400000
_cell_angle_beta   73.41000000
_cell_angle_gamma   78.40400000
_symmetry_Int_Tables_number   1
_chemical_formula_structural   CuH4(C2O)4
_chemical_formula_sum   'Cu2 H8 C16 O8'
_cell_volume   645.81409628
_cell_formula_units_Z   2
loop_
 _symmetry_equiv_pos_site_id
 _symmetry_equiv_pos_as_xyz
  1  'x, y, z'
loop_
 _atom_site_type_symbol
 _atom_site_label
 _atom_site_symmetry_multiplicity
 _atom_site_fract_x
 _atom_site_fract_y
 _atom_site_fract_z
 _atom_site_occupancy
 _atom_site_charge
Cu  Cu1  1  0.00000000  0.00000000  0.50000000  1.0 0.9122434517
Cu  Cu2  1  0.50000000  0.00000000  0.50000000  1.0 0.6374787351
H  H1  1  0.41330000  0.26900000  0.55710000  1.0 0.1230941674
H  H2  1  0.58670000  0.73100000  0.44290000  1.0 0.1230941674
H  H3  1  0.85380000  0.55470000  0.42240000  1.0 0.1305423737
H  H4  1  0.14620000  0.44530000  0.57760000  1.0 0.1305423737
H  H5  1  0.65220000  0.95350000  0.12720000  1.0 0.1305423737
H  H6  1  0.34780000  0.04650000  0.87280000  1.0 0.1305423737
H  H7  1  0.23620000  0.04970000  0.09170000  1.0 0.1305423737
H  H8  1  0.76380000  0.95030000  0.90830000  1.0 0.1305423737
C  C1  1  0.86370000  0.00390000  0.27110000  1.0 0.6014158985
C  C2  1  0.13630000  0.99610000  0.72890000  1.0 0.6014158985
C  C3  1  0.83530000  0.28230000  0.47400000  1.0 0.5855511984
C  C4  1  0.16470000  0.71770000  0.52600000  1.0 0.5855511984
C  C5  1  0.44860000  0.36290000  0.53370000  1.0 -0.096305568
C  C6  1  0.55140000  0.63710000  0.46630000  1.0 -0.096305568
C  C7  1  0.93450000  0.00130000  0.13030000  1.0 -0.0020783735
C  C8  1  0.06550000  0.99870000  0.86970000  1.0 -0.0020783735
C  C9  1  0.65980000  0.39460000  0.48680000  1.0 -0.0020783735
C  C10  1  0.34020000  0.60540000  0.51320000  1.0 -0.0020783735
C  C11  1  0.70990000  0.53260000  0.45370000  1.0 -0.0917560622
C  C12  1  0.29010000  0.46740000  0.54630000  1.0 -0.0917560622
C  C13  1  0.79370000  0.97230000  0.07560000  1.0 -0.0917560622
C  C14  1  0.20630000  0.02770000  0.92440000  1.0 -0.0917560622
C  C15  1  0.14000000  0.02930000  0.05470000  1.0 -0.0917560622
C  C16  1  0.86000000  0.97070000  0.94530000  1.0 -0.0917560622
O  O1  1  0.67080000  0.98750000  0.33020000  1.0 -0.5263554195
O  O2  1  0.32920000  0.01250000  0.66980000  1.0 -0.5263554195
O  O3  1  0.78700000  0.16760000  0.47930000  1.0 -0.5716026166
O  O4  1  0.21300000  0.83240000  0.52070000  1.0 -0.5716026166
O  O5  1  0.00230000  0.02200000  0.31590000  1.0 -0.5014304707
O  O6  1  0.99770000  0.97800000  0.68410000  1.0 -0.5014304707
O  O7  1  0.01890000  0.30810000  0.45950000  1.0 -0.5014304707
O  O8  1  0.98110000  0.69190000  0.54050000  1.0 -0.5014304707
