# DDEC6 charges by PACMAN v1.1 (https://github.com/mtap-research/PACMAN-charge/)
data_ZEDLOL_ASR_pacman
_symmetry_space_group_name_H-M   'P 1'
_cell_length_a   9.86330000
_cell_length_b   16.44090000
_cell_length_c   18.21870000
_cell_angle_alpha   90.00000000
_cell_angle_beta   94.19700000
_cell_angle_gamma   90.00000000
_symmetry_Int_Tables_number   1
_chemical_formula_structural   CdH20C27(N2O3)2
_chemical_formula_sum   'Cd4 H80 C108 N16 O24'
_cell_volume   2946.44953911
_cell_formula_units_Z   4
loop_
 _symmetry_equiv_pos_site_id
 _symmetry_equiv_pos_as_xyz
  1  'x, y, z'
loop_
 _atom_site_type_symbol
 _atom_site_label
 _atom_site_symmetry_multiplicity
 _atom_site_fract_x
 _atom_site_fract_y
 _atom_site_fract_z
 _atom_site_occupancy
 _atom_site_charge
Cd  Cd1  1  0.89957000  0.40827000  0.00399000  1.0 0.8662821824
Cd  Cd2  1  0.10043000  0.40827000  0.49601000  1.0 0.8662821824
Cd  Cd3  1  0.10043000  0.59173000  0.99601000  1.0 0.8662821824
Cd  Cd4  1  0.89957000  0.59173000  0.50399000  1.0 0.8662821824
H  H1  1  0.10840000  0.34300000  0.86300000  1.0 0.1199603845
H  H2  1  0.89160000  0.34300000  0.63700000  1.0 0.1199603845
H  H3  1  0.89160000  0.65700000  0.13700000  1.0 0.1199603845
H  H4  1  0.10840000  0.65700000  0.36300000  1.0 0.1199603845
H  H5  1  0.20510000  0.22610000  0.80720000  1.0 0.1199603845
H  H6  1  0.79490000  0.22610000  0.69280000  1.0 0.1095319546
H  H7  1  0.79490000  0.77390000  0.19280000  1.0 0.1199603845
H  H8  1  0.20510000  0.77390000  0.30720000  1.0 0.1199603845
H  H9  1  0.52300000  0.23720000  0.95680000  1.0 0.1418954903
H  H10  1  0.47700000  0.23720000  0.54320000  1.0 0.1418954903
H  H11  1  0.47700000  0.76280000  0.04320000  1.0 0.1418954903
H  H12  1  0.52300000  0.76280000  0.45680000  1.0 0.1418954903
H  H13  1  0.42180000  0.33910000  0.01250000  1.0 0.1095319546
H  H14  1  0.57820000  0.33910000  0.48750000  1.0 0.1095319546
H  H15  1  0.57820000  0.66090000  0.98750000  1.0 0.1095319546
H  H16  1  0.42180000  0.66090000  0.51250000  1.0 0.1095319546
H  H17  1  0.31100000  0.09970000  0.80110000  1.0 0.1095319546
H  H18  1  0.68900000  0.09970000  0.69890000  1.0 0.1095319546
H  H19  1  0.68900000  0.90030000  0.19890000  1.0 0.1095319546
H  H20  1  0.31100000  0.90030000  0.30110000  1.0 0.1095319546
H  H21  1  0.35670000  0.17170000  0.75120000  1.0 0.0935542384
H  H22  1  0.64330000  0.17170000  0.74880000  1.0 0.0935542384
H  H23  1  0.64330000  0.82830000  0.24880000  1.0 0.0935542384
H  H24  1  0.35670000  0.82830000  0.25120000  1.0 0.0935542384
H  H25  1  0.51150000  0.98600000  0.83560000  1.0 0.1095319546
H  H26  1  0.48850000  0.98600000  0.66440000  1.0 0.1095319546
H  H27  1  0.48850000  0.01400000  0.16440000  1.0 0.1095319546
H  H28  1  0.51150000  0.01400000  0.33560000  1.0 0.1095319546
H  H29  1  0.63020000  0.05020000  0.84280000  1.0 0.0994251264
H  H30  1  0.36980000  0.05020000  0.65720000  1.0 0.0994251264
H  H31  1  0.36980000  0.94980000  0.15720000  1.0 0.0994251264
H  H32  1  0.63020000  0.94980000  0.34280000  1.0 0.0994251264
H  H33  1  0.87220000  0.73680000  0.77900000  1.0 0.1199603845
H  H34  1  0.12780000  0.73680000  0.72100000  1.0 0.1199603845
H  H35  1  0.12780000  0.26320000  0.22100000  1.0 0.1199603845
H  H36  1  0.87220000  0.26320000  0.27900000  1.0 0.1199603845
H  H37  1  0.75740000  0.84290000  0.72350000  1.0 0.128352825
H  H38  1  0.24260000  0.84290000  0.77650000  1.0 0.128352825
H  H39  1  0.24260000  0.15710000  0.27650000  1.0 0.128352825
H  H40  1  0.75740000  0.15710000  0.22350000  1.0 0.128352825
H  H41  1  0.60490000  0.46900000  0.07070000  1.0 0.1199603845
H  H42  1  0.39510000  0.46900000  0.42930000  1.0 0.1199603845
H  H43  1  0.39510000  0.53100000  0.92930000  1.0 0.1199603845
H  H44  1  0.60490000  0.53100000  0.57070000  1.0 0.1199603845
H  H45  1  0.77020000  0.25810000  0.11660000  1.0 0.1199603845
H  H46  1  0.22980000  0.25810000  0.38340000  1.0 0.1199603845
H  H47  1  0.22980000  0.74190000  0.88340000  1.0 0.1199603845
H  H48  1  0.77020000  0.74190000  0.61660000  1.0 0.1199603845
H  H49  1  0.58490000  0.27710000  0.19810000  1.0 0.1199603845
H  H50  1  0.41510000  0.27710000  0.30190000  1.0 0.1199603845
H  H51  1  0.41510000  0.72290000  0.80190000  1.0 0.1199603845
H  H52  1  0.58490000  0.72290000  0.69810000  1.0 0.1199603845
H  H53  1  0.38560000  0.39130000  0.19770000  1.0 0.1199603845
H  H54  1  0.61440000  0.39130000  0.30230000  1.0 0.1199603845
H  H55  1  0.61440000  0.60870000  0.80230000  1.0 0.1199603845
H  H56  1  0.38560000  0.60870000  0.69770000  1.0 0.1199603845
H  H57  1  0.40430000  0.46560000  0.14590000  1.0 0.128352825
H  H58  1  0.59570000  0.46560000  0.35410000  1.0 0.128352825
H  H59  1  0.59570000  0.53440000  0.85410000  1.0 0.128352825
H  H60  1  0.40430000  0.53440000  0.64590000  1.0 0.128352825
H  H61  1  0.30680000  0.49850000  0.28570000  1.0 0.1199603845
H  H62  1  0.69320000  0.49850000  0.21430000  1.0 0.1199603845
H  H63  1  0.69320000  0.50150000  0.71430000  1.0 0.1199603845
H  H64  1  0.30680000  0.50150000  0.78570000  1.0 0.1199603845
H  H65  1  0.40390000  0.57040000  0.31010000  1.0 0.1199603845
H  H66  1  0.59610000  0.57040000  0.18990000  1.0 0.1199603845
H  H67  1  0.59610000  0.42960000  0.68990000  1.0 0.1199603845
H  H68  1  0.40390000  0.42960000  0.81010000  1.0 0.1199603845
H  H69  1  0.42500000  0.69310000  0.20720000  1.0 0.1199603845
H  H70  1  0.57500000  0.69310000  0.29280000  1.0 0.1199603845
H  H71  1  0.57500000  0.30690000  0.79280000  1.0 0.1199603845
H  H72  1  0.42500000  0.30690000  0.70720000  1.0 0.1199603845
H  H73  1  0.16470000  0.51470000  0.16530000  1.0 0.128352825
H  H74  1  0.83530000  0.51470000  0.33470000  1.0 0.128352825
H  H75  1  0.83530000  0.48530000  0.83470000  1.0 0.128352825
H  H76  1  0.16470000  0.48530000  0.66530000  1.0 0.128352825
H  H77  1  0.27400000  0.72880000  0.10250000  1.0 0.128352825
H  H78  1  0.72600000  0.72880000  0.39750000  1.0 0.128352825
H  H79  1  0.72600000  0.27120000  0.89750000  1.0 0.128352825
H  H80  1  0.27400000  0.27120000  0.60250000  1.0 0.128352825
C  C1  1  0.21270000  0.43080000  0.97690000  1.0 0.5404411727
C  C2  1  0.78730000  0.43080000  0.52310000  1.0 0.5404411727
C  C3  1  0.78730000  0.56920000  0.02310000  1.0 0.5404411727
C  C4  1  0.21270000  0.56920000  0.47690000  1.0 0.5404411727
C  C5  1  0.25770000  0.35460000  0.94130000  1.0 -0.0326826881
C  C6  1  0.74230000  0.35460000  0.55870000  1.0 -0.0326826881
C  C7  1  0.74230000  0.64540000  0.05870000  1.0 -0.0326826881
C  C8  1  0.25770000  0.64540000  0.44130000  1.0 -0.0326826881
C  C9  1  0.19100000  0.32150000  0.88190000  1.0 -0.0922147086
C  C10  1  0.80900000  0.32150000  0.61810000  1.0 -0.0922147086
C  C11  1  0.80900000  0.67850000  0.11810000  1.0 -0.0922147086
C  C12  1  0.19100000  0.67850000  0.38190000  1.0 -0.0922147086
C  C13  1  0.24900000  0.25200000  0.84770000  1.0 -0.2543404228
C  C14  1  0.75100000  0.25200000  0.65230000  1.0 -0.2543404228
C  C15  1  0.75100000  0.74800000  0.15230000  1.0 -0.2543404228
C  C16  1  0.24900000  0.74800000  0.34770000  1.0 -0.2543404228
C  C17  1  0.37840000  0.22510000  0.87960000  1.0 0.1881540889
C  C18  1  0.62160000  0.22510000  0.62040000  1.0 0.1881540889
C  C19  1  0.62160000  0.77490000  0.12040000  1.0 0.1881540889
C  C20  1  0.37840000  0.77490000  0.37960000  1.0 0.1881540889
C  C21  1  0.43940000  0.25690000  0.93760000  1.0 -0.1589770218
C  C22  1  0.56060000  0.25690000  0.56240000  1.0 -0.1589770218
C  C23  1  0.56060000  0.74310000  0.06240000  1.0 -0.1589770218
C  C24  1  0.43940000  0.74310000  0.43760000  1.0 -0.1589770218
C  C25  1  0.38000000  0.31840000  0.96910000  1.0 -0.1095676659
C  C26  1  0.62000000  0.31840000  0.53090000  1.0 -0.1095676659
C  C27  1  0.62000000  0.68160000  0.03090000  1.0 -0.1095676659
C  C28  1  0.38000000  0.68160000  0.46910000  1.0 -0.1095676659
C  C29  1  0.38860000  0.13040000  0.78640000  1.0 -0.0326826881
C  C30  1  0.61140000  0.13040000  0.71360000  1.0 -0.0326826881
C  C31  1  0.61140000  0.86960000  0.21360000  1.0 -0.0326826881
C  C32  1  0.38860000  0.86960000  0.28640000  1.0 -0.0326826881
C  C33  1  0.50000000  0.06910000  0.75000000  1.0 0.0019506359
C  C34  1  0.50000000  0.93090000  0.25000000  1.0 0.0019506359
C  C35  1  0.57560000  0.01640000  0.80840000  1.0 -0.0717521192
C  C36  1  0.42440000  0.01640000  0.69160000  1.0 -0.0717521192
C  C37  1  0.42440000  0.98360000  0.19160000  1.0 -0.0717521192
C  C38  1  0.57560000  0.98360000  0.30840000  1.0 -0.0717521192
C  C39  1  0.72520000  0.90180000  0.81330000  1.0 0.1815834591
C  C40  1  0.27480000  0.90180000  0.68670000  1.0 0.1815834591
C  C41  1  0.27480000  0.09820000  0.18670000  1.0 0.1815834591
C  C42  1  0.72520000  0.09820000  0.31330000  1.0 0.1815834591
C  C43  1  0.72510000  0.89420000  0.88600000  1.0 -0.0717521192
C  C44  1  0.27490000  0.89420000  0.61400000  1.0 -0.0717521192
C  C45  1  0.27490000  0.10580000  0.11400000  1.0 -0.0717521192
C  C46  1  0.72510000  0.10580000  0.38600000  1.0 -0.0717521192
C  C47  1  0.80480000  0.82990000  0.92330000  1.0 -0.0193172511
C  C48  1  0.19520000  0.82990000  0.57670000  1.0 -0.0193172511
C  C49  1  0.19520000  0.17010000  0.07670000  1.0 -0.0193172511
C  C50  1  0.80480000  0.17010000  0.42330000  1.0 -0.0193172511
C  C51  1  0.86860000  0.77550000  0.88220000  1.0 -0.0193172511
C  C52  1  0.13140000  0.77550000  0.61780000  1.0 -0.0193172511
C  C53  1  0.13140000  0.22450000  0.11780000  1.0 -0.0193172511
C  C54  1  0.86860000  0.22450000  0.38220000  1.0 -0.0193172511
C  C55  1  0.84190000  0.77880000  0.80780000  1.0 -0.1589770218
C  C56  1  0.15810000  0.77880000  0.69220000  1.0 -0.1589770218
C  C57  1  0.15810000  0.22120000  0.19220000  1.0 -0.1589770218
C  C58  1  0.84190000  0.22120000  0.30780000  1.0 -0.1589770218
C  C59  1  0.77210000  0.84210000  0.77450000  1.0 -0.2308872169
C  C60  1  0.22790000  0.84210000  0.72550000  1.0 -0.2308872169
C  C61  1  0.22790000  0.15790000  0.22550000  1.0 -0.2308872169
C  C62  1  0.77210000  0.15790000  0.27450000  1.0 -0.2308872169
C  C63  1  0.95040000  0.70950000  0.92010000  1.0 0.5460684473
C  C64  1  0.04960000  0.70950000  0.57990000  1.0 0.5460684473
C  C65  1  0.04960000  0.29050000  0.07990000  1.0 0.5460684473
C  C66  1  0.95040000  0.29050000  0.42010000  1.0 0.5460684473
C  C67  1  0.62410000  0.41860000  0.09220000  1.0 0.0751637394
C  C68  1  0.37590000  0.41860000  0.40780000  1.0 0.0744107092
C  C69  1  0.37590000  0.58140000  0.90780000  1.0 0.0744107092
C  C70  1  0.62410000  0.58140000  0.59220000  1.0 0.0751637394
C  C71  1  0.71360000  0.30330000  0.11700000  1.0 -0.0193172511
C  C72  1  0.28640000  0.30330000  0.38300000  1.0 -0.0193172511
C  C73  1  0.28640000  0.69670000  0.88300000  1.0 -0.0193172511
C  C74  1  0.71360000  0.69670000  0.61700000  1.0 -0.0193172511
C  C75  1  0.61170000  0.31370000  0.16310000  1.0 -0.121403498
C  C76  1  0.38830000  0.31370000  0.33690000  1.0 -0.121403498
C  C77  1  0.38830000  0.68630000  0.83690000  1.0 -0.121403498
C  C78  1  0.61170000  0.68630000  0.66310000  1.0 -0.121403498
C  C79  1  0.45100000  0.43060000  0.18240000  1.0 -0.2052064961
C  C80  1  0.54900000  0.43060000  0.31760000  1.0 -0.2018904453
C  C81  1  0.54900000  0.56940000  0.81760000  1.0 -0.2052064961
C  C82  1  0.45100000  0.56940000  0.68240000  1.0 -0.2052064961
C  C83  1  0.50000000  0.48330000  0.25000000  1.0 0.128352825
C  C84  1  0.50000000  0.51670000  0.75000000  1.0 0.128352825
C  C85  1  0.37580000  0.53490000  0.26930000  1.0 -0.2018904453
C  C86  1  0.62420000  0.53490000  0.23070000  1.0 -0.2018904453
C  C87  1  0.62420000  0.46510000  0.73070000  1.0 -0.2018904453
C  C88  1  0.37580000  0.46510000  0.76930000  1.0 -0.2018904453
C  C89  1  0.35430000  0.66140000  0.18610000  1.0 -0.1479740268
C  C90  1  0.64570000  0.66140000  0.31390000  1.0 -0.1479740268
C  C91  1  0.64570000  0.33860000  0.81390000  1.0 -0.1479740268
C  C92  1  0.35430000  0.33860000  0.68610000  1.0 -0.1479740268
C  C93  1  0.21170000  0.56350000  0.16250000  1.0 0.1199603845
C  C94  1  0.78830000  0.56350000  0.33750000  1.0 0.1199603845
C  C95  1  0.78830000  0.43650000  0.83750000  1.0 0.1199603845
C  C96  1  0.21170000  0.43650000  0.66250000  1.0 0.1199603845
C  C97  1  0.27210000  0.68030000  0.12850000  1.0 -0.0432302034
C  C98  1  0.72790000  0.68030000  0.37150000  1.0 -0.0432302034
C  C99  1  0.72790000  0.31970000  0.87150000  1.0 -0.0432302034
C  C100  1  0.27210000  0.31970000  0.62850000  1.0 -0.0432302034
C  C101  1  0.18100000  0.92920000  0.62300000  1.0 0.0578257577
C  C102  1  0.81900000  0.92920000  0.87700000  1.0 0.0578257577
C  C103  1  0.81900000  0.07080000  0.37700000  1.0 0.0578257577
C  C104  1  0.18100000  0.07080000  0.12300000  1.0 0.0578257577
C  C105  1  0.08800000  0.84800000  0.59900000  1.0 -0.0138815356
C  C106  1  0.91200000  0.84800000  0.90100000  1.0 -0.0193172511
C  C107  1  0.91200000  0.15200000  0.40100000  1.0 -0.0193172511
C  C108  1  0.08800000  0.15200000  0.09900000  1.0 -0.0193172511
N  N1  1  0.72000000  0.36850000  0.07200000  1.0 -0.2903602621
N  N2  1  0.28000000  0.36850000  0.42800000  1.0 -0.2903602621
N  N3  1  0.28000000  0.63150000  0.92800000  1.0 -0.2903602621
N  N4  1  0.72000000  0.63150000  0.57200000  1.0 -0.2903602621
N  N5  1  0.55830000  0.38720000  0.14770000  1.0 0.0481948355
N  N6  1  0.44170000  0.38720000  0.35230000  1.0 0.0481948355
N  N7  1  0.44170000  0.61280000  0.85230000  1.0 0.0481948355
N  N8  1  0.55830000  0.61280000  0.64770000  1.0 0.0481948355
N  N9  1  0.31480000  0.58470000  0.20920000  1.0 0.0395580871
N  N10  1  0.68520000  0.58470000  0.29080000  1.0 0.0395580871
N  N11  1  0.68520000  0.41530000  0.79080000  1.0 0.0395580871
N  N12  1  0.31480000  0.41530000  0.70920000  1.0 0.0395580871
N  N13  1  0.18360000  0.61800000  0.11260000  1.0 -0.2761439508
N  N14  1  0.81640000  0.61800000  0.38740000  1.0 -0.2761439508
N  N15  1  0.81640000  0.38200000  0.88740000  1.0 -0.2761439508
N  N16  1  0.18360000  0.38200000  0.61260000  1.0 -0.2761439508
O  O1  1  0.28940000  0.46510000  0.02450000  1.0 -0.5560149377
O  O2  1  0.71060000  0.46510000  0.47550000  1.0 -0.5560149377
O  O3  1  0.71060000  0.53490000  0.97550000  1.0 -0.5560149377
O  O4  1  0.28940000  0.53490000  0.52450000  1.0 -0.5560149377
O  O5  1  0.09780000  0.46050000  0.95380000  1.0 -0.5656547374
O  O6  1  0.90220000  0.46050000  0.54620000  1.0 -0.5656547374
O  O7  1  0.90220000  0.53950000  0.04620000  1.0 -0.5656547374
O  O8  1  0.09780000  0.53950000  0.45380000  1.0 -0.5656547374
O  O9  1  0.45450000  0.16420000  0.84430000  1.0 -0.1664513177
O  O10  1  0.54550000  0.16420000  0.65570000  1.0 -0.1664513177
O  O11  1  0.54550000  0.83580000  0.15570000  1.0 -0.1664513177
O  O12  1  0.45450000  0.83580000  0.34430000  1.0 -0.1664513177
O  O13  1  0.65820000  0.96370000  0.77210000  1.0 -0.2308872169
O  O14  1  0.34180000  0.96370000  0.72790000  1.0 -0.2308872169
O  O15  1  0.34180000  0.03630000  0.22790000  1.0 -0.2308872169
O  O16  1  0.65820000  0.03630000  0.27210000  1.0 -0.2308872169
O  O17  1  0.95620000  0.64140000  0.88840000  1.0 -0.5250220126
O  O18  1  0.04380000  0.64140000  0.61160000  1.0 -0.5250220126
O  O19  1  0.04380000  0.35860000  0.11160000  1.0 -0.5250220126
O  O20  1  0.95620000  0.35860000  0.38840000  1.0 -0.5250220126
O  O21  1  0.00810000  0.72190000  0.98060000  1.0 -0.4827322861
O  O22  1  0.99190000  0.72190000  0.51940000  1.0 -0.4827322861
O  O23  1  0.99190000  0.27810000  0.01940000  1.0 -0.4827322861
O  O24  1  0.00810000  0.27810000  0.48060000  1.0 -0.4827322861
