# DDEC6 charges by PACMAN v1.1 (https://github.com/mtap-research/PACMAN-charge/)
data_ZEDVOV_ion_pacman
_symmetry_space_group_name_H-M   'P 1'
_cell_length_a   11.64900000
_cell_length_b   16.83300000
_cell_length_c   25.51500000
_cell_angle_alpha   99.17000000
_cell_angle_beta   101.55000000
_cell_angle_gamma   93.41000000
_symmetry_Int_Tables_number   1
_chemical_formula_structural   NdH27C39N5O12
_chemical_formula_sum   'Nd4 H108 C156 N20 O48'
_cell_volume   4817.56697020
_cell_formula_units_Z   4
loop_
 _symmetry_equiv_pos_site_id
 _symmetry_equiv_pos_as_xyz
  1  'x, y, z'
loop_
 _atom_site_type_symbol
 _atom_site_label
 _atom_site_symmetry_multiplicity
 _atom_site_fract_x
 _atom_site_fract_y
 _atom_site_fract_z
 _atom_site_occupancy
 _atom_site_charge
Nd  Nd1  1  0.07263000  0.79280000  0.89581000  1.0 2.074984896
Nd  Nd2  1  0.92737000  0.20720000  0.10419000  1.0 2.074984896
Nd  Nd3  1  0.40371000  0.19700000  0.69294000  1.0 2.0328434584
Nd  Nd4  1  0.59629000  0.80300000  0.30706000  1.0 2.0328434584
H  H1  1  0.35120000  0.05810000  0.94630000  1.0 0.1207839584
H  H2  1  0.64880000  0.94190000  0.05370000  1.0 0.1207839584
H  H3  1  0.48370000  0.85690000  0.00230000  1.0 0.1106420106
H  H4  1  0.51630000  0.14310000  0.99770000  1.0 0.1106420106
H  H5  1  0.26980000  0.57430000  0.71510000  1.0 0.1106420106
H  H6  1  0.73020000  0.42570000  0.28490000  1.0 0.1106420106
H  H7  1  0.10680000  0.57110000  0.84030000  1.0 0.1325984277
H  H8  1  0.89320000  0.42890000  0.15970000  1.0 0.1325984277
H  H9  1  0.09870000  0.49550000  0.92930000  1.0 0.1207839584
H  H10  1  0.90130000  0.50450000  0.07070000  1.0 0.1207839584
H  H11  1  0.93150000  0.62200000  0.03590000  1.0 0.1207839584
H  H12  1  0.06850000  0.37800000  0.96410000  1.0 0.1207839584
H  H13  1  0.82110000  0.92170000  0.80690000  1.0 0.1207839584
H  H14  1  0.17890000  0.07830000  0.19310000  1.0 0.1207839584
H  H15  1  0.71450000  0.99830000  0.74930000  1.0 0.1207839584
H  H16  1  0.28550000  0.00170000  0.25070000  1.0 0.1207839584
H  H17  1  0.54010000  0.08140000  0.86560000  1.0 0.1207839584
H  H18  1  0.45990000  0.91860000  0.13440000  1.0 0.1207839584
H  H19  1  0.65260000  0.00770000  0.92480000  1.0 0.1106420106
H  H20  1  0.34740000  0.99230000  0.07520000  1.0 0.1106420106
H  H21  1  0.66340000  0.63010000  0.71490000  1.0 0.1026151009
H  H22  1  0.33660000  0.36990000  0.28510000  1.0 0.1026151009
H  H23  1  0.54990000  0.50460000  0.68360000  1.0 0.1207839584
H  H24  1  0.45010000  0.49540000  0.31640000  1.0 0.1207839584
H  H25  1  0.76560000  0.39670000  0.79020000  1.0 0.1106420106
H  H26  1  0.23440000  0.60330000  0.20980000  1.0 0.1106420106
H  H27  1  0.87870000  0.52150000  0.82230000  1.0 0.1207839584
H  H28  1  0.12130000  0.47850000  0.17770000  1.0 0.1207839584
H  H29  1  0.11650000  0.42890000  0.83130000  1.0 0.1106420106
H  H30  1  0.88350000  0.57110000  0.16870000  1.0 0.1106420106
H  H31  1  0.29600000  0.43200000  0.71110000  1.0 0.1325984277
H  H32  1  0.70400000  0.56800000  0.28890000  1.0 0.1325984277
H  H33  1  0.61890000  0.12220000  0.54130000  1.0 0.1325984277
H  H34  1  0.38110000  0.87780000  0.45870000  1.0 0.1325984277
H  H35  1  0.33740000  0.96110000  0.53340000  1.0 0.1207839584
H  H36  1  0.66260000  0.03890000  0.46660000  1.0 0.1207839584
H  H37  1  0.23390000  0.25350000  0.31260000  1.0 0.1391647836
H  H38  1  0.22650000  0.24770000  0.46630000  1.0 0.1573436794
H  H39  1  0.39310000  0.17300000  0.44570000  1.0 0.1492261632
H  H40  1  0.51270000  0.10010000  0.39050000  1.0 0.1325984277
H  H41  1  0.63870000  0.05000000  0.33580000  1.0 0.1391647836
H  H42  1  0.63170000  0.09420000  0.25220000  1.0 0.1492261632
H  H43  1  0.32320000  0.23890000  0.19950000  1.0 0.1391647836
H  H44  1  0.64380000  0.17790000  0.18200000  1.0 0.1573436794
H  H45  1  0.55710000  0.24240000  0.10510000  1.0 0.1573436794
H  H46  1  0.32060000  0.26980000  0.06680000  1.0 0.1391647836
H  H47  1  0.25160000  0.29310000  0.11290000  1.0 0.1492261632
H  H48  1  0.27190000  0.40310000  0.03500000  1.0 0.1207839584
H  H49  1  0.32870000  0.54230000  0.03670000  1.0 0.1207839584
H  H50  1  0.53730000  0.55460000  0.18290000  1.0 0.1207839584
H  H51  1  0.48440000  0.41370000  0.18050000  1.0 0.1207839584
H  H52  1  0.51800000  0.66380000  0.08320000  1.0 0.1391647836
H  H53  1  0.52680000  0.68220000  0.14620000  1.0 0.1492261632
H  H54  1  0.32570000  0.72140000  0.17670000  1.0 0.1492261632
H  H55  1  0.34570000  0.72930000  0.02340000  1.0 0.1573436794
H  H56  1  0.17300000  0.79670000  0.04030000  1.0 0.1573436794
H  H57  1  0.05000000  0.87420000  0.09280000  1.0 0.1492261632
H  H58  1  0.93100000  0.93170000  0.14780000  1.0 0.1391647836
H  H59  1  0.93440000  0.89090000  0.23170000  1.0 0.1492261632
H  H60  1  0.23550000  0.73840000  0.28620000  1.0 0.1391647836
H  H61  1  0.91720000  0.80520000  0.30140000  1.0 0.1492261632
H  H62  1  0.99610000  0.73730000  0.37750000  1.0 0.1492261632
H  H63  1  0.30210000  0.68560000  0.37430000  1.0 0.1391647836
H  H64  1  0.23060000  0.70920000  0.41930000  1.0 0.1391647836
H  H65  1  0.30080000  0.57360000  0.44820000  1.0 0.1207839584
H  H66  1  0.25720000  0.43530000  0.44700000  1.0 0.1207839584
H  H67  1  0.01060000  0.42410000  0.31220000  1.0 0.1207839584
H  H68  1  0.05800000  0.56210000  0.31040000  1.0 0.1207839584
H  H69  1  0.03950000  0.29580000  0.34610000  1.0 0.1391647836
H  H70  1  0.05370000  0.31480000  0.40920000  1.0 0.1325984277
H  H71  1  0.76610000  0.74650000  0.68740000  1.0 0.1492261632
H  H72  1  0.77350000  0.75230000  0.53370000  1.0 0.1573436794
H  H73  1  0.60690000  0.82700000  0.55430000  1.0 0.1492261632
H  H74  1  0.48730000  0.89990000  0.60950000  1.0 0.1325984277
H  H75  1  0.36130000  0.95000000  0.66420000  1.0 0.1391647836
H  H76  1  0.36830000  0.90580000  0.74780000  1.0 0.1492261632
H  H77  1  0.67680000  0.76110000  0.80050000  1.0 0.1325984277
H  H78  1  0.35620000  0.82210000  0.81800000  1.0 0.1573436794
H  H79  1  0.44290000  0.75760000  0.89490000  1.0 0.1573436794
H  H80  1  0.67940000  0.73020000  0.93320000  1.0 0.1391647836
H  H81  1  0.74840000  0.70690000  0.88710000  1.0 0.1492261632
H  H82  1  0.72810000  0.59690000  0.96500000  1.0 0.1207839584
H  H83  1  0.67130000  0.45770000  0.96330000  1.0 0.1207839584
H  H84  1  0.46270000  0.44540000  0.81710000  1.0 0.1207839584
H  H85  1  0.51560000  0.58630000  0.81950000  1.0 0.1207839584
H  H86  1  0.48200000  0.33620000  0.91680000  1.0 0.1325984277
H  H87  1  0.47320000  0.31780000  0.85380000  1.0 0.1492261632
H  H88  1  0.67430000  0.27860000  0.82330000  1.0 0.1492261632
H  H89  1  0.65430000  0.27070000  0.97660000  1.0 0.1573436794
H  H90  1  0.82700000  0.20330000  0.95970000  1.0 0.1573436794
H  H91  1  0.95000000  0.12580000  0.90720000  1.0 0.1492261632
H  H92  1  0.06900000  0.06830000  0.85220000  1.0 0.1391647836
H  H93  1  0.06560000  0.10910000  0.76830000  1.0 0.1492261632
H  H94  1  0.76450000  0.26160000  0.71380000  1.0 0.1391647836
H  H95  1  0.08280000  0.19480000  0.69860000  1.0 0.1492261632
H  H96  1  0.00390000  0.26270000  0.62250000  1.0 0.1492261632
H  H97  1  0.69790000  0.31440000  0.62570000  1.0 0.1391647836
H  H98  1  0.76940000  0.29080000  0.58070000  1.0 0.1391647836
H  H99  1  0.69920000  0.42640000  0.55180000  1.0 0.1207839584
H  H100  1  0.74280000  0.56470000  0.55300000  1.0 0.1207839584
H  H101  1  0.98940000  0.57590000  0.68780000  1.0 0.1207839584
H  H102  1  0.94200000  0.43790000  0.68960000  1.0 0.1207839584
H  H103  1  0.96050000  0.70420000  0.65390000  1.0 0.1391647836
H  H104  1  0.94630000  0.68520000  0.59080000  1.0 0.1325984277
H  H105  1  0.15160000  0.50940000  0.57480000  1.0 0.1207839584
H  H106  1  0.84840000  0.49060000  0.42520000  1.0 0.1207839584
H  H107  1  0.89760000  0.37380000  0.45940000  1.0 0.1207839584
H  H108  1  0.10240000  0.62620000  0.54060000  1.0 0.1207839584
C  C1  1  0.29470000  0.89220000  0.93970000  1.0 0.5265467046
C  C2  1  0.70530000  0.10780000  0.06030000  1.0 0.5265467046
C  C3  1  0.40340000  0.94850000  0.96980000  1.0 -0.0024034076
C  C4  1  0.59660000  0.05150000  0.03020000  1.0 -0.0024034076
C  C5  1  0.41160000  0.03690000  0.96790000  1.0 -0.0707036654
C  C6  1  0.58840000  0.96310000  0.03210000  1.0 -0.0707036654
C  C7  1  0.49060000  0.91210000  0.00160000  1.0 -0.1368098976
C  C8  1  0.50940000  0.08790000  0.99840000  1.0 -0.1368098976
C  C9  1  0.18110000  0.68590000  0.78580000  1.0 0.5874904273
C  C10  1  0.81890000  0.31410000  0.21420000  1.0 0.5874904273
C  C11  1  0.18600000  0.58790000  0.77830000  1.0 -0.0185091896
C  C12  1  0.81400000  0.41210000  0.22170000  1.0 -0.0185091896
C  C13  1  0.24230000  0.54640000  0.73950000  1.0 -0.0891571196
C  C14  1  0.75770000  0.45360000  0.26050000  1.0 -0.0891571196
C  C15  1  0.14250000  0.54450000  0.81390000  1.0 -0.1017161314
C  C16  1  0.85750000  0.45550000  0.18610000  1.0 -0.1017161314
C  C17  1  0.04060000  0.65340000  0.95570000  1.0 0.5512184876
C  C18  1  0.95940000  0.34660000  0.04430000  1.0 0.5512184876
C  C19  1  0.02050000  0.57470000  0.97930000  1.0 0.0033284022
C  C20  1  0.97950000  0.42530000  0.02070000  1.0 0.0051369457
C  C21  1  0.05960000  0.49750000  0.95780000  1.0 -0.0819855424
C  C22  1  0.94040000  0.50250000  0.04220000  1.0 -0.0819855424
C  C23  1  0.95950000  0.57460000  0.02140000  1.0 -0.1197678019
C  C24  1  0.04050000  0.42540000  0.97860000  1.0 -0.1197678019
C  C25  1  0.83190000  0.91320000  0.91100000  1.0 0.571061152
C  C26  1  0.16810000  0.08680000  0.08900000  1.0 0.571061152
C  C27  1  0.75290000  0.95850000  0.87240000  1.0 -0.0280163547
C  C28  1  0.24710000  0.04150000  0.12760000  1.0 -0.0280163547
C  C29  1  0.76750000  0.95470000  0.81940000  1.0 -0.1318850326
C  C30  1  0.23250000  0.04530000  0.18060000  1.0 -0.1318850326
C  C31  1  0.70190000  0.00050000  0.78430000  1.0 -0.1017161314
C  C32  1  0.29810000  0.99950000  0.21570000  1.0 -0.1017161314
C  C33  1  0.61690000  0.04980000  0.80160000  1.0 -0.0185091896
C  C34  1  0.38310000  0.95020000  0.19840000  1.0 -0.0185091896
C  C35  1  0.59740000  0.05110000  0.85400000  1.0 -0.1197678019
C  C36  1  0.40260000  0.94890000  0.14600000  1.0 -0.1197678019
C  C37  1  0.66540000  0.00610000  0.88980000  1.0 -0.0891571196
C  C38  1  0.33460000  0.99390000  0.11020000  1.0 -0.1017161314
C  C39  1  0.54710000  0.09960000  0.76340000  1.0 0.5569506166
C  C40  1  0.45290000  0.90040000  0.23660000  1.0 0.5569506166
C  C41  1  0.85820000  0.67370000  0.79290000  1.0 0.571061152
C  C42  1  0.14180000  0.32630000  0.20710000  1.0 0.571061152
C  C43  1  0.78360000  0.59000000  0.77200000  1.0 -0.0185091896
C  C44  1  0.21640000  0.41000000  0.22800000  1.0 -0.0185091896
C  C45  1  0.68460000  0.58510000  0.73030000  1.0 -0.1318850326
C  C46  1  0.31540000  0.41490000  0.26970000  1.0 -0.1318850326
C  C47  1  0.61580000  0.50790000  0.71160000  1.0 -0.0819855424
C  C48  1  0.38420000  0.49210000  0.28840000  1.0 -0.0819855424
C  C49  1  0.64250000  0.43500000  0.73370000  1.0 -0.0185091896
C  C50  1  0.35750000  0.56500000  0.26630000  1.0 -0.0085894941
C  C51  1  0.74340000  0.44170000  0.77510000  1.0 -0.1197678019
C  C52  1  0.25660000  0.55830000  0.22490000  1.0 -0.1197678019
C  C53  1  0.81260000  0.51810000  0.79440000  1.0 -0.0707036654
C  C54  1  0.18740000  0.48190000  0.20560000  1.0 -0.0707036654
C  C55  1  0.56440000  0.35420000  0.71590000  1.0 0.5512184876
C  C56  1  0.43560000  0.64580000  0.28410000  1.0 0.5512184876
C  C57  1  0.24130000  0.32300000  0.77680000  1.0 0.5960798738
C  C58  1  0.75870000  0.67700000  0.22320000  1.0 0.5960798738
C  C59  1  0.21790000  0.41470000  0.77310000  1.0 -0.0280163547
C  C60  1  0.78210000  0.58530000  0.22690000  1.0 -0.0280163547
C  C61  1  0.15270000  0.45750000  0.80980000  1.0 -0.0819855424
C  C62  1  0.84730000  0.54250000  0.19020000  1.0 -0.0819855424
C  C63  1  0.25850000  0.45810000  0.73690000  1.0 -0.0891571196
C  C64  1  0.74150000  0.54190000  0.26310000  1.0 -0.0891571196
C  C65  1  0.44890000  0.10340000  0.59450000  1.0 0.5512184876
C  C66  1  0.55110000  0.89660000  0.40550000  1.0 0.5512184876
C  C67  1  0.47630000  0.05040000  0.54510000  1.0 -0.0085894941
C  C68  1  0.52370000  0.94960000  0.45490000  1.0 -0.0085894941
C  C69  1  0.57240000  0.07430000  0.52530000  1.0 -0.1368098976
C  C70  1  0.42760000  0.92570000  0.47470000  1.0 -0.1368098976
C  C71  1  0.40220000  0.97570000  0.51960000  1.0 -0.1017161314
C  C72  1  0.59780000  0.02430000  0.48040000  1.0 -0.1017161314
C  C73  1  0.25360000  0.24410000  0.34810000  1.0 0.0620654691
C  C74  1  0.25010000  0.23990000  0.43330000  1.0 -0.0707036654
C  C75  1  0.34270000  0.19870000  0.42210000  1.0 -0.0819855424
C  C76  1  0.42780000  0.16970000  0.33750000  1.0 0.3430853961
C  C77  1  0.51030000  0.11540000  0.35690000  1.0 -0.2316368939
C  C78  1  0.58600000  0.08650000  0.32470000  1.0 0.0225235158
C  C79  1  0.58230000  0.11280000  0.27500000  1.0 -0.2316368939
C  C80  1  0.50030000  0.16860000  0.26110000  1.0 0.3494403042
C  C81  1  0.39110000  0.23210000  0.18610000  1.0 0.0873296288
C  C82  1  0.57040000  0.19790000  0.17600000  1.0 -0.0482344563
C  C83  1  0.52230000  0.23360000  0.13370000  1.0 -0.0707036654
C  C84  1  0.32860000  0.29710000  0.10400000  1.0 -0.1616668028
C  C85  1  0.37210000  0.39210000  0.10800000  1.0 0.1026151009
C  C86  1  0.32540000  0.43200000  0.06500000  1.0 -0.1504929572
C  C87  1  0.35940000  0.51850000  0.06630000  1.0 -0.1616668028
C  C88  1  0.43610000  0.56500000  0.11080000  1.0 0.1026151009
C  C89  1  0.48370000  0.52560000  0.15300000  1.0 -0.1318850326
C  C90  1  0.45090000  0.43790000  0.15150000  1.0 -0.1368098976
C  C91  1  0.47470000  0.65980000  0.11160000  1.0 -0.1504929572
C  C92  1  0.30900000  0.73090000  0.14120000  1.0 0.0830421326
C  C93  1  0.31900000  0.73590000  0.05570000  1.0 -0.0819855424
C  C94  1  0.22420000  0.77320000  0.06490000  1.0 -0.061116494
C  C95  1  0.13310000  0.80590000  0.14780000  1.0 0.3494403042
C  C96  1  0.05280000  0.86130000  0.12720000  1.0 -0.2354737045
C  C97  1  0.98130000  0.89400000  0.15930000  1.0 -0.0024034076
C  C98  1  0.98410000  0.87070000  0.20950000  1.0 -0.2174717309
C  C99  1  0.06500000  0.81560000  0.22550000  1.0 0.3494403042
C  C100  1  0.16710000  0.74600000  0.29910000  1.0 0.0620654691
C  C101  1  0.98930000  0.78360000  0.30750000  1.0 -0.061116494
C  C102  1  0.03350000  0.74590000  0.34970000  1.0 -0.0707036654
C  C103  1  0.22440000  0.68100000  0.38240000  1.0 -0.1504929572
C  C104  1  0.18540000  0.58800000  0.37990000  1.0 0.1207839584
C  C105  1  0.24250000  0.54510000  0.42000000  1.0 -0.1504929572
C  C106  1  0.21520000  0.45910000  0.41950000  1.0 -0.1616668028
C  C107  1  0.12910000  0.41170000  0.37950000  1.0 0.1106420106
C  C108  1  0.07040000  0.45300000  0.33960000  1.0 -0.1318850326
C  C109  1  0.09830000  0.53920000  0.33870000  1.0 -0.1197678019
C  C110  1  0.09420000  0.31840000  0.37990000  1.0 -0.1504929572
C  C111  1  0.74640000  0.75590000  0.65190000  1.0 0.0620654691
C  C112  1  0.74990000  0.76010000  0.56670000  1.0 -0.0707036654
C  C113  1  0.65730000  0.80130000  0.57790000  1.0 -0.0819855424
C  C114  1  0.57220000  0.83030000  0.66250000  1.0 0.3430853961
C  C115  1  0.48970000  0.88460000  0.64310000  1.0 -0.2316368939
C  C116  1  0.41400000  0.91350000  0.67530000  1.0 0.0225235158
C  C117  1  0.41770000  0.88720000  0.72500000  1.0 -0.2316368939
C  C118  1  0.49970000  0.83140000  0.73890000  1.0 0.3494403042
C  C119  1  0.60890000  0.76790000  0.81390000  1.0 0.0873296288
C  C120  1  0.42960000  0.80210000  0.82400000  1.0 -0.0482344563
C  C121  1  0.47770000  0.76640000  0.86630000  1.0 -0.0707036654
C  C122  1  0.67140000  0.70290000  0.89600000  1.0 -0.1616668028
C  C123  1  0.62790000  0.60790000  0.89200000  1.0 0.1026151009
C  C124  1  0.67460000  0.56800000  0.93500000  1.0 -0.1504929572
C  C125  1  0.64060000  0.48150000  0.93370000  1.0 -0.1616668028
C  C126  1  0.56390000  0.43500000  0.88920000  1.0 0.1026151009
C  C127  1  0.51630000  0.47440000  0.84700000  1.0 -0.1318850326
C  C128  1  0.54910000  0.56210000  0.84850000  1.0 -0.1368098976
C  C129  1  0.52530000  0.34020000  0.88840000  1.0 -0.1504929572
C  C130  1  0.69100000  0.26910000  0.85880000  1.0 0.0830421326
C  C131  1  0.68100000  0.26410000  0.94430000  1.0 -0.0819855424
C  C132  1  0.77580000  0.22680000  0.93510000  1.0 -0.061116494
C  C133  1  0.86690000  0.19410000  0.85220000  1.0 0.3494403042
C  C134  1  0.94720000  0.13870000  0.87280000  1.0 -0.2354737045
C  C135  1  0.01870000  0.10600000  0.84070000  1.0 -0.0024034076
C  C136  1  0.01590000  0.12930000  0.79050000  1.0 -0.2174717309
C  C137  1  0.93500000  0.18440000  0.77450000  1.0 0.3494403042
C  C138  1  0.83290000  0.25400000  0.70090000  1.0 0.0620654691
C  C139  1  0.01070000  0.21640000  0.69250000  1.0 -0.061116494
C  C140  1  0.96650000  0.25410000  0.65030000  1.0 -0.0707036654
C  C141  1  0.77560000  0.31900000  0.61760000  1.0 -0.1504929572
C  C142  1  0.81460000  0.41200000  0.62010000  1.0 0.1207839584
C  C143  1  0.75750000  0.45490000  0.58000000  1.0 -0.1504929572
C  C144  1  0.78480000  0.54090000  0.58050000  1.0 -0.1616668028
C  C145  1  0.87090000  0.58830000  0.62050000  1.0 0.1106420106
C  C146  1  0.92960000  0.54700000  0.66040000  1.0 -0.1318850326
C  C147  1  0.90170000  0.46080000  0.66130000  1.0 -0.1197678019
C  C148  1  0.90580000  0.68160000  0.62010000  1.0 -0.1504929572
C  C149  1  0.06960000  0.34470000  0.54020000  1.0 0.5265467046
C  C150  1  0.93040000  0.65530000  0.45980000  1.0 0.5265467046
C  C151  1  0.03280000  0.42530000  0.52000000  1.0 -0.0085894941
C  C152  1  0.96720000  0.57470000  0.48000000  1.0 -0.0085894941
C  C153  1  0.09090000  0.50490000  0.54430000  1.0 -0.061116494
C  C154  1  0.90910000  0.49510000  0.45570000  1.0 -0.061116494
C  C155  1  0.94020000  0.42290000  0.47600000  1.0 -0.1318850326
C  C156  1  0.05980000  0.57710000  0.52400000  1.0 -0.1318850326
N  N1  1  0.19710000  0.26790000  0.38640000  1.0 0.0620654691
N  N2  1  0.34660000  0.20300000  0.36830000  1.0 -0.0280163547
N  N3  1  0.42370000  0.19730000  0.29020000  1.0 -0.4052839103
N  N4  1  0.48580000  0.19730000  0.20960000  1.0 -0.0280163547
N  N5  1  0.41050000  0.25490000  0.14060000  1.0 0.0516802082
N  N6  1  0.37030000  0.70890000  0.10320000  1.0 0.0620654691
N  N7  1  0.21710000  0.77000000  0.11840000  1.0 -0.0185091896
N  N8  1  0.13750000  0.78040000  0.19580000  1.0 -0.3931863131
N  N9  1  0.07260000  0.78320000  0.27560000  1.0 -0.0185091896
N  N10  1  0.14280000  0.72270000  0.34440000  1.0 0.0516802082
N  N11  1  0.80290000  0.73210000  0.61360000  1.0 0.0620654691
N  N12  1  0.65340000  0.79700000  0.63170000  1.0 -0.0280163547
N  N13  1  0.57630000  0.80270000  0.70980000  1.0 -0.4052839103
N  N14  1  0.51420000  0.80270000  0.79040000  1.0 -0.0280163547
N  N15  1  0.58950000  0.74510000  0.85940000  1.0 0.0516802082
N  N16  1  0.62970000  0.29110000  0.89680000  1.0 0.0620654691
N  N17  1  0.78290000  0.23000000  0.88160000  1.0 -0.0185091896
N  N18  1  0.86250000  0.21960000  0.80420000  1.0 -0.3931863131
N  N19  1  0.92740000  0.21680000  0.72440000  1.0 -0.0185091896
N  N20  1  0.85720000  0.27730000  0.65560000  1.0 0.0516802082
O  O1  1  0.07370000  0.89740000  0.98680000  1.0 -0.0024034076
O  O2  1  0.92630000  0.10260000  0.01320000  1.0 0.0033284022
O  O3  1  0.21900000  0.91920000  0.90370000  1.0 -0.5979689481
O  O4  1  0.78100000  0.08080000  0.09630000  1.0 -0.5979689481
O  O5  1  0.02800000  0.84700000  0.80330000  1.0 -0.1062653298
O  O6  1  0.97200000  0.15300000  0.19670000  1.0 -0.1062653298
O  O7  1  0.27530000  0.81730000  0.95070000  1.0 -0.6908008876
O  O8  1  0.72470000  0.18270000  0.04930000  1.0 -0.6908008876
O  O9  1  0.18750000  0.72450000  0.83600000  1.0 -0.6908008876
O  O10  1  0.81250000  0.27550000  0.16400000  1.0 -0.6908008876
O  O11  1  0.23730000  0.08840000  0.70230000  1.0 -0.3701692345
O  O12  1  0.76270000  0.91160000  0.29770000  1.0 -0.3701692345
O  O13  1  0.24000000  0.22080000  0.62050000  1.0 -0.1504929572
O  O14  1  0.76000000  0.77920000  0.37950000  1.0 -0.1504929572
O  O15  1  0.16980000  0.72440000  0.74570000  1.0 -0.576152317
O  O16  1  0.83020000  0.27560000  0.25430000  1.0 -0.5687344195
O  O17  1  0.97790000  0.71540000  0.96190000  1.0 -0.6506481292
O  O18  1  0.02210000  0.28460000  0.03810000  1.0 -0.6506481292
O  O19  1  0.12370000  0.65790000  0.92980000  1.0 -0.6193287196
O  O20  1  0.87630000  0.34210000  0.07020000  1.0 -0.6193287196
O  O21  1  0.88530000  0.85430000  0.89000000  1.0 -0.6769709112
O  O22  1  0.11470000  0.14570000  0.11000000  1.0 -0.6769709112
O  O23  1  0.84120000  0.93800000  0.96180000  1.0 -0.4585937383
O  O24  1  0.15880000  0.06200000  0.03820000  1.0 -0.4585937383
O  O25  1  0.56330000  0.09670000  0.71570000  1.0 -0.6055787327
O  O26  1  0.43670000  0.90330000  0.28430000  1.0 -0.6055787327
O  O27  1  0.47120000  0.14620000  0.78060000  1.0 -0.6364607336
O  O28  1  0.52880000  0.85380000  0.21940000  1.0 -0.6364607336
O  O29  1  0.93690000  0.68020000  0.83640000  1.0 -0.6506481292
O  O30  1  0.06310000  0.31980000  0.16360000  1.0 -0.6506481292
O  O31  1  0.83980000  0.73540000  0.76660000  1.0 -0.5472422959
O  O32  1  0.16020000  0.26460000  0.23340000  1.0 -0.5472422959
O  O33  1  0.59100000  0.28960000  0.73920000  1.0 -0.6908008876
O  O34  1  0.40900000  0.71040000  0.26080000  1.0 -0.6908008876
O  O35  1  0.47330000  0.34690000  0.67860000  1.0 -0.5687344195
O  O36  1  0.52670000  0.65310000  0.32140000  1.0 -0.5687344195
O  O37  1  0.30600000  0.28890000  0.74660000  1.0 -0.6769709112
O  O38  1  0.69400000  0.71110000  0.25340000  1.0 -0.6769709112
O  O39  1  0.20290000  0.28980000  0.81180000  1.0 -0.5885095718
O  O40  1  0.79710000  0.71020000  0.18820000  1.0 -0.5885095718
O  O41  1  0.50570000  0.17590000  0.61450000  1.0 -0.6506481292
O  O42  1  0.49430000  0.82410000  0.38550000  1.0 -0.6506481292
O  O43  1  0.36990000  0.07400000  0.61610000  1.0 -0.576152317
O  O44  1  0.63010000  0.92600000  0.38390000  1.0 -0.576152317
O  O45  1  0.01380000  0.27330000  0.51690000  1.0 -0.6193287196
O  O46  1  0.98620000  0.72670000  0.48310000  1.0 -0.6193287196
O  O47  1  0.15600000  0.35290000  0.57960000  1.0 -0.4973597946
O  O48  1  0.84400000  0.64710000  0.42040000  1.0 -0.4973597946
