# DDEC6 charges by PACMAN v1.1 (https://github.com/mtap-research/PACMAN-charge/)
data_ZEGSUB_FSR_pacman
_symmetry_space_group_name_H-M   'P 1'
_cell_length_a   22.06110000
_cell_length_b   22.06110000
_cell_length_c   22.06110000
_cell_angle_alpha   97.41880000
_cell_angle_beta   97.41880000
_cell_angle_gamma   137.88100000
_symmetry_Int_Tables_number   1
_chemical_formula_structural   Ca6H56C49O23
_chemical_formula_sum   'Ca24 H224 C196 O92'
_cell_volume   6720.03533752
_cell_formula_units_Z   4
loop_
 _symmetry_equiv_pos_site_id
 _symmetry_equiv_pos_as_xyz
  1  'x, y, z'
loop_
 _atom_site_type_symbol
 _atom_site_label
 _atom_site_symmetry_multiplicity
 _atom_site_fract_x
 _atom_site_fract_y
 _atom_site_fract_z
 _atom_site_occupancy
 _atom_site_charge
Ca  Ca1  1  0.20030000  0.87816000  0.67786000  1.0 1.3088546498
Ca  Ca2  1  0.77244000  0.95030000  0.82214000  1.0 1.3088546498
Ca  Ca3  1  0.20030000  0.52244000  0.32214000  1.0 1.3088546498
Ca  Ca4  1  0.12816000  0.95030000  0.17786000  1.0 1.3088546498
Ca  Ca5  1  0.04970000  0.87184000  0.82214000  1.0 1.3088546498
Ca  Ca6  1  0.47756000  0.79970000  0.67786000  1.0 1.3088546498
Ca  Ca7  1  0.04970000  0.22756000  0.17786000  1.0 1.3088546498
Ca  Ca8  1  0.12184000  0.79970000  0.32214000  1.0 1.3088546498
Ca  Ca9  1  0.99530000  0.70902000  0.71372000  1.0 1.2965324368
Ca  Ca10  1  0.53158000  0.74530000  0.78628000  1.0 1.2947578532
Ca  Ca11  1  0.99530000  0.28158000  0.28628000  1.0 1.2965324368
Ca  Ca12  1  0.95902000  0.74530000  0.21372000  1.0 1.2965324368
Ca  Ca13  1  0.25470000  0.04098000  0.78628000  1.0 1.2965324368
Ca  Ca14  1  0.71842000  0.00470000  0.71372000  1.0 1.2965324368
Ca  Ca15  1  0.25470000  0.46842000  0.21372000  1.0 1.2965324368
Ca  Ca16  1  0.29098000  0.00470000  0.28628000  1.0 1.2965324368
Ca  Ca17  1  0.31130000  0.81130000  0.62260000  1.0 1.3474090947
Ca  Ca18  1  0.93870000  0.06130000  0.00000000  1.0 1.3474090947
Ca  Ca19  1  0.18870000  0.68870000  0.37740000  1.0 1.3474090947
Ca  Ca20  1  0.06130000  0.93870000  0.00000000  1.0 1.3474090947
Ca  Ca21  1  0.93870000  0.93870000  0.87740000  1.0 1.3474090947
Ca  Ca22  1  0.31130000  0.68870000  0.50000000  1.0 1.3474090947
Ca  Ca23  1  0.06130000  0.06130000  0.12260000  1.0 1.3474090947
Ca  Ca24  1  0.18870000  0.81130000  0.50000000  1.0 1.3474090947
H  H1  1  0.33710000  0.78840000  0.76410000  1.0 0.1098010622
H  H2  1  0.82300000  0.08710000  0.04870000  1.0 0.1098010622
H  H3  1  0.02430000  0.57300000  0.23590000  1.0 0.1098010622
H  H4  1  0.03840000  0.77430000  0.95130000  1.0 0.1098010622
H  H5  1  0.22570000  0.96160000  0.04870000  1.0 0.1098010622
H  H6  1  0.42700000  0.97570000  0.76410000  1.0 0.1098010622
H  H7  1  0.91290000  0.17700000  0.95130000  1.0 0.1098010622
H  H8  1  0.21160000  0.66290000  0.23590000  1.0 0.1098010622
H  H9  1  0.91290000  0.96160000  0.73590000  1.0 0.1098010622
H  H10  1  0.42700000  0.66290000  0.45130000  1.0 0.1098010622
H  H11  1  0.22570000  0.17700000  0.26410000  1.0 0.1098010622
H  H12  1  0.21160000  0.97570000  0.54870000  1.0 0.1098010622
H  H13  1  0.02430000  0.78840000  0.45130000  1.0 0.1098010622
H  H14  1  0.82300000  0.77430000  0.73590000  1.0 0.1098010622
H  H15  1  0.33710000  0.57300000  0.54870000  1.0 0.1098010622
H  H16  1  0.03840000  0.08710000  0.26410000  1.0 0.1098010622
H  H17  1  0.25592000  0.68536000  0.71148000  1.0 0.1183091607
H  H18  1  0.79444000  0.00592000  0.07056000  1.0 0.1183091607
H  H19  1  0.97388000  0.54444000  0.28852000  1.0 0.1183091607
H  H20  1  0.93536000  0.72388000  0.92944000  1.0 0.1183091607
H  H21  1  0.27612000  0.06464000  0.07056000  1.0 0.1183091607
H  H22  1  0.45556000  0.02612000  0.71148000  1.0 0.1183091607
H  H23  1  0.99408000  0.20556000  0.92944000  1.0 0.1183091607
H  H24  1  0.31464000  0.74408000  0.28852000  1.0 0.1183091607
H  H25  1  0.99408000  0.06464000  0.78852000  1.0 0.1183091607
H  H26  1  0.45556000  0.74408000  0.42944000  1.0 0.1183091607
H  H27  1  0.27612000  0.20556000  0.21148000  1.0 0.1183091607
H  H28  1  0.31464000  0.02612000  0.57056000  1.0 0.1183091607
H  H29  1  0.97388000  0.68536000  0.42944000  1.0 0.1183091607
H  H30  1  0.79444000  0.72388000  0.78852000  1.0 0.1183091607
H  H31  1  0.25592000  0.54444000  0.57056000  1.0 0.1183091607
H  H32  1  0.93536000  0.00592000  0.21148000  1.0 0.1183091607
H  H33  1  0.20863000  0.55352000  0.81615000  1.0 0.1098010622
H  H34  1  0.64248000  0.95863000  0.15511000  1.0 0.1098010622
H  H35  1  0.73737000  0.39248000  0.18385000  1.0 0.1098010622
H  H36  1  0.80352000  0.48737000  0.84489000  1.0 0.1098010622
H  H37  1  0.51263000  0.19648000  0.15511000  1.0 0.1098010622
H  H38  1  0.60752000  0.26263000  0.81615000  1.0 0.1098010622
H  H39  1  0.04137000  0.35752000  0.84489000  1.0 0.1098010622
H  H40  1  0.44648000  0.79137000  0.18385000  1.0 0.1098010622
H  H41  1  0.04137000  0.19648000  0.68385000  1.0 0.1098010622
H  H42  1  0.60752000  0.79137000  0.34489000  1.0 0.1098010622
H  H43  1  0.51263000  0.35752000  0.31615000  1.0 0.1098010622
H  H44  1  0.44648000  0.26263000  0.65511000  1.0 0.1098010622
H  H45  1  0.73737000  0.55352000  0.34489000  1.0 0.1098010622
H  H46  1  0.64248000  0.48737000  0.68385000  1.0 0.1098010622
H  H47  1  0.20863000  0.39248000  0.65511000  1.0 0.1098010622
H  H48  1  0.80352000  0.95863000  0.31615000  1.0 0.1098010622
H  H49  1  0.17680000  0.54107000  0.74307000  1.0 0.1098010622
H  H50  1  0.68373000  0.92680000  0.13573000  1.0 0.1098010622
H  H51  1  0.79800000  0.43373000  0.25693000  1.0 0.1098010622
H  H52  1  0.79107000  0.54800000  0.86427000  1.0 0.1098010622
H  H53  1  0.45200000  0.20893000  0.13573000  1.0 0.1098010622
H  H54  1  0.56627000  0.20200000  0.74307000  1.0 0.1098010622
H  H55  1  0.07320000  0.31627000  0.86427000  1.0 0.1098010622
H  H56  1  0.45893000  0.82320000  0.25693000  1.0 0.1098010622
H  H57  1  0.07320000  0.20893000  0.75693000  1.0 0.1098010622
H  H58  1  0.56627000  0.82320000  0.36427000  1.0 0.1098010622
H  H59  1  0.45200000  0.31627000  0.24307000  1.0 0.1098010622
H  H60  1  0.45893000  0.20200000  0.63573000  1.0 0.1098010622
H  H61  1  0.79800000  0.54107000  0.36427000  1.0 0.1098010622
H  H62  1  0.68373000  0.54800000  0.75693000  1.0 0.1098010622
H  H63  1  0.17680000  0.43373000  0.63573000  1.0 0.1098010622
H  H64  1  0.79107000  0.92680000  0.24307000  1.0 0.1098010622
H  H65  1  0.06342000  0.49742000  0.79000000  1.0 0.0863951156
H  H66  1  0.52342000  0.81342000  0.06600000  1.0 0.0863951156
H  H67  1  0.70742000  0.27342000  0.21000000  1.0 0.0863951156
H  H68  1  0.74742000  0.45742000  0.93400000  1.0 0.0863951156
H  H69  1  0.54258000  0.25258000  0.06600000  1.0 0.0863951156
H  H70  1  0.72658000  0.29258000  0.79000000  1.0 0.0863951156
H  H71  1  0.18658000  0.47658000  0.93400000  1.0 0.0863951156
H  H72  1  0.50258000  0.93658000  0.21000000  1.0 0.0863951156
H  H73  1  0.18658000  0.25258000  0.71000000  1.0 0.0863951156
H  H74  1  0.72658000  0.93658000  0.43400000  1.0 0.0863951156
H  H75  1  0.54258000  0.47658000  0.29000000  1.0 0.0863951156
H  H76  1  0.50258000  0.29258000  0.56600000  1.0 0.0863951156
H  H77  1  0.70742000  0.49742000  0.43400000  1.0 0.0863951156
H  H78  1  0.52342000  0.45742000  0.71000000  1.0 0.0863951156
H  H79  1  0.06342000  0.27342000  0.56600000  1.0 0.0863951156
H  H80  1  0.74742000  0.81342000  0.29000000  1.0 0.0863951156
H  H81  1  0.08437000  0.56510000  0.70787000  1.0 0.1098010622
H  H82  1  0.62650000  0.83437000  0.01927000  1.0 0.1098010622
H  H83  1  0.85723000  0.37650000  0.29213000  1.0 0.1098010622
H  H84  1  0.81510000  0.60723000  0.98073000  1.0 0.1098010622
H  H85  1  0.39277000  0.18490000  0.01927000  1.0 0.1098010622
H  H86  1  0.62350000  0.14277000  0.70787000  1.0 0.1098010622
H  H87  1  0.16563000  0.37350000  0.98073000  1.0 0.1098010622
H  H88  1  0.43490000  0.91563000  0.29213000  1.0 0.1098010622
H  H89  1  0.16563000  0.18490000  0.79213000  1.0 0.1098010622
H  H90  1  0.62350000  0.91563000  0.48073000  1.0 0.1098010622
H  H91  1  0.39277000  0.37350000  0.20787000  1.0 0.1098010622
H  H92  1  0.43490000  0.14277000  0.51927000  1.0 0.1098010622
H  H93  1  0.85723000  0.56510000  0.48073000  1.0 0.1098010622
H  H94  1  0.62650000  0.60723000  0.79213000  1.0 0.1098010622
H  H95  1  0.08437000  0.37650000  0.51927000  1.0 0.1098010622
H  H96  1  0.81510000  0.83437000  0.20787000  1.0 0.1098010622
H  H97  1  0.05848000  0.59270000  0.75878000  1.0 0.1098010622
H  H98  1  0.54970000  0.80848000  0.96578000  1.0 0.1098010622
H  H99  1  0.83392000  0.29970000  0.24122000  1.0 0.1098010622
H  H100  1  0.84270000  0.58392000  0.03422000  1.0 0.1098010622
H  H101  1  0.41608000  0.15730000  0.96578000  1.0 0.1098010622
H  H102  1  0.70030000  0.16608000  0.75878000  1.0 0.1098010622
H  H103  1  0.19152000  0.45030000  0.03422000  1.0 0.1098010622
H  H104  1  0.40730000  0.94152000  0.24122000  1.0 0.1098010622
H  H105  1  0.19152000  0.15730000  0.74122000  1.0 0.1098010622
H  H106  1  0.70030000  0.94152000  0.53422000  1.0 0.1098010622
H  H107  1  0.41608000  0.45030000  0.25878000  1.0 0.1098010622
H  H108  1  0.40730000  0.16608000  0.46578000  1.0 0.1098010622
H  H109  1  0.83392000  0.59270000  0.53422000  1.0 0.1098010622
H  H110  1  0.54970000  0.58392000  0.74122000  1.0 0.1098010622
H  H111  1  0.05848000  0.29970000  0.46578000  1.0 0.1098010622
H  H112  1  0.84270000  0.80848000  0.25878000  1.0 0.1098010622
H  H113  1  0.18990000  0.75902000  0.84492000  1.0 0.1183091607
H  H114  1  0.59498000  0.93990000  0.93088000  1.0 0.1183091607
H  H115  1  0.91410000  0.34498000  0.15508000  1.0 0.1183091607
H  H116  1  0.00902000  0.66410000  0.06912000  1.0 0.1183091607
H  H117  1  0.33590000  0.99098000  0.93088000  1.0 0.1183091607
H  H118  1  0.65502000  0.08590000  0.84492000  1.0 0.1183091607
H  H119  1  0.06010000  0.40502000  0.06912000  1.0 0.1183091607
H  H120  1  0.24098000  0.81010000  0.15508000  1.0 0.1183091607
H  H121  1  0.06010000  0.99098000  0.65508000  1.0 0.1183091607
H  H122  1  0.65502000  0.81010000  0.56912000  1.0 0.1183091607
H  H123  1  0.33590000  0.40502000  0.34492000  1.0 0.1183091607
H  H124  1  0.24098000  0.08590000  0.43088000  1.0 0.1183091607
H  H125  1  0.91410000  0.75902000  0.56912000  1.0 0.1183091607
H  H126  1  0.59498000  0.66410000  0.65508000  1.0 0.1183091607
H  H127  1  0.18990000  0.34498000  0.43088000  1.0 0.1183091607
H  H128  1  0.00902000  0.93990000  0.34492000  1.0 0.1183091607
H  H129  1  0.29680000  0.83377000  0.84677000  1.0 0.1098010622
H  H130  1  0.70003000  0.04680000  0.96303000  1.0 0.1098010622
H  H131  1  0.98700000  0.45003000  0.15323000  1.0 0.1098010622
H  H132  1  0.08377000  0.73700000  0.03697000  1.0 0.1098010622
H  H133  1  0.26300000  0.91623000  0.96303000  1.0 0.1098010622
H  H134  1  0.54997000  0.01300000  0.84677000  1.0 0.1098010622
H  H135  1  0.95320000  0.29997000  0.03697000  1.0 0.1098010622
H  H136  1  0.16623000  0.70320000  0.15323000  1.0 0.1098010622
H  H137  1  0.95320000  0.91623000  0.65323000  1.0 0.1098010622
H  H138  1  0.54997000  0.70320000  0.53697000  1.0 0.1098010622
H  H139  1  0.26300000  0.29997000  0.34677000  1.0 0.1098010622
H  H140  1  0.16623000  0.01300000  0.46303000  1.0 0.1098010622
H  H141  1  0.98700000  0.83377000  0.53697000  1.0 0.1098010622
H  H142  1  0.70003000  0.73700000  0.65323000  1.0 0.1098010622
H  H143  1  0.29680000  0.45003000  0.46303000  1.0 0.1098010622
H  H144  1  0.08377000  0.04680000  0.34677000  1.0 0.1098010622
H  H145  1  0.38920000  0.80980000  0.88220000  1.0 0.1098010622
H  H146  1  0.75700000  0.13920000  0.07940000  1.0 0.1098010622
H  H147  1  0.92760000  0.50700000  0.11780000  1.0 0.1098010622
H  H148  1  0.05980000  0.67760000  0.92060000  1.0 0.1098010622
H  H149  1  0.32240000  0.94020000  0.07940000  1.0 0.1098010622
H  H150  1  0.49300000  0.07240000  0.88220000  1.0 0.1098010622
H  H151  1  0.86080000  0.24300000  0.92060000  1.0 0.1098010622
H  H152  1  0.19020000  0.61080000  0.11780000  1.0 0.1098010622
H  H153  1  0.86080000  0.94020000  0.61780000  1.0 0.1098010622
H  H154  1  0.49300000  0.61080000  0.42060000  1.0 0.1098010622
H  H155  1  0.32240000  0.24300000  0.38220000  1.0 0.1098010622
H  H156  1  0.19020000  0.07240000  0.57940000  1.0 0.1098010622
H  H157  1  0.92760000  0.80980000  0.42060000  1.0 0.1098010622
H  H158  1  0.75700000  0.67760000  0.61780000  1.0 0.1098010622
H  H159  1  0.38920000  0.50700000  0.57940000  1.0 0.1098010622
H  H160  1  0.05980000  0.13920000  0.38220000  1.0 0.1098010622
H  H161  1  0.33984000  0.71960000  0.90204000  1.0 0.1098010622
H  H162  1  0.68780000  0.08984000  0.12024000  1.0 0.1098010622
H  H163  1  0.81756000  0.43780000  0.09796000  1.0 0.1098010622
H  H164  1  0.96960000  0.56756000  0.87976000  1.0 0.1098010622
H  H165  1  0.43244000  0.03040000  0.12024000  1.0 0.1098010622
H  H166  1  0.56220000  0.18244000  0.90204000  1.0 0.1098010622
H  H167  1  0.91016000  0.31220000  0.87976000  1.0 0.1098010622
H  H168  1  0.28040000  0.66016000  0.09796000  1.0 0.1098010622
H  H169  1  0.91016000  0.03040000  0.59796000  1.0 0.1098010622
H  H170  1  0.56220000  0.66016000  0.37976000  1.0 0.1098010622
H  H171  1  0.43244000  0.31220000  0.40204000  1.0 0.1098010622
H  H172  1  0.28040000  0.18244000  0.62024000  1.0 0.1098010622
H  H173  1  0.81756000  0.71960000  0.37976000  1.0 0.1098010622
H  H174  1  0.68780000  0.56756000  0.59796000  1.0 0.1098010622
H  H175  1  0.33984000  0.43780000  0.62024000  1.0 0.1098010622
H  H176  1  0.96960000  0.08984000  0.40204000  1.0 0.1098010622
H  H177  1  0.11050000  0.61415000  0.87585000  1.0 0.1098010622
H  H178  1  0.48465000  0.86050000  0.99635000  1.0 0.1098010622
H  H179  1  0.73830000  0.23465000  0.12415000  1.0 0.1098010622
H  H180  1  0.86415000  0.48830000  0.00365000  1.0 0.1098010622
H  H181  1  0.51170000  0.13585000  0.99635000  1.0 0.1098010622
H  H182  1  0.76535000  0.26170000  0.87585000  1.0 0.1098010622
H  H183  1  0.13950000  0.51535000  0.00365000  1.0 0.1098010622
H  H184  1  0.38585000  0.88950000  0.12415000  1.0 0.1098010622
H  H185  1  0.13950000  0.13585000  0.62415000  1.0 0.1098010622
H  H186  1  0.76535000  0.88950000  0.50365000  1.0 0.1098010622
H  H187  1  0.51170000  0.51535000  0.37585000  1.0 0.1098010622
H  H188  1  0.38585000  0.26170000  0.49635000  1.0 0.1098010622
H  H189  1  0.73830000  0.61415000  0.50365000  1.0 0.1098010622
H  H190  1  0.48465000  0.48830000  0.62415000  1.0 0.1098010622
H  H191  1  0.11050000  0.23465000  0.49635000  1.0 0.1098010622
H  H192  1  0.86415000  0.86050000  0.37585000  1.0 0.1098010622
H  H193  1  0.16789000  0.59890000  0.89799000  1.0 0.1027387725
H  H194  1  0.51990000  0.91789000  0.06899000  1.0 0.1027387725
H  H195  1  0.70091000  0.26990000  0.10201000  1.0 0.1027387725
H  H196  1  0.84890000  0.45091000  0.93101000  1.0 0.1027387725
H  H197  1  0.54909000  0.15110000  0.06899000  1.0 0.1027387725
H  H198  1  0.73010000  0.29909000  0.89799000  1.0 0.1027387725
H  H199  1  0.08211000  0.48010000  0.93101000  1.0 0.1027387725
H  H200  1  0.40110000  0.83211000  0.10201000  1.0 0.1027387725
H  H201  1  0.08211000  0.15110000  0.60201000  1.0 0.1027387725
H  H202  1  0.73010000  0.83211000  0.43101000  1.0 0.1027387725
H  H203  1  0.54909000  0.48010000  0.39799000  1.0 0.1027387725
H  H204  1  0.40110000  0.29909000  0.56899000  1.0 0.1027387725
H  H205  1  0.70091000  0.59890000  0.43101000  1.0 0.1027387725
H  H206  1  0.51990000  0.45091000  0.60201000  1.0 0.1027387725
H  H207  1  0.16789000  0.26990000  0.56899000  1.0 0.1027387725
H  H208  1  0.84890000  0.91789000  0.39799000  1.0 0.1027387725
H  H209  1  0.27460000  0.76465000  0.92805000  1.0 0.0778038753
H  H210  1  0.59655000  0.02460000  0.00995000  1.0 0.0778038753
H  H211  1  0.83660000  0.34655000  0.07195000  1.0 0.0778038753
H  H212  1  0.01465000  0.58660000  0.99005000  1.0 0.0778038753
H  H213  1  0.41340000  0.98535000  0.00995000  1.0 0.0778038753
H  H214  1  0.65345000  0.16340000  0.92805000  1.0 0.0778038753
H  H215  1  0.97540000  0.40345000  0.99005000  1.0 0.0778038753
H  H216  1  0.23535000  0.72540000  0.07195000  1.0 0.0778038753
H  H217  1  0.97540000  0.98535000  0.57195000  1.0 0.0778038753
H  H218  1  0.65345000  0.72540000  0.49005000  1.0 0.0778038753
H  H219  1  0.41340000  0.40345000  0.42805000  1.0 0.0778038753
H  H220  1  0.23535000  0.16340000  0.50995000  1.0 0.0778038753
H  H221  1  0.83660000  0.76465000  0.49005000  1.0 0.0778038753
H  H222  1  0.59655000  0.58660000  0.57195000  1.0 0.0778038753
H  H223  1  0.27460000  0.34655000  0.50995000  1.0 0.0778038753
H  H224  1  0.01465000  0.02460000  0.42805000  1.0 0.0778038753
C  C1  1  0.20156000  0.70864000  0.76620000  1.0 0.0567138671
C  C2  1  0.68536000  0.95156000  0.99292000  1.0 0.0567138671
C  C3  1  0.94244000  0.43536000  0.23380000  1.0 0.0567138671
C  C4  1  0.95864000  0.69244000  0.00708000  1.0 0.0567138671
C  C5  1  0.30756000  0.04136000  0.99292000  1.0 0.0567138671
C  C6  1  0.56464000  0.05756000  0.76620000  1.0 0.0567138671
C  C7  1  0.04844000  0.31464000  0.00708000  1.0 0.0567138671
C  C8  1  0.29136000  0.79844000  0.23380000  1.0 0.0567138671
C  C9  1  0.04844000  0.04136000  0.73380000  1.0 0.0567138671
C  C10  1  0.56464000  0.79844000  0.50708000  1.0 0.0567138671
C  C11  1  0.30756000  0.31464000  0.26620000  1.0 0.0567138671
C  C12  1  0.29136000  0.05756000  0.49292000  1.0 0.0567138671
C  C13  1  0.94244000  0.70864000  0.50708000  1.0 0.0567138671
C  C14  1  0.68536000  0.69244000  0.73380000  1.0 0.0567138671
C  C15  1  0.20156000  0.43536000  0.49292000  1.0 0.0567138671
C  C16  1  0.95864000  0.95156000  0.26620000  1.0 0.0567138671
C  C17  1  0.27742000  0.72109000  0.75611000  1.0 -0.2703487035
C  C18  1  0.77131000  0.02742000  0.05633000  1.0 -0.2703487035
C  C19  1  0.96498000  0.52131000  0.24389000  1.0 -0.2703487035
C  C20  1  0.97109000  0.71498000  0.94367000  1.0 -0.2703487035
C  C21  1  0.28502000  0.02891000  0.05633000  1.0 -0.2703487035
C  C22  1  0.47869000  0.03502000  0.75611000  1.0 -0.2703487035
C  C23  1  0.97258000  0.22869000  0.94367000  1.0 -0.2703487035
C  C24  1  0.27891000  0.72258000  0.24389000  1.0 -0.2703487035
C  C25  1  0.97258000  0.02891000  0.74389000  1.0 -0.2703487035
C  C26  1  0.47869000  0.72258000  0.44367000  1.0 -0.2703487035
C  C27  1  0.28502000  0.22869000  0.25611000  1.0 -0.2703487035
C  C28  1  0.27891000  0.03502000  0.55633000  1.0 -0.2703487035
C  C29  1  0.96498000  0.72109000  0.44367000  1.0 -0.2703487035
C  C30  1  0.77131000  0.71498000  0.74389000  1.0 -0.2703487035
C  C31  1  0.27742000  0.52131000  0.55633000  1.0 -0.2703487035
C  C32  1  0.97109000  0.02742000  0.25611000  1.0 -0.2703487035
C  C33  1  0.29487000  0.68541000  0.80188000  1.0 0.0658002505
C  C34  1  0.74299000  0.04487000  0.10946000  1.0 0.0658002505
C  C35  1  0.88353000  0.49299000  0.19812000  1.0 0.0658002505
C  C36  1  0.93541000  0.63353000  0.89054000  1.0 0.0658002505
C  C37  1  0.36647000  0.06459000  0.10946000  1.0 0.0658002505
C  C38  1  0.50701000  0.11647000  0.80188000  1.0 0.0658002505
C  C39  1  0.95513000  0.25701000  0.89054000  1.0 0.0658002505
C  C40  1  0.31459000  0.70513000  0.19812000  1.0 0.0658002505
C  C41  1  0.95513000  0.06459000  0.69812000  1.0 0.0658002505
C  C42  1  0.50701000  0.70513000  0.39054000  1.0 0.0658002505
C  C43  1  0.36647000  0.25701000  0.30188000  1.0 0.0658002505
C  C44  1  0.31459000  0.11647000  0.60946000  1.0 0.0658002505
C  C45  1  0.88353000  0.68541000  0.39054000  1.0 0.0658002505
C  C46  1  0.74299000  0.63353000  0.69812000  1.0 0.0658002505
C  C47  1  0.29487000  0.49299000  0.60946000  1.0 0.0658002505
C  C48  1  0.93541000  0.04487000  0.30188000  1.0 0.0658002505
C  C49  1  0.19904000  0.57762000  0.78766000  1.0 -0.2573761856
C  C50  1  0.66138000  0.94904000  0.12142000  1.0 -0.2573761856
C  C51  1  0.78996000  0.41138000  0.21234000  1.0 -0.2573761856
C  C52  1  0.82762000  0.53996000  0.87858000  1.0 -0.2573761856
C  C53  1  0.46004000  0.17238000  0.12142000  1.0 -0.2573761856
C  C54  1  0.58862000  0.21004000  0.78766000  1.0 -0.2573761856
C  C55  1  0.05096000  0.33862000  0.87858000  1.0 -0.2573761856
C  C56  1  0.42238000  0.80096000  0.21234000  1.0 -0.2573761856
C  C57  1  0.05096000  0.17238000  0.71234000  1.0 -0.2573761856
C  C58  1  0.58862000  0.80096000  0.37858000  1.0 -0.2573761856
C  C59  1  0.46004000  0.33862000  0.28766000  1.0 -0.2573761856
C  C60  1  0.42238000  0.21004000  0.62142000  1.0 -0.2573761856
C  C61  1  0.78996000  0.57762000  0.37858000  1.0 -0.2573761856
C  C62  1  0.66138000  0.53996000  0.71234000  1.0 -0.2573761856
C  C63  1  0.19904000  0.41138000  0.62142000  1.0 -0.2573761856
C  C64  1  0.82762000  0.94904000  0.28766000  1.0 -0.2573761856
C  C65  1  0.12383000  0.56559000  0.79866000  1.0 0.0500459438
C  C66  1  0.57517000  0.87383000  0.05824000  1.0 0.0500459438
C  C67  1  0.76693000  0.32517000  0.20134000  1.0 0.0500459438
C  C68  1  0.81559000  0.51693000  0.94176000  1.0 0.0500459438
C  C69  1  0.48307000  0.18441000  0.05824000  1.0 0.0500459438
C  C70  1  0.67483000  0.23307000  0.79866000  1.0 0.0500459438
C  C71  1  0.12617000  0.42483000  0.94176000  1.0 0.0500459438
C  C72  1  0.43441000  0.87617000  0.20134000  1.0 0.0500459438
C  C73  1  0.12617000  0.18441000  0.70134000  1.0 0.0500459438
C  C74  1  0.67483000  0.87617000  0.44176000  1.0 0.0500459438
C  C75  1  0.48307000  0.42483000  0.29866000  1.0 0.0500459438
C  C76  1  0.43441000  0.23307000  0.55824000  1.0 0.0500459438
C  C77  1  0.76693000  0.56559000  0.44176000  1.0 0.0500459438
C  C78  1  0.57517000  0.51693000  0.70134000  1.0 0.0500459438
C  C79  1  0.12383000  0.32517000  0.55824000  1.0 0.0500459438
C  C80  1  0.81559000  0.87383000  0.29866000  1.0 0.0500459438
C  C81  1  0.10698000  0.60152000  0.75250000  1.0 -0.2573761856
C  C82  1  0.60448000  0.85698000  0.00546000  1.0 -0.2573761856
C  C83  1  0.84902000  0.35448000  0.24750000  1.0 -0.2573761856
C  C84  1  0.85152000  0.59902000  0.99454000  1.0 -0.2573761856
C  C85  1  0.40098000  0.14848000  0.00546000  1.0 -0.2573761856
C  C86  1  0.64552000  0.15098000  0.75250000  1.0 -0.2573761856
C  C87  1  0.14302000  0.39552000  0.99454000  1.0 -0.2573761856
C  C88  1  0.39848000  0.89302000  0.24750000  1.0 -0.2573761856
C  C89  1  0.14302000  0.14848000  0.74750000  1.0 -0.2573761856
C  C90  1  0.64552000  0.89302000  0.49454000  1.0 -0.2573761856
C  C91  1  0.40098000  0.39552000  0.25250000  1.0 -0.2573761856
C  C92  1  0.39848000  0.15098000  0.50546000  1.0 -0.2573761856
C  C93  1  0.84902000  0.60152000  0.49454000  1.0 -0.2573761856
C  C94  1  0.60448000  0.59902000  0.74750000  1.0 -0.2573761856
C  C95  1  0.10698000  0.35448000  0.50546000  1.0 -0.2573761856
C  C96  1  0.85152000  0.85698000  0.25250000  1.0 -0.2573761856
C  C97  1  0.23714000  0.76615000  0.83769000  1.0 -0.2703487035
C  C98  1  0.64945000  0.98714000  0.97099000  1.0 -0.2703487035
C  C99  1  0.92846000  0.39945000  0.16231000  1.0 -0.2703487035
C  C100  1  0.01615000  0.67846000  0.02901000  1.0 -0.2703487035
C  C101  1  0.32154000  0.98385000  0.97099000  1.0 -0.2703487035
C  C102  1  0.60055000  0.07154000  0.83769000  1.0 -0.2703487035
C  C103  1  0.01286000  0.35055000  0.02901000  1.0 -0.2703487035
C  C104  1  0.23385000  0.76286000  0.16231000  1.0 -0.2703487035
C  C105  1  0.01286000  0.98385000  0.66231000  1.0 -0.2703487035
C  C106  1  0.60055000  0.76286000  0.52901000  1.0 -0.2703487035
C  C107  1  0.32154000  0.35055000  0.33769000  1.0 -0.2703487035
C  C108  1  0.23385000  0.07154000  0.47099000  1.0 -0.2703487035
C  C109  1  0.92846000  0.76615000  0.52901000  1.0 -0.2703487035
C  C110  1  0.64945000  0.67846000  0.66231000  1.0 -0.2703487035
C  C111  1  0.23714000  0.39945000  0.47099000  1.0 -0.2703487035
C  C112  1  0.01615000  0.98714000  0.33769000  1.0 -0.2703487035
C  C113  1  0.32914000  0.74226000  0.87280000  1.0 -0.2761521237
C  C114  1  0.70634000  0.07914000  0.08688000  1.0 -0.2703487035
C  C115  1  0.86946000  0.45634000  0.12720000  1.0 -0.2761521237
C  C116  1  0.99226000  0.61946000  0.91312000  1.0 -0.2761521237
C  C117  1  0.38054000  0.00774000  0.08688000  1.0 -0.2761521237
C  C118  1  0.54366000  0.13054000  0.87280000  1.0 -0.2761521237
C  C119  1  0.92086000  0.29366000  0.91312000  1.0 -0.2761521237
C  C120  1  0.25774000  0.67086000  0.12720000  1.0 -0.2761521237
C  C121  1  0.92086000  0.00774000  0.62720000  1.0 -0.2761521237
C  C122  1  0.54366000  0.67086000  0.41312000  1.0 -0.2761521237
C  C123  1  0.38054000  0.29366000  0.37280000  1.0 -0.2761521237
C  C124  1  0.25774000  0.13054000  0.58688000  1.0 -0.2761521237
C  C125  1  0.86946000  0.74226000  0.41312000  1.0 -0.2761521237
C  C126  1  0.70634000  0.61946000  0.62720000  1.0 -0.2761521237
C  C127  1  0.32914000  0.45634000  0.58688000  1.0 -0.2761521237
C  C128  1  0.99226000  0.07914000  0.37280000  1.0 -0.2761521237
C  C129  1  0.15849000  0.62247000  0.86876000  1.0 -0.2703487035
C  C130  1  0.53973000  0.90849000  0.03602000  1.0 -0.2703487035
C  C131  1  0.75371000  0.28973000  0.13124000  1.0 -0.2703487035
C  C132  1  0.87247000  0.50371000  0.96398000  1.0 -0.2703487035
C  C133  1  0.49629000  0.12753000  0.03602000  1.0 -0.2703487035
C  C134  1  0.71027000  0.24629000  0.86876000  1.0 -0.2703487035
C  C135  1  0.09151000  0.46027000  0.96398000  1.0 -0.2703487035
C  C136  1  0.37753000  0.84151000  0.13124000  1.0 -0.2703487035
C  C137  1  0.09151000  0.12753000  0.63124000  1.0 -0.2703487035
C  C138  1  0.71027000  0.84151000  0.46398000  1.0 -0.2703487035
C  C139  1  0.49629000  0.46027000  0.36876000  1.0 -0.2703487035
C  C140  1  0.37753000  0.24629000  0.53602000  1.0 -0.2703487035
C  C141  1  0.75371000  0.62247000  0.46398000  1.0 -0.2703487035
C  C142  1  0.53973000  0.50371000  0.63124000  1.0 -0.2703487035
C  C143  1  0.15849000  0.28973000  0.53602000  1.0 -0.2703487035
C  C144  1  0.87247000  0.90849000  0.36876000  1.0 -0.2703487035
C  C145  1  0.25281000  0.72867000  0.88288000  1.0 0.0500459438
C  C146  1  0.61993000  0.00281000  0.02414000  1.0 0.0567138671
C  C147  1  0.84579000  0.36993000  0.11712000  1.0 0.0567138671
C  C148  1  0.97867000  0.59579000  0.97586000  1.0 0.0567138671
C  C149  1  0.40421000  0.02133000  0.02414000  1.0 0.0567138671
C  C150  1  0.63007000  0.15421000  0.88288000  1.0 0.0567138671
C  C151  1  0.99719000  0.38007000  0.97586000  1.0 0.0567138671
C  C152  1  0.27133000  0.74719000  0.11712000  1.0 0.0567138671
C  C153  1  0.99719000  0.02133000  0.61712000  1.0 0.0567138671
C  C154  1  0.63007000  0.74719000  0.47586000  1.0 0.0567138671
C  C155  1  0.40421000  0.38007000  0.38288000  1.0 0.0567138671
C  C156  1  0.27133000  0.15421000  0.52414000  1.0 0.0567138671
C  C157  1  0.84579000  0.72867000  0.47586000  1.0 0.0567138671
C  C158  1  0.61993000  0.59579000  0.61712000  1.0 0.0567138671
C  C159  1  0.25281000  0.36993000  0.52414000  1.0 0.0567138671
C  C160  1  0.97867000  0.00281000  0.38288000  1.0 0.0567138671
C  C161  1  0.18926000  0.74930000  0.72336000  1.0 0.5924293501
C  C162  1  0.71590000  0.93926000  0.93996000  1.0 0.5924293501
C  C163  1  0.02594000  0.46590000  0.27664000  1.0 0.5924293501
C  C164  1  0.99930000  0.77594000  0.06004000  1.0 0.5924293501
C  C165  1  0.22406000  0.00070000  0.93996000  1.0 0.5924293501
C  C166  1  0.53410000  0.97406000  0.72336000  1.0 0.5924293501
C  C167  1  0.06074000  0.28410000  0.06004000  1.0 0.5924293501
C  C168  1  0.25070000  0.81074000  0.27664000  1.0 0.5924293501
C  C169  1  0.06074000  0.00070000  0.77664000  1.0 0.5924293501
C  C170  1  0.53410000  0.81074000  0.56004000  1.0 0.5924293501
C  C171  1  0.22406000  0.28410000  0.22336000  1.0 0.5924293501
C  C172  1  0.25070000  0.97406000  0.43996000  1.0 0.5924293501
C  C173  1  0.02594000  0.74930000  0.56004000  1.0 0.5924293501
C  C174  1  0.71590000  0.77594000  0.77664000  1.0 0.5924293501
C  C175  1  0.18926000  0.46590000  0.43996000  1.0 0.5924293501
C  C176  1  0.99930000  0.93926000  0.22336000  1.0 0.5924293501
C  C177  1  0.37012000  0.69880000  0.79132000  1.0 0.5522452099
C  C178  1  0.82880000  0.12012000  0.17132000  1.0 0.5522452099
C  C179  1  0.90748000  0.57880000  0.20868000  1.0 0.5522452099
C  C180  1  0.94880000  0.65748000  0.82868000  1.0 0.5522452099
C  C181  1  0.34252000  0.05120000  0.17132000  1.0 0.5522452099
C  C182  1  0.42120000  0.09252000  0.79132000  1.0 0.5522452099
C  C183  1  0.87988000  0.17120000  0.82868000  1.0 0.5522452099
C  C184  1  0.30120000  0.62988000  0.20868000  1.0 0.5522452099
C  C185  1  0.87988000  0.05120000  0.70868000  1.0 0.5522452099
C  C186  1  0.42120000  0.62988000  0.32868000  1.0 0.5522452099
C  C187  1  0.34252000  0.17120000  0.29132000  1.0 0.5522452099
C  C188  1  0.30120000  0.09252000  0.67132000  1.0 0.5522452099
C  C189  1  0.90748000  0.69880000  0.32868000  1.0 0.5522452099
C  C190  1  0.82880000  0.65748000  0.70868000  1.0 0.5522452099
C  C191  1  0.37012000  0.57880000  0.67132000  1.0 0.5522452099
C  C192  1  0.94880000  0.12012000  0.29132000  1.0 0.5522452099
C  C193  1  0.36577000  0.86577000  0.50000000  1.0 0.6956918342
C  C194  1  0.11577000  0.11577000  0.00000000  1.0 0.6940095527
C  C195  1  0.88423000  0.88423000  0.00000000  1.0 0.6956918342
C  C196  1  0.13423000  0.63423000  0.50000000  1.0 0.6940095527
O  O1  1  0.12030000  0.73860000  0.72270000  1.0 -0.6800512793
O  O2  1  0.64760000  0.87030000  0.88170000  1.0 -0.6800512793
O  O3  1  0.01590000  0.39760000  0.27730000  1.0 -0.6800512793
O  O4  1  0.98860000  0.76590000  0.11830000  1.0 -0.6800512793
O  O5  1  0.23410000  0.01140000  0.88170000  1.0 -0.6800512793
O  O6  1  0.60240000  0.98410000  0.72270000  1.0 -0.6800512793
O  O7  1  0.12970000  0.35240000  0.11830000  1.0 -0.6800512793
O  O8  1  0.26140000  0.87970000  0.27730000  1.0 -0.6800512793
O  O9  1  0.12970000  0.01140000  0.77730000  1.0 -0.6800512793
O  O10  1  0.60240000  0.87970000  0.61830000  1.0 -0.6800512793
O  O11  1  0.23410000  0.35240000  0.22270000  1.0 -0.6800512793
O  O12  1  0.26140000  0.98410000  0.38170000  1.0 -0.6800512793
O  O13  1  0.01590000  0.73860000  0.61830000  1.0 -0.6800512793
O  O14  1  0.64760000  0.76590000  0.77730000  1.0 -0.6800512793
O  O15  1  0.12030000  0.39760000  0.38170000  1.0 -0.6800512793
O  O16  1  0.98860000  0.87030000  0.22270000  1.0 -0.6800512793
O  O17  1  0.22510000  0.78560000  0.68070000  1.0 -0.5907100933
O  O18  1  0.79440000  0.97510000  0.93950000  1.0 -0.5907100933
O  O19  1  0.10490000  0.54440000  0.31930000  1.0 -0.5907100933
O  O20  1  0.03560000  0.85490000  0.06050000  1.0 -0.5907100933
O  O21  1  0.14510000  0.96440000  0.93950000  1.0 -0.5907100933
O  O22  1  0.45560000  0.89510000  0.68070000  1.0 -0.5907100933
O  O23  1  0.02490000  0.20560000  0.06050000  1.0 -0.5907100933
O  O24  1  0.21440000  0.77490000  0.31930000  1.0 -0.5907100933
O  O25  1  0.02490000  0.96440000  0.81930000  1.0 -0.5907100933
O  O26  1  0.45560000  0.77490000  0.56050000  1.0 -0.5907100933
O  O27  1  0.14510000  0.20560000  0.18070000  1.0 -0.5907100933
O  O28  1  0.21440000  0.89510000  0.43950000  1.0 -0.5907100933
O  O29  1  0.10490000  0.78560000  0.56050000  1.0 -0.5907100933
O  O30  1  0.79440000  0.85490000  0.81930000  1.0 -0.5907100933
O  O31  1  0.22510000  0.54440000  0.43950000  1.0 -0.5907100933
O  O32  1  0.03560000  0.97510000  0.18070000  1.0 -0.5907100933
O  O33  1  0.42930000  0.76540000  0.77010000  1.0 -0.6564952666
O  O34  1  0.90920000  0.17930000  0.16390000  1.0 -0.6564952666
O  O35  1  0.99530000  0.65920000  0.22990000  1.0 -0.6564952666
O  O36  1  0.01540000  0.74530000  0.83610000  1.0 -0.6564952666
O  O37  1  0.25470000  0.98460000  0.16390000  1.0 -0.6564952666
O  O38  1  0.34080000  0.00470000  0.77010000  1.0 -0.6564952666
O  O39  1  0.82070000  0.09080000  0.83610000  1.0 -0.6564952666
O  O40  1  0.23460000  0.57070000  0.22990000  1.0 -0.6564952666
O  O41  1  0.82070000  0.98460000  0.72990000  1.0 -0.6564952666
O  O42  1  0.34080000  0.57070000  0.33610000  1.0 -0.6564952666
O  O43  1  0.25470000  0.09080000  0.27010000  1.0 -0.6564952666
O  O44  1  0.23460000  0.00470000  0.66390000  1.0 -0.6564952666
O  O45  1  0.99530000  0.76540000  0.33610000  1.0 -0.6564952666
O  O46  1  0.90920000  0.74530000  0.72990000  1.0 -0.6564952666
O  O47  1  0.42930000  0.65920000  0.66390000  1.0 -0.6564952666
O  O48  1  0.01540000  0.17930000  0.27010000  1.0 -0.6564952666
O  O49  1  0.38950000  0.66300000  0.82050000  1.0 -0.5654204982
O  O50  1  0.81900000  0.13950000  0.22650000  1.0 -0.5647905545
O  O51  1  0.84250000  0.56900000  0.17950000  1.0 -0.5654204982
O  O52  1  0.91300000  0.59250000  0.77350000  1.0 -0.5654204982
O  O53  1  0.40750000  0.08700000  0.22650000  1.0 -0.5647905545
O  O54  1  0.43100000  0.15750000  0.82050000  1.0 -0.5647905545
O  O55  1  0.86050000  0.18100000  0.77350000  1.0 -0.5647905545
O  O56  1  0.33700000  0.61050000  0.17950000  1.0 -0.5654204982
O  O57  1  0.86050000  0.08700000  0.67950000  1.0 -0.5647905545
O  O58  1  0.43100000  0.61050000  0.27350000  1.0 -0.5647905545
O  O59  1  0.40750000  0.18100000  0.32050000  1.0 -0.5647905545
O  O60  1  0.33700000  0.15750000  0.72650000  1.0 -0.5647905545
O  O61  1  0.84250000  0.66300000  0.27350000  1.0 -0.5654204982
O  O62  1  0.81900000  0.59250000  0.67950000  1.0 -0.5647905545
O  O63  1  0.38950000  0.56900000  0.72650000  1.0 -0.5654204982
O  O64  1  0.91300000  0.13950000  0.32050000  1.0 -0.5647905545
O  O65  1  0.44146000  0.94146000  0.50000000  1.0 -0.3608372184
O  O66  1  0.19146000  0.19146000  0.00000000  1.0 -0.3608372184
O  O67  1  0.80854000  0.80854000  0.00000000  1.0 -0.3608372184
O  O68  1  0.05854000  0.55854000  0.50000000  1.0 -0.3608372184
O  O69  1  0.36362000  0.82793000  0.53569000  1.0 -0.5507905604
O  O70  1  0.07793000  0.11362000  0.03569000  1.0 -0.5507905604
O  O71  1  0.29224000  0.82793000  0.46431000  1.0 -0.5507905604
O  O72  1  0.07793000  0.04224000  0.96431000  1.0 -0.5507905604
O  O73  1  0.95776000  0.92207000  0.03569000  1.0 -0.5507905604
O  O74  1  0.17207000  0.70776000  0.53569000  1.0 -0.5507905604
O  O75  1  0.88638000  0.92207000  0.96431000  1.0 -0.5507905604
O  O76  1  0.17207000  0.63638000  0.46431000  1.0 -0.5507905604
O  O77  1  0.28780000  0.89780000  0.61000000  1.0 -0.8790364238
O  O78  1  0.92780000  0.03780000  0.89000000  1.0 -0.8790364238
O  O79  1  0.28780000  0.67780000  0.39000000  1.0 -0.8790364238
O  O80  1  0.14780000  0.03780000  0.11000000  1.0 -0.8790364238
O  O81  1  0.96220000  0.85220000  0.89000000  1.0 -0.8790364238
O  O82  1  0.32220000  0.71220000  0.61000000  1.0 -0.8790364238
O  O83  1  0.96220000  0.07220000  0.11000000  1.0 -0.8790364238
O  O84  1  0.10220000  0.71220000  0.39000000  1.0 -0.8790364238
O  O85  1  0.89200000  0.53920000  0.64720000  1.0 -0.2322499181
O  O86  1  0.49480000  0.64200000  0.85280000  1.0 -0.2322499181
O  O87  1  0.89200000  0.24480000  0.35280000  1.0 -0.2322499181
O  O88  1  0.78920000  0.64200000  0.14720000  1.0 -0.2322499181
O  O89  1  0.35800000  0.21080000  0.85280000  1.0 -0.2322499181
O  O90  1  0.75520000  0.10800000  0.64720000  1.0 -0.2322499181
O  O91  1  0.35800000  0.50520000  0.14720000  1.0 -0.2351006465
O  O92  1  0.46080000  0.10800000  0.35280000  1.0 -0.2322499181
