# DDEC6 charges by PACMAN v1.1 (https://github.com/mtap-research/PACMAN-charge/)
data_ZEHCAQ01_ASR_pacman
_symmetry_space_group_name_H-M   'P 1'
_cell_length_a   9.58503000
_cell_length_b   9.58503000
_cell_length_c   11.83580000
_cell_angle_alpha   85.14660000
_cell_angle_beta   94.85340000
_cell_angle_gamma   78.08770000
_symmetry_Int_Tables_number   1
_chemical_formula_structural   Zn2P2HO8
_chemical_formula_sum   'Zn8 P8 H4 O32'
_cell_volume   1054.32999198
_cell_formula_units_Z   4
loop_
 _symmetry_equiv_pos_site_id
 _symmetry_equiv_pos_as_xyz
  1  'x, y, z'
loop_
 _atom_site_type_symbol
 _atom_site_label
 _atom_site_symmetry_multiplicity
 _atom_site_fract_x
 _atom_site_fract_y
 _atom_site_fract_z
 _atom_site_occupancy
 _atom_site_charge
Zn  Zn1  1  0.81808000  0.40908000  0.95613000  1.0 1.0904217454
Zn  Zn2  1  0.40908000  0.81808000  0.54387000  1.0 1.0904217454
Zn  Zn3  1  0.18192000  0.59092000  0.04387000  1.0 1.0904217454
Zn  Zn4  1  0.59092000  0.18192000  0.45613000  1.0 1.0904217454
Zn  Zn5  1  0.35912000  0.16726000  0.91107000  1.0 1.1779356094
Zn  Zn6  1  0.16726000  0.35912000  0.58893000  1.0 1.1779356094
Zn  Zn7  1  0.64088000  0.83274000  0.08893000  1.0 1.1722822281
Zn  Zn8  1  0.83274000  0.64088000  0.41107000  1.0 1.1722822281
P  P1  1  0.09184000  0.43156000  0.84451000  1.0 1.4852544757
P  P2  1  0.43156000  0.09184000  0.65549000  1.0 1.4807778391
P  P3  1  0.90816000  0.56844000  0.15549000  1.0 1.4807778391
P  P4  1  0.56844000  0.90816000  0.34451000  1.0 1.4807778391
P  P5  1  0.34092000  0.83666000  0.96294000  1.0 1.469490279
P  P6  1  0.83666000  0.34092000  0.53706000  1.0 1.469490279
P  P7  1  0.65908000  0.16334000  0.03706000  1.0 1.469490279
P  P8  1  0.16334000  0.65908000  0.46294000  1.0 1.4807778391
H  H1  1  0.34280000  0.85040000  0.79350000  1.0 0.4258698317
H  H2  1  0.85040000  0.34280000  0.70650000  1.0 0.4249782058
H  H3  1  0.65720000  0.14960000  0.20650000  1.0 0.4249782058
H  H4  1  0.14960000  0.65720000  0.29350000  1.0 0.4258698317
O  O1  1  0.93730000  0.40630000  0.82950000  1.0 -0.7210988609
O  O2  1  0.40630000  0.93730000  0.67050000  1.0 -0.7210988609
O  O3  1  0.06270000  0.59370000  0.17050000  1.0 -0.7210988609
O  O4  1  0.59370000  0.06270000  0.32950000  1.0 -0.7210988609
O  O5  1  0.24610000  0.77010000  0.03720000  1.0 -0.697294688
O  O6  1  0.77010000  0.24610000  0.46280000  1.0 -0.697294688
O  O7  1  0.75390000  0.22990000  0.96280000  1.0 -0.697294688
O  O8  1  0.22990000  0.75390000  0.53720000  1.0 -0.697294688
O  O9  1  0.08760000  0.57340000  0.89760000  1.0 -0.7408263691
O  O10  1  0.57340000  0.08760000  0.60240000  1.0 -0.7408263691
O  O11  1  0.91240000  0.42660000  0.10240000  1.0 -0.7408263691
O  O12  1  0.42660000  0.91240000  0.39760000  1.0 -0.7408263691
O  O13  1  0.18790000  0.30930000  0.92190000  1.0 -0.7640342025
O  O14  1  0.30930000  0.18790000  0.57810000  1.0 -0.7653210667
O  O15  1  0.81210000  0.69070000  0.07810000  1.0 -0.7640342025
O  O16  1  0.69070000  0.81210000  0.42190000  1.0 -0.7653210667
O  O17  1  0.14620000  0.44980000  0.72710000  1.0 -0.7450906543
O  O18  1  0.44980000  0.14620000  0.77290000  1.0 -0.7450906543
O  O19  1  0.85380000  0.55020000  0.27290000  1.0 -0.7408263691
O  O20  1  0.55020000  0.85380000  0.22710000  1.0 -0.7408263691
O  O21  1  0.31460000  0.99440000  0.98050000  1.0 -0.7271812765
O  O22  1  0.99440000  0.31460000  0.51950000  1.0 -0.7271812765
O  O23  1  0.68540000  0.00560000  0.01950000  1.0 -0.7271812765
O  O24  1  0.00560000  0.68540000  0.48050000  1.0 -0.7271812765
O  O25  1  0.49930000  0.76770000  0.98720000  1.0 -0.7210988609
O  O26  1  0.76770000  0.49930000  0.51280000  1.0 -0.7210988609
O  O27  1  0.50070000  0.23230000  0.01280000  1.0 -0.7210988609
O  O28  1  0.23230000  0.50070000  0.48720000  1.0 -0.7210988609
O  O29  1  0.29320000  0.81540000  0.83640000  1.0 -0.5300276486
O  O30  1  0.81540000  0.29320000  0.66360000  1.0 -0.5300276486
O  O31  1  0.70680000  0.18460000  0.16360000  1.0 -0.5300276486
O  O32  1  0.18460000  0.70680000  0.33640000  1.0 -0.5300276486
