# DDEC6 charges by PACMAN v1.1 (https://github.com/mtap-research/PACMAN-charge/)
data_ZEJXEU_ASR_pacman
_symmetry_space_group_name_H-M   'P 1'
_cell_length_a   16.46170000
_cell_length_b   16.46170000
_cell_length_c   15.92280000
_cell_angle_alpha   83.16290000
_cell_angle_beta   96.83710000
_cell_angle_gamma   126.06500000
_symmetry_Int_Tables_number   1
_chemical_formula_structural   DyH12WC23N11O3
_chemical_formula_sum   'Dy4 H48 W4 C92 N44 O12'
_cell_volume   3456.67797268
_cell_formula_units_Z   4
loop_
 _symmetry_equiv_pos_site_id
 _symmetry_equiv_pos_as_xyz
  1  'x, y, z'
loop_
 _atom_site_type_symbol
 _atom_site_label
 _atom_site_symmetry_multiplicity
 _atom_site_fract_x
 _atom_site_fract_y
 _atom_site_fract_z
 _atom_site_occupancy
 _atom_site_charge
Dy  Dy1  1  0.29285000  0.73639000  0.46068000  1.0 1.934560684
Dy  Dy2  1  0.73639000  0.29285000  0.03932000  1.0 1.934560684
Dy  Dy3  1  0.70715000  0.26361000  0.53932000  1.0 1.934560684
Dy  Dy4  1  0.26361000  0.70715000  0.96068000  1.0 1.934560684
H  H1  1  0.29040000  0.64480000  0.68570000  1.0 0.1493929881
H  H2  1  0.18080000  0.54960000  0.78920000  1.0 0.1493929881
H  H3  1  0.01960000  0.32220000  0.63460000  1.0 0.1493929881
H  H4  1  0.13130000  0.42270000  0.53240000  1.0 0.1493929881
H  H5  1  0.98130000  0.35350000  0.98970000  1.0 0.1493929881
H  H6  1  0.10190000  0.42750000  0.89290000  1.0 0.1493929881
H  H7  1  0.88870000  0.28030000  0.71030000  1.0 0.1493929881
H  H8  1  0.77160000  0.20320000  0.81090000  1.0 0.1493929881
H  H9  1  0.53590000  0.74290000  0.54690000  1.0 0.1429398186
H  H10  1  0.56750000  0.62710000  0.58570000  1.0 0.1567540965
H  H11  1  0.40130000  0.47910000  0.38470000  1.0 0.1567540965
H  H12  1  0.37430000  0.60090000  0.34780000  1.0 0.1344004399
H  H13  1  0.64480000  0.29040000  0.81430000  1.0 0.1493929881
H  H14  1  0.54960000  0.18080000  0.71080000  1.0 0.1493929881
H  H15  1  0.32220000  0.01960000  0.86540000  1.0 0.1493929881
H  H16  1  0.42270000  0.13130000  0.96760000  1.0 0.1493929881
H  H17  1  0.35350000  0.98130000  0.51030000  1.0 0.1493929881
H  H18  1  0.42750000  0.10190000  0.60710000  1.0 0.1493929881
H  H19  1  0.28030000  0.88870000  0.78970000  1.0 0.1493929881
H  H20  1  0.20320000  0.77160000  0.68910000  1.0 0.1493929881
H  H21  1  0.74290000  0.53590000  0.95310000  1.0 0.1429398186
H  H22  1  0.62710000  0.56750000  0.91430000  1.0 0.1567540965
H  H23  1  0.47910000  0.40130000  0.11530000  1.0 0.1567540965
H  H24  1  0.60090000  0.37430000  0.15220000  1.0 0.1344004399
H  H25  1  0.70960000  0.35520000  0.31430000  1.0 0.1493929881
H  H26  1  0.81920000  0.45040000  0.21080000  1.0 0.1493929881
H  H27  1  0.98040000  0.67780000  0.36540000  1.0 0.1493929881
H  H28  1  0.86870000  0.57730000  0.46760000  1.0 0.1493929881
H  H29  1  0.01870000  0.64650000  0.01030000  1.0 0.1493929881
H  H30  1  0.89810000  0.57250000  0.10710000  1.0 0.1493929881
H  H31  1  0.11130000  0.71970000  0.28970000  1.0 0.1493929881
H  H32  1  0.22840000  0.79680000  0.18910000  1.0 0.1493929881
H  H33  1  0.46410000  0.25710000  0.45310000  1.0 0.1429398186
H  H34  1  0.43250000  0.37290000  0.41430000  1.0 0.1567540965
H  H35  1  0.59870000  0.52090000  0.61530000  1.0 0.1567540965
H  H36  1  0.62570000  0.39910000  0.65220000  1.0 0.1344004399
H  H37  1  0.35520000  0.70960000  0.18570000  1.0 0.1493929881
H  H38  1  0.45040000  0.81920000  0.28920000  1.0 0.1493929881
H  H39  1  0.67780000  0.98040000  0.13460000  1.0 0.1493929881
H  H40  1  0.57730000  0.86870000  0.03240000  1.0 0.1493929881
H  H41  1  0.64650000  0.01870000  0.48970000  1.0 0.1493929881
H  H42  1  0.57250000  0.89810000  0.39290000  1.0 0.1493929881
H  H43  1  0.71970000  0.11130000  0.21030000  1.0 0.1493929881
H  H44  1  0.79680000  0.22840000  0.31090000  1.0 0.1493929881
H  H45  1  0.25710000  0.46410000  0.04690000  1.0 0.1429398186
H  H46  1  0.37290000  0.43250000  0.08570000  1.0 0.1567540965
H  H47  1  0.52090000  0.59870000  0.88470000  1.0 0.1567540965
H  H48  1  0.39910000  0.62570000  0.84780000  1.0 0.1344004399
W  W1  1  0.09821000  0.41825000  0.24209000  1.0 0.6168680366
W  W2  1  0.41825000  0.09821000  0.25791000  1.0 0.6168680366
W  W3  1  0.90179000  0.58175000  0.75791000  1.0 0.6168680366
W  W4  1  0.58175000  0.90179000  0.74209000  1.0 0.6149412966
C  C1  1  0.23440000  0.58040000  0.67520000  1.0 -0.0181563606
C  C2  1  0.16950000  0.52290000  0.73750000  1.0 -0.141186493
C  C3  1  0.08600000  0.42420000  0.72450000  1.0 0.0968047283
C  C4  1  0.07310000  0.38750000  0.64550000  1.0 -0.1519421139
C  C5  1  0.13960000  0.44780000  0.58420000  1.0 -0.0091761911
C  C6  1  0.96330000  0.33910000  0.93320000  1.0 0.0090517137
C  C7  1  0.03480000  0.38420000  0.87470000  1.0 -0.1519421139
C  C8  1  0.01010000  0.36730000  0.78870000  1.0 0.0968047283
C  C9  1  0.90900000  0.29660000  0.76630000  1.0 -0.1610875364
C  C10  1  0.83860000  0.25040000  0.82660000  1.0 0.0321755004
C  C11  1  0.50780000  0.68820000  0.51440000  1.0 0.0090517137
C  C12  1  0.52740000  0.61960000  0.53670000  1.0 -0.1610875364
C  C13  1  0.48980000  0.53720000  0.48900000  1.0 0.0968047283
C  C14  1  0.43040000  0.53260000  0.41880000  1.0 -0.1610875364
C  C15  1  0.41230000  0.60450000  0.39720000  1.0 0.0090517137
C  C16  1  0.18490000  0.56550000  0.29740000  1.0 0.0527700125
C  C17  1  0.14000000  0.52400000  0.13260000  1.0 0.0590303778
C  C18  1  0.95930000  0.38310000  0.17160000  1.0 0.0590303778
C  C19  1  0.08960000  0.33340000  0.14280000  1.0 -0.0181563606
C  C20  1  0.99250000  0.25690000  0.27610000  1.0 0.0321755004
C  C21  1  0.01300000  0.41520000  0.33780000  1.0 -0.0091761911
C  C22  1  0.15620000  0.38200000  0.35840000  1.0 0.0090517137
C  C23  1  0.25180000  0.47500000  0.22470000  1.0 -0.0091761911
C  C24  1  0.58040000  0.23440000  0.82480000  1.0 -0.0181563606
C  C25  1  0.52290000  0.16950000  0.76250000  1.0 -0.141186493
C  C26  1  0.42420000  0.08600000  0.77550000  1.0 0.0968047283
C  C27  1  0.38750000  0.07310000  0.85450000  1.0 -0.1519421139
C  C28  1  0.44780000  0.13960000  0.91580000  1.0 -0.0091761911
C  C29  1  0.33910000  0.96330000  0.56680000  1.0 0.0090517137
C  C30  1  0.38420000  0.03480000  0.62530000  1.0 -0.1519421139
C  C31  1  0.36730000  0.01010000  0.71130000  1.0 0.0968047283
C  C32  1  0.29660000  0.90900000  0.73370000  1.0 -0.1610875364
C  C33  1  0.25040000  0.83860000  0.67340000  1.0 0.0321755004
C  C34  1  0.68820000  0.50780000  0.98560000  1.0 0.0090517137
C  C35  1  0.61960000  0.52740000  0.96330000  1.0 -0.1610875364
C  C36  1  0.53720000  0.48980000  0.01100000  1.0 0.0968047283
C  C37  1  0.53260000  0.43040000  0.08120000  1.0 -0.1610875364
C  C38  1  0.60450000  0.41230000  0.10280000  1.0 0.0090517137
C  C39  1  0.56550000  0.18490000  0.20260000  1.0 0.0527700125
C  C40  1  0.52400000  0.14000000  0.36740000  1.0 0.0590303778
C  C41  1  0.38310000  0.95930000  0.32840000  1.0 0.0590303778
C  C42  1  0.33340000  0.08960000  0.35720000  1.0 -0.0181563606
C  C43  1  0.25690000  0.99250000  0.22390000  1.0 0.0321755004
C  C44  1  0.41520000  0.01300000  0.16220000  1.0 -0.0091761911
C  C45  1  0.38200000  0.15620000  0.14160000  1.0 0.0090517137
C  C46  1  0.47500000  0.25180000  0.27530000  1.0 -0.0091761911
C  C47  1  0.76560000  0.41960000  0.32480000  1.0 -0.0181563606
C  C48  1  0.83050000  0.47710000  0.26250000  1.0 -0.141186493
C  C49  1  0.91400000  0.57580000  0.27550000  1.0 0.0968047283
C  C50  1  0.92690000  0.61250000  0.35450000  1.0 -0.1519421139
C  C51  1  0.86040000  0.55220000  0.41580000  1.0 -0.0091761911
C  C52  1  0.03670000  0.66090000  0.06680000  1.0 0.0090517137
C  C53  1  0.96520000  0.61580000  0.12530000  1.0 -0.1519421139
C  C54  1  0.98990000  0.63270000  0.21130000  1.0 0.0968047283
C  C55  1  0.09100000  0.70340000  0.23370000  1.0 -0.1610875364
C  C56  1  0.16140000  0.74960000  0.17340000  1.0 0.0321755004
C  C57  1  0.49220000  0.31180000  0.48560000  1.0 0.0090517137
C  C58  1  0.47260000  0.38040000  0.46330000  1.0 -0.1610875364
C  C59  1  0.51020000  0.46280000  0.51100000  1.0 0.0968047283
C  C60  1  0.56960000  0.46740000  0.58120000  1.0 -0.1610875364
C  C61  1  0.58770000  0.39550000  0.60280000  1.0 0.0090517137
C  C62  1  0.81510000  0.43450000  0.70260000  1.0 0.0527700125
C  C63  1  0.86000000  0.47600000  0.86740000  1.0 0.0590303778
C  C64  1  0.04070000  0.61690000  0.82840000  1.0 0.0590303778
C  C65  1  0.91040000  0.66666667  0.85720000  1.0 -0.0181563606
C  C66  1  0.00750000  0.74310000  0.72390000  1.0 0.0321755004
C  C67  1  0.98700000  0.58480000  0.66220000  1.0 -0.0091761911
C  C68  1  0.84380000  0.61800000  0.64160000  1.0 0.0090517137
C  C69  1  0.74820000  0.52500000  0.77530000  1.0 -0.0091761911
C  C70  1  0.41960000  0.76560000  0.17520000  1.0 -0.0181563606
C  C71  1  0.47710000  0.83050000  0.23750000  1.0 -0.141186493
C  C72  1  0.57580000  0.91400000  0.22450000  1.0 0.0968047283
C  C73  1  0.61250000  0.92690000  0.14550000  1.0 -0.1519421139
C  C74  1  0.55220000  0.86040000  0.08420000  1.0 -0.0091761911
C  C75  1  0.66090000  0.03670000  0.43320000  1.0 0.0090517137
C  C76  1  0.61580000  0.96520000  0.37470000  1.0 -0.1519421139
C  C77  1  0.63270000  0.98990000  0.28870000  1.0 0.0968047283
C  C78  1  0.70340000  0.09100000  0.26630000  1.0 -0.1610875364
C  C79  1  0.74960000  0.16140000  0.32660000  1.0 0.0321755004
C  C80  1  0.31180000  0.49220000  0.01440000  1.0 0.0090517137
C  C81  1  0.38040000  0.47260000  0.03670000  1.0 -0.1610875364
C  C82  1  0.46280000  0.51020000  0.98900000  1.0 0.0968047283
C  C83  1  0.46740000  0.56960000  0.91880000  1.0 -0.1610875364
C  C84  1  0.39550000  0.58770000  0.89720000  1.0 0.0090517137
C  C85  1  0.43450000  0.81510000  0.79740000  1.0 0.0527700125
C  C86  1  0.47600000  0.86000000  0.63260000  1.0 0.0590303778
C  C87  1  0.61690000  0.04070000  0.67160000  1.0 0.0590303778
C  C88  1  0.66666667  0.91040000  0.64280000  1.0 -0.0181563606
C  C89  1  0.74310000  0.00750000  0.77610000  1.0 0.0321755004
C  C90  1  0.58480000  0.98700000  0.83780000  1.0 -0.0091761911
C  C91  1  0.61800000  0.84380000  0.85840000  1.0 0.0090517137
C  C92  1  0.52500000  0.74820000  0.72470000  1.0 -0.0091761911
N  N1  1  0.21810000  0.54510000  0.59920000  1.0 0.3252281598
N  N2  1  0.86600000  0.27280000  0.90680000  1.0 0.3095437265
N  N3  1  0.44890000  0.67830000  0.44660000  1.0 0.2871188424
N  N4  1  0.22830000  0.63750000  0.33100000  1.0 -0.4675649502
N  N5  1  0.16750000  0.57870000  0.07380000  1.0 -0.4597782069
N  N6  1  0.88570000  0.36090000  0.13410000  1.0 -0.4828865774
N  N7  1  0.08570000  0.28810000  0.09050000  1.0 -0.3163684481
N  N8  1  0.93920000  0.17320000  0.29230000  1.0 -0.2334782206
N  N9  1  0.97490000  0.41850000  0.39210000  1.0 -0.327913376
N  N10  1  0.18400000  0.36020000  0.41980000  1.0 -0.3143193447
N  N11  1  0.33480000  0.50560000  0.21630000  1.0 -0.327913376
N  N12  1  0.54510000  0.21810000  0.90080000  1.0 0.3252281598
N  N13  1  0.27280000  0.86600000  0.59320000  1.0 0.3095437265
N  N14  1  0.67830000  0.44890000  0.05340000  1.0 0.2871188424
N  N15  1  0.63750000  0.22830000  0.16900000  1.0 -0.4675649502
N  N16  1  0.57870000  0.16750000  0.42620000  1.0 -0.4597782069
N  N17  1  0.36090000  0.88570000  0.36590000  1.0 -0.4828865774
N  N18  1  0.28810000  0.08570000  0.40950000  1.0 -0.3163684481
N  N19  1  0.17320000  0.93920000  0.20770000  1.0 -0.2334782206
N  N20  1  0.41850000  0.97490000  0.10790000  1.0 -0.327913376
N  N21  1  0.36020000  0.18400000  0.08020000  1.0 -0.3143193447
N  N22  1  0.50560000  0.33480000  0.28370000  1.0 -0.327913376
N  N23  1  0.78190000  0.45490000  0.40080000  1.0 0.3252281598
N  N24  1  0.13400000  0.72720000  0.09320000  1.0 0.3095437265
N  N25  1  0.55110000  0.32170000  0.55340000  1.0 0.2871188424
N  N26  1  0.77170000  0.36250000  0.66900000  1.0 -0.4675649502
N  N27  1  0.83250000  0.42130000  0.92620000  1.0 -0.4597782069
N  N28  1  0.11430000  0.63910000  0.86590000  1.0 -0.4828865774
N  N29  1  0.91430000  0.71190000  0.90950000  1.0 -0.3163684481
N  N30  1  0.06080000  0.82680000  0.70770000  1.0 -0.2334782206
N  N31  1  0.02510000  0.58150000  0.60790000  1.0 -0.327913376
N  N32  1  0.81600000  0.63980000  0.58020000  1.0 -0.3143193447
N  N33  1  0.66520000  0.49440000  0.78370000  1.0 -0.327913376
N  N34  1  0.45490000  0.78190000  0.09920000  1.0 0.3252281598
N  N35  1  0.72720000  0.13400000  0.40680000  1.0 0.3095437265
N  N36  1  0.32170000  0.55110000  0.94660000  1.0 0.2871188424
N  N37  1  0.36250000  0.77170000  0.83100000  1.0 -0.4675649502
N  N38  1  0.42130000  0.83250000  0.57380000  1.0 -0.4597782069
N  N39  1  0.63910000  0.11430000  0.63410000  1.0 -0.4828865774
N  N40  1  0.71190000  0.91430000  0.59050000  1.0 -0.3163684481
N  N41  1  0.82680000  0.06080000  0.79230000  1.0 -0.2334782206
N  N42  1  0.58150000  0.02510000  0.89210000  1.0 -0.327913376
N  N43  1  0.63980000  0.81600000  0.91980000  1.0 -0.3143193447
N  N44  1  0.49440000  0.66520000  0.71630000  1.0 -0.327913376
O  O1  1  0.27880000  0.60340000  0.53790000  1.0 -0.6179684424
O  O2  1  0.79800000  0.22820000  0.96770000  1.0 -0.6503349119
O  O3  1  0.42850000  0.74610000  0.42670000  1.0 -0.6299324506
O  O4  1  0.60340000  0.27880000  0.96210000  1.0 -0.6179684424
O  O5  1  0.22820000  0.79800000  0.53230000  1.0 -0.6503349119
O  O6  1  0.74610000  0.42850000  0.07330000  1.0 -0.6299324506
O  O7  1  0.72120000  0.39660000  0.46210000  1.0 -0.6179684424
O  O8  1  0.20200000  0.77180000  0.03230000  1.0 -0.6503349119
O  O9  1  0.57150000  0.25390000  0.57330000  1.0 -0.6299324506
O  O10  1  0.39660000  0.72120000  0.03790000  1.0 -0.6179684424
O  O11  1  0.77180000  0.20200000  0.46770000  1.0 -0.6503349119
O  O12  1  0.25390000  0.57150000  0.92670000  1.0 -0.6299324506
