# DDEC6 charges by PACMAN v1.1 (https://github.com/mtap-research/PACMAN-charge/)
data_ZEKNIP_ASR_pacman
_symmetry_space_group_name_H-M   'P 1'
_cell_length_a   8.61990000
_cell_length_b   10.10250000
_cell_length_c   14.47970000
_cell_angle_alpha   81.76800000
_cell_angle_beta   82.39300000
_cell_angle_gamma   87.19400000
_symmetry_Int_Tables_number   1
_chemical_formula_structural   Zn2H17C18N4O7
_chemical_formula_sum   'Zn4 H34 C36 N8 O14'
_cell_volume   1236.37577489
_cell_formula_units_Z   2
loop_
 _symmetry_equiv_pos_site_id
 _symmetry_equiv_pos_as_xyz
  1  'x, y, z'
loop_
 _atom_site_type_symbol
 _atom_site_label
 _atom_site_symmetry_multiplicity
 _atom_site_fract_x
 _atom_site_fract_y
 _atom_site_fract_z
 _atom_site_occupancy
 _atom_site_charge
Zn  Zn1  1  0.84609000  0.42304000  0.03626000  1.0 0.9127050615
Zn  Zn2  1  0.80352000  0.60729000  0.85005000  1.0 0.8343480802
Zn  Zn3  1  0.15391000  0.57696000  0.96374000  1.0 0.9127050615
Zn  Zn4  1  0.19648000  0.39271000  0.14995000  1.0 0.8343480802
H  H1  1  0.41080000  0.19970000  0.45770000  1.0 0.1100298571
H  H2  1  0.51100000  0.15150000  0.97390000  1.0 0.1299600909
H  H3  1  0.37520000  0.13760000  0.91400000  1.0 0.1398716918
H  H4  1  0.46220000  0.31660000  0.80650000  1.0 0.1205276837
H  H5  1  0.60050000  0.21130000  0.81750000  1.0 0.1299600909
H  H6  1  0.11120000  0.98030000  0.66200000  1.0 0.1398716918
H  H7  1  0.73210000  0.47140000  0.24080000  1.0 0.1205276837
H  H8  1  0.20340000  0.86670000  0.43600000  1.0 0.1015046885
H  H9  1  0.95330000  0.86970000  0.78900000  1.0 0.1205276837
H  H10  1  0.88550000  0.58300000  0.64540000  1.0 0.1100298571
H  H11  1  0.58810000  0.37400000  0.37210000  1.0 0.1299600909
H  H12  1  0.64490000  0.18230000  0.10560000  1.0 0.1205276837
H  H13  1  0.03940000  0.68510000  0.51610000  1.0 0.1299600909
H  H14  1  0.49700000  0.07930000  0.23830000  1.0 0.1398716918
H  H15  1  0.91020000  0.00580000  0.92730000  1.0 0.1205276837
H  H16  1  0.09200000  0.01670000  0.91380000  1.0 0.1205276837
H  H17  1  0.98900000  0.43200000  0.88200000  1.0 0.3666232801
H  H18  1  0.58920000  0.80030000  0.54230000  1.0 0.1100298571
H  H19  1  0.48900000  0.84850000  0.02610000  1.0 0.1299600909
H  H20  1  0.62480000  0.86240000  0.08600000  1.0 0.1398716918
H  H21  1  0.53780000  0.68340000  0.19350000  1.0 0.1205276837
H  H22  1  0.39950000  0.78870000  0.18250000  1.0 0.1299600909
H  H23  1  0.88880000  0.01970000  0.33800000  1.0 0.1398716918
H  H24  1  0.26790000  0.52860000  0.75920000  1.0 0.1205276837
H  H25  1  0.79660000  0.13330000  0.56400000  1.0 0.1015046885
H  H26  1  0.04670000  0.13030000  0.21100000  1.0 0.1205276837
H  H27  1  0.11450000  0.41700000  0.35460000  1.0 0.1100298571
H  H28  1  0.41190000  0.62600000  0.62790000  1.0 0.1299600909
H  H29  1  0.35510000  0.81770000  0.89440000  1.0 0.1205276837
H  H30  1  0.96060000  0.31490000  0.48390000  1.0 0.1299600909
H  H31  1  0.50300000  0.92070000  0.76170000  1.0 0.1398716918
H  H32  1  0.08980000  0.99420000  0.07270000  1.0 0.1299600909
H  H33  1  0.90800000  0.98330000  0.08620000  1.0 0.1205276837
H  H34  1  0.01100000  0.56800000  0.11800000  1.0 0.3666232801
C  C1  1  0.42400000  0.15680000  0.40440000  1.0 0.0450313924
C  C2  1  0.44020000  0.20120000  0.93390000  1.0 -0.2922519618
C  C3  1  0.63200000  0.38030000  0.87420000  1.0 0.640155313
C  C4  1  0.53310000  0.27470000  0.84950000  1.0 -0.2842512452
C  C5  1  0.52130000  0.21770000  0.31980000  1.0 0.1015046885
C  C6  1  0.06610000  0.90010000  0.65740000  1.0 -0.1758954996
C  C7  1  0.68600000  0.39030000  0.23990000  1.0 0.088369613
C  C8  1  0.08990000  0.84420000  0.57570000  1.0 0.1100298571
C  C9  1  0.19310000  0.90540000  0.49110000  1.0 0.0318386568
C  C10  1  0.97140000  0.83220000  0.73330000  1.0 0.1015046885
C  C11  1  0.93130000  0.66330000  0.64890000  1.0 0.0690771429
C  C12  1  0.59740000  0.33320000  0.31790000  1.0 -0.2007342973
C  C13  1  0.63500000  0.22100000  0.16070000  1.0 0.1100298571
C  C14  1  0.02270000  0.72410000  0.57120000  1.0 -0.2007342973
C  C15  1  0.54340000  0.16000000  0.24000000  1.0 -0.1722693715
C  C16  1  0.33690000  0.29530000  0.98990000  1.0 0.6507774568
C  C17  1  0.97920000  0.18700000  0.94610000  1.0 0.6157653308
C  C18  1  0.99690000  0.03790000  0.95340000  1.0 -0.2922519618
C  C19  1  0.57600000  0.84320000  0.59560000  1.0 0.0443946025
C  C20  1  0.55980000  0.79880000  0.06610000  1.0 -0.2922519618
C  C21  1  0.36800000  0.61970000  0.12580000  1.0 0.640155313
C  C22  1  0.46690000  0.72530000  0.15050000  1.0 -0.2842512452
C  C23  1  0.47870000  0.78230000  0.68020000  1.0 0.1015046885
C  C24  1  0.93390000  0.09990000  0.34260000  1.0 -0.1722693715
C  C25  1  0.31400000  0.60970000  0.76010000  1.0 0.088369613
C  C26  1  0.91010000  0.15580000  0.42430000  1.0 0.1100298571
C  C27  1  0.80690000  0.09460000  0.50890000  1.0 0.0318386568
C  C28  1  0.02860000  0.16780000  0.26670000  1.0 0.1015046885
C  C29  1  0.06870000  0.33670000  0.35110000  1.0 0.0690771429
C  C30  1  0.40260000  0.66680000  0.68210000  1.0 -0.2007342973
C  C31  1  0.36500000  0.77900000  0.83930000  1.0 0.1100298571
C  C32  1  0.97730000  0.27590000  0.42880000  1.0 -0.2007342973
C  C33  1  0.45660000  0.84000000  0.76000000  1.0 -0.1722693715
C  C34  1  0.66310000  0.70470000  0.01010000  1.0 0.6507774568
C  C35  1  0.02080000  0.81300000  0.05390000  1.0 0.6157653308
C  C36  1  0.00310000  0.96210000  0.04660000  1.0 -0.2922519618
N  N1  1  0.70910000  0.33333333  0.16130000  1.0 -0.2007342973
N  N2  1  0.26660000  0.00970000  0.49390000  1.0 -0.2007342973
N  N3  1  0.90540000  0.71600000  0.73040000  1.0 -0.2421945283
N  N4  1  0.35930000  0.05030000  0.40670000  1.0 -0.1887595975
N  N5  1  0.29090000  0.66666667  0.83870000  1.0 -0.2007342973
N  N6  1  0.73340000  0.99030000  0.50610000  1.0 -0.2007342973
N  N7  1  0.09460000  0.28400000  0.26960000  1.0 -0.2421945283
N  N8  1  0.64070000  0.94970000  0.59330000  1.0 -0.1887595975
O  O1  1  0.65860000  0.37730000  0.95550000  1.0 -0.5493638042
O  O2  1  0.67890000  0.47380000  0.80710000  1.0 -0.5812707567
O  O3  1  0.97140000  0.51010000  0.90750000  1.0 -0.8374245786
O  O4  1  0.28450000  0.39850000  0.94360000  1.0 -0.5493638042
O  O5  1  0.30760000  0.26480000  0.07850000  1.0 -0.5692883754
O  O6  1  0.94140000  0.23450000  0.02230000  1.0 -0.5812707567
O  O7  1  0.99830000  0.25460000  0.86820000  1.0 -0.5493638042
O  O8  1  0.34140000  0.62270000  0.04450000  1.0 -0.5493638042
O  O9  1  0.32110000  0.52620000  0.19290000  1.0 -0.5812707567
O  O10  1  0.02860000  0.48990000  0.09250000  1.0 -0.8374245786
O  O11  1  0.71550000  0.60150000  0.05640000  1.0 -0.5493638042
O  O12  1  0.69240000  0.73520000  0.92150000  1.0 -0.5692883754
O  O13  1  0.05860000  0.76550000  0.97770000  1.0 -0.5812707567
O  O14  1  0.00170000  0.74540000  0.13180000  1.0 -0.5493638042
