# DDEC6 charges by PACMAN v1.1 (https://github.com/mtap-research/PACMAN-charge/)
data_ZELQAK_ASR_pacman
_symmetry_space_group_name_H-M   'P 1'
_cell_length_a   26.11500000
_cell_length_b   26.34730000
_cell_length_c   26.43600000
_cell_angle_alpha   90.00000000
_cell_angle_beta   90.00000000
_cell_angle_gamma   90.00000000
_symmetry_Int_Tables_number   1
_chemical_formula_structural   Zn2H56C39(N5O8)2
_chemical_formula_sum   'Zn32 H896 C624 N160 O256'
_cell_volume   18189.54727342
_cell_formula_units_Z   16
loop_
 _symmetry_equiv_pos_site_id
 _symmetry_equiv_pos_as_xyz
  1  'x, y, z'
loop_
 _atom_site_type_symbol
 _atom_site_label
 _atom_site_symmetry_multiplicity
 _atom_site_fract_x
 _atom_site_fract_y
 _atom_site_fract_z
 _atom_site_occupancy
 _atom_site_charge
Zn  Zn1  1  0.75392000  0.75325000  0.47270000  1.0 0.889398319
Zn  Zn2  1  0.74608000  0.75325000  0.02730000  1.0 0.889398319
Zn  Zn3  1  0.25392000  0.74675000  0.52730000  1.0 0.8843923792
Zn  Zn4  1  0.24608000  0.74675000  0.97270000  1.0 0.8843923792
Zn  Zn5  1  0.24608000  0.24675000  0.52730000  1.0 0.8843923792
Zn  Zn6  1  0.25392000  0.24675000  0.97270000  1.0 0.8843923792
Zn  Zn7  1  0.74608000  0.25325000  0.47270000  1.0 0.8843923792
Zn  Zn8  1  0.75392000  0.25325000  0.02730000  1.0 0.8843923792
Zn  Zn9  1  0.70966000  0.85093000  0.40139000  1.0 0.7975599428
Zn  Zn10  1  0.79034000  0.85093000  0.09861000  1.0 0.7975599428
Zn  Zn11  1  0.20966000  0.64907000  0.59861000  1.0 0.7975599428
Zn  Zn12  1  0.29034000  0.64907000  0.90139000  1.0 0.7975599428
Zn  Zn13  1  0.29034000  0.14907000  0.59861000  1.0 0.7975599428
Zn  Zn14  1  0.20966000  0.14907000  0.90139000  1.0 0.7975599428
Zn  Zn15  1  0.79034000  0.35093000  0.40139000  1.0 0.7975599428
Zn  Zn16  1  0.70966000  0.35093000  0.09861000  1.0 0.7975599428
Zn  Zn17  1  0.09476000  0.16614000  0.27882000  1.0 0.8292510097
Zn  Zn18  1  0.40524000  0.16614000  0.22118000  1.0 0.8292510097
Zn  Zn19  1  0.59476000  0.33386000  0.72118000  1.0 0.8292510097
Zn  Zn20  1  0.90524000  0.33386000  0.77882000  1.0 0.8292510097
Zn  Zn21  1  0.90524000  0.83386000  0.72118000  1.0 0.8292510097
Zn  Zn22  1  0.59476000  0.83386000  0.77882000  1.0 0.8292510097
Zn  Zn23  1  0.40524000  0.66614000  0.27882000  1.0 0.8292510097
Zn  Zn24  1  0.09476000  0.66614000  0.22118000  1.0 0.8292510097
Zn  Zn25  1  0.02837000  0.76372000  0.26864000  1.0 0.889398319
Zn  Zn26  1  0.47163000  0.76372000  0.23136000  1.0 0.889398319
Zn  Zn27  1  0.52837000  0.73628000  0.73136000  1.0 0.889398319
Zn  Zn28  1  0.97163000  0.73628000  0.76864000  1.0 0.889398319
Zn  Zn29  1  0.97163000  0.23628000  0.73136000  1.0 0.889398319
Zn  Zn30  1  0.52837000  0.23628000  0.76864000  1.0 0.889398319
Zn  Zn31  1  0.47163000  0.26372000  0.26864000  1.0 0.889398319
Zn  Zn32  1  0.02837000  0.26372000  0.23136000  1.0 0.889398319
H  H1  1  0.90040000  0.78660000  0.36790000  1.0 0.120237969
H  H2  1  0.59960000  0.78660000  0.13210000  1.0 0.120237969
H  H3  1  0.40040000  0.71340000  0.63210000  1.0 0.120237969
H  H4  1  0.09960000  0.71340000  0.86790000  1.0 0.120237969
H  H5  1  0.09960000  0.21340000  0.63210000  1.0 0.120237969
H  H6  1  0.40040000  0.21340000  0.86790000  1.0 0.120237969
H  H7  1  0.59960000  0.28660000  0.36790000  1.0 0.120237969
H  H8  1  0.90040000  0.28660000  0.13210000  1.0 0.120237969
H  H9  1  0.95610000  0.92900000  0.35040000  1.0 0.1298043199
H  H10  1  0.54390000  0.92900000  0.14960000  1.0 0.1298043199
H  H11  1  0.45610000  0.57100000  0.64960000  1.0 0.1298043199
H  H12  1  0.04390000  0.57100000  0.85040000  1.0 0.1298043199
H  H13  1  0.04390000  0.07100000  0.64960000  1.0 0.1298043199
H  H14  1  0.45610000  0.07100000  0.85040000  1.0 0.1298043199
H  H15  1  0.54390000  0.42900000  0.35040000  1.0 0.1298043199
H  H16  1  0.95610000  0.42900000  0.14960000  1.0 0.1298043199
H  H17  1  0.82560000  0.90550000  0.43130000  1.0 0.120237969
H  H18  1  0.67440000  0.90550000  0.06870000  1.0 0.120237969
H  H19  1  0.32560000  0.59450000  0.56870000  1.0 0.120237969
H  H20  1  0.17440000  0.59450000  0.93130000  1.0 0.120237969
H  H21  1  0.17440000  0.09450000  0.56870000  1.0 0.120237969
H  H22  1  0.32560000  0.09450000  0.93130000  1.0 0.120237969
H  H23  1  0.67440000  0.40550000  0.43130000  1.0 0.120237969
H  H24  1  0.82560000  0.40550000  0.06870000  1.0 0.120237969
H  H25  1  0.91760000  0.01680000  0.33980000  1.0 0.1298043199
H  H26  1  0.58240000  0.01680000  0.16020000  1.0 0.1298043199
H  H27  1  0.41760000  0.48320000  0.66020000  1.0 0.1298043199
H  H28  1  0.08240000  0.48320000  0.83980000  1.0 0.1298043199
H  H29  1  0.08240000  0.98320000  0.66020000  1.0 0.1298043199
H  H30  1  0.41760000  0.98320000  0.83980000  1.0 0.1298043199
H  H31  1  0.58240000  0.51680000  0.33980000  1.0 0.1298043199
H  H32  1  0.91760000  0.51680000  0.16020000  1.0 0.1298043199
H  H33  1  0.96350000  0.10510000  0.34770000  1.0 0.120237969
H  H34  1  0.53650000  0.10510000  0.15230000  1.0 0.120237969
H  H35  1  0.46350000  0.39490000  0.65230000  1.0 0.120237969
H  H36  1  0.03650000  0.39490000  0.84770000  1.0 0.120237969
H  H37  1  0.03650000  0.89490000  0.65230000  1.0 0.120237969
H  H38  1  0.46350000  0.89490000  0.84770000  1.0 0.120237969
H  H39  1  0.53650000  0.60510000  0.34770000  1.0 0.120237969
H  H40  1  0.96350000  0.60510000  0.15230000  1.0 0.120237969
H  H41  1  0.90310000  0.24640000  0.33860000  1.0 0.1092419966
H  H42  1  0.59690000  0.24640000  0.16140000  1.0 0.1092419966
H  H43  1  0.40310000  0.25360000  0.66140000  1.0 0.1092419966
H  H44  1  0.09690000  0.25360000  0.83860000  1.0 0.1092419966
H  H45  1  0.09690000  0.75360000  0.66140000  1.0 0.1092419966
H  H46  1  0.40310000  0.75360000  0.83860000  1.0 0.1092419966
H  H47  1  0.59690000  0.74640000  0.33860000  1.0 0.1092419966
H  H48  1  0.90310000  0.74640000  0.16140000  1.0 0.1092419966
H  H49  1  0.82850000  0.13680000  0.41680000  1.0 0.1298043199
H  H50  1  0.67150000  0.13680000  0.08320000  1.0 0.1298043199
H  H51  1  0.32850000  0.36320000  0.58320000  1.0 0.1298043199
H  H52  1  0.17150000  0.36320000  0.91680000  1.0 0.1298043199
H  H53  1  0.17150000  0.86320000  0.58320000  1.0 0.1298043199
H  H54  1  0.32850000  0.86320000  0.91680000  1.0 0.1298043199
H  H55  1  0.67150000  0.63680000  0.41680000  1.0 0.1298043199
H  H56  1  0.82850000  0.63680000  0.08320000  1.0 0.1298043199
H  H57  1  0.84180000  0.73600000  0.61140000  1.0 0.1298043199
H  H58  1  0.65820000  0.73600000  0.88860000  1.0 0.1298043199
H  H59  1  0.34180000  0.76400000  0.38860000  1.0 0.1298043199
H  H60  1  0.15820000  0.76400000  0.11140000  1.0 0.1298043199
H  H61  1  0.15820000  0.26400000  0.38860000  1.0 0.1298043199
H  H62  1  0.34180000  0.26400000  0.11140000  1.0 0.1298043199
H  H63  1  0.65820000  0.23600000  0.61140000  1.0 0.1298043199
H  H64  1  0.84180000  0.23600000  0.88860000  1.0 0.1298043199
H  H65  1  0.91020000  0.61840000  0.68300000  1.0 0.120237969
H  H66  1  0.58980000  0.61840000  0.81700000  1.0 0.120237969
H  H67  1  0.41020000  0.88160000  0.31700000  1.0 0.120237969
H  H68  1  0.08980000  0.88160000  0.18300000  1.0 0.120237969
H  H69  1  0.08980000  0.38160000  0.31700000  1.0 0.120237969
H  H70  1  0.41020000  0.38160000  0.18300000  1.0 0.120237969
H  H71  1  0.58980000  0.11840000  0.68300000  1.0 0.120237969
H  H72  1  0.91020000  0.11840000  0.81700000  1.0 0.120237969
H  H73  1  0.83360000  0.59520000  0.55160000  1.0 0.1298043199
H  H74  1  0.66640000  0.59520000  0.94840000  1.0 0.1298043199
H  H75  1  0.33360000  0.90480000  0.44840000  1.0 0.1298043199
H  H76  1  0.16640000  0.90480000  0.05160000  1.0 0.1298043199
H  H77  1  0.16640000  0.40480000  0.44840000  1.0 0.1298043199
H  H78  1  0.33360000  0.40480000  0.05160000  1.0 0.1298043199
H  H79  1  0.66640000  0.09520000  0.55160000  1.0 0.1298043199
H  H80  1  0.83360000  0.09520000  0.94840000  1.0 0.1298043199
H  H81  1  0.83800000  0.50420000  0.57740000  1.0 0.1489767304
H  H82  1  0.66200000  0.50420000  0.92260000  1.0 0.1489767304
H  H83  1  0.33800000  0.99580000  0.42260000  1.0 0.1489767304
H  H84  1  0.16200000  0.99580000  0.07740000  1.0 0.1489767304
H  H85  1  0.16200000  0.49580000  0.42260000  1.0 0.1489767304
H  H86  1  0.33800000  0.49580000  0.07740000  1.0 0.1489767304
H  H87  1  0.66200000  0.00420000  0.57740000  1.0 0.1489767304
H  H88  1  0.83800000  0.00420000  0.92260000  1.0 0.1489767304
H  H89  1  0.85150000  0.41920000  0.53620000  1.0 0.1298043199
H  H90  1  0.64850000  0.41920000  0.96380000  1.0 0.1298043199
H  H91  1  0.35150000  0.08080000  0.46380000  1.0 0.1298043199
H  H92  1  0.14850000  0.08080000  0.03620000  1.0 0.1298043199
H  H93  1  0.14850000  0.58080000  0.46380000  1.0 0.1298043199
H  H94  1  0.35150000  0.58080000  0.03620000  1.0 0.1298043199
H  H95  1  0.64850000  0.91920000  0.53620000  1.0 0.1298043199
H  H96  1  0.85150000  0.91920000  0.96380000  1.0 0.1298043199
H  H97  1  0.86450000  0.27380000  0.58390000  1.0 0.120237969
H  H98  1  0.63550000  0.27380000  0.91610000  1.0 0.120237969
H  H99  1  0.36450000  0.22620000  0.41610000  1.0 0.120237969
H  H100  1  0.13550000  0.22620000  0.08390000  1.0 0.120237969
H  H101  1  0.13550000  0.72620000  0.41610000  1.0 0.120237969
H  H102  1  0.36450000  0.72620000  0.08390000  1.0 0.120237969
H  H103  1  0.63550000  0.77380000  0.58390000  1.0 0.120237969
H  H104  1  0.86450000  0.77380000  0.91610000  1.0 0.120237969
H  H105  1  0.92360000  0.38770000  0.66890000  1.0 0.120237969
H  H106  1  0.57640000  0.38770000  0.83110000  1.0 0.120237969
H  H107  1  0.42360000  0.11230000  0.33110000  1.0 0.120237969
H  H108  1  0.07640000  0.11230000  0.16890000  1.0 0.120237969
H  H109  1  0.07640000  0.61230000  0.33110000  1.0 0.120237969
H  H110  1  0.42360000  0.61230000  0.16890000  1.0 0.120237969
H  H111  1  0.57640000  0.88770000  0.66890000  1.0 0.120237969
H  H112  1  0.92360000  0.88770000  0.83110000  1.0 0.120237969
H  H113  1  0.76410000  0.77920000  0.32660000  1.0 0.1298043199
H  H114  1  0.73590000  0.77920000  0.17340000  1.0 0.1298043199
H  H115  1  0.26410000  0.72080000  0.67340000  1.0 0.1298043199
H  H116  1  0.23590000  0.72080000  0.82660000  1.0 0.1298043199
H  H117  1  0.23590000  0.22080000  0.67340000  1.0 0.1298043199
H  H118  1  0.26410000  0.22080000  0.82660000  1.0 0.1298043199
H  H119  1  0.73590000  0.27920000  0.32660000  1.0 0.1298043199
H  H120  1  0.76410000  0.27920000  0.17340000  1.0 0.1298043199
H  H121  1  0.81680000  0.74460000  0.26490000  1.0 0.0901481795
H  H122  1  0.68320000  0.74460000  0.23510000  1.0 0.0901481795
H  H123  1  0.31680000  0.75540000  0.73510000  1.0 0.0901481795
H  H124  1  0.18320000  0.75540000  0.76490000  1.0 0.0901481795
H  H125  1  0.18320000  0.25540000  0.73510000  1.0 0.0901481795
H  H126  1  0.31680000  0.25540000  0.76490000  1.0 0.0901481795
H  H127  1  0.68320000  0.24460000  0.26490000  1.0 0.0901481795
H  H128  1  0.81680000  0.24460000  0.23510000  1.0 0.0901481795
H  H129  1  0.83020000  0.78100000  0.21830000  1.0 0.0802405369
H  H130  1  0.66980000  0.78100000  0.28170000  1.0 0.0802405369
H  H131  1  0.33020000  0.71900000  0.78170000  1.0 0.0802405369
H  H132  1  0.16980000  0.71900000  0.71830000  1.0 0.0802405369
H  H133  1  0.16980000  0.21900000  0.78170000  1.0 0.0802405369
H  H134  1  0.33020000  0.21900000  0.71830000  1.0 0.0802405369
H  H135  1  0.66980000  0.28100000  0.21830000  1.0 0.0802405369
H  H136  1  0.83020000  0.28100000  0.28170000  1.0 0.0802405369
H  H137  1  0.86940000  0.77580000  0.26460000  1.0 0.0901481795
H  H138  1  0.63060000  0.77580000  0.23540000  1.0 0.0901481795
H  H139  1  0.36940000  0.72420000  0.73540000  1.0 0.0901481795
H  H140  1  0.13060000  0.72420000  0.76460000  1.0 0.0901481795
H  H141  1  0.13060000  0.22420000  0.73540000  1.0 0.0901481795
H  H142  1  0.36940000  0.22420000  0.76460000  1.0 0.0901481795
H  H143  1  0.63060000  0.27580000  0.26460000  1.0 0.0901481795
H  H144  1  0.86940000  0.27580000  0.23540000  1.0 0.0901481795
H  H145  1  0.85450000  0.87820000  0.28700000  1.0 0.0901481795
H  H146  1  0.64550000  0.87820000  0.21300000  1.0 0.0901481795
H  H147  1  0.35450000  0.62180000  0.71300000  1.0 0.0901481795
H  H148  1  0.14550000  0.62180000  0.78700000  1.0 0.0901481795
H  H149  1  0.14550000  0.12180000  0.71300000  1.0 0.0901481795
H  H150  1  0.35450000  0.12180000  0.78700000  1.0 0.0901481795
H  H151  1  0.64550000  0.37820000  0.28700000  1.0 0.0901481795
H  H152  1  0.85450000  0.37820000  0.21300000  1.0 0.0901481795
H  H153  1  0.83670000  0.86760000  0.23010000  1.0 0.0802405369
H  H154  1  0.66330000  0.86760000  0.26990000  1.0 0.0802405369
H  H155  1  0.33670000  0.63240000  0.76990000  1.0 0.0802405369
H  H156  1  0.16330000  0.63240000  0.73010000  1.0 0.0802405369
H  H157  1  0.16330000  0.13240000  0.76990000  1.0 0.0802405369
H  H158  1  0.33670000  0.13240000  0.73010000  1.0 0.0802405369
H  H159  1  0.66330000  0.36760000  0.23010000  1.0 0.0802405369
H  H160  1  0.83670000  0.36760000  0.26990000  1.0 0.0802405369
H  H161  1  0.79760000  0.89250000  0.26960000  1.0 0.0994892312
H  H162  1  0.70240000  0.89250000  0.23040000  1.0 0.0994892312
H  H163  1  0.29760000  0.60750000  0.73040000  1.0 0.0994892312
H  H164  1  0.20240000  0.60750000  0.76960000  1.0 0.0994892312
H  H165  1  0.20240000  0.10750000  0.73040000  1.0 0.0994892312
H  H166  1  0.29760000  0.10750000  0.76960000  1.0 0.0994892312
H  H167  1  0.70240000  0.39250000  0.26960000  1.0 0.0994892312
H  H168  1  0.79760000  0.39250000  0.23040000  1.0 0.0994892312
H  H169  1  0.68110000  0.95040000  0.44570000  1.0 0.0597529989
H  H170  1  0.81890000  0.95040000  0.05430000  1.0 0.0597529989
H  H171  1  0.18110000  0.54960000  0.55430000  1.0 0.0597529989
H  H172  1  0.31890000  0.54960000  0.94570000  1.0 0.0597529989
H  H173  1  0.31890000  0.04960000  0.55430000  1.0 0.0597529989
H  H174  1  0.18110000  0.04960000  0.94570000  1.0 0.0597529989
H  H175  1  0.81890000  0.45040000  0.44570000  1.0 0.0597529989
H  H176  1  0.68110000  0.45040000  0.05430000  1.0 0.0597529989
H  H177  1  0.76090000  0.00440000  0.35560000  1.0 0.0901481795
H  H178  1  0.73910000  0.00440000  0.14440000  1.0 0.0901481795
H  H179  1  0.26090000  0.49560000  0.64440000  1.0 0.0901481795
H  H180  1  0.23910000  0.49560000  0.85560000  1.0 0.0901481795
H  H181  1  0.23910000  0.99560000  0.64440000  1.0 0.0901481795
H  H182  1  0.26090000  0.99560000  0.85560000  1.0 0.0901481795
H  H183  1  0.73910000  0.50440000  0.35560000  1.0 0.0901481795
H  H184  1  0.76090000  0.50440000  0.14440000  1.0 0.0901481795
H  H185  1  0.73890000  0.06020000  0.36540000  1.0 0.0802405369
H  H186  1  0.76110000  0.06020000  0.13460000  1.0 0.0802405369
H  H187  1  0.23890000  0.43980000  0.63460000  1.0 0.0802405369
H  H188  1  0.26110000  0.43980000  0.86540000  1.0 0.0802405369
H  H189  1  0.26110000  0.93980000  0.63460000  1.0 0.0802405369
H  H190  1  0.23890000  0.93980000  0.86540000  1.0 0.0802405369
H  H191  1  0.76110000  0.56020000  0.36540000  1.0 0.0802405369
H  H192  1  0.73890000  0.56020000  0.13460000  1.0 0.0802405369
H  H193  1  0.78560000  0.03940000  0.39870000  1.0 0.0901481795
H  H194  1  0.71440000  0.03940000  0.10130000  1.0 0.0901481795
H  H195  1  0.28560000  0.46060000  0.60130000  1.0 0.0901481795
H  H196  1  0.21440000  0.46060000  0.89870000  1.0 0.0901481795
H  H197  1  0.21440000  0.96060000  0.60130000  1.0 0.0901481795
H  H198  1  0.28560000  0.96060000  0.89870000  1.0 0.0901481795
H  H199  1  0.71440000  0.53940000  0.39870000  1.0 0.0901481795
H  H200  1  0.78560000  0.53940000  0.10130000  1.0 0.0901481795
H  H201  1  0.67550000  0.03070000  0.47800000  1.0 0.120237969
H  H202  1  0.82450000  0.03070000  0.02200000  1.0 0.120237969
H  H203  1  0.17550000  0.46930000  0.52200000  1.0 0.120237969
H  H204  1  0.32450000  0.46930000  0.97800000  1.0 0.120237969
H  H205  1  0.32450000  0.96930000  0.52200000  1.0 0.1298043199
H  H206  1  0.17550000  0.96930000  0.97800000  1.0 0.1298043199
H  H207  1  0.82450000  0.53070000  0.47800000  1.0 0.1298043199
H  H208  1  0.67550000  0.53070000  0.02200000  1.0 0.1298043199
H  H209  1  0.71510000  0.07300000  0.45910000  1.0 0.1298043199
H  H210  1  0.78490000  0.07300000  0.04090000  1.0 0.1298043199
H  H211  1  0.21510000  0.42700000  0.54090000  1.0 0.1298043199
H  H212  1  0.28490000  0.42700000  0.95910000  1.0 0.1298043199
H  H213  1  0.28490000  0.92700000  0.54090000  1.0 0.1298043199
H  H214  1  0.21510000  0.92700000  0.95910000  1.0 0.1298043199
H  H215  1  0.78490000  0.57300000  0.45910000  1.0 0.1298043199
H  H216  1  0.71510000  0.57300000  0.04090000  1.0 0.1298043199
H  H217  1  0.66380000  0.06260000  0.42770000  1.0 0.0901481795
H  H218  1  0.83620000  0.06260000  0.07230000  1.0 0.0901481795
H  H219  1  0.16380000  0.43740000  0.57230000  1.0 0.0901481795
H  H220  1  0.33620000  0.43740000  0.92770000  1.0 0.0901481795
H  H221  1  0.33620000  0.93740000  0.57230000  1.0 0.0901481795
H  H222  1  0.16380000  0.93740000  0.92770000  1.0 0.0901481795
H  H223  1  0.83620000  0.56260000  0.42770000  1.0 0.0901481795
H  H224  1  0.66380000  0.56260000  0.07230000  1.0 0.0901481795
H  H225  1  0.60270000  0.83840000  0.41820000  1.0 0.0802405369
H  H226  1  0.89730000  0.83840000  0.08180000  1.0 0.0802405369
H  H227  1  0.10270000  0.66160000  0.58180000  1.0 0.0802405369
H  H228  1  0.39730000  0.66160000  0.91820000  1.0 0.0802405369
H  H229  1  0.39730000  0.16160000  0.58180000  1.0 0.0802405369
H  H230  1  0.10270000  0.16160000  0.91820000  1.0 0.0802405369
H  H231  1  0.89730000  0.33840000  0.41820000  1.0 0.0802405369
H  H232  1  0.60270000  0.33840000  0.08180000  1.0 0.0802405369
H  H233  1  0.57080000  0.90240000  0.30950000  1.0 0.1092419966
H  H234  1  0.92920000  0.90240000  0.19050000  1.0 0.1092419966
H  H235  1  0.07080000  0.59760000  0.69050000  1.0 0.1092419966
H  H236  1  0.42920000  0.59760000  0.80950000  1.0 0.1092419966
H  H237  1  0.42920000  0.09760000  0.69050000  1.0 0.1092419966
H  H238  1  0.07080000  0.09760000  0.80950000  1.0 0.1092419966
H  H239  1  0.92920000  0.40240000  0.30950000  1.0 0.1092419966
H  H240  1  0.57080000  0.40240000  0.19050000  1.0 0.1092419966
H  H241  1  0.53980000  0.85340000  0.29090000  1.0 0.0702130986
H  H242  1  0.96020000  0.85340000  0.20910000  1.0 0.0702130986
H  H243  1  0.03980000  0.64660000  0.70910000  1.0 0.0702130986
H  H244  1  0.46020000  0.64660000  0.79090000  1.0 0.0702130986
H  H245  1  0.46020000  0.14660000  0.70910000  1.0 0.0702130986
H  H246  1  0.03980000  0.14660000  0.79090000  1.0 0.0702130986
H  H247  1  0.96020000  0.35340000  0.29090000  1.0 0.0702130986
H  H248  1  0.53980000  0.35340000  0.20910000  1.0 0.0702130986
H  H249  1  0.51060000  0.89810000  0.32000000  1.0 0.0702130986
H  H250  1  0.98940000  0.89810000  0.18000000  1.0 0.0702130986
H  H251  1  0.01060000  0.60190000  0.68000000  1.0 0.0702130986
H  H252  1  0.48940000  0.60190000  0.82000000  1.0 0.0702130986
H  H253  1  0.48940000  0.10190000  0.68000000  1.0 0.0702130986
H  H254  1  0.01060000  0.10190000  0.82000000  1.0 0.0702130986
H  H255  1  0.98940000  0.39810000  0.32000000  1.0 0.0702130986
H  H256  1  0.51060000  0.39810000  0.18000000  1.0 0.0702130986
H  H257  1  0.52200000  0.81130000  0.42130000  1.0 0.0994892312
H  H258  1  0.97800000  0.81130000  0.07870000  1.0 0.0994892312
H  H259  1  0.02200000  0.68870000  0.57870000  1.0 0.0994892312
H  H260  1  0.47800000  0.68870000  0.92130000  1.0 0.0994892312
H  H261  1  0.47800000  0.18870000  0.57870000  1.0 0.0994892312
H  H262  1  0.02200000  0.18870000  0.92130000  1.0 0.0994892312
H  H263  1  0.97800000  0.31130000  0.42130000  1.0 0.0994892312
H  H264  1  0.52200000  0.31130000  0.07870000  1.0 0.0994892312
H  H265  1  0.48200000  0.84940000  0.39560000  1.0 0.0994892312
H  H266  1  0.01800000  0.84940000  0.10440000  1.0 0.0994892312
H  H267  1  0.98200000  0.65060000  0.60440000  1.0 0.0994892312
H  H268  1  0.51800000  0.65060000  0.89560000  1.0 0.0994892312
H  H269  1  0.51800000  0.15060000  0.60440000  1.0 0.0994892312
H  H270  1  0.98200000  0.15060000  0.89560000  1.0 0.0994892312
H  H271  1  0.01800000  0.34940000  0.39560000  1.0 0.0994892312
H  H272  1  0.48200000  0.34940000  0.10440000  1.0 0.0994892312
H  H273  1  0.49930000  0.79910000  0.36630000  1.0 0.0994892312
H  H274  1  0.00070000  0.79910000  0.13370000  1.0 0.0994892312
H  H275  1  0.99930000  0.70090000  0.63370000  1.0 0.0994892312
H  H276  1  0.50070000  0.70090000  0.86630000  1.0 0.0994892312
H  H277  1  0.50070000  0.20090000  0.63370000  1.0 0.0994892312
H  H278  1  0.99930000  0.20090000  0.86630000  1.0 0.0994892312
H  H279  1  0.00070000  0.29910000  0.36630000  1.0 0.0994892312
H  H280  1  0.49930000  0.29910000  0.13370000  1.0 0.0994892312
H  H281  1  0.06840000  0.17640000  0.38080000  1.0 0.0994892312
H  H282  1  0.43160000  0.17640000  0.11920000  1.0 0.0994892312
H  H283  1  0.56840000  0.32360000  0.61920000  1.0 0.0994892312
H  H284  1  0.93160000  0.32360000  0.88080000  1.0 0.0994892312
H  H285  1  0.93160000  0.82360000  0.61920000  1.0 0.0994892312
H  H286  1  0.56840000  0.82360000  0.88080000  1.0 0.0994892312
H  H287  1  0.43160000  0.67640000  0.38080000  1.0 0.0994892312
H  H288  1  0.06840000  0.67640000  0.11920000  1.0 0.0994892312
H  H289  1  0.06010000  0.20130000  0.45970000  1.0 0.120237969
H  H290  1  0.43990000  0.20130000  0.04030000  1.0 0.120237969
H  H291  1  0.56010000  0.29870000  0.54030000  1.0 0.120237969
H  H292  1  0.93990000  0.29870000  0.95970000  1.0 0.120237969
H  H293  1  0.93990000  0.79870000  0.54030000  1.0 0.120237969
H  H294  1  0.56010000  0.79870000  0.95970000  1.0 0.120237969
H  H295  1  0.43990000  0.70130000  0.45970000  1.0 0.120237969
H  H296  1  0.06010000  0.70130000  0.04030000  1.0 0.120237969
H  H297  1  0.11430000  0.21710000  0.48300000  1.0 0.1489767304
H  H298  1  0.38570000  0.21710000  0.01700000  1.0 0.1489767304
H  H299  1  0.61430000  0.28290000  0.51700000  1.0 0.1489767304
H  H300  1  0.88570000  0.28290000  0.98300000  1.0 0.1489767304
H  H301  1  0.88570000  0.78290000  0.51700000  1.0 0.1489767304
H  H302  1  0.61430000  0.78290000  0.98300000  1.0 0.1489767304
H  H303  1  0.38570000  0.71710000  0.48300000  1.0 0.1489767304
H  H304  1  0.11430000  0.71710000  0.01700000  1.0 0.1489767304
H  H305  1  0.08610000  0.16680000  0.50230000  1.0 0.120237969
H  H306  1  0.41390000  0.16680000  0.99770000  1.0 0.120237969
H  H307  1  0.58610000  0.33320000  0.49770000  1.0 0.120237969
H  H308  1  0.91390000  0.33320000  0.00230000  1.0 0.120237969
H  H309  1  0.91390000  0.83320000  0.49770000  1.0 0.120237969
H  H310  1  0.58610000  0.83320000  0.00230000  1.0 0.120237969
H  H311  1  0.41390000  0.66680000  0.50230000  1.0 0.120237969
H  H312  1  0.08610000  0.66680000  0.99770000  1.0 0.120237969
H  H313  1  0.17680000  0.11210000  0.41910000  1.0 0.120237969
H  H314  1  0.32320000  0.11210000  0.08090000  1.0 0.120237969
H  H315  1  0.67680000  0.38790000  0.58090000  1.0 0.120237969
H  H316  1  0.82320000  0.38790000  0.91910000  1.0 0.120237969
H  H317  1  0.82320000  0.88790000  0.58090000  1.0 0.120237969
H  H318  1  0.67680000  0.88790000  0.91910000  1.0 0.120237969
H  H319  1  0.32320000  0.61210000  0.41910000  1.0 0.120237969
H  H320  1  0.17680000  0.61210000  0.08090000  1.0 0.120237969
H  H321  1  0.16800000  0.12220000  0.47810000  1.0 0.0901481795
H  H322  1  0.33200000  0.12220000  0.02190000  1.0 0.0901481795
H  H323  1  0.66800000  0.37780000  0.52190000  1.0 0.0901481795
H  H324  1  0.83200000  0.37780000  0.97810000  1.0 0.0901481795
H  H325  1  0.83200000  0.87780000  0.52190000  1.0 0.0994892312
H  H326  1  0.66800000  0.87780000  0.97810000  1.0 0.0994892312
H  H327  1  0.33200000  0.62220000  0.47810000  1.0 0.0994892312
H  H328  1  0.16800000  0.62220000  0.02190000  1.0 0.0994892312
H  H329  1  0.19410000  0.16490000  0.44360000  1.0 0.0994892312
H  H330  1  0.30590000  0.16490000  0.05640000  1.0 0.0994892312
H  H331  1  0.69410000  0.33510000  0.55640000  1.0 0.0994892312
H  H332  1  0.80590000  0.33510000  0.94360000  1.0 0.0994892312
H  H333  1  0.80590000  0.83510000  0.55640000  1.0 0.0994892312
H  H334  1  0.69410000  0.83510000  0.94360000  1.0 0.0994892312
H  H335  1  0.30590000  0.66490000  0.44360000  1.0 0.0994892312
H  H336  1  0.19410000  0.66490000  0.05640000  1.0 0.0994892312
H  H337  1  0.03430000  0.06440000  0.28320000  1.0 0.1489767304
H  H338  1  0.46570000  0.06440000  0.21680000  1.0 0.1489767304
H  H339  1  0.53430000  0.43560000  0.71680000  1.0 0.1489767304
H  H340  1  0.96570000  0.43560000  0.78320000  1.0 0.1489767304
H  H341  1  0.96570000  0.93560000  0.71680000  1.0 0.1489767304
H  H342  1  0.53430000  0.93560000  0.78320000  1.0 0.1489767304
H  H343  1  0.46570000  0.56440000  0.28320000  1.0 0.1489767304
H  H344  1  0.03430000  0.56440000  0.21680000  1.0 0.1489767304
H  H345  1  0.06810000  0.94460000  0.31210000  1.0 0.0802405369
H  H346  1  0.43190000  0.94460000  0.18790000  1.0 0.0802405369
H  H347  1  0.56810000  0.55540000  0.68790000  1.0 0.0802405369
H  H348  1  0.93190000  0.55540000  0.81210000  1.0 0.0802405369
H  H349  1  0.93190000  0.05540000  0.68790000  1.0 0.0802405369
H  H350  1  0.56810000  0.05540000  0.81210000  1.0 0.0802405369
H  H351  1  0.43190000  0.44460000  0.31210000  1.0 0.0802405369
H  H352  1  0.06810000  0.44460000  0.18790000  1.0 0.0802405369
H  H353  1  0.04510000  0.94450000  0.25600000  1.0 0.0994892312
H  H354  1  0.45490000  0.94450000  0.24400000  1.0 0.0994892312
H  H355  1  0.54510000  0.55550000  0.74400000  1.0 0.0994892312
H  H356  1  0.95490000  0.55550000  0.75600000  1.0 0.0994892312
H  H357  1  0.95490000  0.05550000  0.74400000  1.0 0.0994892312
H  H358  1  0.54510000  0.05550000  0.75600000  1.0 0.0994892312
H  H359  1  0.45490000  0.44450000  0.25600000  1.0 0.0994892312
H  H360  1  0.04510000  0.44450000  0.24400000  1.0 0.0994892312
H  H361  1  0.01780000  0.97690000  0.29950000  1.0 0.0702130986
H  H362  1  0.48220000  0.97690000  0.20050000  1.0 0.0702130986
H  H363  1  0.51780000  0.52310000  0.70050000  1.0 0.0702130986
H  H364  1  0.98220000  0.52310000  0.79950000  1.0 0.0702130986
H  H365  1  0.98220000  0.02310000  0.70050000  1.0 0.0702130986
H  H366  1  0.51780000  0.02310000  0.79950000  1.0 0.0702130986
H  H367  1  0.48220000  0.47690000  0.29950000  1.0 0.0702130986
H  H368  1  0.01780000  0.47690000  0.20050000  1.0 0.0702130986
H  H369  1  0.15400000  0.02040000  0.24760000  1.0 0.0183378218
H  H370  1  0.34600000  0.02040000  0.25240000  1.0 0.0183378218
H  H371  1  0.65400000  0.47960000  0.75240000  1.0 0.0183378218
H  H372  1  0.84600000  0.47960000  0.74760000  1.0 0.0183378218
H  H373  1  0.84600000  0.97960000  0.75240000  1.0 0.0183378218
H  H374  1  0.65400000  0.97960000  0.74760000  1.0 0.0183378218
H  H375  1  0.34600000  0.52040000  0.24760000  1.0 0.0183378218
H  H376  1  0.15400000  0.52040000  0.25240000  1.0 0.0183378218
H  H377  1  0.12250000  0.97950000  0.21550000  1.0 0.0901481795
H  H378  1  0.37750000  0.97950000  0.28450000  1.0 0.0901481795
H  H379  1  0.62250000  0.52050000  0.78450000  1.0 0.0901481795
H  H380  1  0.87750000  0.52050000  0.71550000  1.0 0.0901481795
H  H381  1  0.87750000  0.02050000  0.78450000  1.0 0.0901481795
H  H382  1  0.62250000  0.02050000  0.71550000  1.0 0.0901481795
H  H383  1  0.37750000  0.47950000  0.21550000  1.0 0.0901481795
H  H384  1  0.12250000  0.47950000  0.28450000  1.0 0.0901481795
H  H385  1  0.14510000  0.96460000  0.26980000  1.0 0.0702130986
H  H386  1  0.35490000  0.96460000  0.23020000  1.0 0.0702130986
H  H387  1  0.64510000  0.53540000  0.73020000  1.0 0.0702130986
H  H388  1  0.85490000  0.53540000  0.76980000  1.0 0.0702130986
H  H389  1  0.85490000  0.03540000  0.73020000  1.0 0.0702130986
H  H390  1  0.64510000  0.03540000  0.76980000  1.0 0.0702130986
H  H391  1  0.35490000  0.46460000  0.26980000  1.0 0.0702130986
H  H392  1  0.14510000  0.46460000  0.23020000  1.0 0.0702130986
H  H393  1  0.17890000  0.22870000  0.22910000  1.0 0.1298043199
H  H394  1  0.32110000  0.22870000  0.27090000  1.0 0.1298043199
H  H395  1  0.67890000  0.27130000  0.77090000  1.0 0.1354168539
H  H396  1  0.82110000  0.27130000  0.72910000  1.0 0.1354168539
H  H397  1  0.82110000  0.77130000  0.77090000  1.0 0.1354168539
H  H398  1  0.67890000  0.77130000  0.72910000  1.0 0.1354168539
H  H399  1  0.32110000  0.72870000  0.22910000  1.0 0.1298043199
H  H400  1  0.17890000  0.72870000  0.27090000  1.0 0.1298043199
H  H401  1  0.21950000  0.11020000  0.19810000  1.0 0.0901481795
H  H402  1  0.28050000  0.11020000  0.30190000  1.0 0.0901481795
H  H403  1  0.71950000  0.38980000  0.80190000  1.0 0.0901481795
H  H404  1  0.78050000  0.38980000  0.69810000  1.0 0.0901481795
H  H405  1  0.78050000  0.88980000  0.80190000  1.0 0.0901481795
H  H406  1  0.71950000  0.88980000  0.69810000  1.0 0.0901481795
H  H407  1  0.28050000  0.61020000  0.19810000  1.0 0.0901481795
H  H408  1  0.21950000  0.61020000  0.30190000  1.0 0.0901481795
H  H409  1  0.27350000  0.12930000  0.17660000  1.0 0.0901481795
H  H410  1  0.22650000  0.12930000  0.32340000  1.0 0.0901481795
H  H411  1  0.77350000  0.37070000  0.82340000  1.0 0.0901481795
H  H412  1  0.72650000  0.37070000  0.67660000  1.0 0.0901481795
H  H413  1  0.72650000  0.87070000  0.82340000  1.0 0.0901481795
H  H414  1  0.77350000  0.87070000  0.67660000  1.0 0.0901481795
H  H415  1  0.22650000  0.62930000  0.17660000  1.0 0.0901481795
H  H416  1  0.27350000  0.62930000  0.32340000  1.0 0.0901481795
H  H417  1  0.22480000  0.12620000  0.14000000  1.0 0.0994892312
H  H418  1  0.27520000  0.12620000  0.36000000  1.0 0.0994892312
H  H419  1  0.72480000  0.37380000  0.86000000  1.0 0.0994892312
H  H420  1  0.77520000  0.37380000  0.64000000  1.0 0.0994892312
H  H421  1  0.77520000  0.87380000  0.86000000  1.0 0.0994892312
H  H422  1  0.72480000  0.87380000  0.64000000  1.0 0.0994892312
H  H423  1  0.27520000  0.62620000  0.14000000  1.0 0.0994892312
H  H424  1  0.22480000  0.62620000  0.36000000  1.0 0.0994892312
H  H425  1  0.23130000  0.25760000  0.16930000  1.0 0.0901481795
H  H426  1  0.26870000  0.25760000  0.33070000  1.0 0.0901481795
H  H427  1  0.73130000  0.24240000  0.83070000  1.0 0.0901481795
H  H428  1  0.76870000  0.24240000  0.66930000  1.0 0.0901481795
H  H429  1  0.76870000  0.74240000  0.83070000  1.0 0.0901481795
H  H430  1  0.73130000  0.74240000  0.66930000  1.0 0.0901481795
H  H431  1  0.26870000  0.75760000  0.16930000  1.0 0.0901481795
H  H432  1  0.23130000  0.75760000  0.33070000  1.0 0.0901481795
H  H433  1  0.25090000  0.21910000  0.12670000  1.0 0.1092419966
H  H434  1  0.24910000  0.21910000  0.37330000  1.0 0.1092419966
H  H435  1  0.75090000  0.28090000  0.87330000  1.0 0.1092419966
H  H436  1  0.74910000  0.28090000  0.62670000  1.0 0.1092419966
H  H437  1  0.74910000  0.78090000  0.87330000  1.0 0.1092419966
H  H438  1  0.75090000  0.78090000  0.62670000  1.0 0.1092419966
H  H439  1  0.24910000  0.71910000  0.12670000  1.0 0.1092419966
H  H440  1  0.25090000  0.71910000  0.37330000  1.0 0.1092419966
H  H441  1  0.28430000  0.22800000  0.17670000  1.0 0.0901481795
H  H442  1  0.21570000  0.22800000  0.32330000  1.0 0.0901481795
H  H443  1  0.78430000  0.27200000  0.82330000  1.0 0.0901481795
H  H444  1  0.71570000  0.27200000  0.67670000  1.0 0.0901481795
H  H445  1  0.71570000  0.77200000  0.82330000  1.0 0.0901481795
H  H446  1  0.78430000  0.77200000  0.67670000  1.0 0.0901481795
H  H447  1  0.21570000  0.72800000  0.17670000  1.0 0.0901481795
H  H448  1  0.28430000  0.72800000  0.32330000  1.0 0.0901481795
H  H449  1  0.79680000  0.98600000  0.51500000  1.0 0.0802405369
H  H450  1  0.70320000  0.98600000  0.98500000  1.0 0.0802405369
H  H451  1  0.29680000  0.51400000  0.48500000  1.0 0.0802405369
H  H452  1  0.20320000  0.51400000  0.01500000  1.0 0.0802405369
H  H453  1  0.20320000  0.01400000  0.48500000  1.0 0.0702130986
H  H454  1  0.29680000  0.01400000  0.01500000  1.0 0.0702130986
H  H455  1  0.70320000  0.48600000  0.51500000  1.0 0.0702130986
H  H456  1  0.79680000  0.48600000  0.98500000  1.0 0.0702130986
H  H457  1  0.87410000  0.98720000  0.55190000  1.0 0.0901481795
H  H458  1  0.62590000  0.98720000  0.94810000  1.0 0.0901481795
H  H459  1  0.37410000  0.51280000  0.44810000  1.0 0.0901481795
H  H460  1  0.12590000  0.51280000  0.05190000  1.0 0.0901481795
H  H461  1  0.12590000  0.01280000  0.44810000  1.0 0.0901481795
H  H462  1  0.37410000  0.01280000  0.05190000  1.0 0.0901481795
H  H463  1  0.62590000  0.48720000  0.55190000  1.0 0.0901481795
H  H464  1  0.87410000  0.48720000  0.94810000  1.0 0.0901481795
H  H465  1  0.87310000  0.03510000  0.58920000  1.0 0.1092419966
H  H466  1  0.62690000  0.03510000  0.91080000  1.0 0.1092419966
H  H467  1  0.37310000  0.46490000  0.41080000  1.0 0.1092419966
H  H468  1  0.12690000  0.46490000  0.08920000  1.0 0.1092419966
H  H469  1  0.12690000  0.96490000  0.41080000  1.0 0.1092419966
H  H470  1  0.37310000  0.96490000  0.08920000  1.0 0.1092419966
H  H471  1  0.62690000  0.53510000  0.58920000  1.0 0.1092419966
H  H472  1  0.87310000  0.53510000  0.91080000  1.0 0.1092419966
H  H473  1  0.87460000  0.97880000  0.61190000  1.0 0.0597529989
H  H474  1  0.62540000  0.97880000  0.88810000  1.0 0.0597529989
H  H475  1  0.37460000  0.52120000  0.38810000  1.0 0.0597529989
H  H476  1  0.12540000  0.52120000  0.11190000  1.0 0.0597529989
H  H477  1  0.12540000  0.02120000  0.38810000  1.0 0.0597529989
H  H478  1  0.37460000  0.02120000  0.11190000  1.0 0.0597529989
H  H479  1  0.62540000  0.47880000  0.61190000  1.0 0.0597529989
H  H480  1  0.87460000  0.47880000  0.88810000  1.0 0.0597529989
H  H481  1  0.74350000  0.99410000  0.62470000  1.0 0.1298043199
H  H482  1  0.75650000  0.99410000  0.87530000  1.0 0.1298043199
H  H483  1  0.24350000  0.50590000  0.37530000  1.0 0.1298043199
H  H484  1  0.25650000  0.50590000  0.12470000  1.0 0.1298043199
H  H485  1  0.25650000  0.00590000  0.37530000  1.0 0.1298043199
H  H486  1  0.24350000  0.00590000  0.12470000  1.0 0.1298043199
H  H487  1  0.75650000  0.49410000  0.62470000  1.0 0.1298043199
H  H488  1  0.74350000  0.49410000  0.87530000  1.0 0.1298043199
H  H489  1  0.79360000  0.97410000  0.65340000  1.0 0.0802405369
H  H490  1  0.70640000  0.97410000  0.84660000  1.0 0.0802405369
H  H491  1  0.29360000  0.52590000  0.34660000  1.0 0.0802405369
H  H492  1  0.20640000  0.52590000  0.15340000  1.0 0.0802405369
H  H493  1  0.20640000  0.02590000  0.34660000  1.0 0.0802405369
H  H494  1  0.29360000  0.02590000  0.15340000  1.0 0.0802405369
H  H495  1  0.70640000  0.47410000  0.65340000  1.0 0.0802405369
H  H496  1  0.79360000  0.47410000  0.84660000  1.0 0.0802405369
H  H497  1  0.78450000  0.03370000  0.64630000  1.0 0.120237969
H  H498  1  0.71550000  0.03370000  0.85370000  1.0 0.120237969
H  H499  1  0.28450000  0.46630000  0.35370000  1.0 0.120237969
H  H500  1  0.21550000  0.46630000  0.14630000  1.0 0.120237969
H  H501  1  0.21550000  0.96630000  0.35370000  1.0 0.120237969
H  H502  1  0.28450000  0.96630000  0.14630000  1.0 0.120237969
H  H503  1  0.71550000  0.53370000  0.64630000  1.0 0.120237969
H  H504  1  0.78450000  0.53370000  0.85370000  1.0 0.120237969
H  H505  1  0.98590000  0.01670000  0.20760000  1.0 0.0702130986
H  H506  1  0.51410000  0.01670000  0.29240000  1.0 0.0702130986
H  H507  1  0.48590000  0.48330000  0.79240000  1.0 0.0702130986
H  H508  1  0.01410000  0.48330000  0.70760000  1.0 0.0702130986
H  H509  1  0.01410000  0.98330000  0.79240000  1.0 0.0702130986
H  H510  1  0.48590000  0.98330000  0.70760000  1.0 0.0702130986
H  H511  1  0.51410000  0.51670000  0.20760000  1.0 0.0702130986
H  H512  1  0.98590000  0.51670000  0.29240000  1.0 0.0702130986
H  H513  1  0.86260000  0.02310000  0.23820000  1.0 0.120237969
H  H514  1  0.63740000  0.02310000  0.26180000  1.0 0.120237969
H  H515  1  0.36260000  0.47690000  0.76180000  1.0 0.120237969
H  H516  1  0.13740000  0.47690000  0.73820000  1.0 0.120237969
H  H517  1  0.13740000  0.97690000  0.76180000  1.0 0.120237969
H  H518  1  0.36260000  0.97690000  0.73820000  1.0 0.120237969
H  H519  1  0.63740000  0.52310000  0.23820000  1.0 0.120237969
H  H520  1  0.86260000  0.52310000  0.26180000  1.0 0.120237969
H  H521  1  0.84290000  0.04390000  0.18470000  1.0 0.0702130986
H  H522  1  0.65710000  0.04390000  0.31530000  1.0 0.0702130986
H  H523  1  0.34290000  0.45610000  0.81530000  1.0 0.0702130986
H  H524  1  0.15710000  0.45610000  0.68470000  1.0 0.0702130986
H  H525  1  0.15710000  0.95610000  0.81530000  1.0 0.0702130986
H  H526  1  0.34290000  0.95610000  0.68470000  1.0 0.0702130986
H  H527  1  0.65710000  0.54390000  0.18470000  1.0 0.0702130986
H  H528  1  0.84290000  0.54390000  0.31530000  1.0 0.0702130986
H  H529  1  0.84480000  0.98410000  0.19530000  1.0 0.0901481795
H  H530  1  0.65520000  0.98410000  0.30470000  1.0 0.0901481795
H  H531  1  0.34480000  0.51590000  0.80470000  1.0 0.0901481795
H  H532  1  0.15520000  0.51590000  0.69530000  1.0 0.0901481795
H  H533  1  0.15520000  0.01590000  0.80470000  1.0 0.0901481795
H  H534  1  0.34480000  0.01590000  0.69530000  1.0 0.0901481795
H  H535  1  0.65520000  0.48410000  0.19530000  1.0 0.0901481795
H  H536  1  0.84480000  0.48410000  0.30470000  1.0 0.0901481795
H  H537  1  0.95640000  0.99200000  0.12500000  1.0 0.0901481795
H  H538  1  0.54360000  0.99200000  0.37500000  1.0 0.0901481795
H  H539  1  0.45640000  0.50800000  0.87500000  1.0 0.0901481795
H  H540  1  0.04360000  0.50800000  0.62500000  1.0 0.0901481795
H  H541  1  0.04360000  0.00800000  0.87500000  1.0 0.0901481795
H  H542  1  0.45640000  0.00800000  0.62500000  1.0 0.0901481795
H  H543  1  0.54360000  0.49200000  0.12500000  1.0 0.0901481795
H  H544  1  0.95640000  0.49200000  0.37500000  1.0 0.0901481795
H  H545  1  0.89610000  0.98460000  0.11690000  1.0 0.0702130986
H  H546  1  0.60390000  0.98460000  0.38310000  1.0 0.0702130986
H  H547  1  0.39610000  0.51540000  0.88310000  1.0 0.0702130986
H  H548  1  0.10390000  0.51540000  0.61690000  1.0 0.0702130986
H  H549  1  0.10390000  0.01540000  0.88310000  1.0 0.0702130986
H  H550  1  0.39610000  0.01540000  0.61690000  1.0 0.0702130986
H  H551  1  0.60390000  0.48460000  0.11690000  1.0 0.0702130986
H  H552  1  0.89610000  0.48460000  0.38310000  1.0 0.0702130986
H  H553  1  0.92090000  0.04000000  0.11270000  1.0 0.0901481795
H  H554  1  0.57910000  0.04000000  0.38730000  1.0 0.0901481795
H  H555  1  0.42090000  0.46000000  0.88730000  1.0 0.0901481795
H  H556  1  0.07910000  0.46000000  0.61270000  1.0 0.0901481795
H  H557  1  0.07910000  0.96000000  0.88730000  1.0 0.0901481795
H  H558  1  0.42090000  0.96000000  0.61270000  1.0 0.0901481795
H  H559  1  0.57910000  0.54000000  0.11270000  1.0 0.0901481795
H  H560  1  0.92090000  0.54000000  0.38730000  1.0 0.0901481795
H  H561  1  0.76840000  0.90530000  0.32160000  1.0 0.1595182285
H  H562  1  0.73160000  0.90530000  0.17840000  1.0 0.1595182285
H  H563  1  0.26840000  0.59470000  0.67840000  1.0 0.1595182285
H  H564  1  0.23160000  0.59470000  0.82160000  1.0 0.1595182285
H  H565  1  0.23160000  0.09470000  0.67840000  1.0 0.1595182285
H  H566  1  0.26840000  0.09470000  0.82160000  1.0 0.1595182285
H  H567  1  0.73160000  0.40530000  0.32160000  1.0 0.1595182285
H  H568  1  0.76840000  0.40530000  0.17840000  1.0 0.1595182285
H  H569  1  0.81320000  0.93540000  0.25770000  1.0 0.0422179202
H  H570  1  0.68680000  0.93540000  0.24230000  1.0 0.0422179202
H  H571  1  0.31320000  0.56460000  0.74230000  1.0 0.0422179202
H  H572  1  0.18680000  0.56460000  0.75770000  1.0 0.0422179202
H  H573  1  0.18680000  0.06460000  0.74230000  1.0 0.0422179202
H  H574  1  0.31320000  0.06460000  0.75770000  1.0 0.0422179202
H  H575  1  0.68680000  0.43540000  0.25770000  1.0 0.0422179202
H  H576  1  0.81320000  0.43540000  0.24230000  1.0 0.0422179202
H  H577  1  0.86830000  0.90940000  0.26370000  1.0 0.0702130986
H  H578  1  0.63170000  0.90940000  0.23630000  1.0 0.0702130986
H  H579  1  0.36830000  0.59060000  0.73630000  1.0 0.0702130986
H  H580  1  0.13170000  0.59060000  0.76370000  1.0 0.0702130986
H  H581  1  0.13170000  0.09060000  0.73630000  1.0 0.0702130986
H  H582  1  0.36830000  0.09060000  0.76370000  1.0 0.0702130986
H  H583  1  0.63170000  0.40940000  0.26370000  1.0 0.0702130986
H  H584  1  0.86830000  0.40940000  0.23630000  1.0 0.0702130986
H  H585  1  0.83370000  0.89740000  0.21510000  1.0 0.0702130986
H  H586  1  0.66630000  0.89740000  0.28490000  1.0 0.0702130986
H  H587  1  0.33370000  0.60260000  0.78490000  1.0 0.0702130986
H  H588  1  0.16630000  0.60260000  0.71510000  1.0 0.0702130986
H  H589  1  0.16630000  0.10260000  0.78490000  1.0 0.0702130986
H  H590  1  0.33370000  0.10260000  0.71510000  1.0 0.0702130986
H  H591  1  0.66630000  0.39740000  0.21510000  1.0 0.0702130986
H  H592  1  0.83370000  0.39740000  0.28490000  1.0 0.0702130986
H  H593  1  0.81470000  0.78730000  0.27750000  1.0 0.1092419966
H  H594  1  0.68530000  0.78730000  0.22250000  1.0 0.1092419966
H  H595  1  0.31470000  0.71270000  0.72250000  1.0 0.1092419966
H  H596  1  0.18530000  0.71270000  0.77750000  1.0 0.1092419966
H  H597  1  0.18530000  0.21270000  0.72250000  1.0 0.1092419966
H  H598  1  0.31470000  0.21270000  0.77750000  1.0 0.1092419966
H  H599  1  0.68530000  0.28730000  0.27750000  1.0 0.1092419966
H  H600  1  0.81470000  0.28730000  0.22250000  1.0 0.1092419966
H  H601  1  0.82610000  0.81320000  0.22400000  1.0 0.0901481795
H  H602  1  0.67390000  0.81320000  0.27600000  1.0 0.0901481795
H  H603  1  0.32610000  0.68680000  0.77600000  1.0 0.0901481795
H  H604  1  0.17390000  0.68680000  0.72400000  1.0 0.0901481795
H  H605  1  0.17390000  0.18680000  0.77600000  1.0 0.0901481795
H  H606  1  0.32610000  0.18680000  0.72400000  1.0 0.0901481795
H  H607  1  0.67390000  0.31320000  0.22400000  1.0 0.0901481795
H  H608  1  0.82610000  0.31320000  0.27600000  1.0 0.0901481795
H  H609  1  0.86810000  0.81550000  0.26800000  1.0 0.0994892312
H  H610  1  0.63190000  0.81550000  0.23200000  1.0 0.0994892312
H  H611  1  0.36810000  0.68450000  0.73200000  1.0 0.0994892312
H  H612  1  0.13190000  0.68450000  0.76800000  1.0 0.0994892312
H  H613  1  0.13190000  0.18450000  0.73200000  1.0 0.0994892312
H  H614  1  0.36810000  0.18450000  0.76800000  1.0 0.0994892312
H  H615  1  0.63190000  0.31550000  0.26800000  1.0 0.0994892312
H  H616  1  0.86810000  0.31550000  0.23200000  1.0 0.0994892312
H  H617  1  0.65660000  0.94330000  0.40720000  1.0 0.0597529989
H  H618  1  0.84340000  0.94330000  0.09280000  1.0 0.0597529989
H  H619  1  0.15660000  0.55670000  0.59280000  1.0 0.0597529989
H  H620  1  0.34340000  0.55670000  0.90720000  1.0 0.0597529989
H  H621  1  0.34340000  0.05670000  0.59280000  1.0 0.0597529989
H  H622  1  0.15660000  0.05670000  0.90720000  1.0 0.0597529989
H  H623  1  0.84340000  0.44330000  0.40720000  1.0 0.0597529989
H  H624  1  0.65660000  0.44330000  0.09280000  1.0 0.0597529989
H  H625  1  0.70430000  0.06390000  0.33800000  1.0 0.0702130986
H  H626  1  0.79570000  0.06390000  0.16200000  1.0 0.0702130986
H  H627  1  0.20430000  0.43610000  0.66200000  1.0 0.0702130986
H  H628  1  0.29570000  0.43610000  0.83800000  1.0 0.0702130986
H  H629  1  0.29570000  0.93610000  0.66200000  1.0 0.0702130986
H  H630  1  0.20430000  0.93610000  0.83800000  1.0 0.0702130986
H  H631  1  0.79570000  0.56390000  0.33800000  1.0 0.0702130986
H  H632  1  0.70430000  0.56390000  0.16200000  1.0 0.0702130986
H  H633  1  0.69330000  0.07180000  0.39700000  1.0 0.0702130986
H  H634  1  0.80670000  0.07180000  0.10300000  1.0 0.0702130986
H  H635  1  0.19330000  0.42820000  0.60300000  1.0 0.0702130986
H  H636  1  0.30670000  0.42820000  0.89700000  1.0 0.0702130986
H  H637  1  0.30670000  0.92820000  0.60300000  1.0 0.0702130986
H  H638  1  0.19330000  0.92820000  0.89700000  1.0 0.0702130986
H  H639  1  0.80670000  0.57180000  0.39700000  1.0 0.0597529989
H  H640  1  0.69330000  0.57180000  0.10300000  1.0 0.0597529989
H  H641  1  0.74170000  0.03930000  0.37920000  1.0 0.0597529989
H  H642  1  0.75830000  0.03930000  0.12080000  1.0 0.0597529989
H  H643  1  0.24170000  0.46070000  0.62080000  1.0 0.0597529989
H  H644  1  0.25830000  0.46070000  0.87920000  1.0 0.0597529989
H  H645  1  0.25830000  0.96070000  0.62080000  1.0 0.0597529989
H  H646  1  0.24170000  0.96070000  0.87920000  1.0 0.0597529989
H  H647  1  0.75830000  0.53930000  0.37920000  1.0 0.0597529989
H  H648  1  0.74170000  0.53930000  0.12080000  1.0 0.0597529989
H  H649  1  0.62780000  0.01150000  0.31230000  1.0 0.0802405369
H  H650  1  0.87220000  0.01150000  0.18770000  1.0 0.0802405369
H  H651  1  0.12780000  0.48850000  0.68770000  1.0 0.0802405369
H  H652  1  0.37220000  0.48850000  0.81230000  1.0 0.0802405369
H  H653  1  0.37220000  0.98850000  0.68770000  1.0 0.0802405369
H  H654  1  0.12780000  0.98850000  0.81230000  1.0 0.0802405369
H  H655  1  0.87220000  0.51150000  0.31230000  1.0 0.0802405369
H  H656  1  0.62780000  0.51150000  0.18770000  1.0 0.0802405369
H  H657  1  0.60160000  0.98140000  0.35810000  1.0 0.0597529989
H  H658  1  0.89840000  0.98140000  0.14190000  1.0 0.0597529989
H  H659  1  0.10160000  0.51860000  0.64190000  1.0 0.0597529989
H  H660  1  0.39840000  0.51860000  0.85810000  1.0 0.0597529989
H  H661  1  0.39840000  0.01860000  0.64190000  1.0 0.0597529989
H  H662  1  0.10160000  0.01860000  0.85810000  1.0 0.0597529989
H  H663  1  0.89840000  0.48140000  0.35810000  1.0 0.0597529989
H  H664  1  0.60160000  0.48140000  0.14190000  1.0 0.0597529989
H  H665  1  0.60990000  0.04150000  0.36180000  1.0 0.0802405369
H  H666  1  0.89010000  0.04150000  0.13820000  1.0 0.0802405369
H  H667  1  0.10990000  0.45850000  0.63820000  1.0 0.0802405369
H  H668  1  0.39010000  0.45850000  0.86180000  1.0 0.0802405369
H  H669  1  0.39010000  0.95850000  0.63820000  1.0 0.0802405369
H  H670  1  0.10990000  0.95850000  0.86180000  1.0 0.0802405369
H  H671  1  0.89010000  0.54150000  0.36180000  1.0 0.0802405369
H  H672  1  0.60990000  0.54150000  0.13820000  1.0 0.0802405369
H  H673  1  0.60660000  0.83730000  0.37950000  1.0 0.120237969
H  H674  1  0.89340000  0.83730000  0.12050000  1.0 0.120237969
H  H675  1  0.10660000  0.66270000  0.62050000  1.0 0.120237969
H  H676  1  0.39340000  0.66270000  0.87950000  1.0 0.120237969
H  H677  1  0.39340000  0.16270000  0.62050000  1.0 0.120237969
H  H678  1  0.10660000  0.16270000  0.87950000  1.0 0.120237969
H  H679  1  0.89340000  0.33730000  0.37950000  1.0 0.120237969
H  H680  1  0.60660000  0.33730000  0.12050000  1.0 0.120237969
H  H681  1  0.61160000  0.94260000  0.31060000  1.0 0.0702130986
H  H682  1  0.88840000  0.94260000  0.18940000  1.0 0.0702130986
H  H683  1  0.11160000  0.55740000  0.68940000  1.0 0.0702130986
H  H684  1  0.38840000  0.55740000  0.81060000  1.0 0.0702130986
H  H685  1  0.38840000  0.05740000  0.68940000  1.0 0.0702130986
H  H686  1  0.11160000  0.05740000  0.81060000  1.0 0.0702130986
H  H687  1  0.88840000  0.44260000  0.31060000  1.0 0.0702130986
H  H688  1  0.61160000  0.44260000  0.18940000  1.0 0.0702130986
H  H689  1  0.56260000  0.92980000  0.27660000  1.0 0.0702130986
H  H690  1  0.93740000  0.92980000  0.22340000  1.0 0.0702130986
H  H691  1  0.06260000  0.57020000  0.72340000  1.0 0.0702130986
H  H692  1  0.43740000  0.57020000  0.77660000  1.0 0.0702130986
H  H693  1  0.43740000  0.07020000  0.72340000  1.0 0.0702130986
H  H694  1  0.06260000  0.07020000  0.77660000  1.0 0.0702130986
H  H695  1  0.93740000  0.42980000  0.27660000  1.0 0.0702130986
H  H696  1  0.56260000  0.42980000  0.22340000  1.0 0.0702130986
H  H697  1  0.55580000  0.96020000  0.32860000  1.0 0.0994892312
H  H698  1  0.94420000  0.96020000  0.17140000  1.0 0.0994892312
H  H699  1  0.05580000  0.53980000  0.67140000  1.0 0.0994892312
H  H700  1  0.44420000  0.53980000  0.82860000  1.0 0.0994892312
H  H701  1  0.44420000  0.03980000  0.67140000  1.0 0.0994892312
H  H702  1  0.05580000  0.03980000  0.82860000  1.0 0.0994892312
H  H703  1  0.94420000  0.46020000  0.32860000  1.0 0.0994892312
H  H704  1  0.55580000  0.46020000  0.17140000  1.0 0.0994892312
H  H705  1  0.51810000  0.83160000  0.36030000  1.0 0.1092419966
H  H706  1  0.98190000  0.83160000  0.13970000  1.0 0.1092419966
H  H707  1  0.01810000  0.66840000  0.63970000  1.0 0.1092419966
H  H708  1  0.48190000  0.66840000  0.86030000  1.0 0.1092419966
H  H709  1  0.48190000  0.16840000  0.63970000  1.0 0.1092419966
H  H710  1  0.01810000  0.16840000  0.86030000  1.0 0.1092419966
H  H711  1  0.98190000  0.33160000  0.36030000  1.0 0.1092419966
H  H712  1  0.51810000  0.33160000  0.13970000  1.0 0.1092419966
H  H713  1  0.49390000  0.88740000  0.35860000  1.0 0.0901481795
H  H714  1  0.00610000  0.88740000  0.14140000  1.0 0.0901481795
H  H715  1  0.99390000  0.61260000  0.64140000  1.0 0.0901481795
H  H716  1  0.50610000  0.61260000  0.85860000  1.0 0.0901481795
H  H717  1  0.50610000  0.11260000  0.64140000  1.0 0.0901481795
H  H718  1  0.99390000  0.11260000  0.85860000  1.0 0.0901481795
H  H719  1  0.00610000  0.38740000  0.35860000  1.0 0.0901481795
H  H720  1  0.49390000  0.38740000  0.14140000  1.0 0.0901481795
H  H721  1  0.50390000  0.85700000  0.30710000  1.0 0.048367043
H  H722  1  0.99610000  0.85700000  0.19290000  1.0 0.048367043
H  H723  1  0.00390000  0.64300000  0.69290000  1.0 0.048367043
H  H724  1  0.49610000  0.64300000  0.80710000  1.0 0.048367043
H  H725  1  0.49610000  0.14300000  0.69290000  1.0 0.048367043
H  H726  1  0.00390000  0.14300000  0.80710000  1.0 0.048367043
H  H727  1  0.99610000  0.35700000  0.30710000  1.0 0.048367043
H  H728  1  0.50390000  0.35700000  0.19290000  1.0 0.048367043
H  H729  1  0.88060000  0.92140000  0.64140000  1.0 0.0994892312
H  H730  1  0.61940000  0.92140000  0.85860000  1.0 0.0994892312
H  H731  1  0.38060000  0.57860000  0.35860000  1.0 0.0994892312
H  H732  1  0.11940000  0.57860000  0.14140000  1.0 0.0994892312
H  H733  1  0.11940000  0.07860000  0.35860000  1.0 0.0994892312
H  H734  1  0.38060000  0.07860000  0.14140000  1.0 0.0994892312
H  H735  1  0.61940000  0.42140000  0.64140000  1.0 0.0994892312
H  H736  1  0.88060000  0.42140000  0.85860000  1.0 0.0994892312
H  H737  1  0.80650000  0.96800000  0.59890000  1.0 0.120237969
H  H738  1  0.69350000  0.96800000  0.90110000  1.0 0.120237969
H  H739  1  0.30650000  0.53200000  0.40110000  1.0 0.120237969
H  H740  1  0.19350000  0.53200000  0.09890000  1.0 0.120237969
H  H741  1  0.19350000  0.03200000  0.40110000  1.0 0.120237969
H  H742  1  0.30650000  0.03200000  0.09890000  1.0 0.120237969
H  H743  1  0.69350000  0.46800000  0.59890000  1.0 0.120237969
H  H744  1  0.80650000  0.46800000  0.90110000  1.0 0.120237969
H  H745  1  0.85460000  0.97470000  0.56200000  1.0 0.0901481795
H  H746  1  0.64540000  0.97470000  0.93800000  1.0 0.0901481795
H  H747  1  0.35460000  0.52530000  0.43800000  1.0 0.0901481795
H  H748  1  0.14540000  0.52530000  0.06200000  1.0 0.0901481795
H  H749  1  0.14540000  0.02530000  0.43800000  1.0 0.0901481795
H  H750  1  0.35460000  0.02530000  0.06200000  1.0 0.0901481795
H  H751  1  0.64540000  0.47470000  0.56200000  1.0 0.0901481795
H  H752  1  0.85460000  0.47470000  0.93800000  1.0 0.0901481795
H  H753  1  0.80180000  0.95260000  0.54060000  1.0 0.0597529989
H  H754  1  0.69820000  0.95260000  0.95940000  1.0 0.0597529989
H  H755  1  0.30180000  0.54740000  0.45940000  1.0 0.0597529989
H  H756  1  0.19820000  0.54740000  0.04060000  1.0 0.0597529989
H  H757  1  0.19820000  0.04740000  0.45940000  1.0 0.0597529989
H  H758  1  0.30180000  0.04740000  0.04060000  1.0 0.0597529989
H  H759  1  0.69820000  0.45260000  0.54060000  1.0 0.0597529989
H  H760  1  0.80180000  0.45260000  0.95940000  1.0 0.0597529989
H  H761  1  0.79220000  0.84480000  0.56950000  1.0 0.0802405369
H  H762  1  0.70780000  0.84480000  0.93050000  1.0 0.0802405369
H  H763  1  0.29220000  0.65520000  0.43050000  1.0 0.0802405369
H  H764  1  0.20780000  0.65520000  0.06950000  1.0 0.0802405369
H  H765  1  0.20780000  0.15520000  0.43050000  1.0 0.0802405369
H  H766  1  0.29220000  0.15520000  0.06950000  1.0 0.0802405369
H  H767  1  0.70780000  0.34480000  0.56950000  1.0 0.0802405369
H  H768  1  0.79220000  0.34480000  0.93050000  1.0 0.0802405369
H  H769  1  0.80580000  0.87740000  0.52030000  1.0 0.0901481795
H  H770  1  0.69420000  0.87740000  0.97970000  1.0 0.0901481795
H  H771  1  0.30580000  0.62260000  0.47970000  1.0 0.0901481795
H  H772  1  0.19420000  0.62260000  0.02030000  1.0 0.0901481795
H  H773  1  0.19420000  0.12260000  0.47970000  1.0 0.0901481795
H  H774  1  0.30580000  0.12260000  0.02030000  1.0 0.0901481795
H  H775  1  0.69420000  0.37740000  0.52030000  1.0 0.0901481795
H  H776  1  0.80580000  0.37740000  0.97970000  1.0 0.0901481795
H  H777  1  0.84600000  0.83690000  0.54180000  1.0 0.120237969
H  H778  1  0.65400000  0.83690000  0.95820000  1.0 0.120237969
H  H779  1  0.34600000  0.66310000  0.45820000  1.0 0.120237969
H  H780  1  0.15400000  0.66310000  0.04180000  1.0 0.120237969
H  H781  1  0.15400000  0.16310000  0.45820000  1.0 0.120237969
H  H782  1  0.34600000  0.16310000  0.04180000  1.0 0.120237969
H  H783  1  0.65400000  0.33690000  0.54180000  1.0 0.120237969
H  H784  1  0.84600000  0.33690000  0.95820000  1.0 0.120237969
H  H785  1  0.86690000  0.94650000  0.73710000  1.0 0.0901481795
H  H786  1  0.63310000  0.94650000  0.76290000  1.0 0.0901481795
H  H787  1  0.36690000  0.55350000  0.26290000  1.0 0.0901481795
H  H788  1  0.13310000  0.55350000  0.23710000  1.0 0.0901481795
H  H789  1  0.13310000  0.05350000  0.26290000  1.0 0.0901481795
H  H790  1  0.36690000  0.05350000  0.23710000  1.0 0.0901481795
H  H791  1  0.63310000  0.44650000  0.73710000  1.0 0.0901481795
H  H792  1  0.86690000  0.44650000  0.76290000  1.0 0.0901481795
H  H793  1  0.99460000  0.99680000  0.70760000  1.0 0.0901481795
H  H794  1  0.50540000  0.99680000  0.79240000  1.0 0.0901481795
H  H795  1  0.49460000  0.50320000  0.29240000  1.0 0.0901481795
H  H796  1  0.00540000  0.50320000  0.20760000  1.0 0.0901481795
H  H797  1  0.00540000  0.00320000  0.29240000  1.0 0.0901481795
H  H798  1  0.49460000  0.00320000  0.20760000  1.0 0.0901481795
H  H799  1  0.50540000  0.49680000  0.70760000  1.0 0.0901481795
H  H800  1  0.99460000  0.49680000  0.79240000  1.0 0.0901481795
H  H801  1  0.98430000  0.04120000  0.74770000  1.0 0.0597529989
H  H802  1  0.51570000  0.04120000  0.75230000  1.0 0.0597529989
H  H803  1  0.48430000  0.45880000  0.25230000  1.0 0.0597529989
H  H804  1  0.01570000  0.45880000  0.24770000  1.0 0.0597529989
H  H805  1  0.01570000  0.95880000  0.25230000  1.0 0.0597529989
H  H806  1  0.48430000  0.95880000  0.24770000  1.0 0.0597529989
H  H807  1  0.51570000  0.54120000  0.74770000  1.0 0.0597529989
H  H808  1  0.98430000  0.54120000  0.75230000  1.0 0.0597529989
H  H809  1  0.99520000  0.98460000  0.76690000  1.0 0.0597529989
H  H810  1  0.50480000  0.98460000  0.73310000  1.0 0.0597529989
H  H811  1  0.49520000  0.51540000  0.23310000  1.0 0.0597529989
H  H812  1  0.00480000  0.51540000  0.26690000  1.0 0.0597529989
H  H813  1  0.00480000  0.01540000  0.23310000  1.0 0.0597529989
H  H814  1  0.49520000  0.01540000  0.26690000  1.0 0.0597529989
H  H815  1  0.50480000  0.48460000  0.76690000  1.0 0.0597529989
H  H816  1  0.99520000  0.48460000  0.73310000  1.0 0.0597529989
H  H817  1  0.86800000  0.02750000  0.69720000  1.0 0.0901481795
H  H818  1  0.63200000  0.02750000  0.80280000  1.0 0.0901481795
H  H819  1  0.36800000  0.47250000  0.30280000  1.0 0.0901481795
H  H820  1  0.13200000  0.47250000  0.19720000  1.0 0.0901481795
H  H821  1  0.13200000  0.97250000  0.30280000  1.0 0.0901481795
H  H822  1  0.36800000  0.97250000  0.19720000  1.0 0.0901481795
H  H823  1  0.63200000  0.52750000  0.69720000  1.0 0.0901481795
H  H824  1  0.86800000  0.52750000  0.80280000  1.0 0.0901481795
H  H825  1  0.88160000  0.05800000  0.74780000  1.0 0.0702130986
H  H826  1  0.61840000  0.05800000  0.75220000  1.0 0.0702130986
H  H827  1  0.38160000  0.44200000  0.25220000  1.0 0.0702130986
H  H828  1  0.11840000  0.44200000  0.24780000  1.0 0.0702130986
H  H829  1  0.11840000  0.94200000  0.25220000  1.0 0.0702130986
H  H830  1  0.38160000  0.94200000  0.24780000  1.0 0.0702130986
H  H831  1  0.61840000  0.55800000  0.74780000  1.0 0.0702130986
H  H832  1  0.88160000  0.55800000  0.75220000  1.0 0.0702130986
H  H833  1  0.91940000  0.06060000  0.70010000  1.0 0.0802405369
H  H834  1  0.58060000  0.06060000  0.79990000  1.0 0.0802405369
H  H835  1  0.41940000  0.43940000  0.29990000  1.0 0.0802405369
H  H836  1  0.08060000  0.43940000  0.20010000  1.0 0.0802405369
H  H837  1  0.08060000  0.93940000  0.29990000  1.0 0.0802405369
H  H838  1  0.41940000  0.93940000  0.20010000  1.0 0.0802405369
H  H839  1  0.58060000  0.56060000  0.70010000  1.0 0.0802405369
H  H840  1  0.91940000  0.56060000  0.79990000  1.0 0.0901481795
H  H841  1  0.81930000  0.89410000  0.76560000  1.0 0.0901481795
H  H842  1  0.68070000  0.89410000  0.73440000  1.0 0.0901481795
H  H843  1  0.31930000  0.60590000  0.23440000  1.0 0.0901481795
H  H844  1  0.18070000  0.60590000  0.26560000  1.0 0.0901481795
H  H845  1  0.18070000  0.10590000  0.23440000  1.0 0.0802405369
H  H846  1  0.31930000  0.10590000  0.26560000  1.0 0.0802405369
H  H847  1  0.68070000  0.39410000  0.76560000  1.0 0.0901481795
H  H848  1  0.81930000  0.39410000  0.73440000  1.0 0.0901481795
H  H849  1  0.78010000  0.78220000  0.81240000  1.0 0.1092419966
H  H850  1  0.71990000  0.78220000  0.68760000  1.0 0.1092419966
H  H851  1  0.28010000  0.71780000  0.18760000  1.0 0.1092419966
H  H852  1  0.21990000  0.71780000  0.31240000  1.0 0.1092419966
H  H853  1  0.21990000  0.21780000  0.18760000  1.0 0.1092419966
H  H854  1  0.28010000  0.21780000  0.31240000  1.0 0.1092419966
H  H855  1  0.71990000  0.28220000  0.81240000  1.0 0.1092419966
H  H856  1  0.78010000  0.28220000  0.68760000  1.0 0.1092419966
H  H857  1  0.76060000  0.80630000  0.86450000  1.0 0.1092419966
H  H858  1  0.73940000  0.80630000  0.63550000  1.0 0.1092419966
H  H859  1  0.26060000  0.69370000  0.13550000  1.0 0.1092419966
H  H860  1  0.23940000  0.69370000  0.36450000  1.0 0.1092419966
H  H861  1  0.23940000  0.19370000  0.13550000  1.0 0.1092419966
H  H862  1  0.26060000  0.19370000  0.36450000  1.0 0.1092419966
H  H863  1  0.73940000  0.30630000  0.86450000  1.0 0.1092419966
H  H864  1  0.76060000  0.30630000  0.63550000  1.0 0.1092419966
H  H865  1  0.72220000  0.80140000  0.81760000  1.0 0.0994892312
H  H866  1  0.77780000  0.80140000  0.68240000  1.0 0.0994892312
H  H867  1  0.22220000  0.69860000  0.18240000  1.0 0.0994892312
H  H868  1  0.27780000  0.69860000  0.31760000  1.0 0.0994892312
H  H869  1  0.27780000  0.19860000  0.18240000  1.0 0.0994892312
H  H870  1  0.22220000  0.19860000  0.31760000  1.0 0.0994892312
H  H871  1  0.77780000  0.30140000  0.81760000  1.0 0.0994892312
H  H872  1  0.72220000  0.30140000  0.68240000  1.0 0.0994892312
H  H873  1  0.71420000  0.90580000  0.81400000  1.0 0.0597529989
H  H874  1  0.78580000  0.90580000  0.68600000  1.0 0.0597529989
H  H875  1  0.21420000  0.59420000  0.18600000  1.0 0.0597529989
H  H876  1  0.28580000  0.59420000  0.31400000  1.0 0.0597529989
H  H877  1  0.28580000  0.09420000  0.18600000  1.0 0.0597529989
H  H878  1  0.21420000  0.09420000  0.31400000  1.0 0.0597529989
H  H879  1  0.78580000  0.40580000  0.81400000  1.0 0.0597529989
H  H880  1  0.71420000  0.40580000  0.68600000  1.0 0.0597529989
H  H881  1  0.73980000  0.89400000  0.86780000  1.0 0.0597529989
H  H882  1  0.76020000  0.89400000  0.63220000  1.0 0.0597529989
H  H883  1  0.23980000  0.60600000  0.13220000  1.0 0.0597529989
H  H884  1  0.26020000  0.60600000  0.36780000  1.0 0.0597529989
H  H885  1  0.26020000  0.10600000  0.13220000  1.0 0.0597529989
H  H886  1  0.23980000  0.10600000  0.36780000  1.0 0.0597529989
H  H887  1  0.76020000  0.39400000  0.86780000  1.0 0.0597529989
H  H888  1  0.73980000  0.39400000  0.63220000  1.0 0.0597529989
H  H889  1  0.76810000  0.93070000  0.82860000  1.0 0.0597529989
H  H890  1  0.73190000  0.93070000  0.67140000  1.0 0.0597529989
H  H891  1  0.26810000  0.56930000  0.17140000  1.0 0.0597529989
H  H892  1  0.23190000  0.56930000  0.32860000  1.0 0.0597529989
H  H893  1  0.23190000  0.06930000  0.17140000  1.0 0.0597529989
H  H894  1  0.26810000  0.06930000  0.32860000  1.0 0.0597529989
H  H895  1  0.73190000  0.43070000  0.82860000  1.0 0.0597529989
H  H896  1  0.76810000  0.43070000  0.67140000  1.0 0.0597529989
C  C1  1  0.81893000  0.80430000  0.42341000  1.0 0.4999879136
C  C2  1  0.68107000  0.80430000  0.07659000  1.0 0.4999879136
C  C3  1  0.31893000  0.69570000  0.57659000  1.0 0.4999879136
C  C4  1  0.18107000  0.69570000  0.92341000  1.0 0.4999879136
C  C5  1  0.18107000  0.19570000  0.57659000  1.0 0.4999879136
C  C6  1  0.31893000  0.19570000  0.92341000  1.0 0.4999879136
C  C7  1  0.68107000  0.30430000  0.42341000  1.0 0.4999879136
C  C8  1  0.81893000  0.30430000  0.07659000  1.0 0.4999879136
C  C9  1  0.85726000  0.84103000  0.40211000  1.0 -0.0272752172
C  C10  1  0.64274000  0.84103000  0.09789000  1.0 -0.0272752172
C  C11  1  0.35726000  0.65897000  0.59789000  1.0 -0.0272752172
C  C12  1  0.14274000  0.65897000  0.90211000  1.0 -0.0204382261
C  C13  1  0.14274000  0.15897000  0.59789000  1.0 -0.0204382261
C  C14  1  0.35726000  0.15897000  0.90211000  1.0 -0.0204382261
C  C15  1  0.64274000  0.34103000  0.40211000  1.0 -0.0204382261
C  C16  1  0.85726000  0.34103000  0.09789000  1.0 -0.0204382261
C  C17  1  0.89769000  0.82211000  0.37354000  1.0 -0.1504804622
C  C18  1  0.60231000  0.82211000  0.12646000  1.0 -0.1504804622
C  C19  1  0.39769000  0.67789000  0.62646000  1.0 -0.1504804622
C  C20  1  0.10231000  0.67789000  0.87354000  1.0 -0.1504804622
C  C21  1  0.10231000  0.17789000  0.62646000  1.0 -0.1504804622
C  C22  1  0.39769000  0.17789000  0.87354000  1.0 -0.1504804622
C  C23  1  0.60231000  0.32211000  0.37354000  1.0 -0.1504804622
C  C24  1  0.89769000  0.32211000  0.12646000  1.0 -0.1504804622
C  C25  1  0.93406000  0.85446000  0.35316000  1.0 -0.0204382261
C  C26  1  0.56594000  0.85446000  0.14684000  1.0 -0.0204382261
C  C27  1  0.43406000  0.64554000  0.64684000  1.0 -0.0204382261
C  C28  1  0.06594000  0.64554000  0.85316000  1.0 -0.0204382261
C  C29  1  0.06594000  0.14554000  0.64684000  1.0 -0.0204382261
C  C30  1  0.43406000  0.14554000  0.85316000  1.0 -0.0204382261
C  C31  1  0.56594000  0.35446000  0.35316000  1.0 -0.0204382261
C  C32  1  0.93406000  0.35446000  0.14684000  1.0 -0.0204382261
C  C33  1  0.97609000  0.83475000  0.32054000  1.0 0.4999879136
C  C34  1  0.52391000  0.83475000  0.17946000  1.0 0.4999879136
C  C35  1  0.47609000  0.66525000  0.67946000  1.0 0.4999879136
C  C36  1  0.02391000  0.66525000  0.82054000  1.0 0.4999879136
C  C37  1  0.02391000  0.16525000  0.67946000  1.0 0.4999879136
C  C38  1  0.47609000  0.16525000  0.82054000  1.0 0.4999879136
C  C39  1  0.52391000  0.33475000  0.32054000  1.0 0.4999879136
C  C40  1  0.97609000  0.33475000  0.17946000  1.0 0.4999879136
C  C41  1  0.93098000  0.90644000  0.36333000  1.0 -0.2585999049
C  C42  1  0.56902000  0.90644000  0.13667000  1.0 -0.2585999049
C  C43  1  0.43098000  0.59356000  0.63667000  1.0 -0.2585999049
C  C44  1  0.06902000  0.59356000  0.86333000  1.0 -0.2585999049
C  C45  1  0.06902000  0.09356000  0.63667000  1.0 -0.2585999049
C  C46  1  0.43098000  0.09356000  0.86333000  1.0 -0.2585999049
C  C47  1  0.56902000  0.40644000  0.36333000  1.0 -0.2585999049
C  C48  1  0.93098000  0.40644000  0.13667000  1.0 -0.2585999049
C  C49  1  0.89084000  0.92470000  0.39240000  1.0 0.0994892312
C  C50  1  0.60916000  0.92470000  0.10760000  1.0 0.0994892312
C  C51  1  0.39084000  0.57530000  0.60760000  1.0 0.0994892312
C  C52  1  0.10916000  0.57530000  0.89240000  1.0 0.0994892312
C  C53  1  0.10916000  0.07530000  0.60760000  1.0 0.0994892312
C  C54  1  0.39084000  0.07530000  0.89240000  1.0 0.0994892312
C  C55  1  0.60916000  0.42470000  0.39240000  1.0 0.0994892312
C  C56  1  0.89084000  0.42470000  0.10760000  1.0 0.0994892312
C  C57  1  0.85319000  0.89249000  0.41189000  1.0 -0.3034806499
C  C58  1  0.64681000  0.89249000  0.08811000  1.0 -0.3034806499
C  C59  1  0.35319000  0.60751000  0.58811000  1.0 -0.3034806499
C  C60  1  0.14681000  0.60751000  0.91189000  1.0 -0.3034806499
C  C61  1  0.14681000  0.10751000  0.58811000  1.0 -0.3034806499
C  C62  1  0.35319000  0.10751000  0.91189000  1.0 -0.3034806499
C  C63  1  0.64681000  0.39249000  0.41189000  1.0 -0.3034806499
C  C64  1  0.85319000  0.39249000  0.08811000  1.0 -0.3034806499
C  C65  1  0.90220000  0.01841000  0.37228000  1.0 -0.1913803732
C  C66  1  0.59780000  0.01841000  0.12772000  1.0 -0.1913803732
C  C67  1  0.40220000  0.48159000  0.62772000  1.0 -0.1913803732
C  C68  1  0.09780000  0.48159000  0.87228000  1.0 -0.1913803732
C  C69  1  0.09780000  0.98159000  0.62772000  1.0 -0.1913803732
C  C70  1  0.40220000  0.98159000  0.87228000  1.0 -0.1913803732
C  C71  1  0.59780000  0.51841000  0.37228000  1.0 -0.1913803732
C  C72  1  0.90220000  0.51841000  0.12772000  1.0 -0.1913803732
C  C73  1  0.89002000  0.06042000  0.39893000  1.0 0.0901481795
C  C74  1  0.60998000  0.06042000  0.10107000  1.0 0.0901481795
C  C75  1  0.39002000  0.43958000  0.60107000  1.0 0.0994892312
C  C76  1  0.10998000  0.43958000  0.89893000  1.0 0.0994892312
C  C77  1  0.10998000  0.93958000  0.60107000  1.0 0.0994892312
C  C78  1  0.39002000  0.93958000  0.89893000  1.0 0.0994892312
C  C79  1  0.60998000  0.56042000  0.39893000  1.0 0.0994892312
C  C80  1  0.89002000  0.56042000  0.10107000  1.0 0.0901481795
C  C81  1  0.89479000  0.11279000  0.38361000  1.0 0.0702130986
C  C82  1  0.60521000  0.11279000  0.11639000  1.0 0.0702130986
C  C83  1  0.39479000  0.38721000  0.61639000  1.0 0.0702130986
C  C84  1  0.10521000  0.38721000  0.88361000  1.0 0.0702130986
C  C85  1  0.10521000  0.88721000  0.61639000  1.0 0.0702130986
C  C86  1  0.39479000  0.88721000  0.88361000  1.0 0.0702130986
C  C87  1  0.60521000  0.61279000  0.38361000  1.0 0.0702130986
C  C88  1  0.89479000  0.61279000  0.11639000  1.0 0.0702130986
C  C89  1  0.93674000  0.12831000  0.35533000  1.0 -0.1504804622
C  C90  1  0.56326000  0.12831000  0.14467000  1.0 -0.1504804622
C  C91  1  0.43674000  0.37169000  0.64467000  1.0 -0.1504804622
C  C92  1  0.06326000  0.37169000  0.85533000  1.0 -0.1504804622
C  C93  1  0.06326000  0.87169000  0.64467000  1.0 -0.1504804622
C  C94  1  0.43674000  0.87169000  0.85533000  1.0 -0.1504804622
C  C95  1  0.56326000  0.62831000  0.35533000  1.0 -0.1504804622
C  C96  1  0.93674000  0.62831000  0.14467000  1.0 -0.1504804622
C  C97  1  0.93925000  0.17815000  0.33825000  1.0 -0.0204382261
C  C98  1  0.56075000  0.17815000  0.16175000  1.0 -0.0204382261
C  C99  1  0.43925000  0.32185000  0.66175000  1.0 -0.0204382261
C  C100  1  0.06075000  0.32185000  0.83825000  1.0 -0.0204382261
C  C101  1  0.06075000  0.82185000  0.66175000  1.0 -0.0204382261
C  C102  1  0.43925000  0.82185000  0.83825000  1.0 -0.0204382261
C  C103  1  0.56075000  0.67815000  0.33825000  1.0 -0.0204382261
C  C104  1  0.93925000  0.67815000  0.16175000  1.0 -0.0204382261
C  C105  1  0.98486000  0.19411000  0.30777000  1.0 0.565660197
C  C106  1  0.51514000  0.19411000  0.19223000  1.0 0.565660197
C  C107  1  0.48486000  0.30589000  0.69223000  1.0 0.565660197
C  C108  1  0.01514000  0.30589000  0.80777000  1.0 0.565660197
C  C109  1  0.01514000  0.80589000  0.69223000  1.0 0.565660197
C  C110  1  0.48486000  0.80589000  0.80777000  1.0 0.565660197
C  C111  1  0.51514000  0.69411000  0.30777000  1.0 0.565660197
C  C112  1  0.98486000  0.69411000  0.19223000  1.0 0.565660197
C  C113  1  0.90128000  0.21246000  0.35058000  1.0 -0.1708057749
C  C114  1  0.59872000  0.21246000  0.14942000  1.0 -0.1708057749
C  C115  1  0.40128000  0.28754000  0.64942000  1.0 -0.1708057749
C  C116  1  0.09872000  0.28754000  0.85058000  1.0 -0.1708057749
C  C117  1  0.09872000  0.78754000  0.64942000  1.0 -0.1708057749
C  C118  1  0.40128000  0.78754000  0.85058000  1.0 -0.1708057749
C  C119  1  0.59872000  0.71246000  0.35058000  1.0 -0.1708057749
C  C120  1  0.90128000  0.71246000  0.14942000  1.0 -0.1708057749
C  C121  1  0.86009000  0.19700000  0.38071000  1.0 -0.0204382261
C  C122  1  0.63991000  0.19700000  0.11929000  1.0 -0.0204382261
C  C123  1  0.36009000  0.30300000  0.61929000  1.0 -0.0204382261
C  C124  1  0.13991000  0.30300000  0.88071000  1.0 -0.0204382261
C  C125  1  0.13991000  0.80300000  0.61929000  1.0 -0.0204382261
C  C126  1  0.36009000  0.80300000  0.88071000  1.0 -0.0204382261
C  C127  1  0.63991000  0.69700000  0.38071000  1.0 -0.0204382261
C  C128  1  0.86009000  0.69700000  0.11929000  1.0 -0.0204382261
C  C129  1  0.81906000  0.23369000  0.39683000  1.0 0.5499147956
C  C130  1  0.68094000  0.23369000  0.10317000  1.0 0.5499147956
C  C131  1  0.31906000  0.26631000  0.60317000  1.0 0.5499147956
C  C132  1  0.18094000  0.26631000  0.89683000  1.0 0.5499147956
C  C133  1  0.18094000  0.76631000  0.60317000  1.0 0.5499147956
C  C134  1  0.31906000  0.76631000  0.89683000  1.0 0.5499147956
C  C135  1  0.68094000  0.73369000  0.39683000  1.0 0.5499147956
C  C136  1  0.81906000  0.73369000  0.10317000  1.0 0.5499147956
C  C137  1  0.85671000  0.14738000  0.39676000  1.0 -0.1407458683
C  C138  1  0.64329000  0.14738000  0.10324000  1.0 -0.1407458683
C  C139  1  0.35671000  0.35262000  0.60324000  1.0 -0.1407458683
C  C140  1  0.14329000  0.35262000  0.89676000  1.0 -0.1407458683
C  C141  1  0.14329000  0.85262000  0.60324000  1.0 -0.1407458683
C  C142  1  0.35671000  0.85262000  0.89676000  1.0 -0.1407458683
C  C143  1  0.64329000  0.64738000  0.39676000  1.0 -0.1407458683
C  C144  1  0.85671000  0.64738000  0.10324000  1.0 -0.1407458683
C  C145  1  0.80097000  0.68842000  0.53253000  1.0 0.4999879136
C  C146  1  0.69903000  0.68842000  0.96747000  1.0 0.4999879136
C  C147  1  0.30097000  0.81158000  0.46747000  1.0 0.4999879136
C  C148  1  0.19903000  0.81158000  0.03253000  1.0 0.4999879136
C  C149  1  0.19903000  0.31158000  0.46747000  1.0 0.4999879136
C  C150  1  0.30097000  0.31158000  0.03253000  1.0 0.4999879136
C  C151  1  0.69903000  0.18842000  0.53253000  1.0 0.4999879136
C  C152  1  0.80097000  0.18842000  0.96747000  1.0 0.4999879136
C  C153  1  0.83247000  0.66832000  0.57602000  1.0 0.0183378218
C  C154  1  0.66753000  0.66832000  0.92398000  1.0 0.0183378218
C  C155  1  0.33247000  0.83168000  0.42398000  1.0 0.0183378218
C  C156  1  0.16753000  0.83168000  0.07602000  1.0 0.0183378218
C  C157  1  0.16753000  0.33168000  0.42398000  1.0 0.0183378218
C  C158  1  0.33247000  0.33168000  0.07602000  1.0 0.0183378218
C  C159  1  0.66753000  0.16832000  0.57602000  1.0 0.0183378218
C  C160  1  0.83247000  0.16832000  0.92398000  1.0 0.0183378218
C  C161  1  0.84943000  0.70081000  0.61343000  1.0 -0.1294832912
C  C162  1  0.65057000  0.70081000  0.88657000  1.0 -0.1294832912
C  C163  1  0.34943000  0.79919000  0.38657000  1.0 -0.1294832912
C  C164  1  0.15057000  0.79919000  0.11343000  1.0 -0.1294832912
C  C165  1  0.15057000  0.29919000  0.38657000  1.0 -0.1294832912
C  C166  1  0.34943000  0.29919000  0.11343000  1.0 -0.1294832912
C  C167  1  0.65057000  0.20081000  0.61343000  1.0 -0.1294832912
C  C168  1  0.84943000  0.20081000  0.88657000  1.0 -0.1294832912
C  C169  1  0.87757000  0.68243000  0.65397000  1.0 -0.0272752172
C  C170  1  0.62243000  0.68243000  0.84603000  1.0 -0.0272752172
C  C171  1  0.37757000  0.81757000  0.34603000  1.0 -0.0272752172
C  C172  1  0.12243000  0.81757000  0.15397000  1.0 -0.0272752172
C  C173  1  0.12243000  0.31757000  0.34603000  1.0 -0.0272752172
C  C174  1  0.37757000  0.31757000  0.15397000  1.0 -0.0272752172
C  C175  1  0.62243000  0.18243000  0.65397000  1.0 -0.0272752172
C  C176  1  0.87757000  0.18243000  0.84603000  1.0 -0.0272752172
C  C177  1  0.89795000  0.71698000  0.69394000  1.0 0.5221261454
C  C178  1  0.60205000  0.71698000  0.80606000  1.0 0.5221261454
C  C179  1  0.39795000  0.78302000  0.30606000  1.0 0.5221261454
C  C180  1  0.10205000  0.78302000  0.19394000  1.0 0.5221261454
C  C181  1  0.10205000  0.28302000  0.30606000  1.0 0.5221261454
C  C182  1  0.39795000  0.28302000  0.19394000  1.0 0.5221261454
C  C183  1  0.60205000  0.21698000  0.69394000  1.0 0.5221261454
C  C184  1  0.89795000  0.21698000  0.80606000  1.0 0.5221261454
C  C185  1  0.89061000  0.63133000  0.65558000  1.0 -0.2298738429
C  C186  1  0.60939000  0.63133000  0.84442000  1.0 -0.2298738429
C  C187  1  0.39061000  0.86867000  0.34442000  1.0 -0.2298738429
C  C188  1  0.10939000  0.86867000  0.15558000  1.0 -0.2298738429
C  C189  1  0.10939000  0.36867000  0.34442000  1.0 -0.2298738429
C  C190  1  0.39061000  0.36867000  0.15558000  1.0 -0.2298738429
C  C191  1  0.60939000  0.13133000  0.65558000  1.0 -0.2298738429
C  C192  1  0.89061000  0.13133000  0.84442000  1.0 -0.2298738429
C  C193  1  0.87482000  0.59907000  0.61672000  1.0 0.0702130986
C  C194  1  0.62518000  0.59907000  0.88328000  1.0 0.0702130986
C  C195  1  0.37482000  0.90093000  0.38328000  1.0 0.0702130986
C  C196  1  0.12518000  0.90093000  0.11672000  1.0 0.0702130986
C  C197  1  0.12518000  0.40093000  0.38328000  1.0 0.0702130986
C  C198  1  0.37482000  0.40093000  0.11672000  1.0 0.0702130986
C  C199  1  0.62518000  0.09907000  0.61672000  1.0 0.0702130986
C  C200  1  0.87482000  0.09907000  0.88328000  1.0 0.0702130986
C  C201  1  0.84519000  0.61742000  0.57746000  1.0 -0.1708057749
C  C202  1  0.65481000  0.61742000  0.92254000  1.0 -0.1708057749
C  C203  1  0.34519000  0.88258000  0.42254000  1.0 -0.1708057749
C  C204  1  0.15481000  0.88258000  0.07746000  1.0 -0.1708057749
C  C205  1  0.15481000  0.38258000  0.42254000  1.0 -0.1708057749
C  C206  1  0.34519000  0.38258000  0.07746000  1.0 -0.1708057749
C  C207  1  0.65481000  0.11742000  0.57746000  1.0 -0.1708057749
C  C208  1  0.84519000  0.11742000  0.92254000  1.0 -0.1708057749
C  C209  1  0.89009000  0.54634000  0.61854000  1.0 0.0597529989
C  C210  1  0.60991000  0.54634000  0.88146000  1.0 0.0597529989
C  C211  1  0.39009000  0.95366000  0.38146000  1.0 0.0597529989
C  C212  1  0.10991000  0.95366000  0.11854000  1.0 0.0597529989
C  C213  1  0.10991000  0.45366000  0.38146000  1.0 0.0597529989
C  C214  1  0.39009000  0.45366000  0.11854000  1.0 0.0597529989
C  C215  1  0.60991000  0.04634000  0.61854000  1.0 0.0597529989
C  C216  1  0.89009000  0.04634000  0.88146000  1.0 0.0597529989
C  C217  1  0.86769000  0.50497000  0.59806000  1.0 -0.1628852266
C  C218  1  0.63231000  0.50497000  0.90194000  1.0 -0.1628852266
C  C219  1  0.36769000  0.99503000  0.40194000  1.0 -0.1628852266
C  C220  1  0.13231000  0.99503000  0.09806000  1.0 -0.1628852266
C  C221  1  0.13231000  0.49503000  0.40194000  1.0 -0.1628852266
C  C222  1  0.36769000  0.49503000  0.09806000  1.0 -0.1628852266
C  C223  1  0.63231000  0.00497000  0.59806000  1.0 -0.1628852266
C  C224  1  0.86769000  0.00497000  0.90194000  1.0 -0.1628852266
C  C225  1  0.88801000  0.41182000  0.60396000  1.0 0.1298043199
C  C226  1  0.61199000  0.41182000  0.89604000  1.0 0.1298043199
C  C227  1  0.38801000  0.08818000  0.39604000  1.0 0.1298043199
C  C228  1  0.11199000  0.08818000  0.10396000  1.0 0.1298043199
C  C229  1  0.11199000  0.58818000  0.39604000  1.0 0.1298043199
C  C230  1  0.38801000  0.58818000  0.10396000  1.0 0.1298043199
C  C231  1  0.61199000  0.91182000  0.60396000  1.0 0.1298043199
C  C232  1  0.88801000  0.91182000  0.89604000  1.0 0.1298043199
C  C233  1  0.86284000  0.39534000  0.56067000  1.0 -0.248387356
C  C234  1  0.63716000  0.39534000  0.93933000  1.0 -0.248387356
C  C235  1  0.36284000  0.10466000  0.43933000  1.0 -0.248387356
C  C236  1  0.13716000  0.10466000  0.06067000  1.0 -0.248387356
C  C237  1  0.13716000  0.60466000  0.43933000  1.0 -0.248387356
C  C238  1  0.36284000  0.60466000  0.06067000  1.0 -0.248387356
C  C239  1  0.63716000  0.89534000  0.56067000  1.0 -0.248387356
C  C240  1  0.86284000  0.89534000  0.93933000  1.0 -0.248387356
C  C241  1  0.85430000  0.34380000  0.55339000  1.0 -0.008861447
C  C242  1  0.64570000  0.34380000  0.94661000  1.0 -0.008861447
C  C243  1  0.35430000  0.15620000  0.44661000  1.0 -0.008861447
C  C244  1  0.14570000  0.15620000  0.05339000  1.0 -0.008861447
C  C245  1  0.14570000  0.65620000  0.44661000  1.0 -0.008861447
C  C246  1  0.35430000  0.65620000  0.05339000  1.0 -0.008861447
C  C247  1  0.64570000  0.84380000  0.55339000  1.0 -0.008861447
C  C248  1  0.85430000  0.84380000  0.94661000  1.0 -0.008861447
C  C249  1  0.82555000  0.32624000  0.50726000  1.0 0.5221261454
C  C250  1  0.67445000  0.32624000  0.99274000  1.0 0.5221261454
C  C251  1  0.32555000  0.17376000  0.49274000  1.0 0.5221261454
C  C252  1  0.17445000  0.17376000  0.00726000  1.0 0.5221261454
C  C253  1  0.17445000  0.67376000  0.49274000  1.0 0.5221261454
C  C254  1  0.32555000  0.67376000  0.00726000  1.0 0.5221261454
C  C255  1  0.67445000  0.82624000  0.50726000  1.0 0.5221261454
C  C256  1  0.82555000  0.82624000  0.99274000  1.0 0.5221261454
C  C257  1  0.87120000  0.30889000  0.58863000  1.0 -0.1628852266
C  C258  1  0.62880000  0.30889000  0.91137000  1.0 -0.1628852266
C  C259  1  0.37120000  0.19111000  0.41137000  1.0 -0.1628852266
C  C260  1  0.12880000  0.19111000  0.08863000  1.0 -0.1628852266
C  C261  1  0.12880000  0.69111000  0.41137000  1.0 -0.1628852266
C  C262  1  0.37120000  0.69111000  0.08863000  1.0 -0.1628852266
C  C263  1  0.62880000  0.80889000  0.58863000  1.0 -0.1628852266
C  C264  1  0.87120000  0.80889000  0.91137000  1.0 -0.1628852266
C  C265  1  0.89840000  0.32524000  0.63158000  1.0 -0.041441693
C  C266  1  0.60160000  0.32524000  0.86842000  1.0 -0.041441693
C  C267  1  0.39840000  0.17476000  0.36842000  1.0 -0.041441693
C  C268  1  0.10160000  0.17476000  0.13158000  1.0 -0.041441693
C  C269  1  0.10160000  0.67476000  0.36842000  1.0 -0.041441693
C  C270  1  0.39840000  0.67476000  0.13158000  1.0 -0.041441693
C  C271  1  0.60160000  0.82524000  0.63158000  1.0 -0.041441693
C  C272  1  0.89840000  0.82524000  0.86842000  1.0 -0.041441693
C  C273  1  0.91808000  0.28703000  0.66772000  1.0 0.5499147956
C  C274  1  0.58192000  0.28703000  0.83228000  1.0 0.5499147956
C  C275  1  0.41808000  0.21297000  0.33228000  1.0 0.5499147956
C  C276  1  0.08192000  0.21297000  0.16772000  1.0 0.5499147956
C  C277  1  0.08192000  0.71297000  0.33228000  1.0 0.5499147956
C  C278  1  0.41808000  0.71297000  0.16772000  1.0 0.5499147956
C  C279  1  0.58192000  0.78703000  0.66772000  1.0 0.5499147956
C  C280  1  0.91808000  0.78703000  0.83228000  1.0 0.5499147956
C  C281  1  0.90607000  0.37642000  0.63947000  1.0 -0.2797442491
C  C282  1  0.59393000  0.37642000  0.86053000  1.0 -0.2797442491
C  C283  1  0.40607000  0.12358000  0.36053000  1.0 -0.2797442491
C  C284  1  0.09393000  0.12358000  0.13947000  1.0 -0.2797442491
C  C285  1  0.09393000  0.62358000  0.36053000  1.0 -0.2797442491
C  C286  1  0.40607000  0.62358000  0.13947000  1.0 -0.2797442491
C  C287  1  0.59393000  0.87642000  0.63947000  1.0 -0.2797442491
C  C288  1  0.90607000  0.87642000  0.86053000  1.0 -0.2797442491
C  C289  1  0.77330000  0.81240000  0.31590000  1.0 0.1792182435
C  C290  1  0.72670000  0.81240000  0.18410000  1.0 0.1792182435
C  C291  1  0.27330000  0.68760000  0.68410000  1.0 0.1792182435
C  C292  1  0.22670000  0.68760000  0.81590000  1.0 0.1792182435
C  C293  1  0.22670000  0.18760000  0.68410000  1.0 0.1792182435
C  C294  1  0.27330000  0.18760000  0.81590000  1.0 0.1792182435
C  C295  1  0.72670000  0.31240000  0.31590000  1.0 0.1792182435
C  C296  1  0.77330000  0.31240000  0.18410000  1.0 0.1792182435
C  C297  1  0.83310000  0.77660000  0.25500000  1.0 -0.2385704713
C  C298  1  0.66690000  0.77660000  0.24500000  1.0 -0.2385704713
C  C299  1  0.33310000  0.72340000  0.74500000  1.0 -0.248387356
C  C300  1  0.16690000  0.72340000  0.75500000  1.0 -0.248387356
C  C301  1  0.16690000  0.22340000  0.74500000  1.0 -0.248387356
C  C302  1  0.33310000  0.22340000  0.75500000  1.0 -0.248387356
C  C303  1  0.66690000  0.27660000  0.25500000  1.0 -0.248387356
C  C304  1  0.83310000  0.27660000  0.24500000  1.0 -0.2385704713
C  C305  1  0.82570000  0.86810000  0.26550000  1.0 0.0091937694
C  C306  1  0.67430000  0.86810000  0.23450000  1.0 0.0091937694
C  C307  1  0.32570000  0.63190000  0.73450000  1.0 0.0091937694
C  C308  1  0.17430000  0.63190000  0.76550000  1.0 0.0091937694
C  C309  1  0.17430000  0.13190000  0.73450000  1.0 0.0091937694
C  C310  1  0.32570000  0.13190000  0.76550000  1.0 0.0091937694
C  C311  1  0.67430000  0.36810000  0.26550000  1.0 0.0091937694
C  C312  1  0.82570000  0.36810000  0.23450000  1.0 0.0091937694
C  C313  1  0.70940000  0.95980000  0.42520000  1.0 0.2335641567
C  C314  1  0.79060000  0.95980000  0.07480000  1.0 0.2335641567
C  C315  1  0.20940000  0.54020000  0.57480000  1.0 0.2335641567
C  C316  1  0.29060000  0.54020000  0.92520000  1.0 0.2335641567
C  C317  1  0.29060000  0.04020000  0.57480000  1.0 0.2335641567
C  C318  1  0.20940000  0.04020000  0.92520000  1.0 0.2335641567
C  C319  1  0.79060000  0.45980000  0.42520000  1.0 0.2335641567
C  C320  1  0.70940000  0.45980000  0.07480000  1.0 0.2335641567
C  C321  1  0.75370000  0.03010000  0.38150000  1.0 -0.1800006221
C  C322  1  0.74630000  0.03010000  0.11850000  1.0 -0.1800006221
C  C323  1  0.25370000  0.46990000  0.61850000  1.0 -0.1800006221
C  C324  1  0.24630000  0.46990000  0.88150000  1.0 -0.1800006221
C  C325  1  0.24630000  0.96990000  0.61850000  1.0 -0.1800006221
C  C326  1  0.25370000  0.96990000  0.88150000  1.0 -0.1800006221
C  C327  1  0.74630000  0.53010000  0.38150000  1.0 -0.1800006221
C  C328  1  0.75370000  0.53010000  0.11850000  1.0 -0.1800006221
C  C329  1  0.69080000  0.04690000  0.44820000  1.0 -0.3883264179
C  C330  1  0.80920000  0.04690000  0.05180000  1.0 -0.3883264179
C  C331  1  0.19080000  0.45310000  0.55180000  1.0 -0.3883264179
C  C332  1  0.30920000  0.45310000  0.94820000  1.0 -0.3883264179
C  C333  1  0.30920000  0.95310000  0.55180000  1.0 -0.3883264179
C  C334  1  0.19080000  0.95310000  0.94820000  1.0 -0.3883264179
C  C335  1  0.80920000  0.54690000  0.44820000  1.0 -0.3883264179
C  C336  1  0.69080000  0.54690000  0.05180000  1.0 -0.3883264179
C  C337  1  0.59940000  0.85510000  0.38660000  1.0 0.0802405369
C  C338  1  0.90060000  0.85510000  0.11340000  1.0 0.0802405369
C  C339  1  0.09940000  0.64490000  0.61340000  1.0 0.0702130986
C  C340  1  0.40060000  0.64490000  0.88660000  1.0 0.0702130986
C  C341  1  0.40060000  0.14490000  0.61340000  1.0 0.0802405369
C  C342  1  0.09940000  0.14490000  0.88660000  1.0 0.0702130986
C  C343  1  0.90060000  0.35510000  0.38660000  1.0 0.0802405369
C  C344  1  0.59940000  0.35510000  0.11340000  1.0 0.0802405369
C  C345  1  0.54270000  0.87910000  0.31760000  1.0 -0.0471614834
C  C346  1  0.95730000  0.87910000  0.18240000  1.0 -0.0471614834
C  C347  1  0.04270000  0.62090000  0.68240000  1.0 -0.0471614834
C  C348  1  0.45730000  0.62090000  0.81760000  1.0 -0.0471614834
C  C349  1  0.45730000  0.12090000  0.68240000  1.0 -0.0471614834
C  C350  1  0.04270000  0.12090000  0.81760000  1.0 -0.0471614834
C  C351  1  0.95730000  0.37910000  0.31760000  1.0 -0.0471614834
C  C352  1  0.54270000  0.37910000  0.18240000  1.0 -0.0471614834
C  C353  1  0.51060000  0.82620000  0.38920000  1.0 -0.2585999049
C  C354  1  0.98940000  0.82620000  0.11080000  1.0 -0.2585999049
C  C355  1  0.01060000  0.67380000  0.61080000  1.0 -0.2585999049
C  C356  1  0.48940000  0.67380000  0.88920000  1.0 -0.2585999049
C  C357  1  0.48940000  0.17380000  0.61080000  1.0 -0.2585999049
C  C358  1  0.01060000  0.17380000  0.88920000  1.0 -0.2585999049
C  C359  1  0.98940000  0.32620000  0.38920000  1.0 -0.2585999049
C  C360  1  0.51060000  0.32620000  0.11080000  1.0 -0.2585999049
C  C361  1  0.09990000  0.15920000  0.38640000  1.0 0.2521674817
C  C362  1  0.40010000  0.15920000  0.11360000  1.0 0.2521674817
C  C363  1  0.59990000  0.34080000  0.61360000  1.0 0.2521674817
C  C364  1  0.90010000  0.34080000  0.88640000  1.0 0.2521674817
C  C365  1  0.90010000  0.84080000  0.61360000  1.0 0.2521674817
C  C366  1  0.59990000  0.84080000  0.88640000  1.0 0.2521674817
C  C367  1  0.40010000  0.65920000  0.38640000  1.0 0.2521674817
C  C368  1  0.09990000  0.65920000  0.11360000  1.0 0.2521674817
C  C369  1  0.09260000  0.18850000  0.47290000  1.0 -0.3446153219
C  C370  1  0.40740000  0.18850000  0.02710000  1.0 -0.3446153219
C  C371  1  0.59260000  0.31150000  0.52710000  1.0 -0.3446153219
C  C372  1  0.90740000  0.31150000  0.97290000  1.0 -0.3446153219
C  C373  1  0.90740000  0.81150000  0.52710000  1.0 -0.3446153219
C  C374  1  0.59260000  0.81150000  0.97290000  1.0 -0.3446153219
C  C375  1  0.40740000  0.68850000  0.47290000  1.0 -0.3493483642
C  C376  1  0.09260000  0.68850000  0.02710000  1.0 -0.3446153219
C  C377  1  0.16840000  0.13780000  0.44450000  1.0 -0.1628852266
C  C378  1  0.33160000  0.13780000  0.05550000  1.0 -0.1628852266
C  C379  1  0.66840000  0.36220000  0.55550000  1.0 -0.1628852266
C  C380  1  0.83160000  0.36220000  0.94450000  1.0 -0.1628852266
C  C381  1  0.83160000  0.86220000  0.55550000  1.0 -0.1628852266
C  C382  1  0.66840000  0.86220000  0.94450000  1.0 -0.1628852266
C  C383  1  0.33160000  0.63780000  0.44450000  1.0 -0.1628852266
C  C384  1  0.16840000  0.63780000  0.05550000  1.0 -0.1628852266
C  C385  1  0.06800000  0.05640000  0.27210000  1.0 0.2387367372
C  C386  1  0.43200000  0.05640000  0.22790000  1.0 0.2387367372
C  C387  1  0.56800000  0.44360000  0.72790000  1.0 0.2387367372
C  C388  1  0.93200000  0.44360000  0.77210000  1.0 0.2387367372
C  C389  1  0.93200000  0.94360000  0.72790000  1.0 0.2387367372
C  C390  1  0.56800000  0.94360000  0.77210000  1.0 0.2387367372
C  C391  1  0.43200000  0.55640000  0.27210000  1.0 0.2387367372
C  C392  1  0.06800000  0.55640000  0.22790000  1.0 0.2387367372
C  C393  1  0.05080000  0.96510000  0.28630000  1.0 -0.1063029732
C  C394  1  0.44920000  0.96510000  0.21370000  1.0 -0.1063029732
C  C395  1  0.55080000  0.53490000  0.71370000  1.0 -0.1063029732
C  C396  1  0.94920000  0.53490000  0.78630000  1.0 -0.1063029732
C  C397  1  0.94920000  0.03490000  0.71370000  1.0 -0.1063029732
C  C398  1  0.55080000  0.03490000  0.78630000  1.0 -0.1063029732
C  C399  1  0.44920000  0.46510000  0.28630000  1.0 -0.1063029732
C  C400  1  0.05080000  0.46510000  0.21370000  1.0 -0.1063029732
C  C401  1  0.12990000  0.99190000  0.24970000  1.0 -0.1407458683
C  C402  1  0.37010000  0.99190000  0.25030000  1.0 -0.1407458683
C  C403  1  0.62990000  0.50810000  0.75030000  1.0 -0.1407458683
C  C404  1  0.87010000  0.50810000  0.74970000  1.0 -0.1407458683
C  C405  1  0.87010000  0.00810000  0.75030000  1.0 -0.1407458683
C  C406  1  0.62990000  0.00810000  0.74970000  1.0 -0.1407458683
C  C407  1  0.37010000  0.49190000  0.24970000  1.0 -0.1407458683
C  C408  1  0.12990000  0.49190000  0.25030000  1.0 -0.1407458683
C  C409  1  0.18670000  0.19440000  0.22140000  1.0 0.0325284625
C  C410  1  0.31330000  0.19440000  0.27860000  1.0 0.0325284625
C  C411  1  0.68670000  0.30560000  0.77860000  1.0 0.0325284625
C  C412  1  0.81330000  0.30560000  0.72140000  1.0 0.0325284625
C  C413  1  0.81330000  0.80560000  0.77860000  1.0 0.0325284625
C  C414  1  0.68670000  0.80560000  0.72140000  1.0 0.0325284625
C  C415  1  0.31330000  0.69440000  0.22140000  1.0 0.0325284625
C  C416  1  0.18670000  0.69440000  0.27860000  1.0 0.0325284625
C  C417  1  0.23620000  0.13360000  0.17450000  1.0 0.0183378218
C  C418  1  0.26380000  0.13360000  0.32550000  1.0 0.0183378218
C  C419  1  0.73620000  0.36640000  0.82550000  1.0 0.0183378218
C  C420  1  0.76380000  0.36640000  0.67450000  1.0 0.0183378218
C  C421  1  0.76380000  0.86640000  0.82550000  1.0 0.0183378218
C  C422  1  0.73620000  0.86640000  0.67450000  1.0 0.0183378218
C  C423  1  0.26380000  0.63360000  0.17450000  1.0 0.0183378218
C  C424  1  0.23620000  0.63360000  0.32550000  1.0 0.0183378218
C  C425  1  0.24940000  0.22570000  0.16310000  1.0 -0.2585999049
C  C426  1  0.25060000  0.22570000  0.33690000  1.0 -0.2585999049
C  C427  1  0.74940000  0.27430000  0.83690000  1.0 -0.2585999049
C  C428  1  0.75060000  0.27430000  0.66310000  1.0 -0.2585999049
C  C429  1  0.75060000  0.77430000  0.83690000  1.0 -0.2585999049
C  C430  1  0.74940000  0.77430000  0.66310000  1.0 -0.2585999049
C  C431  1  0.25060000  0.72570000  0.16310000  1.0 -0.2585999049
C  C432  1  0.24940000  0.72570000  0.33690000  1.0 -0.2585999049
C  C433  1  0.77860000  0.98980000  0.54590000  1.0 0.1595182285
C  C434  1  0.72140000  0.98980000  0.95410000  1.0 0.1595182285
C  C435  1  0.27860000  0.51020000  0.45410000  1.0 0.1595182285
C  C436  1  0.22140000  0.51020000  0.04590000  1.0 0.1595182285
C  C437  1  0.22140000  0.01020000  0.45410000  1.0 0.1595182285
C  C438  1  0.27860000  0.01020000  0.04590000  1.0 0.1595182285
C  C439  1  0.72140000  0.48980000  0.54590000  1.0 0.1595182285
C  C440  1  0.77860000  0.48980000  0.95410000  1.0 0.1595182285
C  C441  1  0.86150000  0.00000000  0.58440000  1.0 -0.2585999049
C  C442  1  0.63850000  0.00000000  0.91560000  1.0 -0.2585999049
C  C443  1  0.36150000  0.50000000  0.41560000  1.0 -0.2585999049
C  C444  1  0.13850000  0.50000000  0.08440000  1.0 -0.2585999049
C  C445  1  0.13850000  0.00000000  0.41560000  1.0 -0.2585999049
C  C446  1  0.36150000  0.00000000  0.08440000  1.0 -0.2585999049
C  C447  1  0.63850000  0.50000000  0.58440000  1.0 -0.2585999049
C  C448  1  0.86150000  0.50000000  0.91560000  1.0 -0.2585999049
C  C449  1  0.78000000  0.00030000  0.63070000  1.0 -0.4405632786
C  C450  1  0.72000000  0.00030000  0.86930000  1.0 -0.4405632786
C  C451  1  0.28000000  0.49970000  0.36930000  1.0 -0.4405632786
C  C452  1  0.22000000  0.49970000  0.13070000  1.0 -0.4405632786
C  C453  1  0.22000000  0.99970000  0.36930000  1.0 -0.4405632786
C  C454  1  0.28000000  0.99970000  0.13070000  1.0 -0.4405632786
C  C455  1  0.72000000  0.50030000  0.63070000  1.0 -0.4405632786
C  C456  1  0.78000000  0.50030000  0.86930000  1.0 -0.4405632786
C  C457  1  0.95080000  0.02000000  0.21660000  1.0 0.048367043
C  C458  1  0.54920000  0.02000000  0.28340000  1.0 0.048367043
C  C459  1  0.45080000  0.48000000  0.78340000  1.0 0.048367043
C  C460  1  0.04920000  0.48000000  0.71660000  1.0 0.048367043
C  C461  1  0.04920000  0.98000000  0.78340000  1.0 0.048367043
C  C462  1  0.45080000  0.98000000  0.71660000  1.0 0.048367043
C  C463  1  0.54920000  0.52000000  0.21660000  1.0 0.048367043
C  C464  1  0.95080000  0.52000000  0.28340000  1.0 0.048367043
C  C465  1  0.86180000  0.01660000  0.20170000  1.0 -0.2585999049
C  C466  1  0.63820000  0.01660000  0.29830000  1.0 -0.2585999049
C  C467  1  0.36180000  0.48340000  0.79830000  1.0 -0.2585999049
C  C468  1  0.13820000  0.48340000  0.70170000  1.0 -0.2585999049
C  C469  1  0.13820000  0.98340000  0.79830000  1.0 -0.2585999049
C  C470  1  0.36180000  0.98340000  0.70170000  1.0 -0.2585999049
C  C471  1  0.63820000  0.51660000  0.20170000  1.0 -0.2585999049
C  C472  1  0.86180000  0.51660000  0.29830000  1.0 -0.2585999049
C  C473  1  0.92260000  0.00730000  0.13030000  1.0 -0.248387356
C  C474  1  0.57740000  0.00730000  0.36970000  1.0 -0.248387356
C  C475  1  0.42260000  0.49270000  0.86970000  1.0 -0.248387356
C  C476  1  0.07740000  0.49270000  0.63030000  1.0 -0.248387356
C  C477  1  0.07740000  0.99270000  0.86970000  1.0 -0.248387356
C  C478  1  0.42260000  0.99270000  0.63030000  1.0 -0.248387356
C  C479  1  0.57740000  0.50730000  0.13030000  1.0 -0.248387356
C  C480  1  0.92260000  0.50730000  0.36970000  1.0 -0.248387356
C  C481  1  0.77480000  0.87080000  0.31330000  1.0 0.1792182435
C  C482  1  0.72520000  0.87080000  0.18670000  1.0 0.1792182435
C  C483  1  0.27480000  0.62920000  0.68670000  1.0 0.1792182435
C  C484  1  0.22520000  0.62920000  0.81330000  1.0 0.1792182435
C  C485  1  0.22520000  0.12920000  0.68670000  1.0 0.1792182435
C  C486  1  0.27480000  0.12920000  0.81330000  1.0 0.1792182435
C  C487  1  0.72520000  0.37080000  0.31330000  1.0 0.1792182435
C  C488  1  0.77480000  0.37080000  0.18670000  1.0 0.1792182435
C  C489  1  0.83320000  0.90460000  0.25150000  1.0 -0.2585999049
C  C490  1  0.66680000  0.90460000  0.24850000  1.0 -0.2585999049
C  C491  1  0.33320000  0.59540000  0.74850000  1.0 -0.2585999049
C  C492  1  0.16680000  0.59540000  0.75150000  1.0 -0.2585999049
C  C493  1  0.16680000  0.09540000  0.74850000  1.0 -0.2585999049
C  C494  1  0.33320000  0.09540000  0.75150000  1.0 -0.2585999049
C  C495  1  0.66680000  0.40460000  0.25150000  1.0 -0.2585999049
C  C496  1  0.83320000  0.40460000  0.24850000  1.0 -0.2585999049
C  C497  1  0.83130000  0.81590000  0.26060000  1.0 -0.0204382261
C  C498  1  0.66870000  0.81590000  0.23940000  1.0 -0.0204382261
C  C499  1  0.33130000  0.68410000  0.73940000  1.0 -0.0204382261
C  C500  1  0.16870000  0.68410000  0.76060000  1.0 -0.0272752172
C  C501  1  0.16870000  0.18410000  0.73940000  1.0 -0.0204382261
C  C502  1  0.33130000  0.18410000  0.76060000  1.0 -0.0204382261
C  C503  1  0.66870000  0.31590000  0.26060000  1.0 -0.0204382261
C  C504  1  0.83130000  0.31590000  0.23940000  1.0 -0.0204382261
C  C505  1  0.68620000  0.95790000  0.39230000  1.0 0.1489767304
C  C506  1  0.81380000  0.95790000  0.10770000  1.0 0.1489767304
C  C507  1  0.18620000  0.54210000  0.60770000  1.0 0.1489767304
C  C508  1  0.31380000  0.54210000  0.89230000  1.0 0.1489767304
C  C509  1  0.31380000  0.04210000  0.60770000  1.0 0.1489767304
C  C510  1  0.18620000  0.04210000  0.89230000  1.0 0.1489767304
C  C511  1  0.81380000  0.45790000  0.39230000  1.0 0.1489767304
C  C512  1  0.68620000  0.45790000  0.10770000  1.0 0.1489767304
C  C513  1  0.70610000  0.04810000  0.37100000  1.0 -0.0940954017
C  C514  1  0.79390000  0.04810000  0.12900000  1.0 -0.0940954017
C  C515  1  0.20610000  0.45190000  0.62900000  1.0 -0.0940954017
C  C516  1  0.29390000  0.45190000  0.87100000  1.0 -0.0940954017
C  C517  1  0.29390000  0.95190000  0.62900000  1.0 -0.0940954017
C  C518  1  0.20610000  0.95190000  0.87100000  1.0 -0.0940954017
C  C519  1  0.79390000  0.54810000  0.37100000  1.0 -0.0940954017
C  C520  1  0.70610000  0.54810000  0.12900000  1.0 -0.0940954017
C  C521  1  0.62440000  0.00970000  0.34900000  1.0 -0.0272752172
C  C522  1  0.87560000  0.00970000  0.15100000  1.0 -0.0272752172
C  C523  1  0.12440000  0.49030000  0.65100000  1.0 -0.0272752172
C  C524  1  0.37560000  0.49030000  0.84900000  1.0 -0.0272752172
C  C525  1  0.37560000  0.99030000  0.65100000  1.0 -0.0272752172
C  C526  1  0.12440000  0.99030000  0.84900000  1.0 -0.0272752172
C  C527  1  0.87560000  0.50970000  0.34900000  1.0 -0.0272752172
C  C528  1  0.62440000  0.50970000  0.15100000  1.0 -0.0272752172
C  C529  1  0.61040000  0.86820000  0.36140000  1.0 0.1092419966
C  C530  1  0.88960000  0.86820000  0.13860000  1.0 0.1092419966
C  C531  1  0.11040000  0.63180000  0.63860000  1.0 0.1092419966
C  C532  1  0.38960000  0.63180000  0.86140000  1.0 0.1092419966
C  C533  1  0.38960000  0.13180000  0.63860000  1.0 0.1092419966
C  C534  1  0.11040000  0.13180000  0.86140000  1.0 0.1092419966
C  C535  1  0.88960000  0.36820000  0.36140000  1.0 0.1092419966
C  C536  1  0.61040000  0.36820000  0.13860000  1.0 0.1092419966
C  C537  1  0.57520000  0.93350000  0.31130000  1.0 -0.4016401436
C  C538  1  0.92480000  0.93350000  0.18870000  1.0 -0.4016401436
C  C539  1  0.07520000  0.56650000  0.68870000  1.0 -0.4016401436
C  C540  1  0.42480000  0.56650000  0.81130000  1.0 -0.4016401436
C  C541  1  0.42480000  0.06650000  0.68870000  1.0 -0.4016401436
C  C542  1  0.07520000  0.06650000  0.81130000  1.0 -0.4016401436
C  C543  1  0.92480000  0.43350000  0.31130000  1.0 -0.4016401436
C  C544  1  0.57520000  0.43350000  0.18870000  1.0 -0.4016401436
C  C545  1  0.51680000  0.86350000  0.34130000  1.0 -0.0471614834
C  C546  1  0.98320000  0.86350000  0.15870000  1.0 -0.0471614834
C  C547  1  0.01680000  0.63650000  0.65870000  1.0 -0.0471614834
C  C548  1  0.48320000  0.63650000  0.84130000  1.0 -0.0471614834
C  C549  1  0.48320000  0.13650000  0.65870000  1.0 -0.0471614834
C  C550  1  0.01680000  0.13650000  0.84130000  1.0 -0.0471614834
C  C551  1  0.98320000  0.36350000  0.34130000  1.0 -0.0471614834
C  C552  1  0.51680000  0.36350000  0.15870000  1.0 -0.0471614834
C  C553  1  0.86520000  0.89240000  0.62650000  1.0 0.120237969
C  C554  1  0.63480000  0.89240000  0.87350000  1.0 0.120237969
C  C555  1  0.36520000  0.60760000  0.37350000  1.0 0.120237969
C  C556  1  0.13480000  0.60760000  0.12650000  1.0 0.120237969
C  C557  1  0.13480000  0.10760000  0.37350000  1.0 0.120237969
C  C558  1  0.36520000  0.10760000  0.12650000  1.0 0.120237969
C  C559  1  0.63480000  0.39240000  0.62650000  1.0 0.120237969
C  C560  1  0.86520000  0.39240000  0.87350000  1.0 0.120237969
C  C561  1  0.82470000  0.95360000  0.56990000  1.0 -0.041441693
C  C562  1  0.67530000  0.95360000  0.93010000  1.0 -0.041441693
C  C563  1  0.32470000  0.54640000  0.43010000  1.0 -0.041441693
C  C564  1  0.17530000  0.54640000  0.06990000  1.0 -0.041441693
C  C565  1  0.17530000  0.04640000  0.43010000  1.0 -0.041441693
C  C566  1  0.32470000  0.04640000  0.06990000  1.0 -0.041441693
C  C567  1  0.67530000  0.45360000  0.56990000  1.0 -0.041441693
C  C568  1  0.82470000  0.45360000  0.93010000  1.0 -0.041441693
C  C569  1  0.81980000  0.86180000  0.55100000  1.0 -0.2385704713
C  C570  1  0.68020000  0.86180000  0.94900000  1.0 -0.2385704713
C  C571  1  0.31980000  0.63820000  0.44900000  1.0 -0.2385704713
C  C572  1  0.18020000  0.63820000  0.05100000  1.0 -0.2385704713
C  C573  1  0.18020000  0.13820000  0.44900000  1.0 -0.2385704713
C  C574  1  0.31980000  0.13820000  0.05100000  1.0 -0.2385704713
C  C575  1  0.68020000  0.36180000  0.55100000  1.0 -0.2385704713
C  C576  1  0.81980000  0.36180000  0.94900000  1.0 -0.2385704713
C  C577  1  0.90320000  0.94790000  0.73850000  1.0 0.2335641567
C  C578  1  0.59680000  0.94790000  0.76150000  1.0 0.2335641567
C  C579  1  0.40320000  0.55210000  0.26150000  1.0 0.2335641567
C  C580  1  0.09680000  0.55210000  0.23850000  1.0 0.2335641567
C  C581  1  0.09680000  0.05210000  0.26150000  1.0 0.2335641567
C  C582  1  0.40320000  0.05210000  0.23850000  1.0 0.2335641567
C  C583  1  0.59680000  0.44790000  0.73850000  1.0 0.2335641567
C  C584  1  0.90320000  0.44790000  0.76150000  1.0 0.2335641567
C  C585  1  0.97910000  0.00510000  0.74040000  1.0 -0.1913803732
C  C586  1  0.52090000  0.00510000  0.75960000  1.0 -0.1913803732
C  C587  1  0.47910000  0.49490000  0.25960000  1.0 -0.1913803732
C  C588  1  0.02090000  0.49490000  0.24040000  1.0 -0.1913803732
C  C589  1  0.02090000  0.99490000  0.25960000  1.0 -0.1913803732
C  C590  1  0.47910000  0.99490000  0.24040000  1.0 -0.1913803732
C  C591  1  0.52090000  0.50510000  0.74040000  1.0 -0.1913803732
C  C592  1  0.97910000  0.50510000  0.75960000  1.0 -0.1913803732
C  C593  1  0.89590000  0.03880000  0.71930000  1.0 -0.1063029732
C  C594  1  0.60410000  0.03880000  0.78070000  1.0 -0.1063029732
C  C595  1  0.39590000  0.46120000  0.28070000  1.0 -0.1063029732
C  C596  1  0.10410000  0.46120000  0.21930000  1.0 -0.1063029732
C  C597  1  0.10410000  0.96120000  0.28070000  1.0 -0.1063029732
C  C598  1  0.39590000  0.96120000  0.21930000  1.0 -0.1063029732
C  C599  1  0.60410000  0.53880000  0.71930000  1.0 -0.1063029732
C  C600  1  0.89590000  0.53880000  0.78070000  1.0 -0.1063029732
C  C601  1  0.80970000  0.86100000  0.77630000  1.0 0.1298043199
C  C602  1  0.69030000  0.86100000  0.72370000  1.0 0.1298043199
C  C603  1  0.30970000  0.63900000  0.22370000  1.0 0.1298043199
C  C604  1  0.19030000  0.63900000  0.27630000  1.0 0.1298043199
C  C605  1  0.19030000  0.13900000  0.22370000  1.0 0.1298043199
C  C606  1  0.30970000  0.13900000  0.27630000  1.0 0.1298043199
C  C607  1  0.69030000  0.36100000  0.77630000  1.0 0.1298043199
C  C608  1  0.80970000  0.36100000  0.72370000  1.0 0.1298043199
C  C609  1  0.75770000  0.80790000  0.82760000  1.0 0.0091937694
C  C610  1  0.74230000  0.80790000  0.67240000  1.0 0.0091937694
C  C611  1  0.25770000  0.69210000  0.17240000  1.0 0.0023868419
C  C612  1  0.24230000  0.69210000  0.32760000  1.0 0.0023868419
C  C613  1  0.24230000  0.19210000  0.17240000  1.0 0.0023868419
C  C614  1  0.25770000  0.19210000  0.32760000  1.0 0.0023868419
C  C615  1  0.74230000  0.30790000  0.82760000  1.0 0.0091937694
C  C616  1  0.75770000  0.30790000  0.67240000  1.0 0.0091937694
C  C617  1  0.74670000  0.90040000  0.83190000  1.0 -0.2585999049
C  C618  1  0.75330000  0.90040000  0.66810000  1.0 -0.2585999049
C  C619  1  0.24670000  0.59960000  0.16810000  1.0 -0.2585999049
C  C620  1  0.25330000  0.59960000  0.33190000  1.0 -0.2585999049
C  C621  1  0.25330000  0.09960000  0.16810000  1.0 -0.2585999049
C  C622  1  0.24670000  0.09960000  0.33190000  1.0 -0.2585999049
C  C623  1  0.75330000  0.40040000  0.83190000  1.0 -0.2585999049
C  C624  1  0.74670000  0.40040000  0.66810000  1.0 -0.2585999049
N  N1  1  0.80830000  0.81800000  0.28010000  1.0 0.0802405369
N  N2  1  0.69170000  0.81800000  0.21990000  1.0 0.0802405369
N  N3  1  0.30830000  0.68200000  0.71990000  1.0 0.0802405369
N  N4  1  0.19170000  0.68200000  0.78010000  1.0 0.0802405369
N  N5  1  0.19170000  0.18200000  0.71990000  1.0 0.0802405369
N  N6  1  0.30830000  0.18200000  0.78010000  1.0 0.0802405369
N  N7  1  0.69170000  0.31800000  0.28010000  1.0 0.0802405369
N  N8  1  0.80830000  0.31800000  0.21990000  1.0 0.0802405369
N  N9  1  0.71710000  0.00940000  0.41860000  1.0 0.0901481795
N  N10  1  0.78290000  0.00940000  0.08140000  1.0 0.0901481795
N  N11  1  0.21710000  0.49060000  0.58140000  1.0 0.0901481795
N  N12  1  0.28290000  0.49060000  0.91860000  1.0 0.0901481795
N  N13  1  0.28290000  0.99060000  0.58140000  1.0 0.0901481795
N  N14  1  0.21710000  0.99060000  0.91860000  1.0 0.0901481795
N  N15  1  0.78290000  0.50940000  0.41860000  1.0 0.0901481795
N  N16  1  0.71710000  0.50940000  0.08140000  1.0 0.0901481795
N  N17  1  0.55320000  0.85420000  0.36580000  1.0 0.1298043199
N  N18  1  0.94680000  0.85420000  0.13420000  1.0 0.120237969
N  N19  1  0.05320000  0.64580000  0.63420000  1.0 0.1298043199
N  N20  1  0.44680000  0.64580000  0.86580000  1.0 0.1298043199
N  N21  1  0.44680000  0.14580000  0.63420000  1.0 0.120237969
N  N22  1  0.05320000  0.14580000  0.86580000  1.0 0.1298043199
N  N23  1  0.94680000  0.35420000  0.36580000  1.0 0.120237969
N  N24  1  0.55320000  0.35420000  0.13420000  1.0 0.120237969
N  N25  1  0.11877000  0.15890000  0.43363000  1.0 -0.041441693
N  N26  1  0.38123000  0.15890000  0.06637000  1.0 -0.041441693
N  N27  1  0.61877000  0.34110000  0.56637000  1.0 -0.041441693
N  N28  1  0.88123000  0.34110000  0.93363000  1.0 -0.041441693
N  N29  1  0.88123000  0.84110000  0.56637000  1.0 -0.041441693
N  N30  1  0.61877000  0.84110000  0.93363000  1.0 -0.041441693
N  N31  1  0.38123000  0.65890000  0.43363000  1.0 -0.0471614834
N  N32  1  0.11877000  0.65890000  0.06637000  1.0 -0.0471614834
N  N33  1  0.08260000  0.00890000  0.27360000  1.0 -0.008861447
N  N34  1  0.41740000  0.00890000  0.22640000  1.0 -0.008861447
N  N35  1  0.58260000  0.49110000  0.72640000  1.0 -0.008861447
N  N36  1  0.91740000  0.49110000  0.77360000  1.0 -0.008861447
N  N37  1  0.91740000  0.99110000  0.72640000  1.0 -0.008861447
N  N38  1  0.58260000  0.99110000  0.77360000  1.0 -0.008861447
N  N39  1  0.41740000  0.50890000  0.27360000  1.0 -0.008861447
N  N40  1  0.08260000  0.50890000  0.22640000  1.0 -0.008861447
N  N41  1  0.22290000  0.18520000  0.18750000  1.0 0.1092419966
N  N42  1  0.27710000  0.18520000  0.31250000  1.0 0.1092419966
N  N43  1  0.72290000  0.31480000  0.81250000  1.0 0.1092419966
N  N44  1  0.77710000  0.31480000  0.68750000  1.0 0.1092419966
N  N45  1  0.77710000  0.81480000  0.81250000  1.0 0.1092419966
N  N46  1  0.72290000  0.81480000  0.68750000  1.0 0.1092419966
N  N47  1  0.27710000  0.68520000  0.18750000  1.0 0.1092419966
N  N48  1  0.22290000  0.68520000  0.31250000  1.0 0.1092419966
N  N49  1  0.88753000  0.97875000  0.40237000  1.0 0.0702130986
N  N50  1  0.61247000  0.97875000  0.09763000  1.0 0.0702130986
N  N51  1  0.38753000  0.52125000  0.59763000  1.0 0.0702130986
N  N52  1  0.11247000  0.52125000  0.90237000  1.0 0.0802405369
N  N53  1  0.11247000  0.02125000  0.59763000  1.0 0.0702130986
N  N54  1  0.38753000  0.02125000  0.90237000  1.0 0.0702130986
N  N55  1  0.61247000  0.47875000  0.40237000  1.0 0.0702130986
N  N56  1  0.88753000  0.47875000  0.09763000  1.0 0.0702130986
N  N57  1  0.86802000  0.99709000  0.44599000  1.0 -0.1504804622
N  N58  1  0.63198000  0.99709000  0.05401000  1.0 -0.1504804622
N  N59  1  0.36802000  0.50291000  0.55401000  1.0 -0.1504804622
N  N60  1  0.13198000  0.50291000  0.94599000  1.0 -0.1504804622
N  N61  1  0.13198000  0.00291000  0.55401000  1.0 -0.1504804622
N  N62  1  0.36802000  0.00291000  0.94599000  1.0 -0.1504804622
N  N63  1  0.63198000  0.49709000  0.44599000  1.0 -0.1504804622
N  N64  1  0.86802000  0.49709000  0.05401000  1.0 -0.1504804622
N  N65  1  0.86942000  0.04672000  0.44386000  1.0 -0.2298738429
N  N66  1  0.63058000  0.04672000  0.05614000  1.0 -0.2298738429
N  N67  1  0.36942000  0.45328000  0.55614000  1.0 -0.2298738429
N  N68  1  0.13058000  0.45328000  0.94386000  1.0 -0.2298738429
N  N69  1  0.13058000  0.95328000  0.55614000  1.0 -0.2298738429
N  N70  1  0.36942000  0.95328000  0.94386000  1.0 -0.2298738429
N  N71  1  0.63058000  0.54672000  0.44386000  1.0 -0.2298738429
N  N72  1  0.86942000  0.54672000  0.05614000  1.0 -0.2298738429
N  N73  1  0.93425000  0.53159000  0.64169000  1.0 -0.2585999049
N  N74  1  0.56575000  0.53159000  0.85831000  1.0 -0.2585999049
N  N75  1  0.43425000  0.96841000  0.35831000  1.0 -0.2585999049
N  N76  1  0.06575000  0.96841000  0.14169000  1.0 -0.2585999049
N  N77  1  0.06575000  0.46841000  0.35831000  1.0 -0.2585999049
N  N78  1  0.43425000  0.46841000  0.14169000  1.0 -0.2585999049
N  N79  1  0.56575000  0.03159000  0.64169000  1.0 -0.2585999049
N  N80  1  0.93425000  0.03159000  0.85831000  1.0 -0.2585999049
N  N81  1  0.93777000  0.48215000  0.63850000  1.0 -0.1407458683
N  N82  1  0.56223000  0.48215000  0.86150000  1.0 -0.1407458683
N  N83  1  0.43777000  0.01785000  0.36150000  1.0 -0.1407458683
N  N84  1  0.06223000  0.01785000  0.13850000  1.0 -0.1407458683
N  N85  1  0.06223000  0.51785000  0.36150000  1.0 -0.1407458683
N  N86  1  0.43777000  0.51785000  0.13850000  1.0 -0.1407458683
N  N87  1  0.56223000  0.98215000  0.63850000  1.0 -0.1407458683
N  N88  1  0.93777000  0.98215000  0.86150000  1.0 -0.1407458683
N  N89  1  0.89579000  0.46540000  0.61277000  1.0 0.0901481795
N  N90  1  0.60421000  0.46540000  0.88723000  1.0 0.0901481795
N  N91  1  0.39579000  0.03460000  0.38723000  1.0 0.0901481795
N  N92  1  0.10421000  0.03460000  0.11277000  1.0 0.0901481795
N  N93  1  0.10421000  0.53460000  0.38723000  1.0 0.0901481795
N  N94  1  0.39579000  0.53460000  0.11277000  1.0 0.0901481795
N  N95  1  0.60421000  0.96540000  0.61277000  1.0 0.0901481795
N  N96  1  0.89579000  0.96540000  0.88723000  1.0 0.0901481795
N  N97  1  0.80640000  0.99870000  0.58470000  1.0 0.0422179202
N  N98  1  0.69360000  0.99870000  0.91530000  1.0 0.0422179202
N  N99  1  0.30640000  0.50130000  0.41530000  1.0 0.0422179202
N  N100  1  0.19360000  0.50130000  0.08470000  1.0 0.0422179202
N  N101  1  0.19360000  0.00130000  0.41530000  1.0 0.0422179202
N  N102  1  0.30640000  0.00130000  0.08470000  1.0 0.0422179202
N  N103  1  0.69360000  0.49870000  0.58470000  1.0 0.0422179202
N  N104  1  0.80640000  0.49870000  0.91530000  1.0 0.0422179202
N  N105  1  0.91450000  0.01480000  0.18210000  1.0 -0.000233521
N  N106  1  0.58550000  0.01480000  0.31790000  1.0 -0.000233521
N  N107  1  0.41450000  0.48520000  0.81790000  1.0 0.0023868419
N  N108  1  0.08550000  0.48520000  0.68210000  1.0 0.0023868419
N  N109  1  0.08550000  0.98520000  0.81790000  1.0 0.0023868419
N  N110  1  0.41450000  0.98520000  0.68210000  1.0 0.0023868419
N  N111  1  0.58550000  0.51480000  0.18210000  1.0 -0.000233521
N  N112  1  0.91450000  0.51480000  0.31790000  1.0 -0.000233521
N  N113  1  0.84210000  0.90050000  0.58250000  1.0 -0.1504804622
N  N114  1  0.65790000  0.90050000  0.91750000  1.0 -0.1504804622
N  N115  1  0.34210000  0.59950000  0.41750000  1.0 -0.1504804622
N  N116  1  0.15790000  0.59950000  0.08250000  1.0 -0.1504804622
N  N117  1  0.15790000  0.09950000  0.41750000  1.0 -0.1504804622
N  N118  1  0.34210000  0.09950000  0.08250000  1.0 -0.1504804622
N  N119  1  0.65790000  0.40050000  0.58250000  1.0 -0.1504804622
N  N120  1  0.84210000  0.40050000  0.91750000  1.0 -0.1504804622
N  N121  1  0.92410000  0.99400000  0.73870000  1.0 -0.0204382261
N  N122  1  0.57590000  0.99400000  0.76130000  1.0 -0.0204382261
N  N123  1  0.42410000  0.50600000  0.26130000  1.0 -0.0204382261
N  N124  1  0.07590000  0.50600000  0.23870000  1.0 -0.0204382261
N  N125  1  0.07590000  0.00600000  0.26130000  1.0 -0.0204382261
N  N126  1  0.42410000  0.00600000  0.23870000  1.0 -0.0204382261
N  N127  1  0.57590000  0.49400000  0.73870000  1.0 -0.0204382261
N  N128  1  0.92410000  0.49400000  0.76130000  1.0 -0.0204382261
N  N129  1  0.77290000  0.85740000  0.81040000  1.0 0.0597529989
N  N130  1  0.72710000  0.85740000  0.68960000  1.0 0.0597529989
N  N131  1  0.27290000  0.64260000  0.18960000  1.0 0.0597529989
N  N132  1  0.22710000  0.64260000  0.31040000  1.0 0.0597529989
N  N133  1  0.22710000  0.14260000  0.18960000  1.0 0.0597529989
N  N134  1  0.27290000  0.14260000  0.31040000  1.0 0.0597529989
N  N135  1  0.72710000  0.35740000  0.81040000  1.0 0.0597529989
N  N136  1  0.77290000  0.35740000  0.68960000  1.0 0.0597529989
N  N137  1  0.80980000  0.86200000  0.27820000  1.0 0.0802405369
N  N138  1  0.69020000  0.86200000  0.22180000  1.0 0.0802405369
N  N139  1  0.30980000  0.63800000  0.72180000  1.0 0.0802405369
N  N140  1  0.19020000  0.63800000  0.77820000  1.0 0.0802405369
N  N141  1  0.19020000  0.13800000  0.72180000  1.0 0.0802405369
N  N142  1  0.30980000  0.13800000  0.77820000  1.0 0.0802405369
N  N143  1  0.69020000  0.36200000  0.27820000  1.0 0.0802405369
N  N144  1  0.80980000  0.36200000  0.22180000  1.0 0.0802405369
N  N145  1  0.67450000  0.00150000  0.37180000  1.0 -0.1708057749
N  N146  1  0.82550000  0.00150000  0.12820000  1.0 -0.1708057749
N  N147  1  0.17450000  0.49850000  0.62820000  1.0 -0.1708057749
N  N148  1  0.32550000  0.49850000  0.87180000  1.0 -0.1708057749
N  N149  1  0.32550000  0.99850000  0.62820000  1.0 -0.1708057749
N  N150  1  0.17450000  0.99850000  0.87180000  1.0 -0.1708057749
N  N151  1  0.82550000  0.50150000  0.37180000  1.0 -0.1708057749
N  N152  1  0.67450000  0.50150000  0.12820000  1.0 -0.1708057749
N  N153  1  0.56880000  0.88560000  0.33830000  1.0 0.0994892312
N  N154  1  0.93120000  0.88560000  0.16170000  1.0 0.0994892312
N  N155  1  0.06880000  0.61440000  0.66170000  1.0 0.0994892312
N  N156  1  0.43120000  0.61440000  0.83830000  1.0 0.0994892312
N  N157  1  0.43120000  0.11440000  0.66170000  1.0 0.0994892312
N  N158  1  0.06880000  0.11440000  0.83830000  1.0 0.0994892312
N  N159  1  0.93120000  0.38560000  0.33830000  1.0 0.0994892312
N  N160  1  0.56880000  0.38560000  0.16170000  1.0 0.0994892312
O  O1  1  0.75220000  0.84960000  0.33580000  1.0 -0.3493483642
O  O2  1  0.74780000  0.84960000  0.16420000  1.0 -0.3493483642
O  O3  1  0.25220000  0.65040000  0.66420000  1.0 -0.3493483642
O  O4  1  0.24780000  0.65040000  0.83580000  1.0 -0.3493483642
O  O5  1  0.24780000  0.15040000  0.66420000  1.0 -0.3493483642
O  O6  1  0.25220000  0.15040000  0.83580000  1.0 -0.3493483642
O  O7  1  0.74780000  0.34960000  0.33580000  1.0 -0.3493483642
O  O8  1  0.75220000  0.34960000  0.16420000  1.0 -0.3493483642
O  O9  1  0.73460000  0.92575000  0.40780000  1.0 -0.2867168601
O  O10  1  0.76540000  0.92575000  0.09220000  1.0 -0.2867168601
O  O11  1  0.23460000  0.57425000  0.59220000  1.0 -0.2867168601
O  O12  1  0.26540000  0.57425000  0.90780000  1.0 -0.2867168601
O  O13  1  0.26540000  0.07425000  0.59220000  1.0 -0.2867168601
O  O14  1  0.23460000  0.07425000  0.90780000  1.0 -0.2867168601
O  O15  1  0.76540000  0.42575000  0.40780000  1.0 -0.2867168601
O  O16  1  0.73460000  0.42575000  0.09220000  1.0 -0.2867168601
O  O17  1  0.63910000  0.87530000  0.36940000  1.0 -0.0966310647
O  O18  1  0.86090000  0.87530000  0.13060000  1.0 -0.0966310647
O  O19  1  0.13910000  0.62470000  0.63060000  1.0 -0.0940954017
O  O20  1  0.36090000  0.62470000  0.86940000  1.0 -0.0940954017
O  O21  1  0.36090000  0.12470000  0.63060000  1.0 -0.0966310647
O  O22  1  0.13910000  0.12470000  0.86940000  1.0 -0.0966310647
O  O23  1  0.86090000  0.37530000  0.36940000  1.0 -0.0966310647
O  O24  1  0.63910000  0.37530000  0.13060000  1.0 -0.0966310647
O  O25  1  0.12060000  0.13850000  0.34980000  1.0 -0.3096385074
O  O26  1  0.37940000  0.13850000  0.15020000  1.0 -0.3096385074
O  O27  1  0.62060000  0.36150000  0.65020000  1.0 -0.3096385074
O  O28  1  0.87940000  0.36150000  0.84980000  1.0 -0.3096385074
O  O29  1  0.87940000  0.86150000  0.65020000  1.0 -0.3096385074
O  O30  1  0.62060000  0.86150000  0.84980000  1.0 -0.3096385074
O  O31  1  0.37940000  0.63850000  0.34980000  1.0 -0.3034806499
O  O32  1  0.12060000  0.63850000  0.15020000  1.0 -0.3096385074
O  O33  1  0.09460000  0.09040000  0.25740000  1.0 -0.0966310647
O  O34  1  0.40540000  0.09040000  0.24260000  1.0 -0.0966310647
O  O35  1  0.59460000  0.40960000  0.74260000  1.0 -0.0966310647
O  O36  1  0.90540000  0.40960000  0.75740000  1.0 -0.0966310647
O  O37  1  0.90540000  0.90960000  0.74260000  1.0 -0.0966310647
O  O38  1  0.59460000  0.90960000  0.75740000  1.0 -0.0966310647
O  O39  1  0.40540000  0.59040000  0.25740000  1.0 -0.0966310647
O  O40  1  0.09460000  0.59040000  0.24260000  1.0 -0.0966310647
O  O41  1  0.16280000  0.16100000  0.24340000  1.0 -0.1708057749
O  O42  1  0.33720000  0.16100000  0.25660000  1.0 -0.1708057749
O  O43  1  0.66280000  0.33900000  0.75660000  1.0 -0.1708057749
O  O44  1  0.83720000  0.33900000  0.74340000  1.0 -0.1708057749
O  O45  1  0.83720000  0.83900000  0.75660000  1.0 -0.1708057749
O  O46  1  0.66280000  0.83900000  0.74340000  1.0 -0.1708057749
O  O47  1  0.33720000  0.66100000  0.24340000  1.0 -0.1708057749
O  O48  1  0.16280000  0.66100000  0.25660000  1.0 -0.1708057749
O  O49  1  0.77709000  0.82191000  0.44205000  1.0 -0.5605975049
O  O50  1  0.72291000  0.82191000  0.05795000  1.0 -0.5605975049
O  O51  1  0.27709000  0.67809000  0.55795000  1.0 -0.5605975049
O  O52  1  0.22291000  0.67809000  0.94205000  1.0 -0.5605975049
O  O53  1  0.22291000  0.17809000  0.55795000  1.0 -0.5605975049
O  O54  1  0.27709000  0.17809000  0.94205000  1.0 -0.5605975049
O  O55  1  0.72291000  0.32191000  0.44205000  1.0 -0.5605975049
O  O56  1  0.77709000  0.32191000  0.05795000  1.0 -0.5605975049
O  O57  1  0.82877000  0.75858000  0.42484000  1.0 -0.4676244969
O  O58  1  0.67123000  0.75858000  0.07516000  1.0 -0.4676244969
O  O59  1  0.32877000  0.74142000  0.57516000  1.0 -0.4676244969
O  O60  1  0.17123000  0.74142000  0.92484000  1.0 -0.4676244969
O  O61  1  0.17123000  0.24142000  0.57516000  1.0 -0.4676244969
O  O62  1  0.32877000  0.24142000  0.92484000  1.0 -0.4676244969
O  O63  1  0.67123000  0.25858000  0.42484000  1.0 -0.4676244969
O  O64  1  0.82877000  0.25858000  0.07516000  1.0 -0.4676244969
O  O65  1  0.97419000  0.78712000  0.31166000  1.0 -0.5407288412
O  O66  1  0.52581000  0.78712000  0.18834000  1.0 -0.5407288412
O  O67  1  0.47419000  0.71288000  0.68834000  1.0 -0.5407288412
O  O68  1  0.02581000  0.71288000  0.81166000  1.0 -0.5407288412
O  O69  1  0.02581000  0.21288000  0.68834000  1.0 -0.5407288412
O  O70  1  0.47419000  0.21288000  0.81166000  1.0 -0.5407288412
O  O71  1  0.52581000  0.28712000  0.31166000  1.0 -0.5407288412
O  O72  1  0.97419000  0.28712000  0.18834000  1.0 -0.5407288412
O  O73  1  0.00933000  0.86328000  0.30456000  1.0 -0.5236892368
O  O74  1  0.49067000  0.86328000  0.19544000  1.0 -0.5236892368
O  O75  1  0.50933000  0.63672000  0.69544000  1.0 -0.5236892368
O  O76  1  0.99067000  0.63672000  0.80456000  1.0 -0.5236892368
O  O77  1  0.99067000  0.13672000  0.69544000  1.0 -0.5236892368
O  O78  1  0.50933000  0.13672000  0.80456000  1.0 -0.5236892368
O  O79  1  0.49067000  0.36328000  0.30456000  1.0 -0.5236892368
O  O80  1  0.00933000  0.36328000  0.19544000  1.0 -0.5236892368
O  O81  1  0.78404000  0.21460000  0.42317000  1.0 -0.5236892368
O  O82  1  0.71596000  0.21460000  0.07683000  1.0 -0.5236892368
O  O83  1  0.28404000  0.28540000  0.57683000  1.0 -0.5236892368
O  O84  1  0.21596000  0.28540000  0.92317000  1.0 -0.5236892368
O  O85  1  0.21596000  0.78540000  0.57683000  1.0 -0.5236892368
O  O86  1  0.28404000  0.78540000  0.92317000  1.0 -0.5236892368
O  O87  1  0.71596000  0.71460000  0.42317000  1.0 -0.5236892368
O  O88  1  0.78404000  0.71460000  0.07683000  1.0 -0.5236892368
O  O89  1  0.82258000  0.27916000  0.38393000  1.0 -0.60474382
O  O90  1  0.67742000  0.27916000  0.11607000  1.0 -0.60474382
O  O91  1  0.32258000  0.22084000  0.61607000  1.0 -0.60474382
O  O92  1  0.17742000  0.22084000  0.88393000  1.0 -0.6085492623
O  O93  1  0.17742000  0.72084000  0.61607000  1.0 -0.6085492623
O  O94  1  0.32258000  0.72084000  0.88393000  1.0 -0.6085492623
O  O95  1  0.67742000  0.77916000  0.38393000  1.0 -0.60474382
O  O96  1  0.82258000  0.77916000  0.11607000  1.0 -0.60474382
O  O97  1  0.98212000  0.23654000  0.28624000  1.0 -0.5667674532
O  O98  1  0.51788000  0.23654000  0.21376000  1.0 -0.5667674532
O  O99  1  0.48212000  0.26346000  0.71376000  1.0 -0.5667674532
O  O100  1  0.01788000  0.26346000  0.78624000  1.0 -0.5667674532
O  O101  1  0.01788000  0.76346000  0.71376000  1.0 -0.5667674532
O  O102  1  0.48212000  0.76346000  0.78624000  1.0 -0.5667674532
O  O103  1  0.51788000  0.73654000  0.28624000  1.0 -0.5667674532
O  O104  1  0.98212000  0.73654000  0.21376000  1.0 -0.5667674532
O  O105  1  0.02219000  0.16416000  0.30638000  1.0 -0.5841937478
O  O106  1  0.47781000  0.16416000  0.19362000  1.0 -0.5841937478
O  O107  1  0.52219000  0.33584000  0.69362000  1.0 -0.5841937478
O  O108  1  0.97781000  0.33584000  0.80638000  1.0 -0.5841937478
O  O109  1  0.97781000  0.83584000  0.69362000  1.0 -0.5841937478
O  O110  1  0.52219000  0.83584000  0.80638000  1.0 -0.5841937478
O  O111  1  0.47781000  0.66416000  0.30638000  1.0 -0.5841937478
O  O112  1  0.02219000  0.66416000  0.19362000  1.0 -0.5841937478
O  O113  1  0.79790000  0.73710000  0.53020000  1.0 -0.5667674532
O  O114  1  0.70210000  0.73710000  0.96980000  1.0 -0.5667674532
O  O115  1  0.29790000  0.76290000  0.46980000  1.0 -0.5667674532
O  O116  1  0.20210000  0.76290000  0.03020000  1.0 -0.5667674532
O  O117  1  0.20210000  0.26290000  0.46980000  1.0 -0.5667674532
O  O118  1  0.29790000  0.26290000  0.03020000  1.0 -0.5667674532
O  O119  1  0.70210000  0.23710000  0.53020000  1.0 -0.5667674532
O  O120  1  0.79790000  0.23710000  0.96980000  1.0 -0.5667674532
O  O121  1  0.77490000  0.66060000  0.50400000  1.0 -0.1294832912
O  O122  1  0.72510000  0.66060000  0.99600000  1.0 -0.1226290306
O  O123  1  0.27490000  0.83940000  0.49600000  1.0 -0.1294832912
O  O124  1  0.22510000  0.83940000  0.00400000  1.0 -0.1294832912
O  O125  1  0.22510000  0.33940000  0.49600000  1.0 -0.1226290306
O  O126  1  0.27490000  0.33940000  0.00400000  1.0 -0.1294832912
O  O127  1  0.72510000  0.16060000  0.50400000  1.0 -0.1294832912
O  O128  1  0.77490000  0.16060000  0.99600000  1.0 -0.1226290306
O  O129  1  0.88663000  0.76243000  0.69172000  1.0 -0.5605975049
O  O130  1  0.61337000  0.76243000  0.80828000  1.0 -0.5605975049
O  O131  1  0.38663000  0.73757000  0.30828000  1.0 -0.5605975049
O  O132  1  0.11337000  0.73757000  0.19172000  1.0 -0.5605975049
O  O133  1  0.11337000  0.23757000  0.30828000  1.0 -0.5605975049
O  O134  1  0.38663000  0.23757000  0.19172000  1.0 -0.5605975049
O  O135  1  0.61337000  0.26243000  0.69172000  1.0 -0.5605975049
O  O136  1  0.88663000  0.26243000  0.80828000  1.0 -0.5605975049
O  O137  1  0.92576000  0.69618000  0.72713000  1.0 -0.5542323764
O  O138  1  0.57424000  0.69618000  0.77287000  1.0 -0.5605975049
O  O139  1  0.42576000  0.80382000  0.27287000  1.0 -0.5605975049
O  O140  1  0.07424000  0.80382000  0.22713000  1.0 -0.5542323764
O  O141  1  0.07424000  0.30382000  0.27287000  1.0 -0.5605975049
O  O142  1  0.42576000  0.30382000  0.22713000  1.0 -0.5542323764
O  O143  1  0.57424000  0.19618000  0.72713000  1.0 -0.5542323764
O  O144  1  0.92576000  0.19618000  0.77287000  1.0 -0.5542323764
O  O145  1  0.82306000  0.35645000  0.47077000  1.0 -0.5667674532
O  O146  1  0.67694000  0.35645000  0.02923000  1.0 -0.5667674532
O  O147  1  0.32306000  0.14355000  0.52923000  1.0 -0.5667674532
O  O148  1  0.17694000  0.14355000  0.97077000  1.0 -0.5667674532
O  O149  1  0.17694000  0.64355000  0.52923000  1.0 -0.5667674532
O  O150  1  0.32306000  0.64355000  0.97077000  1.0 -0.5667674532
O  O151  1  0.67694000  0.85645000  0.47077000  1.0 -0.5667674532
O  O152  1  0.82306000  0.85645000  0.02923000  1.0 -0.5667674532
O  O153  1  0.80661000  0.28259000  0.51007000  1.0 -0.509694856
O  O154  1  0.69339000  0.28259000  0.98993000  1.0 -0.509694856
O  O155  1  0.30661000  0.21741000  0.48993000  1.0 -0.509694856
O  O156  1  0.19339000  0.21741000  0.01007000  1.0 -0.509694856
O  O157  1  0.19339000  0.71741000  0.48993000  1.0 -0.509694856
O  O158  1  0.30661000  0.71741000  0.01007000  1.0 -0.509694856
O  O159  1  0.69339000  0.78259000  0.51007000  1.0 -0.509694856
O  O160  1  0.80661000  0.78259000  0.98993000  1.0 -0.509694856
O  O161  1  0.91453000  0.24157000  0.65897000  1.0 -0.4983580116
O  O162  1  0.58547000  0.24157000  0.84103000  1.0 -0.4983580116
O  O163  1  0.41453000  0.25843000  0.34103000  1.0 -0.4983580116
O  O164  1  0.08547000  0.25843000  0.15897000  1.0 -0.4983580116
O  O165  1  0.08547000  0.75843000  0.34103000  1.0 -0.4983580116
O  O166  1  0.41453000  0.75843000  0.15897000  1.0 -0.4983580116
O  O167  1  0.58547000  0.74157000  0.65897000  1.0 -0.4983580116
O  O168  1  0.91453000  0.74157000  0.84103000  1.0 -0.4983580116
O  O169  1  0.94013000  0.30333000  0.70841000  1.0 -0.6085492623
O  O170  1  0.55987000  0.30333000  0.79159000  1.0 -0.6085492623
O  O171  1  0.44013000  0.19667000  0.29159000  1.0 -0.6085492623
O  O172  1  0.05987000  0.19667000  0.20841000  1.0 -0.6085492623
O  O173  1  0.05987000  0.69667000  0.29159000  1.0 -0.6085492623
O  O174  1  0.44013000  0.69667000  0.20841000  1.0 -0.6085492623
O  O175  1  0.55987000  0.80333000  0.70841000  1.0 -0.6085492623
O  O176  1  0.94013000  0.80333000  0.79159000  1.0 -0.6085492623
O  O177  1  0.73260000  0.98540000  0.54250000  1.0 -0.4676244969
O  O178  1  0.76740000  0.98540000  0.95750000  1.0 -0.4676244969
O  O179  1  0.23260000  0.51460000  0.45750000  1.0 -0.4636238034
O  O180  1  0.26740000  0.51460000  0.04250000  1.0 -0.4676244969
O  O181  1  0.26740000  0.01460000  0.45750000  1.0 -0.4676244969
O  O182  1  0.23260000  0.01460000  0.04250000  1.0 -0.4676244969
O  O183  1  0.76740000  0.48540000  0.54250000  1.0 -0.4676244969
O  O184  1  0.73260000  0.48540000  0.95750000  1.0 -0.4676244969
O  O185  1  0.93880000  0.02890000  0.25990000  1.0 -0.4405632786
O  O186  1  0.56120000  0.02890000  0.24010000  1.0 -0.4405632786
O  O187  1  0.43880000  0.47110000  0.74010000  1.0 -0.4405632786
O  O188  1  0.06120000  0.47110000  0.75990000  1.0 -0.4405632786
O  O189  1  0.06120000  0.97110000  0.74010000  1.0 -0.4405632786
O  O190  1  0.43880000  0.97110000  0.75990000  1.0 -0.4405632786
O  O191  1  0.56120000  0.52890000  0.25990000  1.0 -0.4405632786
O  O192  1  0.93880000  0.52890000  0.24010000  1.0 -0.4405632786
O  O193  1  0.79510000  0.65880000  0.49540000  1.0 -0.1504804622
O  O194  1  0.70490000  0.65880000  0.00460000  1.0 -0.1504804622
O  O195  1  0.29510000  0.84120000  0.50460000  1.0 -0.1504804622
O  O196  1  0.20490000  0.84120000  0.99540000  1.0 -0.1504804622
O  O197  1  0.20490000  0.34120000  0.50460000  1.0 -0.1504804622
O  O198  1  0.29510000  0.34120000  0.99540000  1.0 -0.1407458683
O  O199  1  0.70490000  0.15880000  0.49540000  1.0 -0.1504804622
O  O200  1  0.79510000  0.15880000  0.00460000  1.0 -0.1504804622
O  O201  1  0.74980000  0.83890000  0.33620000  1.0 -0.3560142036
O  O202  1  0.75020000  0.83890000  0.16380000  1.0 -0.3493483642
O  O203  1  0.24980000  0.66110000  0.66380000  1.0 -0.3560142036
O  O204  1  0.25020000  0.66110000  0.83620000  1.0 -0.3560142036
O  O205  1  0.25020000  0.16110000  0.66380000  1.0 -0.3560142036
O  O206  1  0.24980000  0.16110000  0.83620000  1.0 -0.3560142036
O  O207  1  0.75020000  0.33890000  0.33620000  1.0 -0.3560142036
O  O208  1  0.74980000  0.33890000  0.16380000  1.0 -0.3493483642
O  O209  1  0.72300000  0.92980000  0.39860000  1.0 -0.1913803732
O  O210  1  0.77700000  0.92980000  0.10140000  1.0 -0.1913803732
O  O211  1  0.22300000  0.57020000  0.60140000  1.0 -0.1913803732
O  O212  1  0.27700000  0.57020000  0.89860000  1.0 -0.1913803732
O  O213  1  0.27700000  0.07020000  0.60140000  1.0 -0.1913803732
O  O214  1  0.22300000  0.07020000  0.89860000  1.0 -0.1913803732
O  O215  1  0.77700000  0.42980000  0.39860000  1.0 -0.1913803732
O  O216  1  0.72300000  0.42980000  0.10140000  1.0 -0.1913803732
O  O217  1  0.65180000  0.88690000  0.36200000  1.0 -0.2025921906
O  O218  1  0.84820000  0.88690000  0.13800000  1.0 -0.2025921906
O  O219  1  0.15180000  0.61310000  0.63800000  1.0 -0.2025921906
O  O220  1  0.34820000  0.61310000  0.86200000  1.0 -0.2025921906
O  O221  1  0.34820000  0.11310000  0.63800000  1.0 -0.2025921906
O  O222  1  0.15180000  0.11310000  0.86200000  1.0 -0.2025921906
O  O223  1  0.84820000  0.38690000  0.36200000  1.0 -0.2025921906
O  O224  1  0.65180000  0.38690000  0.13800000  1.0 -0.2025921906
O  O225  1  0.86960000  0.85380000  0.65010000  1.0 -0.4161341433
O  O226  1  0.63040000  0.85380000  0.84990000  1.0 -0.4161341433
O  O227  1  0.36960000  0.64620000  0.34990000  1.0 -0.4144527431
O  O228  1  0.13040000  0.64620000  0.15010000  1.0 -0.4161341433
O  O229  1  0.13040000  0.14620000  0.34990000  1.0 -0.4161341433
O  O230  1  0.36960000  0.14620000  0.15010000  1.0 -0.4161341433
O  O231  1  0.63040000  0.35380000  0.65010000  1.0 -0.4161341433
O  O232  1  0.86960000  0.35380000  0.84990000  1.0 -0.4161341433
O  O233  1  0.92500000  0.90820000  0.74010000  1.0 -0.0723988072
O  O234  1  0.57500000  0.90820000  0.75990000  1.0 -0.0723988072
O  O235  1  0.42500000  0.59180000  0.25990000  1.0 -0.0723988072
O  O236  1  0.07500000  0.59180000  0.24010000  1.0 -0.0723988072
O  O237  1  0.07500000  0.09180000  0.25990000  1.0 -0.0723988072
O  O238  1  0.42500000  0.09180000  0.24010000  1.0 -0.0723988072
O  O239  1  0.57500000  0.40820000  0.74010000  1.0 -0.0723988072
O  O240  1  0.92500000  0.40820000  0.75990000  1.0 -0.0723988072
O  O241  1  0.83230000  0.82490000  0.75770000  1.0 -0.1504804622
O  O242  1  0.66770000  0.82490000  0.74230000  1.0 -0.1504804622
O  O243  1  0.33230000  0.67510000  0.24230000  1.0 -0.1504804622
O  O244  1  0.16770000  0.67510000  0.25770000  1.0 -0.1504804622
O  O245  1  0.16770000  0.17510000  0.24230000  1.0 -0.1504804622
O  O246  1  0.33230000  0.17510000  0.25770000  1.0 -0.1504804622
O  O247  1  0.66770000  0.32490000  0.75770000  1.0 -0.1504804622
O  O248  1  0.83230000  0.32490000  0.74230000  1.0 -0.1504804622
O  O249  1  0.78730000  0.73320000  0.53540000  1.0 -0.5236892368
O  O250  1  0.71270000  0.73320000  0.96460000  1.0 -0.5236892368
O  O251  1  0.28730000  0.76680000  0.46460000  1.0 -0.5236892368
O  O252  1  0.21270000  0.76680000  0.03540000  1.0 -0.5236892368
O  O253  1  0.21270000  0.26680000  0.46460000  1.0 -0.5236892368
O  O254  1  0.28730000  0.26680000  0.03540000  1.0 -0.5236892368
O  O255  1  0.71270000  0.23320000  0.53540000  1.0 -0.5236892368
O  O256  1  0.78730000  0.23320000  0.96460000  1.0 -0.5236892368
