# DDEC6 charges by PACMAN v1.1 (https://github.com/mtap-research/PACMAN-charge/)
data_ZERLIU_ASR_pacman
_symmetry_space_group_name_H-M   'P 1'
_cell_length_a   13.51420000
_cell_length_b   15.05380000
_cell_length_c   17.90700000
_cell_angle_alpha   80.18200000
_cell_angle_beta   76.35100000
_cell_angle_gamma   67.58100000
_symmetry_Int_Tables_number   1
_chemical_formula_structural   NiBH15W12C18(NO5)6
_chemical_formula_sum   'Ni2 B2 H30 W24 C36 N12 O60'
_cell_volume   3259.38311675
_cell_formula_units_Z   2
loop_
 _symmetry_equiv_pos_site_id
 _symmetry_equiv_pos_as_xyz
  1  'x, y, z'
loop_
 _atom_site_type_symbol
 _atom_site_label
 _atom_site_symmetry_multiplicity
 _atom_site_fract_x
 _atom_site_fract_y
 _atom_site_fract_z
 _atom_site_occupancy
 _atom_site_charge
Ni  Ni1  1  0.93921000  0.26688000  0.15648000  1.0 0.6385089045
Ni  Ni2  1  0.06079000  0.73312000  0.84352000  1.0 0.6313694601
B  B1  1  0.82300000  0.75680000  0.23700000  1.0 0.8696958904
B  B2  1  0.17700000  0.24320000  0.76300000  1.0 0.8696958904
H  H1  1  0.74710000  0.19470000  0.16210000  1.0 0.0983368076
H  H2  1  0.98530000  0.08670000  0.29050000  1.0 0.0791614743
H  H3  1  0.14500000  0.32360000  0.14420000  1.0 0.0983368076
H  H4  1  0.40420000  0.40460000  0.20200000  1.0 0.0902987046
H  H5  1  0.47670000  0.10570000  0.12060000  1.0 0.1101456402
H  H6  1  0.26240000  0.35360000  0.20180000  1.0 0.1101456402
H  H7  1  0.61820000  0.15490000  0.12100000  1.0 0.1101456402
H  H8  1  0.94280000  0.97470000  0.39630000  1.0 0.1101456402
H  H9  1  0.98530000  0.15450000  0.51640000  1.0 0.0983368076
H  H10  1  0.32800000  0.04680000  0.17010000  1.0 0.0983368076
H  H11  1  0.14240000  0.05960000  0.16650000  1.0 0.0983368076
H  H12  1  0.82570000  0.36060000  0.31750000  1.0 0.0983368076
H  H13  1  0.84140000  0.27640000  0.44590000  1.0 0.0983368076
H  H14  1  0.72460000  0.46380000  0.14740000  1.0 0.1101456402
H  H15  1  0.54090000  0.46490000  0.15740000  1.0 0.0902987046
H  H16  1  0.25290000  0.80530000  0.83790000  1.0 0.0983368076
H  H17  1  0.01470000  0.91330000  0.70950000  1.0 0.0791614743
H  H18  1  0.85500000  0.67640000  0.85580000  1.0 0.0983368076
H  H19  1  0.59580000  0.59540000  0.79800000  1.0 0.0902987046
H  H20  1  0.52330000  0.89430000  0.87940000  1.0 0.1101456402
H  H21  1  0.73760000  0.64640000  0.79820000  1.0 0.1101456402
H  H22  1  0.38180000  0.84510000  0.87900000  1.0 0.1101456402
H  H23  1  0.05720000  0.02530000  0.60370000  1.0 0.1101456402
H  H24  1  0.01470000  0.84550000  0.48360000  1.0 0.0983368076
H  H25  1  0.67200000  0.95320000  0.82990000  1.0 0.0983368076
H  H26  1  0.85760000  0.94040000  0.83350000  1.0 0.0983368076
H  H27  1  0.17430000  0.63940000  0.68250000  1.0 0.0983368076
H  H28  1  0.15860000  0.72360000  0.55410000  1.0 0.0983368076
H  H29  1  0.27540000  0.53620000  0.85260000  1.0 0.1101456402
H  H30  1  0.45910000  0.53510000  0.84260000  1.0 0.0902987046
W  W1  1  0.09978000  0.60888000  0.20669000  1.0 2.3713704234
W  W2  1  0.91602000  0.52145000  0.18921000  1.0 2.3394628053
W  W3  1  0.67885000  0.82507000  0.08439000  1.0 2.2785253609
W  W4  1  0.86964000  0.93600000  0.10009000  1.0 2.3039548879
W  W5  1  0.74614000  0.99535000  0.27798000  1.0 2.2785253609
W  W6  1  0.77761000  0.58320000  0.38464000  1.0 2.3889618998
W  W7  1  0.97232000  0.68543000  0.05690000  1.0 2.3713704234
W  W8  1  0.68366000  0.81180000  0.42227000  1.0 2.3795140271
W  W9  1  0.62483000  0.66759000  0.22634000  1.0 2.3713704234
W  W10  1  0.01087000  0.86200000  0.24231000  1.0 2.3594197517
W  W11  1  0.54774000  0.89606000  0.25666000  1.0 2.3476759677
W  W12  1  0.94932000  0.68771000  0.39715000  1.0 2.396542955
W  W13  1  0.90022000  0.39112000  0.79331000  1.0 2.3713704234
W  W14  1  0.08398000  0.47855000  0.81079000  1.0 2.3394628053
W  W15  1  0.32115000  0.17493000  0.91561000  1.0 2.2785253609
W  W16  1  0.13036000  0.06400000  0.89991000  1.0 2.3039548879
W  W17  1  0.25386000  0.00465000  0.72202000  1.0 2.288990665
W  W18  1  0.22239000  0.41680000  0.61536000  1.0 2.3889618998
W  W19  1  0.02768000  0.31457000  0.94310000  1.0 2.3795140271
W  W20  1  0.31634000  0.18820000  0.57773000  1.0 2.3889618998
W  W21  1  0.37517000  0.33241000  0.77366000  1.0 2.3594197517
W  W22  1  0.98913000  0.13800000  0.75769000  1.0 2.3476759677
W  W23  1  0.45226000  0.10394000  0.74334000  1.0 2.3476759677
W  W24  1  0.05068000  0.31229000  0.60285000  1.0 2.3889618998
C  C1  1  0.71930000  0.26170000  0.15920000  1.0 0.0726276373
C  C2  1  0.94690000  0.14460000  0.31280000  1.0 0.0791614743
C  C3  1  0.96150000  0.07470000  0.44660000  1.0 0.1101456402
C  C4  1  0.16630000  0.25670000  0.15100000  1.0 0.1101456402
C  C5  1  0.41870000  0.34460000  0.18580000  1.0 -0.1899087022
C  C6  1  0.52430000  0.28480000  0.16230000  1.0 0.1101456402
C  C7  1  0.35420000  0.22660000  0.16020000  1.0 0.1101456402
C  C8  1  0.46240000  0.16570000  0.13660000  1.0 -0.1780429
C  C9  1  0.33400000  0.31400000  0.18510000  1.0 -0.1967288966
C  C10  1  0.54660000  0.19470000  0.13720000  1.0 -0.1899087022
C  C11  1  0.96680000  0.98450000  0.43780000  1.0 -0.1899087022
C  C12  1  0.99220000  0.09240000  0.50960000  1.0 -0.1899087022
C  C13  1  0.26860000  0.10350000  0.16530000  1.0 -0.1398357267
C  C14  1  0.16600000  0.11090000  0.16280000  1.0 -0.0813133235
C  C15  1  0.85950000  0.29450000  0.32810000  1.0 -0.0531491546
C  C16  1  0.86810000  0.24850000  0.39930000  1.0 -0.1398357267
C  C17  1  0.70590000  0.40950000  0.15150000  1.0 -0.0531491546
C  C18  1  0.60430000  0.41060000  0.15670000  1.0 -0.1398357267
C  C19  1  0.28070000  0.73830000  0.84080000  1.0 0.0726276373
C  C20  1  0.05310000  0.85540000  0.68720000  1.0 0.0791614743
C  C21  1  0.03850000  0.92530000  0.55340000  1.0 0.1101456402
C  C22  1  0.83370000  0.74330000  0.84900000  1.0 0.1101456402
C  C23  1  0.58130000  0.65540000  0.81420000  1.0 -0.1899087022
C  C24  1  0.47570000  0.71520000  0.83770000  1.0 0.1101456402
C  C25  1  0.64580000  0.77340000  0.83980000  1.0 0.1101456402
C  C26  1  0.53760000  0.83430000  0.86340000  1.0 -0.1780429
C  C27  1  0.66600000  0.68600000  0.81490000  1.0 -0.1967288966
C  C28  1  0.45340000  0.80530000  0.86280000  1.0 -0.1899087022
C  C29  1  0.03320000  0.01550000  0.56220000  1.0 -0.1899087022
C  C30  1  0.00780000  0.90760000  0.49040000  1.0 -0.1899087022
C  C31  1  0.73140000  0.89650000  0.83470000  1.0 -0.1398357267
C  C32  1  0.83400000  0.88910000  0.83720000  1.0 -0.0813133235
C  C33  1  0.14050000  0.70550000  0.67190000  1.0 -0.0531491546
C  C34  1  0.13190000  0.75150000  0.60070000  1.0 -0.1398357267
C  C35  1  0.29410000  0.59050000  0.84850000  1.0 -0.0531491546
C  C36  1  0.39570000  0.58940000  0.84330000  1.0 -0.1398357267
N  N1  1  0.77780000  0.31570000  0.15330000  1.0 -0.2680150608
N  N2  1  0.90790000  0.22910000  0.27360000  1.0 -0.3138178701
N  N3  1  0.10160000  0.20920000  0.15370000  1.0 -0.3025722618
N  N4  1  0.61200000  0.31700000  0.16060000  1.0 -0.0312122293
N  N5  1  0.92370000  0.15320000  0.38920000  1.0 -0.0312122293
N  N6  1  0.26710000  0.19680000  0.15920000  1.0 -0.0312122293
N  N7  1  0.22220000  0.68430000  0.84670000  1.0 -0.2680150608
N  N8  1  0.09210000  0.77090000  0.72640000  1.0 -0.3138178701
N  N9  1  0.89840000  0.79080000  0.84630000  1.0 -0.3025722618
N  N10  1  0.38800000  0.68300000  0.83940000  1.0 -0.0312122293
N  N11  1  0.07630000  0.84680000  0.61080000  1.0 -0.0312122293
N  N12  1  0.73290000  0.80320000  0.84080000  1.0 -0.0312122293
O  O1  1  0.96150000  0.55950000  0.08330000  1.0 -0.8999161238
O  O2  1  0.96170000  0.81230000  0.06290000  1.0 -0.933186088
O  O3  1  0.87430000  0.52120000  0.29910000  1.0 -0.933186088
O  O4  1  0.93330000  0.40410000  0.17990000  1.0 -0.7562366242
O  O5  1  0.06190000  0.50090000  0.20390000  1.0 -0.9633548523
O  O6  1  0.02930000  0.67720000  0.96000000  1.0 -0.7513640637
O  O7  1  0.08670000  0.74120000  0.20390000  1.0 -0.9788419619
O  O8  1  0.10420000  0.63500000  0.09640000  1.0 -0.950462919
O  O9  1  0.82130000  0.73530000  0.05310000  1.0 -0.9392543847
O  O10  1  0.99530000  0.92680000  0.14270000  1.0 -1.0034172649
O  O11  1  0.72620000  0.91840000  0.36890000  1.0 -0.9392543847
O  O12  1  0.89140000  0.97350000  0.28370000  1.0 -0.9788419619
O  O13  1  0.81330000  0.72460000  0.32260000  1.0 -1.0774374241
O  O14  1  0.78400000  0.03280000  0.16770000  1.0 -0.9888441421
O  O15  1  0.97940000  0.79420000  0.34100000  1.0 -0.9633548523
O  O16  1  0.75120000  0.91370000  0.08460000  1.0 -0.933186088
O  O17  1  0.62230000  0.72630000  0.12010000  1.0 -0.9701437826
O  O18  1  0.91330000  0.67670000  0.19110000  1.0 -1.0774374241
O  O19  1  0.71560000  0.77760000  0.21250000  1.0 -1.0595038647
O  O20  1  0.85190000  0.84730000  0.21960000  1.0 -1.0595038647
O  O21  1  0.04480000  0.61470000  0.31260000  1.0 -0.9701437826
O  O22  1  0.58350000  0.84510000  0.35690000  1.0 -0.9788419619
O  O23  1  0.51320000  0.78150000  0.26040000  1.0 -1.0179522152
O  O24  1  0.66730000  0.62510000  0.32230000  1.0 -0.9701437826
O  O25  1  0.76910000  0.58140000  0.18360000  1.0 -0.933186088
O  O26  1  0.62700000  0.97660000  0.25170000  1.0 -0.950462919
O  O27  1  0.89320000  0.58270000  0.42680000  1.0 -0.9888441421
O  O28  1  0.55450000  0.91190000  0.14860000  1.0 -0.9888441421
O  O29  1  0.67930000  0.68640000  0.44820000  1.0 -1.0774374241
O  O30  1  0.82090000  0.76740000  0.45780000  1.0 -1.0123774325
O  O31  1  0.03850000  0.44050000  0.91670000  1.0 -0.8999161238
O  O32  1  0.03830000  0.18770000  0.93710000  1.0 -0.933186088
O  O33  1  0.12570000  0.47880000  0.70090000  1.0 -0.933186088
O  O34  1  0.06670000  0.59590000  0.82010000  1.0 -0.7562366242
O  O35  1  0.93810000  0.49910000  0.79610000  1.0 -0.9633548523
O  O36  1  0.97070000  0.32280000  0.04000000  1.0 -0.7513640637
O  O37  1  0.91330000  0.25880000  0.79610000  1.0 -0.9788419619
O  O38  1  0.89580000  0.36500000  0.90360000  1.0 -0.950462919
O  O39  1  0.17870000  0.26470000  0.94690000  1.0 -0.9392543847
O  O40  1  0.00470000  0.07320000  0.85730000  1.0 -1.0034172649
O  O41  1  0.27380000  0.08160000  0.63110000  1.0 -0.9392543847
O  O42  1  0.10860000  0.02650000  0.71630000  1.0 -0.9788419619
O  O43  1  0.18670000  0.27540000  0.67740000  1.0 -1.0774374241
O  O44  1  0.21600000  0.96720000  0.83230000  1.0 -0.9888441421
O  O45  1  0.02060000  0.20580000  0.65900000  1.0 -0.9633548523
O  O46  1  0.24880000  0.08630000  0.91540000  1.0 -0.933186088
O  O47  1  0.37770000  0.27370000  0.87990000  1.0 -0.9701437826
O  O48  1  0.08670000  0.32330000  0.80890000  1.0 -1.0774374241
O  O49  1  0.28440000  0.22240000  0.78750000  1.0 -1.0662297721
O  O50  1  0.14810000  0.15270000  0.78040000  1.0 -1.0595038647
O  O51  1  0.95520000  0.38530000  0.68740000  1.0 -0.9701437826
O  O52  1  0.41650000  0.15490000  0.64310000  1.0 -0.9888441421
O  O53  1  0.48680000  0.21850000  0.73960000  1.0 -1.0123774325
O  O54  1  0.33270000  0.37490000  0.67770000  1.0 -0.9788419619
O  O55  1  0.23090000  0.41860000  0.81640000  1.0 -0.933186088
O  O56  1  0.37300000  0.02340000  0.74830000  1.0 -0.950462919
O  O57  1  0.10680000  0.41730000  0.57320000  1.0 -0.9888441421
O  O58  1  0.44550000  0.08810000  0.85140000  1.0 -0.9888441421
O  O59  1  0.32070000  0.31360000  0.55180000  1.0 -1.0904000516
O  O60  1  0.17910000  0.23260000  0.54220000  1.0 -1.0123774325
