# DDEC6 charges by PACMAN v1.1 (https://github.com/mtap-research/PACMAN-charge/)
data_ZERNUH_FSR_pacman
_symmetry_space_group_name_H-M   'P 1'
_cell_length_a   12.82500000
_cell_length_b   13.67200000
_cell_length_c   14.22700000
_cell_angle_alpha   66.18200000
_cell_angle_beta   66.80000000
_cell_angle_gamma   77.06400000
_symmetry_Int_Tables_number   1
_chemical_formula_structural   Dy2H27C39(NO5)3
_chemical_formula_sum   'Dy4 H54 C78 N6 O30'
_cell_volume   2091.37285941
_cell_formula_units_Z   2
loop_
 _symmetry_equiv_pos_site_id
 _symmetry_equiv_pos_as_xyz
  1  'x, y, z'
loop_
 _atom_site_type_symbol
 _atom_site_label
 _atom_site_symmetry_multiplicity
 _atom_site_fract_x
 _atom_site_fract_y
 _atom_site_fract_z
 _atom_site_occupancy
 _atom_site_charge
Dy  Dy1  1  0.57139000  0.61851000  0.48851000  1.0 2.098326548
Dy  Dy2  1  0.42861000  0.38149000  0.51149000  1.0 2.098326548
Dy  Dy3  1  0.56810000  0.67959000  0.83505000  1.0 1.9844152769
Dy  Dy4  1  0.43190000  0.32041000  0.16495000  1.0 1.9844152769
H  H1  1  0.64760000  0.83370000  0.38660000  1.0 0.3313272959
H  H2  1  0.35240000  0.16630000  0.61340000  1.0 0.3313272959
H  H3  1  0.63420000  0.83320000  0.36170000  1.0 0.3313272959
H  H4  1  0.36580000  0.16680000  0.63830000  1.0 0.3313272959
H  H5  1  0.52260000  0.51190000  0.77410000  1.0 0.3931941082
H  H6  1  0.47740000  0.48810000  0.22590000  1.0 0.3931941082
H  H7  1  0.45870000  0.51180000  0.89560000  1.0 0.3703901013
H  H8  1  0.54130000  0.48820000  0.10440000  1.0 0.3703901013
H  H9  1  0.47990000  0.72090000  0.97320000  1.0 0.3498229971
H  H10  1  0.52010000  0.27910000  0.02680000  1.0 0.3498229971
H  H11  1  0.55150000  0.80840000  0.95510000  1.0 0.3931941082
H  H12  1  0.44850000  0.19160000  0.04490000  1.0 0.3931941082
H  H13  1  0.32500000  0.82650000  0.50530000  1.0 0.1283908663
H  H14  1  0.67500000  0.17350000  0.49470000  1.0 0.1283908663
H  H15  1  0.22060000  0.13250000  0.47380000  1.0 0.1095893374
H  H16  1  0.77940000  0.86750000  0.52620000  1.0 0.1095893374
H  H17  1  0.40500000  0.97240000  0.65800000  1.0 0.1095893374
H  H18  1  0.59500000  0.02760000  0.34200000  1.0 0.1095893374
H  H19  1  0.11790000  0.85450000  0.51260000  1.0 0.1095893374
H  H20  1  0.88210000  0.14550000  0.48740000  1.0 0.1095893374
H  H21  1  0.00620000  0.85760000  0.41910000  1.0 0.0993739183
H  H22  1  0.99380000  0.14240000  0.58090000  1.0 0.0993739183
H  H23  1  0.01780000  0.99100000  0.25110000  1.0 0.1095893374
H  H24  1  0.98220000  0.00900000  0.74890000  1.0 0.1095893374
H  H25  1  0.14000000  0.12300000  0.18110000  1.0 0.1196367936
H  H26  1  0.86000000  0.87700000  0.81890000  1.0 0.1196367936
H  H27  1  0.02420000  0.26350000  0.26270000  1.0 0.1095893374
H  H28  1  0.97580000  0.73650000  0.73730000  1.0 0.1095893374
H  H29  1  0.95400000  0.23660000  0.14990000  1.0 0.1095893374
H  H30  1  0.04600000  0.76340000  0.85010000  1.0 0.1095893374
H  H31  1  0.77600000  0.31270000  0.14140000  1.0 0.1196367936
H  H32  1  0.22400000  0.68730000  0.85860000  1.0 0.1196367936
H  H33  1  0.67230000  0.41970000  0.24410000  1.0 0.1283908663
H  H34  1  0.32770000  0.58030000  0.75590000  1.0 0.1283908663
H  H35  1  0.10850000  0.37150000  0.29220000  1.0 0.1196367936
H  H36  1  0.89150000  0.62850000  0.70780000  1.0 0.1196367936
H  H37  1  0.07430000  0.37060000  0.58520000  1.0 0.1095893374
H  H38  1  0.92570000  0.62940000  0.41480000  1.0 0.1095893374
H  H39  1  0.80550000  0.36570000  0.52570000  1.0 0.0993739183
H  H40  1  0.19450000  0.63430000  0.47430000  1.0 0.0993739183
H  H41  1  0.85370000  0.51270000  0.94310000  1.0 0.1283908663
H  H42  1  0.14630000  0.48730000  0.05690000  1.0 0.1283908663
H  H43  1  0.04470000  0.45900000  0.88890000  1.0 0.1095893374
H  H44  1  0.95530000  0.54100000  0.11110000  1.0 0.1095893374
H  H45  1  0.10830000  0.31950000  0.82180000  1.0 0.1196367936
H  H46  1  0.89170000  0.68050000  0.17820000  1.0 0.1196367936
H  H47  1  0.98040000  0.23840000  0.80440000  1.0 0.1095893374
H  H48  1  0.01960000  0.76160000  0.19560000  1.0 0.1095893374
H  H49  1  0.79520000  0.12010000  0.92240000  1.0 0.0993739183
H  H50  1  0.20480000  0.87990000  0.07760000  1.0 0.0993739183
H  H51  1  0.58250000  0.15740000  0.77320000  1.0 0.1095893374
H  H52  1  0.41750000  0.84260000  0.22680000  1.0 0.1095893374
H  H53  1  0.70150000  0.41570000  0.75010000  1.0 0.1283908663
H  H54  1  0.29850000  0.58430000  0.24990000  1.0 0.1283908663
C  C1  1  0.43890000  0.78260000  0.64270000  1.0 0.6574060311
C  C2  1  0.56110000  0.21740000  0.35730000  1.0 0.6574060311
C  C3  1  0.37470000  0.88290000  0.59100000  1.0 -0.0690567428
C  C4  1  0.62530000  0.11710000  0.40900000  1.0 -0.0690567428
C  C5  1  0.32160000  0.88690000  0.52130000  1.0 -0.1120608496
C  C6  1  0.67840000  0.11310000  0.47870000  1.0 -0.1120608496
C  C7  1  0.26250000  0.98300000  0.47490000  1.0 0.0457902243
C  C8  1  0.73750000  0.01700000  0.52510000  1.0 0.0457902243
C  C9  1  0.26110000  0.06920000  0.50230000  1.0 0.0417819796
C  C10  1  0.73890000  0.93080000  0.49770000  1.0 0.0417819796
C  C11  1  0.36910000  0.97510000  0.61150000  1.0 0.0299269308
C  C12  1  0.63090000  0.02490000  0.38850000  1.0 0.0299269308
C  C13  1  0.19790000  0.98870000  0.40490000  1.0 0.0585537581
C  C14  1  0.80210000  0.01130000  0.59510000  1.0 0.0585537581
C  C15  1  0.12280000  0.90930000  0.44600000  1.0 -0.1505935425
C  C16  1  0.87720000  0.09070000  0.55400000  1.0 -0.1505935425
C  C17  1  0.05610000  0.91080000  0.38960000  1.0 -0.0907365344
C  C18  1  0.94390000  0.08920000  0.61040000  1.0 -0.0907365344
C  C19  1  0.06240000  0.99060000  0.28940000  1.0 -0.0983728776
C  C20  1  0.93760000  0.00940000  0.71060000  1.0 -0.0983728776
C  C21  1  0.13560000  0.06880000  0.24810000  1.0 -0.1120608496
C  C22  1  0.86440000  0.93120000  0.75190000  1.0 -0.1120608496
C  C23  1  0.20410000  0.06920000  0.30410000  1.0 -0.0607982697
C  C24  1  0.79590000  0.93080000  0.69590000  1.0 -0.0607982697
C  C25  1  0.28540000  0.15570000  0.24950000  1.0 0.5553074917
C  C26  1  0.71460000  0.84430000  0.75050000  1.0 0.5553074917
C  C27  1  0.70970000  0.47760000  0.37720000  1.0 0.6068937024
C  C28  1  0.29030000  0.52240000  0.62280000  1.0 0.6068937024
C  C29  1  0.78450000  0.40400000  0.31800000  1.0 -0.0690567428
C  C30  1  0.21550000  0.59600000  0.68200000  1.0 -0.0690567428
C  C31  1  0.89290000  0.35940000  0.32330000  1.0 0.0417819796
C  C32  1  0.10710000  0.64060000  0.67670000  1.0 0.0417819796
C  C33  1  0.95300000  0.29570000  0.25950000  1.0 -0.1505935425
C  C34  1  0.04700000  0.70430000  0.74050000  1.0 -0.1505935425
C  C35  1  0.91090000  0.27870000  0.19170000  1.0 -0.0907365344
C  C36  1  0.08910000  0.72130000  0.80830000  1.0 -0.0907365344
C  C37  1  0.80520000  0.32420000  0.18610000  1.0 -0.0907365344
C  C38  1  0.19480000  0.67580000  0.81390000  1.0 -0.0907365344
C  C39  1  0.74300000  0.38750000  0.24860000  1.0 -0.0983728776
C  C40  1  0.25700000  0.61250000  0.75140000  1.0 -0.0983728776
C  C41  1  0.94510000  0.36880000  0.39610000  1.0 0.0228810804
C  C42  1  0.05490000  0.63120000  0.60390000  1.0 0.0228810804
C  C43  1  0.06330000  0.36980000  0.36250000  1.0 -0.1120608496
C  C44  1  0.93670000  0.63020000  0.63750000  1.0 -0.1120608496
C  C45  1  0.11350000  0.36800000  0.43470000  1.0 -0.0907365344
C  C46  1  0.88650000  0.63200000  0.56530000  1.0 -0.0907365344
C  C47  1  0.04170000  0.36980000  0.53760000  1.0 0.0585537581
C  C48  1  0.95830000  0.63020000  0.46240000  1.0 0.0585537581
C  C49  1  0.88390000  0.36800000  0.50150000  1.0 0.0299269308
C  C50  1  0.11610000  0.63200000  0.49850000  1.0 0.0299269308
C  C51  1  0.23970000  0.36200000  0.40380000  1.0 0.6574060311
C  C52  1  0.76030000  0.63800000  0.59620000  1.0 0.6574060311
C  C53  1  0.67540000  0.43490000  0.96290000  1.0 0.6471628984
C  C54  1  0.32460000  0.56510000  0.03710000  1.0 0.6471628984
C  C55  1  0.79930000  0.40570000  0.91060000  1.0 -0.0824754508
C  C56  1  0.20070000  0.59430000  0.08940000  1.0 -0.0824754508
C  C57  1  0.87870000  0.45650000  0.91650000  1.0 -0.1120608496
C  C58  1  0.12130000  0.54350000  0.08350000  1.0 -0.1120608496
C  C59  1  0.99320000  0.42480000  0.88370000  1.0 -0.0983728776
C  C60  1  0.00680000  0.57520000  0.11630000  1.0 -0.0983728776
C  C61  1  0.03130000  0.34200000  0.84290000  1.0 -0.0690567428
C  C62  1  0.96870000  0.65800000  0.15710000  1.0 -0.0690567428
C  C63  1  0.95400000  0.29270000  0.83360000  1.0 -0.1430713842
C  C64  1  0.04600000  0.70730000  0.16640000  1.0 -0.1430713842
C  C65  1  0.83810000  0.32270000  0.86700000  1.0 0.0585537581
C  C66  1  0.16190000  0.67730000  0.13300000  1.0 0.0585537581
C  C67  1  0.76050000  0.27510000  0.84430000  1.0 0.0299269308
C  C68  1  0.23950000  0.72490000  0.15570000  1.0 0.0299269308
C  C69  1  0.75280000  0.16570000  0.87910000  1.0 0.0149813043
C  C70  1  0.24720000  0.83430000  0.12090000  1.0 0.0149813043
C  C71  1  0.62770000  0.18710000  0.79070000  1.0 0.0585537581
C  C72  1  0.37230000  0.81290000  0.20930000  1.0 0.0585537581
C  C73  1  0.63040000  0.29760000  0.75010000  1.0 -0.0824754508
C  C74  1  0.36960000  0.70240000  0.24990000  1.0 -0.0824754508
C  C75  1  0.69790000  0.34180000  0.77690000  1.0 -0.0983728776
C  C76  1  0.30210000  0.65820000  0.22310000  1.0 -0.0983728776
C  C77  1  0.56350000  0.36770000  0.67880000  1.0 0.6471628984
C  C78  1  0.43650000  0.63230000  0.32120000  1.0 0.6471628984
N  N1  1  0.31460000  0.06770000  0.56780000  1.0 -0.2432742575
N  N2  1  0.68540000  0.93230000  0.43220000  1.0 -0.2432742575
N  N3  1  0.92890000  0.37050000  0.57140000  1.0 -0.2510587769
N  N4  1  0.07110000  0.62950000  0.42860000  1.0 -0.2510587769
N  N5  1  0.68780000  0.12100000  0.85460000  1.0 -0.2510587769
N  N6  1  0.31220000  0.87900000  0.14540000  1.0 -0.2510587769
O  O1  1  0.47440000  0.71380000  0.59650000  1.0 -0.7136337916
O  O2  1  0.52560000  0.28620000  0.40350000  1.0 -0.7136337916
O  O3  1  0.45170000  0.77230000  0.72930000  1.0 -0.638730661
O  O4  1  0.54830000  0.22770000  0.27070000  1.0 -0.638730661
O  O5  1  0.37890000  0.13720000  0.26500000  1.0 -0.6201447407
O  O6  1  0.62110000  0.86280000  0.73500000  1.0 -0.6201447407
O  O7  1  0.25880000  0.24670000  0.18760000  1.0 -0.6302491883
O  O8  1  0.74120000  0.75330000  0.81240000  1.0 -0.6302491883
O  O9  1  0.74380000  0.56170000  0.36500000  1.0 -0.5908629457
O  O10  1  0.25620000  0.43830000  0.63500000  1.0 -0.5908629457
O  O11  1  0.60870000  0.45330000  0.43890000  1.0 -0.7397579709
O  O12  1  0.39130000  0.54670000  0.56110000  1.0 -0.7397579709
O  O13  1  0.30040000  0.35970000  0.30940000  1.0 -0.686323897
O  O14  1  0.69960000  0.64030000  0.69060000  1.0 -0.686323897
O  O15  1  0.27840000  0.36010000  0.47250000  1.0 -0.6695178608
O  O16  1  0.72160000  0.63990000  0.52750000  1.0 -0.6695178608
O  O17  1  0.64380000  0.53270000  0.94950000  1.0 -0.679066048
O  O18  1  0.35620000  0.46730000  0.05050000  1.0 -0.679066048
O  O19  1  0.61180000  0.35990000  0.02260000  1.0 -0.6302491883
O  O20  1  0.38820000  0.64010000  0.97740000  1.0 -0.6302491883
O  O21  1  0.56890000  0.46820000  0.64730000  1.0 -0.6695178608
O  O22  1  0.43110000  0.53180000  0.35270000  1.0 -0.6695178608
O  O23  1  0.50760000  0.32370000  0.65180000  1.0 -0.6611530343
O  O24  1  0.49240000  0.67630000  0.34820000  1.0 -0.6611530343
O  O25  1  0.63070000  0.79070000  0.36600000  1.0 -0.6611530343
O  O26  1  0.36930000  0.20930000  0.63400000  1.0 -0.6611530343
O  O27  1  0.50240000  0.53080000  0.82920000  1.0 -0.8039979497
O  O28  1  0.49760000  0.46920000  0.17080000  1.0 -0.8039979497
O  O29  1  0.52420000  0.76010000  0.97110000  1.0 -0.679066048
O  O30  1  0.47580000  0.23990000  0.02890000  1.0 -0.679066048
