# DDEC6 charges by PACMAN v1.1 (https://github.com/mtap-research/PACMAN-charge/)
data_ZEYRIH_ASR_pacman
_symmetry_space_group_name_H-M   'P 1'
_cell_length_a   22.99960000
_cell_length_b   22.62560000
_cell_length_c   18.92930000
_cell_angle_alpha   66.52190000
_cell_angle_beta   64.46190000
_cell_angle_gamma   49.01610000
_symmetry_Int_Tables_number   1
_chemical_formula_structural   Cd2H37(C3O)16
_chemical_formula_sum   'Cd8 H148 C192 O64'
_cell_volume   6612.08818810
_cell_formula_units_Z   4
loop_
 _symmetry_equiv_pos_site_id
 _symmetry_equiv_pos_as_xyz
  1  'x, y, z'
loop_
 _atom_site_type_symbol
 _atom_site_label
 _atom_site_symmetry_multiplicity
 _atom_site_fract_x
 _atom_site_fract_y
 _atom_site_fract_z
 _atom_site_occupancy
 _atom_site_charge
Cd  Cd1  1  0.15711000  0.32119000  0.64095000  1.0 0.930665162
Cd  Cd2  1  0.88075000  0.64095000  0.32119000  1.0 0.930665162
Cd  Cd3  1  0.32119000  0.15711000  0.88075000  1.0 0.930665162
Cd  Cd4  1  0.64095000  0.88075000  0.15711000  1.0 0.930665162
Cd  Cd5  1  0.00829000  0.49171000  0.49171000  1.0 0.9818859515
Cd  Cd6  1  0.49171000  0.00829000  0.00829000  1.0 0.9818859515
Cd  Cd7  1  0.28884000  0.28884000  0.71116000  1.0 0.888205242
Cd  Cd8  1  0.71116000  0.71116000  0.28884000  1.0 0.888205242
H  H1  1  0.04381000  0.31455000  0.89479000  1.0 0.1279719425
H  H2  1  0.03431000  0.38363000  0.91117000  1.0 0.1394794431
H  H3  1  0.92370000  0.49324000  0.71926000  1.0 0.1394794431
H  H4  1  0.78780000  0.55898000  0.74546000  1.0 0.1195092924
H  H5  1  0.78278000  0.45660000  0.97712000  1.0 0.1092464175
H  H6  1  0.91587000  0.40033000  0.95321000  1.0 0.1092464175
H  H7  1  0.65399000  0.41696000  0.05006000  1.0 0.1195092924
H  H8  1  0.71786000  0.33738000  0.01120000  1.0 0.1394794431
H  H9  1  0.57197000  0.43223000  0.79891000  1.0 0.1195092924
H  H10  1  0.62522000  0.41052000  0.84850000  1.0 0.1195092924
H  H11  1  0.62177000  0.46639000  0.76571000  1.0 0.1279719425
H  H12  1  0.40440000  0.54080000  0.84692000  1.0 0.1195092924
H  H13  1  0.35110000  0.51798000  0.78838000  1.0 0.1394794431
H  H14  1  0.43175000  0.30545000  0.94055000  1.0 0.1279719425
H  H15  1  0.46954000  0.33682000  0.99422000  1.0 0.1092464175
H  H16  1  0.42378000  0.28264000  0.83276000  1.0 0.1503314046
H  H17  1  0.34248000  0.31436000  0.89646000  1.0 0.1503314046
H  H18  1  0.05048000  0.51636000  0.69146000  1.0 0.1279719425
H  H19  1  0.13357000  0.48589000  0.62999000  1.0 0.1279719425
H  H20  1  0.15011000  0.50567000  0.71687000  1.0 0.1195092924
H  H21  1  0.19602000  0.53476000  0.77758000  1.0 0.1195092924
H  H22  1  0.10015000  0.75411000  0.64751000  1.0 0.1092464175
H  H23  1  0.04677000  0.72801000  0.59215000  1.0 0.1279719425
H  H24  1  0.13225000  0.62749000  0.86619000  1.0 0.1092464175
H  H25  1  0.32389000  0.67059000  0.54919000  1.0 0.1195092924
H  H26  1  0.25954000  0.65468000  0.57862000  1.0 0.1195092924
H  H27  1  0.32311000  0.60951000  0.62673000  1.0 0.1092464175
H  H28  1  0.18824000  0.82944000  0.92674000  1.0 0.1092464175
H  H29  1  0.13883000  0.79465000  0.97627000  1.0 0.1092464175
H  H30  1  0.13143000  0.84121000  0.88963000  1.0 0.0601474902
H  H31  1  0.04418000  0.69716000  0.98994000  1.0 0.1092464175
H  H32  1  0.01745000  0.64757000  0.12361000  1.0 0.1279719425
H  H33  1  0.24325000  0.53263000  0.12373000  1.0 0.1092464175
H  H34  1  0.26998000  0.58222000  0.99006000  1.0 0.1195092924
H  H35  1  0.18273000  0.53949000  0.26085000  1.0 0.1195092924
H  H36  1  0.21359000  0.46537000  0.23151000  1.0 0.1195092924
H  H37  1  0.74685000  0.89479000  0.31455000  1.0 0.1279719425
H  H38  1  0.67089000  0.91117000  0.38363000  1.0 0.1394794431
H  H39  1  0.86380000  0.71926000  0.49324000  1.0 0.1394794431
H  H40  1  0.90776000  0.74546000  0.55898000  1.0 0.1195092924
H  H41  1  0.78350000  0.97712000  0.45660000  1.0 0.1092464175
H  H42  1  0.73059000  0.95321000  0.40033000  1.0 0.1092464175
H  H43  1  0.87901000  0.05006000  0.41696000  1.0 0.1195092924
H  H44  1  0.93356000  0.01120000  0.33738000  1.0 0.1394794431
H  H45  1  0.19689000  0.79891000  0.43223000  1.0 0.1195092924
H  H46  1  0.11576000  0.84850000  0.41052000  1.0 0.1195092924
H  H47  1  0.14613000  0.76571000  0.46639000  1.0 0.1279719425
H  H48  1  0.20788000  0.84692000  0.54080000  1.0 0.1195092924
H  H49  1  0.34254000  0.78838000  0.51798000  1.0 0.1394794431
H  H50  1  0.32225000  0.94055000  0.30545000  1.0 0.1279719425
H  H51  1  0.19942000  0.99422000  0.33682000  1.0 0.1092464175
H  H52  1  0.46082000  0.83276000  0.28264000  1.0 0.1503314046
H  H53  1  0.44670000  0.89646000  0.31436000  1.0 0.1503314046
H  H54  1  0.74170000  0.69146000  0.51636000  1.0 0.1279719425
H  H55  1  0.75055000  0.62999000  0.48589000  1.0 0.1279719425
H  H56  1  0.62735000  0.71687000  0.50567000  1.0 0.1195092924
H  H57  1  0.49164000  0.77758000  0.53476000  1.0 0.1195092924
H  H58  1  0.49823000  0.64751000  0.75411000  1.0 0.1092464175
H  H59  1  0.63307000  0.59215000  0.72801000  1.0 0.1279719425
H  H60  1  0.37407000  0.86619000  0.62749000  1.0 0.1092464175
H  H61  1  0.45633000  0.54919000  0.67059000  1.0 0.1195092924
H  H62  1  0.50716000  0.57862000  0.65468000  1.0 0.1195092924
H  H63  1  0.44065000  0.62673000  0.60951000  1.0 0.1092464175
H  H64  1  0.05558000  0.92674000  0.82944000  1.0 0.1092464175
H  H65  1  0.09025000  0.97627000  0.79465000  1.0 0.1092464175
H  H66  1  0.13773000  0.88963000  0.84121000  1.0 0.0719604804
H  H67  1  0.26872000  0.98994000  0.69716000  1.0 0.1092464175
H  H68  1  0.21137000  0.12361000  0.64757000  1.0 0.1195092924
H  H69  1  0.10039000  0.12373000  0.53263000  1.0 0.1092464175
H  H70  1  0.15774000  0.99006000  0.58222000  1.0 0.1195092924
H  H71  1  0.01693000  0.26085000  0.53949000  1.0 0.1195092924
H  H72  1  0.08953000  0.23151000  0.46537000  1.0 0.1195092924
H  H73  1  0.31455000  0.04381000  0.74685000  1.0 0.1279719425
H  H74  1  0.38363000  0.03431000  0.67089000  1.0 0.1394794431
H  H75  1  0.49324000  0.92370000  0.86380000  1.0 0.1394794431
H  H76  1  0.55898000  0.78780000  0.90776000  1.0 0.1195092924
H  H77  1  0.45660000  0.78278000  0.78350000  1.0 0.1092464175
H  H78  1  0.40033000  0.91587000  0.73059000  1.0 0.1092464175
H  H79  1  0.41696000  0.65399000  0.87901000  1.0 0.1195092924
H  H80  1  0.33738000  0.71786000  0.93356000  1.0 0.1394794431
H  H81  1  0.43223000  0.57197000  0.19689000  1.0 0.1195092924
H  H82  1  0.41052000  0.62522000  0.11576000  1.0 0.1195092924
H  H83  1  0.46639000  0.62177000  0.14613000  1.0 0.1279719425
H  H84  1  0.54080000  0.40440000  0.20788000  1.0 0.1195092924
H  H85  1  0.51798000  0.35110000  0.34254000  1.0 0.1394794431
H  H86  1  0.30545000  0.43175000  0.32225000  1.0 0.1279719425
H  H87  1  0.33682000  0.46954000  0.19942000  1.0 0.1092464175
H  H88  1  0.28264000  0.42378000  0.46082000  1.0 0.1503314046
H  H89  1  0.31436000  0.34248000  0.44670000  1.0 0.1503314046
H  H90  1  0.51636000  0.05048000  0.74170000  1.0 0.1279719425
H  H91  1  0.48589000  0.13357000  0.75055000  1.0 0.1279719425
H  H92  1  0.50567000  0.15011000  0.62735000  1.0 0.1195092924
H  H93  1  0.53476000  0.19602000  0.49164000  1.0 0.1195092924
H  H94  1  0.75411000  0.10015000  0.49823000  1.0 0.1092464175
H  H95  1  0.72801000  0.04677000  0.63307000  1.0 0.1279719425
H  H96  1  0.62749000  0.13225000  0.37407000  1.0 0.1092464175
H  H97  1  0.67059000  0.32389000  0.45633000  1.0 0.1195092924
H  H98  1  0.65468000  0.25954000  0.50716000  1.0 0.1195092924
H  H99  1  0.60951000  0.32311000  0.44065000  1.0 0.1092464175
H  H100  1  0.82944000  0.18824000  0.05558000  1.0 0.1092464175
H  H101  1  0.79465000  0.13883000  0.09025000  1.0 0.1092464175
H  H102  1  0.84121000  0.13143000  0.13773000  1.0 0.0601474902
H  H103  1  0.69716000  0.04418000  0.26872000  1.0 0.1092464175
H  H104  1  0.64757000  0.01745000  0.21137000  1.0 0.1279719425
H  H105  1  0.53263000  0.24325000  0.10039000  1.0 0.1092464175
H  H106  1  0.58222000  0.26998000  0.15774000  1.0 0.1195092924
H  H107  1  0.53949000  0.18273000  0.01693000  1.0 0.1195092924
H  H108  1  0.46537000  0.21359000  0.08953000  1.0 0.1195092924
H  H109  1  0.89479000  0.74685000  0.04381000  1.0 0.1279719425
H  H110  1  0.91117000  0.67089000  0.03431000  1.0 0.1394794431
H  H111  1  0.71926000  0.86380000  0.92370000  1.0 0.1394794431
H  H112  1  0.74546000  0.90776000  0.78780000  1.0 0.1279719425
H  H113  1  0.97712000  0.78350000  0.78278000  1.0 0.1092464175
H  H114  1  0.95321000  0.73059000  0.91587000  1.0 0.1092464175
H  H115  1  0.05006000  0.87901000  0.65399000  1.0 0.1195092924
H  H116  1  0.01120000  0.93356000  0.71786000  1.0 0.1394794431
H  H117  1  0.79891000  0.19689000  0.57197000  1.0 0.1195092924
H  H118  1  0.84850000  0.11576000  0.62522000  1.0 0.1195092924
H  H119  1  0.76571000  0.14613000  0.62177000  1.0 0.1279719425
H  H120  1  0.84692000  0.20788000  0.40440000  1.0 0.1195092924
H  H121  1  0.78838000  0.34254000  0.35110000  1.0 0.1394794431
H  H122  1  0.94055000  0.32225000  0.43175000  1.0 0.1279719425
H  H123  1  0.99422000  0.19942000  0.46954000  1.0 0.1092464175
H  H124  1  0.83276000  0.46082000  0.42378000  1.0 0.1503314046
H  H125  1  0.89646000  0.44670000  0.34248000  1.0 0.1503314046
H  H126  1  0.69146000  0.74170000  0.05048000  1.0 0.1279719425
H  H127  1  0.62999000  0.75055000  0.13357000  1.0 0.1279719425
H  H128  1  0.71687000  0.62735000  0.15011000  1.0 0.1195092924
H  H129  1  0.77758000  0.49164000  0.19602000  1.0 0.1195092924
H  H130  1  0.64751000  0.49823000  0.10015000  1.0 0.1092464175
H  H131  1  0.59215000  0.63307000  0.04677000  1.0 0.1279719425
H  H132  1  0.86619000  0.37407000  0.13225000  1.0 0.1092464175
H  H133  1  0.54919000  0.45633000  0.32389000  1.0 0.1195092924
H  H134  1  0.57862000  0.50716000  0.25954000  1.0 0.1195092924
H  H135  1  0.62673000  0.44065000  0.32311000  1.0 0.1092464175
H  H136  1  0.92674000  0.05558000  0.18824000  1.0 0.1092464175
H  H137  1  0.97627000  0.09025000  0.13883000  1.0 0.1092464175
H  H138  1  0.88963000  0.13773000  0.13143000  1.0 0.0601474902
H  H139  1  0.98994000  0.26872000  0.04418000  1.0 0.1092464175
H  H140  1  0.12361000  0.21137000  0.01745000  1.0 0.1279719425
H  H141  1  0.12373000  0.10039000  0.24325000  1.0 0.1092464175
H  H142  1  0.99006000  0.15774000  0.26998000  1.0 0.1195092924
H  H143  1  0.26085000  0.01693000  0.18273000  1.0 0.1195092924
H  H144  1  0.23151000  0.08953000  0.21359000  1.0 0.1195092924
H  H145  1  0.66220000  0.66220000  0.83780000  1.0 0.1279719425
H  H146  1  0.42152000  0.42152000  0.07848000  1.0 0.1031461177
H  H147  1  0.83780000  0.83780000  0.66220000  1.0 0.1279719425
H  H148  1  0.07848000  0.07848000  0.42152000  1.0 0.1031461177
C  C1  1  0.14440000  0.31600000  0.83220000  1.0 0.6062669573
C  C2  1  0.05270000  0.35550000  0.87030000  1.0 -0.1415719328
C  C3  1  0.93390000  0.44030000  0.83390000  1.0 0.2599826088
C  C4  1  0.89490000  0.48750000  0.77090000  1.0 -0.2089158179
C  C5  1  0.81390000  0.52490000  0.78610000  1.0 -0.128969421
C  C6  1  0.77100000  0.51100000  0.86400000  1.0 0.0719604804
C  C7  1  0.81080000  0.46440000  0.92580000  1.0 -0.1209161155
C  C8  1  0.89090000  0.43010000  0.91150000  1.0 -0.2559153693
C  C9  1  0.68290000  0.55630000  0.88150000  1.0 -0.0304494918
C  C10  1  0.64400000  0.51720000  0.91860000  1.0 0.1981830565
C  C11  1  0.68640000  0.39240000  0.00540000  1.0 -0.248803507
C  C12  1  0.50690000  0.50010000  0.93170000  1.0 0.1503314046
C  C13  1  0.59170000  0.45150000  0.81290000  1.0 -0.2282463486
C  C14  1  0.46550000  0.46550000  0.96870000  1.0 -0.0381632739
C  C15  1  0.44020000  0.44600000  0.92480000  1.0 0.0601474902
C  C16  1  0.40770000  0.49410000  0.86590000  1.0 -0.1105310807
C  C17  1  0.37700000  0.48080000  0.82860000  1.0 -0.2282463486
C  C18  1  0.38820000  0.40580000  0.85700000  1.0 0.2599826088
C  C19  1  0.42470000  0.35410000  0.92130000  1.0 -0.1614510896
C  C20  1  0.44690000  0.37210000  0.95150000  1.0 -0.0907367462
C  C21  1  0.36690000  0.32310000  0.84050000  1.0 -0.2158955945
C  C22  1  0.33780000  0.31320000  0.79480000  1.0 0.5845288454
C  C23  1  0.04920000  0.52000000  0.58320000  1.0 0.5991421906
C  C24  1  0.07670000  0.52570000  0.63650000  1.0 -0.1980992997
C  C25  1  0.08970000  0.61570000  0.65270000  1.0 0.2445861517
C  C26  1  0.13750000  0.55630000  0.70510000  1.0 -0.2282463486
C  C27  1  0.16670000  0.57370000  0.74030000  1.0 -0.1209161155
C  C28  1  0.15310000  0.64590000  0.72090000  1.0 0.0601474902
C  C29  1  0.10820000  0.70520000  0.66300000  1.0 -0.128969421
C  C30  1  0.07640000  0.68940000  0.62940000  1.0 -0.2282463486
C  C31  1  0.17530000  0.66890000  0.76210000  1.0 -0.0304494918
C  C32  1  0.15890000  0.65110000  0.84110000  1.0 -0.1801090719
C  C33  1  0.18070000  0.66690000  0.89030000  1.0 -0.0304494918
C  C34  1  0.21590000  0.71030000  0.84570000  1.0 0.1563108383
C  C35  1  0.23630000  0.72270000  0.76850000  1.0 -0.0907367462
C  C36  1  0.21480000  0.70540000  0.72360000  1.0 0.1746183155
C  C37  1  0.29060000  0.65880000  0.59520000  1.0 -0.2365691991
C  C38  1  0.16710000  0.80550000  0.92410000  1.0 -0.2089158179
C  C39  1  0.15970000  0.64450000  0.97690000  1.0 0.0757829664
C  C40  1  0.08410000  0.66410000  0.01690000  1.0 -0.1415719328
C  C41  1  0.06820000  0.63440000  0.09680000  1.0 -0.1980992997
C  C42  1  0.12770000  0.58530000  0.13670000  1.0 0.2312004386
C  C43  1  0.20320000  0.56580000  0.09680000  1.0 -0.2282463486
C  C44  1  0.21910000  0.59550000  0.01690000  1.0 -0.1105310807
C  C45  1  0.16750000  0.50890000  0.25970000  1.0 -0.1614510896
C  C46  1  0.13870000  0.47390000  0.34910000  1.0 0.5845288454
C  C47  1  0.70740000  0.83220000  0.31600000  1.0 0.6062669573
C  C48  1  0.72150000  0.87030000  0.35550000  1.0 -0.1415719328
C  C49  1  0.79190000  0.83390000  0.44030000  1.0 0.2599826088
C  C50  1  0.84670000  0.77090000  0.48750000  1.0 -0.2089158179
C  C51  1  0.87510000  0.78610000  0.52490000  1.0 -0.128969421
C  C52  1  0.85400000  0.86400000  0.51100000  1.0 0.0719604804
C  C53  1  0.79900000  0.92580000  0.46440000  1.0 -0.1209161155
C  C54  1  0.76750000  0.91150000  0.43010000  1.0 -0.2559153693
C  C55  1  0.87930000  0.88150000  0.55630000  1.0 -0.0304494918
C  C56  1  0.92020000  0.91860000  0.51720000  1.0 0.1981830565
C  C57  1  0.91580000  0.00540000  0.39240000  1.0 -0.248803507
C  C58  1  0.06130000  0.93170000  0.50010000  1.0 0.1503314046
C  C59  1  0.14390000  0.81290000  0.45150000  1.0 -0.2282463486
C  C60  1  0.10030000  0.96870000  0.46550000  1.0 -0.0381632739
C  C61  1  0.18900000  0.92480000  0.44600000  1.0 0.0601474902
C  C62  1  0.23230000  0.86590000  0.49410000  1.0 -0.1105310807
C  C63  1  0.31360000  0.82860000  0.48080000  1.0 -0.2282463486
C  C64  1  0.34900000  0.85700000  0.40580000  1.0 0.2599826088
C  C65  1  0.29990000  0.92130000  0.35410000  1.0 -0.1614510896
C  C66  1  0.22950000  0.95150000  0.37210000  1.0 -0.0907367462
C  C67  1  0.46950000  0.84050000  0.32310000  1.0 -0.2158955945
C  C68  1  0.55420000  0.79480000  0.31320000  1.0 0.5853016792
C  C69  1  0.84760000  0.58320000  0.52000000  1.0 0.5991421906
C  C70  1  0.76110000  0.63650000  0.52570000  1.0 -0.1980992997
C  C71  1  0.64190000  0.65270000  0.61570000  1.0 0.245100495
C  C72  1  0.60110000  0.70510000  0.55630000  1.0 -0.2282463486
C  C73  1  0.51930000  0.74030000  0.57370000  1.0 -0.1209161155
C  C74  1  0.48010000  0.72090000  0.64590000  1.0 0.0601474902
C  C75  1  0.52360000  0.66300000  0.70520000  1.0 -0.128969421
C  C76  1  0.60480000  0.62940000  0.68940000  1.0 -0.2282463486
C  C77  1  0.39370000  0.76210000  0.66890000  1.0 -0.0304494918
C  C78  1  0.34890000  0.84110000  0.65110000  1.0 -0.1801090719
C  C79  1  0.26210000  0.89030000  0.66690000  1.0 -0.0304494918
C  C80  1  0.22810000  0.84570000  0.71030000  1.0 0.1563108383
C  C81  1  0.27250000  0.76850000  0.72270000  1.0 -0.0907367462
C  C82  1  0.35620000  0.72360000  0.70540000  1.0 0.1746183155
C  C83  1  0.45540000  0.59520000  0.65880000  1.0 -0.2365691991
C  C84  1  0.10330000  0.92410000  0.80550000  1.0 -0.2089158179
C  C85  1  0.21890000  0.97690000  0.64450000  1.0 0.0757829664
C  C86  1  0.23490000  0.01690000  0.66410000  1.0 -0.1415719328
C  C87  1  0.20060000  0.09680000  0.63440000  1.0 -0.1980992997
C  C88  1  0.15030000  0.13670000  0.58530000  1.0 0.2312004386
C  C89  1  0.13420000  0.09680000  0.56580000  1.0 -0.2282463486
C  C90  1  0.16850000  0.01690000  0.59550000  1.0 -0.1105310807
C  C91  1  0.06390000  0.25970000  0.50890000  1.0 -0.1614510896
C  C92  1  0.03830000  0.34910000  0.47390000  1.0 0.5845288454
C  C93  1  0.31600000  0.14440000  0.70740000  1.0 0.6062669573
C  C94  1  0.35550000  0.05270000  0.72150000  1.0 -0.1415719328
C  C95  1  0.44030000  0.93390000  0.79190000  1.0 0.2599826088
C  C96  1  0.48750000  0.89490000  0.84670000  1.0 -0.2089158179
C  C97  1  0.52490000  0.81390000  0.87510000  1.0 -0.128969421
C  C98  1  0.51100000  0.77100000  0.85400000  1.0 0.0719604804
C  C99  1  0.46440000  0.81080000  0.79900000  1.0 -0.1209161155
C  C100  1  0.43010000  0.89090000  0.76750000  1.0 -0.2559153693
C  C101  1  0.55630000  0.68290000  0.87930000  1.0 -0.0304494918
C  C102  1  0.51720000  0.64400000  0.92020000  1.0 0.1981830565
C  C103  1  0.39240000  0.68640000  0.91580000  1.0 -0.248803507
C  C104  1  0.50010000  0.50690000  0.06130000  1.0 0.1503314046
C  C105  1  0.45150000  0.59170000  0.14390000  1.0 -0.2282463486
C  C106  1  0.46550000  0.46550000  0.10030000  1.0 -0.0381632739
C  C107  1  0.44600000  0.44020000  0.18900000  1.0 0.0601474902
C  C108  1  0.49410000  0.40770000  0.23230000  1.0 -0.1105310807
C  C109  1  0.48080000  0.37700000  0.31360000  1.0 -0.2282463486
C  C110  1  0.40580000  0.38820000  0.34900000  1.0 0.2599826088
C  C111  1  0.35410000  0.42470000  0.29990000  1.0 -0.1614510896
C  C112  1  0.37210000  0.44690000  0.22950000  1.0 -0.0907367462
C  C113  1  0.32310000  0.36690000  0.46950000  1.0 -0.2158955945
C  C114  1  0.31320000  0.33780000  0.55420000  1.0 0.5845288454
C  C115  1  0.52000000  0.04920000  0.84760000  1.0 0.5991421906
C  C116  1  0.52570000  0.07670000  0.76110000  1.0 -0.1980992997
C  C117  1  0.61570000  0.08970000  0.64190000  1.0 0.2445861517
C  C118  1  0.55630000  0.13750000  0.60110000  1.0 -0.2282463486
C  C119  1  0.57370000  0.16670000  0.51930000  1.0 -0.1209161155
C  C120  1  0.64590000  0.15310000  0.48010000  1.0 0.0601474902
C  C121  1  0.70520000  0.10820000  0.52360000  1.0 -0.128969421
C  C122  1  0.68940000  0.07640000  0.60480000  1.0 -0.2282463486
C  C123  1  0.66890000  0.17530000  0.39370000  1.0 -0.0304494918
C  C124  1  0.65110000  0.15890000  0.34890000  1.0 -0.1801090719
C  C125  1  0.66690000  0.18070000  0.26210000  1.0 -0.0304494918
C  C126  1  0.71030000  0.21590000  0.22810000  1.0 0.1563108383
C  C127  1  0.72270000  0.23630000  0.27250000  1.0 -0.0907367462
C  C128  1  0.70540000  0.21480000  0.35620000  1.0 0.1750466494
C  C129  1  0.65880000  0.29060000  0.45540000  1.0 -0.2365691991
C  C130  1  0.80550000  0.16710000  0.10330000  1.0 -0.2089158179
C  C131  1  0.64450000  0.15970000  0.21890000  1.0 0.0757829664
C  C132  1  0.66410000  0.08410000  0.23490000  1.0 -0.1415719328
C  C133  1  0.63440000  0.06820000  0.20060000  1.0 -0.1980992997
C  C134  1  0.58530000  0.12770000  0.15030000  1.0 0.2312004386
C  C135  1  0.56580000  0.20320000  0.13420000  1.0 -0.2282463486
C  C136  1  0.59550000  0.21910000  0.16850000  1.0 -0.1105310807
C  C137  1  0.50890000  0.16750000  0.06390000  1.0 -0.1614510896
C  C138  1  0.47390000  0.13870000  0.03830000  1.0 0.5853016792
C  C139  1  0.83220000  0.70740000  0.14440000  1.0 0.6062669573
C  C140  1  0.87030000  0.72150000  0.05270000  1.0 -0.1415719328
C  C141  1  0.83390000  0.79190000  0.93390000  1.0 0.2599826088
C  C142  1  0.77090000  0.84670000  0.89490000  1.0 -0.2089158179
C  C143  1  0.78610000  0.87510000  0.81390000  1.0 -0.128969421
C  C144  1  0.86400000  0.85400000  0.77100000  1.0 0.0719604804
C  C145  1  0.92580000  0.79900000  0.81080000  1.0 -0.1209161155
C  C146  1  0.91150000  0.76750000  0.89090000  1.0 -0.2559153693
C  C147  1  0.88150000  0.87930000  0.68290000  1.0 -0.0304494918
C  C148  1  0.91860000  0.92020000  0.64400000  1.0 0.1981830565
C  C149  1  0.00540000  0.91580000  0.68640000  1.0 -0.248803507
C  C150  1  0.93170000  0.06130000  0.50690000  1.0 0.1503314046
C  C151  1  0.81290000  0.14390000  0.59170000  1.0 -0.2282463486
C  C152  1  0.96870000  0.10030000  0.46550000  1.0 -0.0381632739
C  C153  1  0.92480000  0.18900000  0.44020000  1.0 0.0601474902
C  C154  1  0.86590000  0.23230000  0.40770000  1.0 -0.1105310807
C  C155  1  0.82860000  0.31360000  0.37700000  1.0 -0.2282463486
C  C156  1  0.85700000  0.34900000  0.38820000  1.0 0.2599826088
C  C157  1  0.92130000  0.29990000  0.42470000  1.0 -0.1614510896
C  C158  1  0.95150000  0.22950000  0.44690000  1.0 -0.0907367462
C  C159  1  0.84050000  0.46950000  0.36690000  1.0 -0.2158955945
C  C160  1  0.79480000  0.55420000  0.33780000  1.0 0.5845288454
C  C161  1  0.58320000  0.84760000  0.04920000  1.0 0.5991421906
C  C162  1  0.63650000  0.76110000  0.07670000  1.0 -0.1980992997
C  C163  1  0.65270000  0.64190000  0.08970000  1.0 0.2445861517
C  C164  1  0.70510000  0.60110000  0.13750000  1.0 -0.2282463486
C  C165  1  0.74030000  0.51930000  0.16670000  1.0 -0.1209161155
C  C166  1  0.72090000  0.48010000  0.15310000  1.0 0.0601474902
C  C167  1  0.66300000  0.52360000  0.10820000  1.0 -0.128969421
C  C168  1  0.62940000  0.60480000  0.07640000  1.0 -0.2282463486
C  C169  1  0.76210000  0.39370000  0.17530000  1.0 -0.0304494918
C  C170  1  0.84110000  0.34890000  0.15890000  1.0 -0.1801090719
C  C171  1  0.89030000  0.26210000  0.18070000  1.0 -0.0304494918
C  C172  1  0.84570000  0.22810000  0.21590000  1.0 0.1563108383
C  C173  1  0.76850000  0.27250000  0.23630000  1.0 -0.0907367462
C  C174  1  0.72360000  0.35620000  0.21480000  1.0 0.1746183155
C  C175  1  0.59520000  0.45540000  0.29060000  1.0 -0.2365691991
C  C176  1  0.92410000  0.10330000  0.16710000  1.0 -0.2089158179
C  C177  1  0.97690000  0.21890000  0.15970000  1.0 0.0757829664
C  C178  1  0.01690000  0.23490000  0.08410000  1.0 -0.1415719328
C  C179  1  0.09680000  0.20060000  0.06820000  1.0 -0.1980992997
C  C180  1  0.13670000  0.15030000  0.12770000  1.0 0.2312004386
C  C181  1  0.09680000  0.13420000  0.20320000  1.0 -0.2282463486
C  C182  1  0.01690000  0.16850000  0.21910000  1.0 -0.1105310807
C  C183  1  0.25970000  0.06390000  0.16750000  1.0 -0.1614510896
C  C184  1  0.34910000  0.03830000  0.13870000  1.0 0.5845288454
C  C185  1  0.63700000  0.63700000  0.86300000  1.0 -0.1516368172
C  C186  1  0.56180000  0.56180000  0.93820000  1.0 -0.1105310807
C  C187  1  0.52100000  0.52100000  0.97900000  1.0 -0.0968850585
C  C188  1  0.44670000  0.44670000  0.05330000  1.0 -0.2282463486
C  C189  1  0.86300000  0.86300000  0.63700000  1.0 -0.1516368172
C  C190  1  0.93820000  0.93820000  0.56180000  1.0 -0.1105310807
C  C191  1  0.97900000  0.97900000  0.52100000  1.0 -0.0968850585
C  C192  1  0.05330000  0.05330000  0.44670000  1.0 -0.2282463486
O  O1  1  0.16080000  0.34180000  0.76040000  1.0 -0.5311647387
O  O2  1  0.18840000  0.26860000  0.88040000  1.0 -0.5938031457
O  O3  1  0.01130000  0.40670000  0.81410000  1.0 -0.1516368172
O  O4  1  0.68790000  0.43710000  0.93190000  1.0 -0.0782551201
O  O5  1  0.52720000  0.51840000  0.85040000  1.0 -0.1905598896
O  O6  1  0.35150000  0.40130000  0.82050000  1.0 -0.1516368172
O  O7  1  0.29200000  0.37240000  0.75120000  1.0 -0.4821195038
O  O8  1  0.35590000  0.24830000  0.80110000  1.0 -0.5197266223
O  O9  1  0.05170000  0.46030000  0.59430000  1.0 -0.5481733563
O  O10  1  0.01550000  0.57890000  0.52910000  1.0 -0.5098275425
O  O11  1  0.05770000  0.60510000  0.61610000  1.0 -0.1743274288
O  O12  1  0.23710000  0.72330000  0.64270000  1.0 -0.1801090719
O  O13  1  0.23360000  0.72960000  0.89220000  1.0 -0.2158955945
O  O14  1  0.10650000  0.55770000  0.21950000  1.0 -0.1801090719
O  O15  1  0.05690000  0.51950000  0.36890000  1.0 -0.6135679068
O  O16  1  0.17800000  0.43820000  0.39360000  1.0 -0.4937069299
O  O17  1  0.73700000  0.76040000  0.34180000  1.0 -0.5311647387
O  O18  1  0.66260000  0.88040000  0.26860000  1.0 -0.5951227726
O  O19  1  0.76790000  0.81410000  0.40670000  1.0 -0.1614510896
O  O20  1  0.94310000  0.93190000  0.43710000  1.0 -0.0782551201
O  O21  1  0.10400000  0.85040000  0.51840000  1.0 -0.1905598896
O  O22  1  0.42670000  0.82050000  0.40130000  1.0 -0.1516368172
O  O23  1  0.58440000  0.75120000  0.37240000  1.0 -0.4821195038
O  O24  1  0.59470000  0.80110000  0.24830000  1.0 -0.5197266223
O  O25  1  0.89370000  0.59430000  0.46030000  1.0 -0.5481733563
O  O26  1  0.87650000  0.52910000  0.57890000  1.0 -0.5098275425
O  O27  1  0.72110000  0.61610000  0.60510000  1.0 -0.1743274288
O  O28  1  0.39690000  0.64270000  0.72330000  1.0 -0.1801090719
O  O29  1  0.14460000  0.89220000  0.72960000  1.0 -0.2158955945
O  O30  1  0.11630000  0.21950000  0.55770000  1.0 -0.1801090719
O  O31  1  0.05470000  0.36890000  0.51950000  1.0 -0.6154495658
O  O32  1  0.99020000  0.39360000  0.43820000  1.0 -0.4937069299
O  O33  1  0.34180000  0.16080000  0.73700000  1.0 -0.5311647387
O  O34  1  0.26860000  0.18840000  0.66260000  1.0 -0.5938031457
O  O35  1  0.40670000  0.01130000  0.76790000  1.0 -0.1516368172
O  O36  1  0.43710000  0.68790000  0.94310000  1.0 -0.0782551201
O  O37  1  0.51840000  0.52720000  0.10400000  1.0 -0.1905598896
O  O38  1  0.40130000  0.35150000  0.42670000  1.0 -0.1516368172
O  O39  1  0.37240000  0.29200000  0.58440000  1.0 -0.4821195038
O  O40  1  0.24830000  0.35590000  0.59470000  1.0 -0.5197266223
O  O41  1  0.46030000  0.05170000  0.89370000  1.0 -0.5481733563
O  O42  1  0.57890000  0.01550000  0.87650000  1.0 -0.5098275425
O  O43  1  0.60510000  0.05770000  0.72110000  1.0 -0.1743274288
O  O44  1  0.72330000  0.23710000  0.39690000  1.0 -0.1801090719
O  O45  1  0.72960000  0.23360000  0.14460000  1.0 -0.2158955945
O  O46  1  0.55770000  0.10650000  0.11630000  1.0 -0.1801090719
O  O47  1  0.51950000  0.05690000  0.05470000  1.0 -0.6154495658
O  O48  1  0.43820000  0.17800000  0.99020000  1.0 -0.4937069299
O  O49  1  0.76040000  0.73700000  0.16080000  1.0 -0.5311647387
O  O50  1  0.88040000  0.66260000  0.18840000  1.0 -0.5938031457
O  O51  1  0.81410000  0.76790000  0.01130000  1.0 -0.1516368172
O  O52  1  0.93190000  0.94310000  0.68790000  1.0 -0.0782551201
O  O53  1  0.85040000  0.10400000  0.52720000  1.0 -0.1905598896
O  O54  1  0.82050000  0.42670000  0.35150000  1.0 -0.1516368172
O  O55  1  0.75120000  0.58440000  0.29200000  1.0 -0.4821195038
O  O56  1  0.80110000  0.59470000  0.35590000  1.0 -0.5197266223
O  O57  1  0.59430000  0.89370000  0.05170000  1.0 -0.5481733563
O  O58  1  0.52910000  0.87650000  0.01550000  1.0 -0.5098275425
O  O59  1  0.61610000  0.72110000  0.05770000  1.0 -0.1743274288
O  O60  1  0.64270000  0.39690000  0.23710000  1.0 -0.1801090719
O  O61  1  0.89220000  0.14460000  0.23360000  1.0 -0.2158955945
O  O62  1  0.21950000  0.11630000  0.10650000  1.0 -0.1801090719
O  O63  1  0.36890000  0.05470000  0.05690000  1.0 -0.6135679068
O  O64  1  0.39360000  0.99020000  0.17800000  1.0 -0.4986685695
