# DDEC6 charges by PACMAN v1.1 (https://github.com/mtap-research/PACMAN-charge/)
data_ZICCIZ_ASR_pacman
_symmetry_space_group_name_H-M   'P 1'
_cell_length_a   22.26000000
_cell_length_b   22.26000000
_cell_length_c   22.26000000
_cell_angle_alpha   90.00000000
_cell_angle_beta   90.00000000
_cell_angle_gamma   90.00000000
_symmetry_Int_Tables_number   1
_chemical_formula_structural   Cd16Co3H60C156(NO4)12
_chemical_formula_sum   'Cd16 Co3 H60 C156 N12 O48'
_cell_volume   11029.99917600
_cell_formula_units_Z   1
loop_
 _symmetry_equiv_pos_site_id
 _symmetry_equiv_pos_as_xyz
  1  'x, y, z'
loop_
 _atom_site_type_symbol
 _atom_site_label
 _atom_site_symmetry_multiplicity
 _atom_site_fract_x
 _atom_site_fract_y
 _atom_site_fract_z
 _atom_site_occupancy
 _atom_site_charge
Cd  Cd1  1  0.23760000  0.23760000  0.76240000  1.0 0.453228445
Cd  Cd2  1  0.76240000  0.76240000  0.76240000  1.0 0.453228445
Cd  Cd3  1  0.76240000  0.23760000  0.23760000  1.0 0.453228445
Cd  Cd4  1  0.23760000  0.76240000  0.23760000  1.0 0.453228445
Cd  Cd5  1  0.23760000  0.23760000  0.23760000  1.0 0.4368336298
Cd  Cd6  1  0.76240000  0.76240000  0.23760000  1.0 0.453228445
Cd  Cd7  1  0.23760000  0.76240000  0.76240000  1.0 0.453228445
Cd  Cd8  1  0.76240000  0.23760000  0.76240000  1.0 0.453228445
Cd  Cd9  1  0.20820000  0.20820000  0.79180000  1.0 0.4573688902
Cd  Cd10  1  0.79180000  0.79180000  0.79180000  1.0 0.4312211968
Cd  Cd11  1  0.79180000  0.20820000  0.20820000  1.0 0.4573688902
Cd  Cd12  1  0.20820000  0.79180000  0.20820000  1.0 0.4573688902
Cd  Cd13  1  0.20820000  0.20820000  0.20820000  1.0 0.4573688902
Cd  Cd14  1  0.79180000  0.79180000  0.20820000  1.0 0.4573688902
Cd  Cd15  1  0.20820000  0.79180000  0.79180000  1.0 0.4573688902
Cd  Cd16  1  0.79180000  0.20820000  0.79180000  1.0 0.4573688902
Co  Co1  1  0.50000000  0.00000000  0.50000000  1.0 0.6640927789
Co  Co2  1  0.50000000  0.50000000  0.00000000  1.0 0.6640927789
Co  Co3  1  0.00000000  0.50000000  0.50000000  1.0 0.6640927789
H  H1  1  0.27500000  0.00000000  0.55530000  1.0 0.1323469416
H  H2  1  0.72500000  0.00000000  0.55530000  1.0 0.1323469416
H  H3  1  0.72500000  0.00000000  0.44470000  1.0 0.1323469416
H  H4  1  0.27500000  0.00000000  0.44470000  1.0 0.1323469416
H  H5  1  0.55530000  0.27500000  0.00000000  1.0 0.1323469416
H  H6  1  0.55530000  0.72500000  0.00000000  1.0 0.1323469416
H  H7  1  0.44470000  0.72500000  0.00000000  1.0 0.1323469416
H  H8  1  0.44470000  0.27500000  0.00000000  1.0 0.1323469416
H  H9  1  0.00000000  0.55530000  0.27500000  1.0 0.1323469416
H  H10  1  0.00000000  0.55530000  0.72500000  1.0 0.1323469416
H  H11  1  0.00000000  0.44470000  0.72500000  1.0 0.1323469416
H  H12  1  0.00000000  0.44470000  0.27500000  1.0 0.1323469416
H  H13  1  0.00000000  0.27500000  0.44470000  1.0 0.1323469416
H  H14  1  0.00000000  0.72500000  0.44470000  1.0 0.1323469416
H  H15  1  0.00000000  0.72500000  0.55530000  1.0 0.1323469416
H  H16  1  0.00000000  0.27500000  0.55530000  1.0 0.1323469416
H  H17  1  0.27500000  0.55530000  0.00000000  1.0 0.1323469416
H  H18  1  0.72500000  0.55530000  0.00000000  1.0 0.1323469416
H  H19  1  0.72500000  0.44470000  0.00000000  1.0 0.1323469416
H  H20  1  0.27500000  0.44470000  0.00000000  1.0 0.1323469416
H  H21  1  0.55530000  0.00000000  0.72500000  1.0 0.1323469416
H  H22  1  0.55530000  0.00000000  0.27500000  1.0 0.1323469416
H  H23  1  0.44470000  0.00000000  0.27500000  1.0 0.1323469416
H  H24  1  0.44470000  0.00000000  0.72500000  1.0 0.1323469416
H  H25  1  0.22600000  0.00000000  0.77400000  1.0 0.1197025973
H  H26  1  0.77400000  0.00000000  0.77400000  1.0 0.1197025973
H  H27  1  0.77400000  0.00000000  0.22600000  1.0 0.1197025973
H  H28  1  0.22600000  0.00000000  0.22600000  1.0 0.1197025973
H  H29  1  0.77400000  0.22600000  0.00000000  1.0 0.1197025973
H  H30  1  0.77400000  0.77400000  0.00000000  1.0 0.1197025973
H  H31  1  0.22600000  0.77400000  0.00000000  1.0 0.1197025973
H  H32  1  0.22600000  0.22600000  0.00000000  1.0 0.1197025973
H  H33  1  0.00000000  0.77400000  0.22600000  1.0 0.1197025973
H  H34  1  0.00000000  0.77400000  0.77400000  1.0 0.1197025973
H  H35  1  0.00000000  0.22600000  0.77400000  1.0 0.1197025973
H  H36  1  0.00000000  0.22600000  0.22600000  1.0 0.1197025973
H  H37  1  0.33700000  0.09070000  0.66300000  1.0 0.1197025973
H  H38  1  0.66300000  0.90930000  0.66300000  1.0 0.1197025973
H  H39  1  0.66300000  0.09070000  0.33700000  1.0 0.1197025973
H  H40  1  0.33700000  0.90930000  0.33700000  1.0 0.1197025973
H  H41  1  0.66300000  0.33700000  0.09070000  1.0 0.1197025973
H  H42  1  0.66300000  0.66300000  0.90930000  1.0 0.1197025973
H  H43  1  0.33700000  0.66300000  0.09070000  1.0 0.1197025973
H  H44  1  0.33700000  0.33700000  0.90930000  1.0 0.1197025973
H  H45  1  0.09070000  0.66300000  0.33700000  1.0 0.1197025973
H  H46  1  0.90930000  0.66300000  0.66300000  1.0 0.1197025973
H  H47  1  0.09070000  0.33700000  0.66300000  1.0 0.1197025973
H  H48  1  0.90930000  0.33700000  0.33700000  1.0 0.1197025973
H  H49  1  0.09070000  0.33700000  0.33700000  1.0 0.1197025973
H  H50  1  0.90930000  0.66300000  0.33700000  1.0 0.1197025973
H  H51  1  0.09070000  0.66300000  0.66300000  1.0 0.1197025973
H  H52  1  0.90930000  0.33700000  0.66300000  1.0 0.1197025973
H  H53  1  0.33700000  0.66300000  0.90930000  1.0 0.1197025973
H  H54  1  0.66300000  0.66300000  0.09070000  1.0 0.1197025973
H  H55  1  0.66300000  0.33700000  0.90930000  1.0 0.1197025973
H  H56  1  0.33700000  0.33700000  0.09070000  1.0 0.1197025973
H  H57  1  0.66300000  0.09070000  0.66300000  1.0 0.1197025973
H  H58  1  0.66300000  0.90930000  0.33700000  1.0 0.1197025973
H  H59  1  0.33700000  0.09070000  0.33700000  1.0 0.1197025973
H  H60  1  0.33700000  0.90930000  0.66300000  1.0 0.1197025973
C  C1  1  0.30960000  0.00000000  0.53030000  1.0 -0.1913298513
C  C2  1  0.69040000  0.00000000  0.53030000  1.0 -0.1913298513
C  C3  1  0.69040000  0.00000000  0.46970000  1.0 -0.1913298513
C  C4  1  0.30960000  0.00000000  0.46970000  1.0 -0.1913298513
C  C5  1  0.53030000  0.30960000  0.00000000  1.0 -0.1913298513
C  C6  1  0.53030000  0.69040000  0.00000000  1.0 -0.1913298513
C  C7  1  0.46970000  0.69040000  0.00000000  1.0 -0.1913298513
C  C8  1  0.46970000  0.30960000  0.00000000  1.0 -0.1913298513
C  C9  1  0.00000000  0.53030000  0.30960000  1.0 -0.1913298513
C  C10  1  0.00000000  0.53030000  0.69040000  1.0 -0.1913298513
C  C11  1  0.00000000  0.46970000  0.69040000  1.0 -0.1913298513
C  C12  1  0.00000000  0.46970000  0.30960000  1.0 -0.1913298513
C  C13  1  0.00000000  0.30960000  0.46970000  1.0 -0.1913298513
C  C14  1  0.00000000  0.69040000  0.46970000  1.0 -0.1913298513
C  C15  1  0.00000000  0.69040000  0.53030000  1.0 -0.1913298513
C  C16  1  0.00000000  0.30960000  0.53030000  1.0 -0.1913298513
C  C17  1  0.30960000  0.53030000  0.00000000  1.0 -0.1913298513
C  C18  1  0.69040000  0.53030000  0.00000000  1.0 -0.1913298513
C  C19  1  0.69040000  0.46970000  0.00000000  1.0 -0.1913298513
C  C20  1  0.30960000  0.46970000  0.00000000  1.0 -0.1913298513
C  C21  1  0.53030000  0.00000000  0.69040000  1.0 -0.1913298513
C  C22  1  0.53030000  0.00000000  0.30960000  1.0 -0.1913298513
C  C23  1  0.46970000  0.00000000  0.30960000  1.0 -0.1913298513
C  C24  1  0.46970000  0.00000000  0.69040000  1.0 -0.1913298513
C  C25  1  0.37040000  0.00000000  0.55040000  1.0 0.1889325478
C  C26  1  0.62960000  0.00000000  0.55040000  1.0 0.1889325478
C  C27  1  0.62960000  0.00000000  0.44960000  1.0 0.1889325478
C  C28  1  0.37040000  0.00000000  0.44960000  1.0 0.1889325478
C  C29  1  0.55040000  0.37040000  0.00000000  1.0 0.1889325478
C  C30  1  0.55040000  0.62960000  0.00000000  1.0 0.1889325478
C  C31  1  0.44960000  0.62960000  0.00000000  1.0 0.1889325478
C  C32  1  0.44960000  0.37040000  0.00000000  1.0 0.1889325478
C  C33  1  0.00000000  0.55040000  0.37040000  1.0 0.1889325478
C  C34  1  0.00000000  0.55040000  0.62960000  1.0 0.1889325478
C  C35  1  0.00000000  0.44960000  0.62960000  1.0 0.1889325478
C  C36  1  0.00000000  0.44960000  0.37040000  1.0 0.1889325478
C  C37  1  0.00000000  0.37040000  0.44960000  1.0 0.1889325478
C  C38  1  0.00000000  0.62960000  0.44960000  1.0 0.1889325478
C  C39  1  0.00000000  0.62960000  0.55040000  1.0 0.1889325478
C  C40  1  0.00000000  0.37040000  0.55040000  1.0 0.1889325478
C  C41  1  0.37040000  0.55040000  0.00000000  1.0 0.1889325478
C  C42  1  0.62960000  0.55040000  0.00000000  1.0 0.1889325478
C  C43  1  0.62960000  0.44960000  0.00000000  1.0 0.1889325478
C  C44  1  0.37040000  0.44960000  0.00000000  1.0 0.1889325478
C  C45  1  0.55040000  0.00000000  0.62960000  1.0 0.1889325478
C  C46  1  0.55040000  0.00000000  0.37040000  1.0 0.1889325478
C  C47  1  0.44960000  0.00000000  0.37040000  1.0 0.1889325478
C  C48  1  0.44960000  0.00000000  0.62960000  1.0 0.1889325478
C  C49  1  0.25620000  0.00000000  0.74380000  1.0 -0.0741782419
C  C50  1  0.74380000  0.00000000  0.74380000  1.0 -0.0741782419
C  C51  1  0.74380000  0.00000000  0.25620000  1.0 -0.0756650992
C  C52  1  0.25620000  0.00000000  0.25620000  1.0 -0.0756650992
C  C53  1  0.74380000  0.25620000  0.00000000  1.0 -0.0756650992
C  C54  1  0.74380000  0.74380000  0.00000000  1.0 -0.0756650992
C  C55  1  0.25620000  0.74380000  0.00000000  1.0 -0.0756650992
C  C56  1  0.25620000  0.25620000  0.00000000  1.0 -0.0756650992
C  C57  1  0.00000000  0.74380000  0.25620000  1.0 -0.0756650992
C  C58  1  0.00000000  0.74380000  0.74380000  1.0 -0.0756650992
C  C59  1  0.00000000  0.25620000  0.74380000  1.0 -0.0756650992
C  C60  1  0.00000000  0.25620000  0.25620000  1.0 -0.0756650992
C  C61  1  0.25830000  0.11130000  0.74170000  1.0 0.5344266691
C  C62  1  0.74170000  0.88870000  0.74170000  1.0 0.5364621478
C  C63  1  0.74170000  0.11130000  0.25830000  1.0 0.5344266691
C  C64  1  0.25830000  0.88870000  0.25830000  1.0 0.5364621478
C  C65  1  0.74170000  0.25830000  0.11130000  1.0 0.5344266691
C  C66  1  0.74170000  0.74170000  0.88870000  1.0 0.5364621478
C  C67  1  0.25830000  0.74170000  0.11130000  1.0 0.5344266691
C  C68  1  0.25830000  0.25830000  0.88870000  1.0 0.5364621478
C  C69  1  0.11130000  0.74170000  0.25830000  1.0 0.5344266691
C  C70  1  0.88870000  0.74170000  0.74170000  1.0 0.5364621478
C  C71  1  0.11130000  0.25830000  0.74170000  1.0 0.5344266691
C  C72  1  0.88870000  0.25830000  0.25830000  1.0 0.5364621478
C  C73  1  0.11130000  0.25830000  0.25830000  1.0 0.5344266691
C  C74  1  0.88870000  0.74170000  0.25830000  1.0 0.5364621478
C  C75  1  0.11130000  0.74170000  0.74170000  1.0 0.5344266691
C  C76  1  0.88870000  0.25830000  0.74170000  1.0 0.5364621478
C  C77  1  0.25830000  0.74170000  0.88870000  1.0 0.5364621478
C  C78  1  0.74170000  0.74170000  0.11130000  1.0 0.5344266691
C  C79  1  0.74170000  0.25830000  0.88870000  1.0 0.5364621478
C  C80  1  0.25830000  0.25830000  0.11130000  1.0 0.5344266691
C  C81  1  0.74170000  0.11130000  0.74170000  1.0 0.5344266691
C  C82  1  0.74170000  0.88870000  0.25830000  1.0 0.5364621478
C  C83  1  0.25830000  0.11130000  0.25830000  1.0 0.5344266691
C  C84  1  0.25830000  0.88870000  0.74170000  1.0 0.5364621478
C  C85  1  0.32190000  0.05380000  0.67810000  1.0 -0.1330907918
C  C86  1  0.67810000  0.94620000  0.67810000  1.0 -0.1330907918
C  C87  1  0.67810000  0.05380000  0.32190000  1.0 -0.1330907918
C  C88  1  0.32190000  0.94620000  0.32190000  1.0 -0.1330907918
C  C89  1  0.67810000  0.32190000  0.05380000  1.0 -0.1330907918
C  C90  1  0.67810000  0.67810000  0.94620000  1.0 -0.1330907918
C  C91  1  0.32190000  0.67810000  0.05380000  1.0 -0.1330907918
C  C92  1  0.32190000  0.32190000  0.94620000  1.0 -0.1330907918
C  C93  1  0.05380000  0.67810000  0.32190000  1.0 -0.1330907918
C  C94  1  0.94620000  0.67810000  0.67810000  1.0 -0.1330907918
C  C95  1  0.05380000  0.32190000  0.67810000  1.0 -0.1330907918
C  C96  1  0.94620000  0.32190000  0.32190000  1.0 -0.1330907918
C  C97  1  0.05380000  0.32190000  0.32190000  1.0 -0.1330907918
C  C98  1  0.94620000  0.67810000  0.32190000  1.0 -0.1330907918
C  C99  1  0.05380000  0.67810000  0.67810000  1.0 -0.1330907918
C  C100  1  0.94620000  0.32190000  0.67810000  1.0 -0.1330907918
C  C101  1  0.32190000  0.67810000  0.94620000  1.0 -0.1330907918
C  C102  1  0.67810000  0.67810000  0.05380000  1.0 -0.1330907918
C  C103  1  0.67810000  0.32190000  0.94620000  1.0 -0.1330907918
C  C104  1  0.32190000  0.32190000  0.05380000  1.0 -0.1330907918
C  C105  1  0.67810000  0.05380000  0.67810000  1.0 -0.1330907918
C  C106  1  0.67810000  0.94620000  0.32190000  1.0 -0.1330907918
C  C107  1  0.32190000  0.05380000  0.32190000  1.0 -0.1330907918
C  C108  1  0.32190000  0.94620000  0.67810000  1.0 -0.1330907918
C  C109  1  0.27820000  0.05330000  0.72180000  1.0 -0.0492687128
C  C110  1  0.72180000  0.94670000  0.72180000  1.0 -0.0492687128
C  C111  1  0.72180000  0.05330000  0.27820000  1.0 -0.0492687128
C  C112  1  0.27820000  0.94670000  0.27820000  1.0 -0.0492687128
C  C113  1  0.72180000  0.27820000  0.05330000  1.0 -0.0492687128
C  C114  1  0.72180000  0.72180000  0.94670000  1.0 -0.0492687128
C  C115  1  0.27820000  0.72180000  0.05330000  1.0 -0.0492687128
C  C116  1  0.27820000  0.27820000  0.94670000  1.0 -0.0492687128
C  C117  1  0.05330000  0.72180000  0.27820000  1.0 -0.0492687128
C  C118  1  0.94670000  0.72180000  0.72180000  1.0 -0.0492687128
C  C119  1  0.05330000  0.27820000  0.72180000  1.0 -0.0492687128
C  C120  1  0.94670000  0.27820000  0.27820000  1.0 -0.0492687128
C  C121  1  0.05330000  0.27820000  0.27820000  1.0 -0.0492687128
C  C122  1  0.94670000  0.72180000  0.27820000  1.0 -0.0492687128
C  C123  1  0.05330000  0.72180000  0.72180000  1.0 -0.0492687128
C  C124  1  0.94670000  0.27820000  0.72180000  1.0 -0.0492687128
C  C125  1  0.27820000  0.72180000  0.94670000  1.0 -0.0492687128
C  C126  1  0.72180000  0.72180000  0.05330000  1.0 -0.0492687128
C  C127  1  0.72180000  0.27820000  0.94670000  1.0 -0.0492687128
C  C128  1  0.27820000  0.27820000  0.05330000  1.0 -0.0492687128
C  C129  1  0.72180000  0.05330000  0.72180000  1.0 -0.0492687128
C  C130  1  0.72180000  0.94670000  0.27820000  1.0 -0.0492687128
C  C131  1  0.27820000  0.05330000  0.27820000  1.0 -0.0492687128
C  C132  1  0.27820000  0.94670000  0.72180000  1.0 -0.0492687128
C  C133  1  0.39080000  0.00000000  0.60920000  1.0 -0.0741782419
C  C134  1  0.60920000  0.00000000  0.60920000  1.0 -0.0741782419
C  C135  1  0.60920000  0.00000000  0.39080000  1.0 -0.0741782419
C  C136  1  0.39080000  0.00000000  0.39080000  1.0 -0.0741782419
C  C137  1  0.60920000  0.39080000  0.00000000  1.0 -0.0741782419
C  C138  1  0.60920000  0.60920000  0.00000000  1.0 -0.0741782419
C  C139  1  0.39080000  0.60920000  0.00000000  1.0 -0.0756650992
C  C140  1  0.39080000  0.39080000  0.00000000  1.0 -0.0741782419
C  C141  1  0.00000000  0.60920000  0.39080000  1.0 -0.0756650992
C  C142  1  0.00000000  0.60920000  0.60920000  1.0 -0.0756650992
C  C143  1  0.00000000  0.39080000  0.60920000  1.0 -0.0756650992
C  C144  1  0.00000000  0.39080000  0.39080000  1.0 -0.0741782419
C  C145  1  0.34340000  0.00000000  0.65660000  1.0 0.0668605235
C  C146  1  0.65660000  0.00000000  0.65660000  1.0 0.0668605235
C  C147  1  0.65660000  0.00000000  0.34340000  1.0 0.0668605235
C  C148  1  0.34340000  0.00000000  0.34340000  1.0 0.0668605235
C  C149  1  0.65660000  0.34340000  0.00000000  1.0 0.0668605235
C  C150  1  0.65660000  0.65660000  0.00000000  1.0 0.0668605235
C  C151  1  0.34340000  0.65660000  0.00000000  1.0 0.0668605235
C  C152  1  0.34340000  0.34340000  0.00000000  1.0 0.0668605235
C  C153  1  0.00000000  0.65660000  0.34340000  1.0 0.0668605235
C  C154  1  0.00000000  0.65660000  0.65660000  1.0 0.0668605235
C  C155  1  0.00000000  0.34340000  0.65660000  1.0 0.0668605235
C  C156  1  0.00000000  0.34340000  0.34340000  1.0 0.0668605235
N  N1  1  0.40590000  0.00000000  0.50000000  1.0 -0.3762868247
N  N2  1  0.59410000  0.00000000  0.50000000  1.0 -0.3762868247
N  N3  1  0.50000000  0.40590000  0.00000000  1.0 -0.3762868247
N  N4  1  0.50000000  0.59410000  0.00000000  1.0 -0.3762868247
N  N5  1  0.00000000  0.50000000  0.40590000  1.0 -0.3762868247
N  N6  1  0.00000000  0.50000000  0.59410000  1.0 -0.3762868247
N  N7  1  0.00000000  0.40590000  0.50000000  1.0 -0.3762868247
N  N8  1  0.00000000  0.59410000  0.50000000  1.0 -0.3762868247
N  N9  1  0.40590000  0.50000000  0.00000000  1.0 -0.3762868247
N  N10  1  0.59410000  0.50000000  0.00000000  1.0 -0.3762868247
N  N11  1  0.50000000  0.00000000  0.59410000  1.0 -0.3762868247
N  N12  1  0.50000000  0.00000000  0.40590000  1.0 -0.3762868247
O  O1  1  0.21940000  0.11170000  0.78060000  1.0 -0.3981799138
O  O2  1  0.78060000  0.88830000  0.78060000  1.0 -0.3981799138
O  O3  1  0.78060000  0.11170000  0.21940000  1.0 -0.3981799138
O  O4  1  0.21940000  0.88830000  0.21940000  1.0 -0.3981799138
O  O5  1  0.78060000  0.21940000  0.11170000  1.0 -0.3981799138
O  O6  1  0.78060000  0.78060000  0.88830000  1.0 -0.3981799138
O  O7  1  0.21940000  0.78060000  0.11170000  1.0 -0.3981799138
O  O8  1  0.21940000  0.21940000  0.88830000  1.0 -0.3981799138
O  O9  1  0.11170000  0.78060000  0.21940000  1.0 -0.3981799138
O  O10  1  0.88830000  0.78060000  0.78060000  1.0 -0.3981799138
O  O11  1  0.11170000  0.21940000  0.78060000  1.0 -0.3981799138
O  O12  1  0.88830000  0.21940000  0.21940000  1.0 -0.3981799138
O  O13  1  0.11170000  0.21940000  0.21940000  1.0 -0.3981799138
O  O14  1  0.88830000  0.78060000  0.21940000  1.0 -0.3981799138
O  O15  1  0.11170000  0.78060000  0.78060000  1.0 -0.3981799138
O  O16  1  0.88830000  0.21940000  0.78060000  1.0 -0.3981799138
O  O17  1  0.21940000  0.78060000  0.88830000  1.0 -0.3981799138
O  O18  1  0.78060000  0.78060000  0.11170000  1.0 -0.3981799138
O  O19  1  0.78060000  0.21940000  0.88830000  1.0 -0.3981799138
O  O20  1  0.21940000  0.21940000  0.11170000  1.0 -0.3981799138
O  O21  1  0.78060000  0.11170000  0.78060000  1.0 -0.3981799138
O  O22  1  0.78060000  0.88830000  0.21940000  1.0 -0.3981799138
O  O23  1  0.21940000  0.11170000  0.21940000  1.0 -0.3981799138
O  O24  1  0.21940000  0.88830000  0.78060000  1.0 -0.3981799138
O  O25  1  0.27630000  0.15860000  0.72370000  1.0 -0.4194212359
O  O26  1  0.72370000  0.84140000  0.72370000  1.0 -0.4194212359
O  O27  1  0.72370000  0.15860000  0.27630000  1.0 -0.4194212359
O  O28  1  0.27630000  0.84140000  0.27630000  1.0 -0.4194212359
O  O29  1  0.72370000  0.27630000  0.15860000  1.0 -0.4194212359
O  O30  1  0.72370000  0.72370000  0.84140000  1.0 -0.4194212359
O  O31  1  0.27630000  0.72370000  0.15860000  1.0 -0.4194212359
O  O32  1  0.27630000  0.27630000  0.84140000  1.0 -0.4194212359
O  O33  1  0.15860000  0.72370000  0.27630000  1.0 -0.4194212359
O  O34  1  0.84140000  0.72370000  0.72370000  1.0 -0.4194212359
O  O35  1  0.15860000  0.27630000  0.72370000  1.0 -0.4194212359
O  O36  1  0.84140000  0.27630000  0.27630000  1.0 -0.4194212359
O  O37  1  0.15860000  0.27630000  0.27630000  1.0 -0.4194212359
O  O38  1  0.84140000  0.72370000  0.27630000  1.0 -0.4194212359
O  O39  1  0.15860000  0.72370000  0.72370000  1.0 -0.4194212359
O  O40  1  0.84140000  0.27630000  0.72370000  1.0 -0.4194212359
O  O41  1  0.27630000  0.72370000  0.84140000  1.0 -0.4194212359
O  O42  1  0.72370000  0.72370000  0.15860000  1.0 -0.4194212359
O  O43  1  0.72370000  0.27630000  0.84140000  1.0 -0.4194212359
O  O44  1  0.27630000  0.27630000  0.15860000  1.0 -0.4194212359
O  O45  1  0.72370000  0.15860000  0.72370000  1.0 -0.4194212359
O  O46  1  0.72370000  0.84140000  0.27630000  1.0 -0.4194212359
O  O47  1  0.27630000  0.15860000  0.27630000  1.0 -0.4194212359
O  O48  1  0.27630000  0.84140000  0.72370000  1.0 -0.4194212359
