# DDEC6 charges by PACMAN v1.1 (https://github.com/mtap-research/PACMAN-charge/)
data_ZIDDIB_FSR_pacman
_symmetry_space_group_name_H-M   'P 1'
_cell_length_a   16.06300000
_cell_length_b   16.48500000
_cell_length_c   19.02500000
_cell_angle_alpha   90.00000000
_cell_angle_beta   90.00000000
_cell_angle_gamma   90.00000000
_symmetry_Int_Tables_number   1
_chemical_formula_structural   In2H9C21N3O13
_chemical_formula_sum   'In16 H72 C168 N24 O104'
_cell_volume   5037.79250887
_cell_formula_units_Z   8
loop_
 _symmetry_equiv_pos_site_id
 _symmetry_equiv_pos_as_xyz
  1  'x, y, z'
loop_
 _atom_site_type_symbol
 _atom_site_label
 _atom_site_symmetry_multiplicity
 _atom_site_fract_x
 _atom_site_fract_y
 _atom_site_fract_z
 _atom_site_occupancy
 _atom_site_charge
In  In1  1  0.45587000  0.74254000  0.98740000  1.0 1.3284100337
In  In2  1  0.04413000  0.75746000  0.98740000  1.0 1.3284100337
In  In3  1  0.95587000  0.25746000  0.51260000  1.0 1.3284100337
In  In4  1  0.54413000  0.24254000  0.51260000  1.0 1.3284100337
In  In5  1  0.54413000  0.25746000  0.01260000  1.0 1.3284100337
In  In6  1  0.95587000  0.24254000  0.01260000  1.0 1.3284100337
In  In7  1  0.04413000  0.74254000  0.48740000  1.0 1.3284100337
In  In8  1  0.45587000  0.75746000  0.48740000  1.0 1.3284100337
In  In9  1  0.72039000  0.06948000  0.18424000  1.0 1.3111337615
In  In10  1  0.77961000  0.43052000  0.18424000  1.0 1.3111337615
In  In11  1  0.22039000  0.93052000  0.31576000  1.0 1.3111337615
In  In12  1  0.27961000  0.56948000  0.31576000  1.0 1.3111337615
In  In13  1  0.27961000  0.93052000  0.81576000  1.0 1.3111337615
In  In14  1  0.22039000  0.56948000  0.81576000  1.0 1.3111337615
In  In15  1  0.77961000  0.06948000  0.68424000  1.0 1.3111337615
In  In16  1  0.72039000  0.43052000  0.68424000  1.0 1.3111337615
H  H1  1  0.79740000  0.04390000  0.93370000  1.0 0.1506993441
H  H2  1  0.70260000  0.45610000  0.93370000  1.0 0.1506993441
H  H3  1  0.29740000  0.95610000  0.56630000  1.0 0.1506993441
H  H4  1  0.20260000  0.54390000  0.56630000  1.0 0.1506993441
H  H5  1  0.20260000  0.95610000  0.06630000  1.0 0.1506993441
H  H6  1  0.29740000  0.54390000  0.06630000  1.0 0.1506993441
H  H7  1  0.70260000  0.04390000  0.43370000  1.0 0.1506993441
H  H8  1  0.79740000  0.45610000  0.43370000  1.0 0.1506993441
H  H9  1  0.71400000  0.93270000  0.89990000  1.0 0.1278914442
H  H10  1  0.78600000  0.56730000  0.89990000  1.0 0.1278914442
H  H11  1  0.21400000  0.06730000  0.60010000  1.0 0.1278914442
H  H12  1  0.28600000  0.43270000  0.60010000  1.0 0.1278914442
H  H13  1  0.28600000  0.06730000  0.10010000  1.0 0.1278914442
H  H14  1  0.21400000  0.43270000  0.10010000  1.0 0.1278914442
H  H15  1  0.78600000  0.93270000  0.39990000  1.0 0.1278914442
H  H16  1  0.71400000  0.56730000  0.39990000  1.0 0.1278914442
H  H17  1  0.60770000  0.94530000  0.08860000  1.0 0.1278914442
H  H18  1  0.89230000  0.55470000  0.08860000  1.0 0.1278914442
H  H19  1  0.10770000  0.05470000  0.41140000  1.0 0.1278914442
H  H20  1  0.39230000  0.44530000  0.41140000  1.0 0.1278914442
H  H21  1  0.39230000  0.05470000  0.91140000  1.0 0.1278914442
H  H22  1  0.10770000  0.44530000  0.91140000  1.0 0.1278914442
H  H23  1  0.89230000  0.94530000  0.58860000  1.0 0.1278914442
H  H24  1  0.60770000  0.55470000  0.58860000  1.0 0.1278914442
H  H25  1  0.97480000  0.95620000  0.30440000  1.0 0.1419661088
H  H26  1  0.52520000  0.54380000  0.30440000  1.0 0.1419661088
H  H27  1  0.47480000  0.04380000  0.19560000  1.0 0.1419661088
H  H28  1  0.02520000  0.45620000  0.19560000  1.0 0.1419661088
H  H29  1  0.02520000  0.04380000  0.69560000  1.0 0.1419661088
H  H30  1  0.47480000  0.45620000  0.69560000  1.0 0.1419661088
H  H31  1  0.52520000  0.95620000  0.80440000  1.0 0.1419661088
H  H32  1  0.97480000  0.54380000  0.80440000  1.0 0.1419661088
H  H33  1  0.02780000  0.87500000  0.21580000  1.0 0.1278914442
H  H34  1  0.47220000  0.62500000  0.21580000  1.0 0.1278914442
H  H35  1  0.52780000  0.12500000  0.28420000  1.0 0.1278914442
H  H36  1  0.97220000  0.37500000  0.28420000  1.0 0.1278914442
H  H37  1  0.97220000  0.12500000  0.78420000  1.0 0.1278914442
H  H38  1  0.52780000  0.37500000  0.78420000  1.0 0.1278914442
H  H39  1  0.47220000  0.87500000  0.71580000  1.0 0.1278914442
H  H40  1  0.02780000  0.62500000  0.71580000  1.0 0.1278914442
H  H41  1  0.83460000  0.93180000  0.09430000  1.0 0.1159836367
H  H42  1  0.66540000  0.56820000  0.09430000  1.0 0.1159836367
H  H43  1  0.33460000  0.06820000  0.40570000  1.0 0.1159836367
H  H44  1  0.16540000  0.43180000  0.40570000  1.0 0.1159836367
H  H45  1  0.16540000  0.06820000  0.90570000  1.0 0.1159836367
H  H46  1  0.33460000  0.43180000  0.90570000  1.0 0.1159836367
H  H47  1  0.66540000  0.93180000  0.59430000  1.0 0.1159836367
H  H48  1  0.83460000  0.56820000  0.59430000  1.0 0.1159836367
H  H49  1  0.57070000  0.89820000  0.39970000  1.0 0.1278914442
H  H50  1  0.92930000  0.60180000  0.39970000  1.0 0.1278914442
H  H51  1  0.07070000  0.10180000  0.10030000  1.0 0.1278914442
H  H52  1  0.42930000  0.39820000  0.10030000  1.0 0.1278914442
H  H53  1  0.42930000  0.10180000  0.60030000  1.0 0.1278914442
H  H54  1  0.07070000  0.39820000  0.60030000  1.0 0.1278914442
H  H55  1  0.92930000  0.89820000  0.89970000  1.0 0.1278914442
H  H56  1  0.57070000  0.60180000  0.89970000  1.0 0.1278914442
H  H57  1  0.43950000  0.76600000  0.21750000  1.0 0.1506993441
H  H58  1  0.06050000  0.73400000  0.21750000  1.0 0.1506993441
H  H59  1  0.93950000  0.23400000  0.28250000  1.0 0.1506993441
H  H60  1  0.56050000  0.26600000  0.28250000  1.0 0.1506993441
H  H61  1  0.56050000  0.23400000  0.78250000  1.0 0.1506993441
H  H62  1  0.93950000  0.26600000  0.78250000  1.0 0.1506993441
H  H63  1  0.06050000  0.76600000  0.71750000  1.0 0.1506993441
H  H64  1  0.43950000  0.73400000  0.71750000  1.0 0.1506993441
H  H65  1  0.53850000  0.86420000  0.19230000  1.0 0.1419661088
H  H66  1  0.96150000  0.63580000  0.19230000  1.0 0.1419661088
H  H67  1  0.03850000  0.13580000  0.30770000  1.0 0.1419661088
H  H68  1  0.46150000  0.36420000  0.30770000  1.0 0.1419661088
H  H69  1  0.46150000  0.13580000  0.80770000  1.0 0.1419661088
H  H70  1  0.03850000  0.36420000  0.80770000  1.0 0.1419661088
H  H71  1  0.96150000  0.86420000  0.69230000  1.0 0.1419661088
H  H72  1  0.53850000  0.63580000  0.69230000  1.0 0.1419661088
C  C1  1  0.80760000  0.12200000  0.05330000  1.0 0.5431153281
C  C2  1  0.69240000  0.37800000  0.05330000  1.0 0.5431153281
C  C3  1  0.30760000  0.87800000  0.44670000  1.0 0.5431153281
C  C4  1  0.19240000  0.62200000  0.44670000  1.0 0.5431153281
C  C5  1  0.19240000  0.87800000  0.94670000  1.0 0.5431153281
C  C6  1  0.30760000  0.62200000  0.94670000  1.0 0.5431153281
C  C7  1  0.69240000  0.12200000  0.55330000  1.0 0.5431153281
C  C8  1  0.80760000  0.37800000  0.55330000  1.0 0.5431153281
C  C9  1  0.75120000  0.05340000  0.02640000  1.0 0.0602122728
C  C10  1  0.74880000  0.44660000  0.02640000  1.0 0.0602122728
C  C11  1  0.25120000  0.94660000  0.47360000  1.0 0.0602122728
C  C12  1  0.24880000  0.55340000  0.47360000  1.0 0.0602122728
C  C13  1  0.24880000  0.94660000  0.97360000  1.0 0.0602122728
C  C14  1  0.25120000  0.55340000  0.97360000  1.0 0.0602122728
C  C15  1  0.74880000  0.05340000  0.52640000  1.0 0.0602122728
C  C16  1  0.75120000  0.44660000  0.52640000  1.0 0.0602122728
C  C17  1  0.75850000  0.02260000  0.96490000  1.0 -0.1029734661
C  C18  1  0.74150000  0.47740000  0.96490000  1.0 -0.1029734661
C  C19  1  0.25850000  0.97740000  0.53510000  1.0 -0.1029734661
C  C20  1  0.24150000  0.52260000  0.53510000  1.0 -0.1029734661
C  C21  1  0.24150000  0.97740000  0.03510000  1.0 -0.1029734661
C  C22  1  0.25850000  0.52260000  0.03510000  1.0 -0.1029734661
C  C23  1  0.74150000  0.02260000  0.46490000  1.0 -0.1029734661
C  C24  1  0.75850000  0.47740000  0.46490000  1.0 -0.1029734661
C  C25  1  0.70790000  0.95620000  0.94400000  1.0 -0.0330825677
C  C26  1  0.79210000  0.54380000  0.94400000  1.0 -0.0330825677
C  C27  1  0.20790000  0.04380000  0.55600000  1.0 -0.0330825677
C  C28  1  0.29210000  0.45620000  0.55600000  1.0 -0.0330825677
C  C29  1  0.29210000  0.04380000  0.05600000  1.0 -0.0330825677
C  C30  1  0.20790000  0.45620000  0.05600000  1.0 -0.0330825677
C  C31  1  0.79210000  0.95620000  0.44400000  1.0 -0.0330825677
C  C32  1  0.70790000  0.54380000  0.44400000  1.0 -0.0330825677
C  C33  1  0.65020000  0.92770000  0.99030000  1.0 -0.0551400365
C  C34  1  0.84980000  0.57230000  0.99030000  1.0 -0.0547100672
C  C35  1  0.15020000  0.07230000  0.50970000  1.0 -0.0547100672
C  C36  1  0.34980000  0.42770000  0.50970000  1.0 -0.0547100672
C  C37  1  0.34980000  0.07230000  0.00970000  1.0 -0.0551400365
C  C38  1  0.15020000  0.42770000  0.00970000  1.0 -0.0547100672
C  C39  1  0.84980000  0.92770000  0.49030000  1.0 -0.0547100672
C  C40  1  0.65020000  0.57230000  0.49030000  1.0 -0.0551400365
C  C41  1  0.64680000  0.96400000  0.05640000  1.0 0.0731155431
C  C42  1  0.85320000  0.53600000  0.05640000  1.0 0.0731155431
C  C43  1  0.14680000  0.03600000  0.44360000  1.0 0.0731155431
C  C44  1  0.35320000  0.46400000  0.44360000  1.0 0.0731155431
C  C45  1  0.35320000  0.03600000  0.94360000  1.0 0.0731155431
C  C46  1  0.14680000  0.46400000  0.94360000  1.0 0.0731155431
C  C47  1  0.85320000  0.96400000  0.55640000  1.0 0.0731155431
C  C48  1  0.64680000  0.53600000  0.55640000  1.0 0.0731155431
C  C49  1  0.59250000  0.85860000  0.97120000  1.0 0.5431153281
C  C50  1  0.90750000  0.64140000  0.97120000  1.0 0.5431153281
C  C51  1  0.09250000  0.14140000  0.52880000  1.0 0.5454883789
C  C52  1  0.40750000  0.35860000  0.52880000  1.0 0.5454883789
C  C53  1  0.40750000  0.14140000  0.02880000  1.0 0.5454883789
C  C54  1  0.09250000  0.35860000  0.02880000  1.0 0.5454883789
C  C55  1  0.90750000  0.85860000  0.47120000  1.0 0.5454883789
C  C56  1  0.59250000  0.64140000  0.47120000  1.0 0.5454883789
C  C57  1  0.84770000  0.06190000  0.29770000  1.0 0.5128480835
C  C58  1  0.65230000  0.43810000  0.29770000  1.0 0.5128480835
C  C59  1  0.34770000  0.93810000  0.20230000  1.0 0.5128480835
C  C60  1  0.15230000  0.56190000  0.20230000  1.0 0.5128480835
C  C61  1  0.15230000  0.93810000  0.70230000  1.0 0.5128480835
C  C62  1  0.34770000  0.56190000  0.70230000  1.0 0.5128480835
C  C63  1  0.65230000  0.06190000  0.79770000  1.0 0.5128480835
C  C64  1  0.84770000  0.43810000  0.79770000  1.0 0.5128480835
C  C65  1  0.87800000  0.99580000  0.24640000  1.0 0.099771944
C  C66  1  0.62200000  0.50420000  0.24640000  1.0 0.099771944
C  C67  1  0.37800000  0.00420000  0.25360000  1.0 0.099771944
C  C68  1  0.12200000  0.49580000  0.25360000  1.0 0.099771944
C  C69  1  0.12200000  0.00420000  0.75360000  1.0 0.099771944
C  C70  1  0.37800000  0.49580000  0.75360000  1.0 0.099771944
C  C71  1  0.62200000  0.99580000  0.74640000  1.0 0.099771944
C  C72  1  0.87800000  0.50420000  0.74640000  1.0 0.099771944
C  C73  1  0.94860000  0.95270000  0.26090000  1.0 -0.1226016613
C  C74  1  0.55140000  0.54730000  0.26090000  1.0 -0.1226016613
C  C75  1  0.44860000  0.04730000  0.23910000  1.0 -0.1226016613
C  C76  1  0.05140000  0.45270000  0.23910000  1.0 -0.1226016613
C  C77  1  0.05140000  0.04730000  0.73910000  1.0 -0.1226016613
C  C78  1  0.44860000  0.45270000  0.73910000  1.0 -0.1226016613
C  C79  1  0.55140000  0.95270000  0.76090000  1.0 -0.1226016613
C  C80  1  0.94860000  0.54730000  0.76090000  1.0 -0.1226016613
C  C81  1  0.97910000  0.90430000  0.20850000  1.0 -0.0547100672
C  C82  1  0.52090000  0.59570000  0.20850000  1.0 -0.0547100672
C  C83  1  0.47910000  0.09570000  0.29150000  1.0 -0.0551400365
C  C84  1  0.02090000  0.40430000  0.29150000  1.0 -0.0547100672
C  C85  1  0.02090000  0.09570000  0.79150000  1.0 -0.0551400365
C  C86  1  0.47910000  0.40430000  0.79150000  1.0 -0.0547100672
C  C87  1  0.52090000  0.90430000  0.70850000  1.0 -0.0547100672
C  C88  1  0.97910000  0.59570000  0.70850000  1.0 -0.0547100672
C  C89  1  0.93840000  0.89840000  0.14490000  1.0 -0.0414707427
C  C90  1  0.56160000  0.60160000  0.14490000  1.0 -0.0414707427
C  C91  1  0.43840000  0.10160000  0.35510000  1.0 -0.0414707427
C  C92  1  0.06160000  0.39840000  0.35510000  1.0 -0.0414707427
C  C93  1  0.06160000  0.10160000  0.85510000  1.0 -0.0414707427
C  C94  1  0.43840000  0.39840000  0.85510000  1.0 -0.0414707427
C  C95  1  0.56160000  0.89840000  0.64490000  1.0 -0.0414707427
C  C96  1  0.93840000  0.60160000  0.64490000  1.0 -0.0414707427
C  C97  1  0.86410000  0.93860000  0.13600000  1.0 0.0602122728
C  C98  1  0.63590000  0.56140000  0.13600000  1.0 0.0602122728
C  C99  1  0.36410000  0.06140000  0.36400000  1.0 0.0602122728
C  C100  1  0.13590000  0.43860000  0.36400000  1.0 0.0602122728
C  C101  1  0.13590000  0.06140000  0.86400000  1.0 0.0602122728
C  C102  1  0.36410000  0.43860000  0.86400000  1.0 0.0602122728
C  C103  1  0.63590000  0.93860000  0.63600000  1.0 0.0602122728
C  C104  1  0.86410000  0.56140000  0.63600000  1.0 0.0602122728
C  C105  1  0.97280000  0.84870000  0.08480000  1.0 0.5306141643
C  C106  1  0.52720000  0.65130000  0.08480000  1.0 0.5306141643
C  C107  1  0.47280000  0.15130000  0.41520000  1.0 0.5306141643
C  C108  1  0.02720000  0.34870000  0.41520000  1.0 0.5306141643
C  C109  1  0.02720000  0.15130000  0.91520000  1.0 0.5306141643
C  C110  1  0.47280000  0.34870000  0.91520000  1.0 0.5306141643
C  C111  1  0.52720000  0.84870000  0.58480000  1.0 0.5306141643
C  C112  1  0.97280000  0.65130000  0.58480000  1.0 0.5306141643
C  C113  1  0.62870000  0.95570000  0.27900000  1.0 0.5454883789
C  C114  1  0.87130000  0.54430000  0.27900000  1.0 0.5454883789
C  C115  1  0.12870000  0.04430000  0.22100000  1.0 0.5454883789
C  C116  1  0.37130000  0.45570000  0.22100000  1.0 0.5454883789
C  C117  1  0.37130000  0.04430000  0.72100000  1.0 0.5454883789
C  C118  1  0.12870000  0.45570000  0.72100000  1.0 0.5454883789
C  C119  1  0.87130000  0.95570000  0.77900000  1.0 0.5454883789
C  C120  1  0.62870000  0.54430000  0.77900000  1.0 0.5454883789
C  C121  1  0.56600000  0.88960000  0.29100000  1.0 -0.0671535166
C  C122  1  0.93400000  0.61040000  0.29100000  1.0 -0.0671535166
C  C123  1  0.06600000  0.11040000  0.20900000  1.0 -0.0671535166
C  C124  1  0.43400000  0.38960000  0.20900000  1.0 -0.0671535166
C  C125  1  0.43400000  0.11040000  0.70900000  1.0 -0.0671535166
C  C126  1  0.06600000  0.38960000  0.70900000  1.0 -0.0671535166
C  C127  1  0.93400000  0.88960000  0.79100000  1.0 -0.0671535166
C  C128  1  0.56600000  0.61040000  0.79100000  1.0 -0.0671535166
C  C129  1  0.54610000  0.86940000  0.36320000  1.0 0.1091139732
C  C130  1  0.95390000  0.63060000  0.36320000  1.0 0.1091139732
C  C131  1  0.04610000  0.13060000  0.13680000  1.0 0.1091139732
C  C132  1  0.45390000  0.36940000  0.13680000  1.0 0.1091139732
C  C133  1  0.45390000  0.13060000  0.63680000  1.0 0.1091139732
C  C134  1  0.04610000  0.36940000  0.63680000  1.0 0.1091139732
C  C135  1  0.95390000  0.86940000  0.86320000  1.0 0.1091139732
C  C136  1  0.54610000  0.63060000  0.86320000  1.0 0.1091139732
C  C137  1  0.45470000  0.77120000  0.32390000  1.0 0.099771944
C  C138  1  0.04530000  0.72880000  0.32390000  1.0 0.099771944
C  C139  1  0.95470000  0.22880000  0.17610000  1.0 0.099771944
C  C140  1  0.54530000  0.27120000  0.17610000  1.0 0.099771944
C  C141  1  0.54530000  0.22880000  0.67610000  1.0 0.099771944
C  C142  1  0.95470000  0.27120000  0.67610000  1.0 0.099771944
C  C143  1  0.04530000  0.77120000  0.82390000  1.0 0.099771944
C  C144  1  0.45470000  0.72880000  0.82390000  1.0 0.099771944
C  C145  1  0.46860000  0.79170000  0.25340000  1.0 -0.1140164503
C  C146  1  0.03140000  0.70830000  0.25340000  1.0 -0.1140164503
C  C147  1  0.96860000  0.20830000  0.24660000  1.0 -0.1140164503
C  C148  1  0.53140000  0.29170000  0.24660000  1.0 -0.1140164503
C  C149  1  0.53140000  0.20830000  0.74660000  1.0 -0.1140164503
C  C150  1  0.96860000  0.29170000  0.74660000  1.0 -0.1140164503
C  C151  1  0.03140000  0.79170000  0.75340000  1.0 -0.1140164503
C  C152  1  0.46860000  0.70830000  0.75340000  1.0 -0.1140164503
C  C153  1  0.52660000  0.85100000  0.23880000  1.0 -0.0414707427
C  C154  1  0.97340000  0.64900000  0.23880000  1.0 -0.0414707427
C  C155  1  0.02660000  0.14900000  0.26120000  1.0 -0.0414707427
C  C156  1  0.47340000  0.35100000  0.26120000  1.0 -0.0414707427
C  C157  1  0.47340000  0.14900000  0.76120000  1.0 -0.0414707427
C  C158  1  0.02660000  0.35100000  0.76120000  1.0 -0.0414707427
C  C159  1  0.97340000  0.85100000  0.73880000  1.0 -0.0414707427
C  C160  1  0.52660000  0.64900000  0.73880000  1.0 -0.0414707427
C  C161  1  0.39730000  0.70410000  0.34490000  1.0 0.5306141643
C  C162  1  0.10270000  0.79590000  0.34490000  1.0 0.5306141643
C  C163  1  0.89730000  0.29590000  0.15510000  1.0 0.5306141643
C  C164  1  0.60270000  0.20410000  0.15510000  1.0 0.5306141643
C  C165  1  0.60270000  0.29590000  0.65510000  1.0 0.5306141643
C  C166  1  0.89730000  0.20410000  0.65510000  1.0 0.5306141643
C  C167  1  0.10270000  0.70410000  0.84490000  1.0 0.5306141643
C  C168  1  0.39730000  0.79590000  0.84490000  1.0 0.5306141643
N  N1  1  0.69750000  0.02460000  0.07570000  1.0 -0.3091871677
N  N2  1  0.80250000  0.47540000  0.07570000  1.0 -0.3091871677
N  N3  1  0.19750000  0.97540000  0.42430000  1.0 -0.3091871677
N  N4  1  0.30250000  0.52460000  0.42430000  1.0 -0.3091871677
N  N5  1  0.30250000  0.97540000  0.92430000  1.0 -0.3091871677
N  N6  1  0.19750000  0.52460000  0.92430000  1.0 -0.3091871677
N  N7  1  0.80250000  0.02460000  0.57570000  1.0 -0.3091871677
N  N8  1  0.69750000  0.47540000  0.57570000  1.0 -0.3091871677
N  N9  1  0.83260000  0.98820000  0.18690000  1.0 -0.3091871677
N  N10  1  0.66740000  0.51180000  0.18690000  1.0 -0.3091871677
N  N11  1  0.33260000  0.01180000  0.31310000  1.0 -0.3091871677
N  N12  1  0.16740000  0.48820000  0.31310000  1.0 -0.3091871677
N  N13  1  0.16740000  0.01180000  0.81310000  1.0 -0.3091871677
N  N14  1  0.33260000  0.48820000  0.81310000  1.0 -0.3091871677
N  N15  1  0.66740000  0.98820000  0.68690000  1.0 -0.3091871677
N  N16  1  0.83260000  0.51180000  0.68690000  1.0 -0.3091871677
N  N17  1  0.49290000  0.80990000  0.37750000  1.0 -0.2752067106
N  N18  1  0.00710000  0.69010000  0.37750000  1.0 -0.2752067106
N  N19  1  0.99290000  0.19010000  0.12250000  1.0 -0.2752067106
N  N20  1  0.50710000  0.30990000  0.12250000  1.0 -0.2752067106
N  N21  1  0.50710000  0.19010000  0.62250000  1.0 -0.2752067106
N  N22  1  0.99290000  0.30990000  0.62250000  1.0 -0.2752067106
N  N23  1  0.00710000  0.80990000  0.87750000  1.0 -0.2752067106
N  N24  1  0.49290000  0.69010000  0.87750000  1.0 -0.2752067106
O  O1  1  0.80000000  0.14550000  0.11660000  1.0 -0.5320025267
O  O2  1  0.70000000  0.35450000  0.11660000  1.0 -0.5320025267
O  O3  1  0.30000000  0.85450000  0.38340000  1.0 -0.5320025267
O  O4  1  0.20000000  0.64550000  0.38340000  1.0 -0.5320025267
O  O5  1  0.20000000  0.85450000  0.88340000  1.0 -0.5320025267
O  O6  1  0.30000000  0.64550000  0.88340000  1.0 -0.5320025267
O  O7  1  0.70000000  0.14550000  0.61660000  1.0 -0.5320025267
O  O8  1  0.80000000  0.35450000  0.61660000  1.0 -0.5320025267
O  O9  1  0.85650000  0.15150000  0.00970000  1.0 -0.4871273451
O  O10  1  0.64350000  0.34850000  0.00970000  1.0 -0.4871273451
O  O11  1  0.35650000  0.84850000  0.49030000  1.0 -0.4871273451
O  O12  1  0.14350000  0.65150000  0.49030000  1.0 -0.4871273451
O  O13  1  0.14350000  0.84850000  0.99030000  1.0 -0.4871273451
O  O14  1  0.35650000  0.65150000  0.99030000  1.0 -0.4871273451
O  O15  1  0.64350000  0.15150000  0.50970000  1.0 -0.481227546
O  O16  1  0.85650000  0.34850000  0.50970000  1.0 -0.4871273451
O  O17  1  0.60580000  0.81910000  0.91910000  1.0 -0.4871273451
O  O18  1  0.89420000  0.68090000  0.91910000  1.0 -0.4871273451
O  O19  1  0.10580000  0.18090000  0.58090000  1.0 -0.4871273451
O  O20  1  0.39420000  0.31910000  0.58090000  1.0 -0.4871273451
O  O21  1  0.39420000  0.18090000  0.08090000  1.0 -0.4871273451
O  O22  1  0.10580000  0.31910000  0.08090000  1.0 -0.4871273451
O  O23  1  0.89420000  0.81910000  0.41910000  1.0 -0.4871273451
O  O24  1  0.60580000  0.68090000  0.41910000  1.0 -0.4871273451
O  O25  1  0.53470000  0.84190000  0.01330000  1.0 -0.5213211173
O  O26  1  0.96530000  0.65810000  0.01330000  1.0 -0.5213211173
O  O27  1  0.03470000  0.15810000  0.48670000  1.0 -0.5213211173
O  O28  1  0.46530000  0.34190000  0.48670000  1.0 -0.5213211173
O  O29  1  0.46530000  0.15810000  0.98670000  1.0 -0.5213211173
O  O30  1  0.03470000  0.34190000  0.98670000  1.0 -0.5213211173
O  O31  1  0.96530000  0.84190000  0.51330000  1.0 -0.5213211173
O  O32  1  0.53470000  0.65810000  0.51330000  1.0 -0.5213211173
O  O33  1  0.78850000  0.10680000  0.27450000  1.0 -0.5320025267
O  O34  1  0.71150000  0.39320000  0.27450000  1.0 -0.5320025267
O  O35  1  0.28850000  0.89320000  0.22550000  1.0 -0.5320025267
O  O36  1  0.21150000  0.60680000  0.22550000  1.0 -0.5320025267
O  O37  1  0.21150000  0.89320000  0.72550000  1.0 -0.5320025267
O  O38  1  0.28850000  0.60680000  0.72550000  1.0 -0.5320025267
O  O39  1  0.71150000  0.10680000  0.77450000  1.0 -0.5320025267
O  O40  1  0.78850000  0.39320000  0.77450000  1.0 -0.5320025267
O  O41  1  0.88590000  0.07100000  0.35240000  1.0 -0.4274796167
O  O42  1  0.61410000  0.42900000  0.35240000  1.0 -0.4274796167
O  O43  1  0.38590000  0.92900000  0.14760000  1.0 -0.4274796167
O  O44  1  0.11410000  0.57100000  0.14760000  1.0 -0.4274796167
O  O45  1  0.11410000  0.92900000  0.64760000  1.0 -0.4274796167
O  O46  1  0.38590000  0.57100000  0.64760000  1.0 -0.4274796167
O  O47  1  0.61410000  0.07100000  0.85240000  1.0 -0.4274796167
O  O48  1  0.88590000  0.42900000  0.85240000  1.0 -0.4274796167
O  O49  1  0.02900000  0.79670000  0.10090000  1.0 -0.4871273451
O  O50  1  0.47100000  0.70330000  0.10090000  1.0 -0.4871273451
O  O51  1  0.52900000  0.20330000  0.39910000  1.0 -0.4871273451
O  O52  1  0.97100000  0.29670000  0.39910000  1.0 -0.4871273451
O  O53  1  0.97100000  0.20330000  0.89910000  1.0 -0.4871273451
O  O54  1  0.52900000  0.29670000  0.89910000  1.0 -0.4871273451
O  O55  1  0.47100000  0.79670000  0.60090000  1.0 -0.4871273451
O  O56  1  0.02900000  0.70330000  0.60090000  1.0 -0.4871273451
O  O57  1  0.94800000  0.85470000  0.02400000  1.0 -0.5213211173
O  O58  1  0.55200000  0.64530000  0.02400000  1.0 -0.5213211173
O  O59  1  0.44800000  0.14530000  0.47600000  1.0 -0.5213211173
O  O60  1  0.05200000  0.35470000  0.47600000  1.0 -0.5213211173
O  O61  1  0.05200000  0.14530000  0.97600000  1.0 -0.5213211173
O  O62  1  0.44800000  0.35470000  0.97600000  1.0 -0.5213211173
O  O63  1  0.55200000  0.85470000  0.52400000  1.0 -0.5213211173
O  O64  1  0.94800000  0.64530000  0.52400000  1.0 -0.5213211173
O  O65  1  0.63380000  0.97940000  0.21490000  1.0 -0.5603320258
O  O66  1  0.86620000  0.52060000  0.21490000  1.0 -0.5603320258
O  O67  1  0.13380000  0.02060000  0.28510000  1.0 -0.5603320258
O  O68  1  0.36620000  0.47940000  0.28510000  1.0 -0.5603320258
O  O69  1  0.36620000  0.02060000  0.78510000  1.0 -0.5603320258
O  O70  1  0.13380000  0.47940000  0.78510000  1.0 -0.5603320258
O  O71  1  0.86620000  0.97940000  0.71490000  1.0 -0.5603320258
O  O72  1  0.63380000  0.52060000  0.71490000  1.0 -0.5603320258
O  O73  1  0.66780000  0.98480000  0.32480000  1.0 -0.4552076416
O  O74  1  0.83220000  0.51520000  0.32480000  1.0 -0.4544627027
O  O75  1  0.16780000  0.01520000  0.17520000  1.0 -0.4544627027
O  O76  1  0.33220000  0.48480000  0.17520000  1.0 -0.4544627027
O  O77  1  0.33220000  0.01520000  0.67520000  1.0 -0.4544627027
O  O78  1  0.16780000  0.48480000  0.67520000  1.0 -0.4544627027
O  O79  1  0.83220000  0.98480000  0.82480000  1.0 -0.4544627027
O  O80  1  0.66780000  0.51520000  0.82480000  1.0 -0.4544627027
O  O81  1  0.36020000  0.66800000  0.29530000  1.0 -0.5038006411
O  O82  1  0.13980000  0.83200000  0.29530000  1.0 -0.5038006411
O  O83  1  0.86020000  0.33200000  0.20470000  1.0 -0.5038006411
O  O84  1  0.63980000  0.16800000  0.20470000  1.0 -0.5038006411
O  O85  1  0.63980000  0.33200000  0.70470000  1.0 -0.5038006411
O  O86  1  0.86020000  0.16800000  0.70470000  1.0 -0.5038006411
O  O87  1  0.13980000  0.66800000  0.79530000  1.0 -0.5038006411
O  O88  1  0.36020000  0.83200000  0.79530000  1.0 -0.5038006411
O  O89  1  0.39290000  0.68400000  0.40690000  1.0 -0.481227546
O  O90  1  0.10710000  0.81600000  0.40690000  1.0 -0.481227546
O  O91  1  0.89290000  0.31600000  0.09310000  1.0 -0.481227546
O  O92  1  0.60710000  0.18400000  0.09310000  1.0 -0.481227546
O  O93  1  0.60710000  0.31600000  0.59310000  1.0 -0.481227546
O  O94  1  0.89290000  0.18400000  0.59310000  1.0 -0.481227546
O  O95  1  0.10710000  0.68400000  0.90690000  1.0 -0.481227546
O  O96  1  0.39290000  0.81600000  0.90690000  1.0 -0.481227546
O  O97  1  0.35810000  0.81110000  0.04670000  1.0 -0.0414707427
O  O98  1  0.14190000  0.68890000  0.04670000  1.0 -0.0414707427
O  O99  1  0.85810000  0.18890000  0.45330000  1.0 -0.0414707427
O  O100  1  0.64190000  0.31110000  0.45330000  1.0 -0.0414707427
O  O101  1  0.64190000  0.18890000  0.95330000  1.0 -0.0414707427
O  O102  1  0.85810000  0.31110000  0.95330000  1.0 -0.0414707427
O  O103  1  0.14190000  0.81110000  0.54670000  1.0 -0.0414707427
O  O104  1  0.35810000  0.68890000  0.54670000  1.0 -0.0414707427
