# DDEC6 charges by PACMAN v1.1 (https://github.com/mtap-research/PACMAN-charge/)
data_ZIDMIL_ASR_pacman
_symmetry_space_group_name_H-M   'P 1'
_cell_length_a   14.49760000
_cell_length_b   14.21680000
_cell_length_c   22.79700000
_cell_angle_alpha   90.00000000
_cell_angle_beta   97.80560000
_cell_angle_gamma   90.00000000
_symmetry_Int_Tables_number   1
_chemical_formula_structural   CaH3C8NO4
_chemical_formula_sum   'Ca8 H24 C64 N8 O32'
_cell_volume   4655.14254316
_cell_formula_units_Z   8
loop_
 _symmetry_equiv_pos_site_id
 _symmetry_equiv_pos_as_xyz
  1  'x, y, z'
loop_
 _atom_site_type_symbol
 _atom_site_label
 _atom_site_symmetry_multiplicity
 _atom_site_fract_x
 _atom_site_fract_y
 _atom_site_fract_z
 _atom_site_occupancy
 _atom_site_charge
Ca  Ca1  1  0.24470000  0.24834000  0.25578000  1.0 1.278114186
Ca  Ca2  1  0.33695000  0.37055000  0.13998000  1.0 1.368406163
Ca  Ca3  1  0.75530000  0.74834000  0.24422000  1.0 1.278114186
Ca  Ca4  1  0.66305000  0.87055000  0.36002000  1.0 1.368406163
Ca  Ca5  1  0.75530000  0.75166000  0.74422000  1.0 1.278114186
Ca  Ca6  1  0.66305000  0.62945000  0.86002000  1.0 1.368406163
Ca  Ca7  1  0.24470000  0.25166000  0.75578000  1.0 1.278114186
Ca  Ca8  1  0.33695000  0.12945000  0.63998000  1.0 1.368406163
H  H1  1  0.88370000  0.60950000  0.08330000  1.0 0.1288137089
H  H2  1  0.51120000  0.51320000  0.26300000  1.0 0.117352323
H  H3  1  0.09840000  0.43000000  0.08850000  1.0 0.0992363332
H  H4  1  0.00690000  0.51130000  0.23870000  1.0 0.1288137089
H  H5  1  0.61020000  0.62560000  0.41990000  1.0 0.1142392172
H  H6  1  0.42290000  0.41680000  0.41030000  1.0 0.117352323
H  H7  1  0.11630000  0.10950000  0.41670000  1.0 0.1288137089
H  H8  1  0.48880000  0.01320000  0.23700000  1.0 0.117352323
H  H9  1  0.90160000  0.93000000  0.41150000  1.0 0.0992363332
H  H10  1  0.99310000  0.01130000  0.26130000  1.0 0.1288137089
H  H11  1  0.38980000  0.12560000  0.08010000  1.0 0.1142392172
H  H12  1  0.57710000  0.91680000  0.08970000  1.0 0.117352323
H  H13  1  0.11630000  0.39050000  0.91670000  1.0 0.1288137089
H  H14  1  0.48880000  0.48680000  0.73700000  1.0 0.117352323
H  H15  1  0.90160000  0.57000000  0.91150000  1.0 0.0992363332
H  H16  1  0.99310000  0.48870000  0.76130000  1.0 0.1288137089
H  H17  1  0.38980000  0.37440000  0.58010000  1.0 0.1142392172
H  H18  1  0.57710000  0.58320000  0.58970000  1.0 0.117352323
H  H19  1  0.88370000  0.89050000  0.58330000  1.0 0.1288137089
H  H20  1  0.51120000  0.98680000  0.76300000  1.0 0.117352323
H  H21  1  0.09840000  0.07000000  0.58850000  1.0 0.0992363332
H  H22  1  0.00690000  0.98870000  0.73870000  1.0 0.1288137089
H  H23  1  0.61020000  0.87440000  0.91990000  1.0 0.1142392172
H  H24  1  0.42290000  0.08320000  0.91030000  1.0 0.117352323
C  C1  1  0.93570000  0.56860000  0.16572000  1.0 -0.0082275831
C  C2  1  0.57150000  0.57950000  0.33669000  1.0 -0.0330113607
C  C3  1  0.45740000  0.45490000  0.33076000  1.0 -0.0189579506
C  C4  1  0.51760000  0.52060000  0.42531000  1.0 0.1288137089
C  C5  1  0.98910000  0.51920000  0.07556000  1.0 0.1389906867
C  C6  1  0.06290000  0.45930000  0.16851000  1.0 -0.0189579506
C  C7  1  0.86970000  0.62850000  0.19617000  1.0 0.5343405767
C  C8  1  0.92880000  0.57190000  0.10479000  1.0 -0.1510564684
C  C9  1  0.51290000  0.51530000  0.30387000  1.0 -0.0980288904
C  C10  1  0.63250000  0.64230000  0.30563000  1.0 0.5739194416
C  C11  1  0.05690000  0.46400000  0.10794000  1.0 -0.1578694383
C  C12  1  0.00220000  0.51310000  0.19761000  1.0 -0.0980288904
C  C13  1  0.39230000  0.38700000  0.29529000  1.0 0.5893397195
C  C14  1  0.57250000  0.58230000  0.39745000  1.0 -0.1510564684
C  C15  1  0.13260000  0.39470000  0.20263000  1.0 0.5739194416
C  C16  1  0.46000000  0.45760000  0.39184000  1.0 -0.1510564684
C  C17  1  0.06430000  0.06860000  0.33428000  1.0 -0.0082275831
C  C18  1  0.42850000  0.07950000  0.16331000  1.0 -0.0330113607
C  C19  1  0.54260000  0.95490000  0.16924000  1.0 -0.0189579506
C  C20  1  0.48240000  0.02060000  0.07469000  1.0 0.1288137089
C  C21  1  0.01090000  0.01920000  0.42444000  1.0 0.1389906867
C  C22  1  0.93710000  0.95930000  0.33149000  1.0 -0.0189579506
C  C23  1  0.13030000  0.12850000  0.30383000  1.0 0.5343405767
C  C24  1  0.07120000  0.07190000  0.39521000  1.0 -0.1510564684
C  C25  1  0.48710000  0.01530000  0.19613000  1.0 -0.0980288904
C  C26  1  0.36750000  0.14230000  0.19437000  1.0 0.5739194416
C  C27  1  0.94310000  0.96400000  0.39206000  1.0 -0.1578694383
C  C28  1  0.99780000  0.01310000  0.30239000  1.0 -0.0980288904
C  C29  1  0.60770000  0.88700000  0.20471000  1.0 0.5893397195
C  C30  1  0.42750000  0.08230000  0.10255000  1.0 -0.1510564684
C  C31  1  0.86740000  0.89470000  0.29737000  1.0 0.5739194416
C  C32  1  0.54000000  0.95760000  0.10816000  1.0 -0.1510564684
C  C33  1  0.06430000  0.43140000  0.83428000  1.0 -0.0082275831
C  C34  1  0.42850000  0.42050000  0.66331000  1.0 -0.0330113607
C  C35  1  0.54260000  0.54510000  0.66924000  1.0 -0.0189579506
C  C36  1  0.48240000  0.47940000  0.57469000  1.0 0.1288137089
C  C37  1  0.01090000  0.48080000  0.92444000  1.0 0.1389906867
C  C38  1  0.93710000  0.54070000  0.83149000  1.0 -0.0189579506
C  C39  1  0.13030000  0.37150000  0.80383000  1.0 0.5343405767
C  C40  1  0.07120000  0.42810000  0.89521000  1.0 -0.1510564684
C  C41  1  0.48710000  0.48470000  0.69613000  1.0 -0.0980288904
C  C42  1  0.36750000  0.35770000  0.69437000  1.0 0.575453387
C  C43  1  0.94310000  0.53600000  0.89206000  1.0 -0.1578694383
C  C44  1  0.99780000  0.48690000  0.80239000  1.0 -0.0980288904
C  C45  1  0.60770000  0.61300000  0.70471000  1.0 0.5893397195
C  C46  1  0.42750000  0.41770000  0.60255000  1.0 -0.1510564684
C  C47  1  0.86740000  0.60530000  0.79737000  1.0 0.5739194416
C  C48  1  0.54000000  0.54240000  0.60816000  1.0 -0.1510564684
C  C49  1  0.93570000  0.93140000  0.66572000  1.0 -0.0082275831
C  C50  1  0.57150000  0.92050000  0.83669000  1.0 -0.0330113607
C  C51  1  0.45740000  0.04510000  0.83076000  1.0 -0.0189579506
C  C52  1  0.51760000  0.97940000  0.92531000  1.0 0.1288137089
C  C53  1  0.98910000  0.98080000  0.57556000  1.0 0.1389906867
C  C54  1  0.06290000  0.04070000  0.66851000  1.0 -0.0189579506
C  C55  1  0.86970000  0.87150000  0.69617000  1.0 0.5343405767
C  C56  1  0.92880000  0.92810000  0.60479000  1.0 -0.1510564684
C  C57  1  0.51290000  0.98470000  0.80387000  1.0 -0.0980288904
C  C58  1  0.63250000  0.85770000  0.80563000  1.0 0.575453387
C  C59  1  0.05690000  0.03600000  0.60794000  1.0 -0.1578694383
C  C60  1  0.00220000  0.98690000  0.69761000  1.0 -0.0980288904
C  C61  1  0.39230000  0.11300000  0.79529000  1.0 0.5893397195
C  C62  1  0.57250000  0.91770000  0.89745000  1.0 -0.1510564684
C  C63  1  0.13260000  0.10530000  0.70263000  1.0 0.5739194416
C  C64  1  0.46000000  0.04240000  0.89184000  1.0 -0.1510564684
N  N1  1  0.52610000  0.52710000  0.48870000  1.0 -0.1287540147
N  N2  1  0.97640000  0.52750000  0.01252000  1.0 -0.1287540147
N  N3  1  0.47390000  0.02710000  0.01130000  1.0 -0.1287540147
N  N4  1  0.02360000  0.02750000  0.48748000  1.0 -0.1287540147
N  N5  1  0.47390000  0.47290000  0.51130000  1.0 -0.1287540147
N  N6  1  0.02360000  0.47250000  0.98748000  1.0 -0.1287540147
N  N7  1  0.52610000  0.97290000  0.98870000  1.0 -0.1287540147
N  N8  1  0.97640000  0.97250000  0.51252000  1.0 -0.1287540147
O  O1  1  0.80830000  0.67250000  0.16370000  1.0 -0.5508717732
O  O2  1  0.19301000  0.35819000  0.17438000  1.0 -0.6940968769
O  O3  1  0.87931000  0.63256000  0.25125000  1.0 -0.5614000248
O  O4  1  0.64431000  0.62449000  0.25419000  1.0 -0.5329582231
O  O5  1  0.12787000  0.37680000  0.25515000  1.0 -0.5141818957
O  O6  1  0.67112000  0.71081000  0.33478000  1.0 -0.6827502982
O  O7  1  0.34786000  0.33210000  0.32280000  1.0 -0.5508717732
O  O8  1  0.38769000  0.38780000  0.24042000  1.0 -0.6607260095
O  O9  1  0.19170000  0.17250000  0.33630000  1.0 -0.5508717732
O  O10  1  0.80699000  0.85819000  0.32562000  1.0 -0.6940968769
O  O11  1  0.12069000  0.13256000  0.24875000  1.0 -0.5614000248
O  O12  1  0.35569000  0.12449000  0.24581000  1.0 -0.5329582231
O  O13  1  0.87213000  0.87680000  0.24485000  1.0 -0.5152514117
O  O14  1  0.32888000  0.21081000  0.16522000  1.0 -0.6827502982
O  O15  1  0.65214000  0.83210000  0.17720000  1.0 -0.5508717732
O  O16  1  0.61231000  0.88780000  0.25958000  1.0 -0.6607260095
O  O17  1  0.19170000  0.32750000  0.83630000  1.0 -0.5508717732
O  O18  1  0.80699000  0.64181000  0.82562000  1.0 -0.6940968769
O  O19  1  0.12069000  0.36744000  0.74875000  1.0 -0.5614000248
O  O20  1  0.35569000  0.37551000  0.74581000  1.0 -0.5329582231
O  O21  1  0.87213000  0.62320000  0.74485000  1.0 -0.5152514117
O  O22  1  0.32888000  0.28919000  0.66522000  1.0 -0.6827502982
O  O23  1  0.65214000  0.66790000  0.67720000  1.0 -0.5508717732
O  O24  1  0.61231000  0.61220000  0.75958000  1.0 -0.6607260095
O  O25  1  0.80830000  0.82750000  0.66370000  1.0 -0.5508717732
O  O26  1  0.19301000  0.14181000  0.67438000  1.0 -0.6940968769
O  O27  1  0.87931000  0.86744000  0.75125000  1.0 -0.5614000248
O  O28  1  0.64431000  0.87551000  0.75419000  1.0 -0.5329582231
O  O29  1  0.12787000  0.12320000  0.75515000  1.0 -0.5152514117
O  O30  1  0.67112000  0.78919000  0.83478000  1.0 -0.6827502982
O  O31  1  0.34786000  0.16790000  0.82280000  1.0 -0.5508717732
O  O32  1  0.38769000  0.11220000  0.74042000  1.0 -0.6607260095
