# DDEC6 charges by PACMAN v1.1 (https://github.com/mtap-research/PACMAN-charge/)
data_ZIFVIW_ASR_pacman
_symmetry_space_group_name_H-M   'P 1'
_cell_length_a   18.56760000
_cell_length_b   18.56760000
_cell_length_c   6.80560000
_cell_angle_alpha   90.00000000
_cell_angle_beta   90.00000000
_cell_angle_gamma   120.00000000
_symmetry_Int_Tables_number   1
_chemical_formula_structural   CuH13C12O5
_chemical_formula_sum   'Cu6 H78 C72 O30'
_cell_volume   2031.92930868
_cell_formula_units_Z   6
loop_
 _symmetry_equiv_pos_site_id
 _symmetry_equiv_pos_as_xyz
  1  'x, y, z'
loop_
 _atom_site_type_symbol
 _atom_site_label
 _atom_site_symmetry_multiplicity
 _atom_site_fract_x
 _atom_site_fract_y
 _atom_site_fract_z
 _atom_site_occupancy
 _atom_site_charge
Cu  Cu1  1  0.47634000  0.52366000  0.65545000  1.0 0.8086295238
Cu  Cu2  1  0.04732000  0.52366000  0.65545000  1.0 0.8086295238
Cu  Cu3  1  0.47634000  0.95268000  0.65545000  1.0 0.8086295238
Cu  Cu4  1  0.95268000  0.47634000  0.34455000  1.0 0.8086295238
Cu  Cu5  1  0.52366000  0.47634000  0.34455000  1.0 0.8086295238
Cu  Cu6  1  0.52366000  0.04732000  0.34455000  1.0 0.8086295238
H  H1  1  0.70637000  0.62956000  0.98960000  1.0 0.1475338624
H  H2  1  0.95798000  0.74541000  0.18266000  1.0 0.1026011775
H  H3  1  0.92176000  0.66640000  0.31803000  1.0 0.1097173913
H  H4  1  0.97339000  0.78507000  0.50936000  1.0 0.0755118589
H  H5  1  0.91323000  0.80948000  0.40563000  1.0 0.1097173913
H  H6  1  0.87708000  0.73062000  0.54076000  1.0 0.1026011775
H  H7  1  0.92319000  0.29363000  0.98960000  1.0 0.1475338624
H  H8  1  0.78743000  0.04202000  0.18266000  1.0 0.1026011775
H  H9  1  0.74464000  0.07824000  0.31803000  1.0 0.1097173913
H  H10  1  0.81168000  0.02661000  0.50936000  1.0 0.0755118589
H  H11  1  0.89625000  0.08677000  0.40563000  1.0 0.1097173913
H  H12  1  0.85354000  0.12292000  0.54076000  1.0 0.0948128562
H  H13  1  0.37044000  0.07681000  0.98960000  1.0 0.1475338624
H  H14  1  0.25459000  0.21257000  0.18266000  1.0 0.1026011775
H  H15  1  0.33360000  0.25536000  0.31803000  1.0 0.1097173913
H  H16  1  0.21493000  0.18832000  0.50936000  1.0 0.0755118589
H  H17  1  0.19052000  0.10375000  0.40563000  1.0 0.1097173913
H  H18  1  0.26938000  0.14646000  0.54076000  1.0 0.0948128562
H  H19  1  0.07681000  0.37044000  0.01040000  1.0 0.1475338624
H  H20  1  0.21257000  0.25459000  0.81734000  1.0 0.1026011775
H  H21  1  0.25536000  0.33360000  0.68197000  1.0 0.1097173913
H  H22  1  0.18832000  0.21493000  0.49064000  1.0 0.0755118589
H  H23  1  0.10375000  0.19052000  0.59437000  1.0 0.1097173913
H  H24  1  0.14646000  0.26938000  0.45924000  1.0 0.0948128562
H  H25  1  0.62956000  0.70637000  0.01040000  1.0 0.1475338624
H  H26  1  0.74541000  0.95798000  0.81734000  1.0 0.1026011775
H  H27  1  0.66640000  0.92176000  0.68197000  1.0 0.1097173913
H  H28  1  0.78507000  0.97339000  0.49064000  1.0 0.0755118589
H  H29  1  0.80948000  0.91323000  0.59437000  1.0 0.1097173913
H  H30  1  0.73062000  0.87708000  0.45924000  1.0 0.1026011775
H  H31  1  0.29363000  0.92319000  0.01040000  1.0 0.1475338624
H  H32  1  0.04202000  0.78743000  0.81734000  1.0 0.1026011775
H  H33  1  0.07824000  0.74464000  0.68197000  1.0 0.1097173913
H  H34  1  0.02661000  0.81168000  0.49064000  1.0 0.0755118589
H  H35  1  0.08677000  0.89625000  0.59437000  1.0 0.1097173913
H  H36  1  0.12292000  0.85354000  0.45924000  1.0 0.0948128562
H  H37  1  0.29363000  0.37044000  0.01040000  1.0 0.1475338624
H  H38  1  0.04202000  0.25459000  0.81734000  1.0 0.1026011775
H  H39  1  0.07824000  0.33360000  0.68197000  1.0 0.1097173913
H  H40  1  0.02661000  0.21493000  0.49064000  1.0 0.0755118589
H  H41  1  0.08677000  0.19052000  0.59437000  1.0 0.1097173913
H  H42  1  0.12292000  0.26938000  0.45924000  1.0 0.0948128562
H  H43  1  0.07681000  0.70637000  0.01040000  1.0 0.1475338624
H  H44  1  0.21257000  0.95798000  0.81734000  1.0 0.1026011775
H  H45  1  0.25536000  0.92176000  0.68197000  1.0 0.1097173913
H  H46  1  0.18832000  0.97339000  0.49064000  1.0 0.0755118589
H  H47  1  0.10375000  0.91323000  0.59437000  1.0 0.1097173913
H  H48  1  0.14646000  0.87708000  0.45924000  1.0 0.0948128562
H  H49  1  0.62956000  0.92319000  0.01040000  1.0 0.1475338624
H  H50  1  0.74541000  0.78743000  0.81734000  1.0 0.1026011775
H  H51  1  0.66640000  0.74464000  0.68197000  1.0 0.1097173913
H  H52  1  0.78507000  0.81168000  0.49064000  1.0 0.0755118589
H  H53  1  0.80948000  0.89625000  0.59437000  1.0 0.1097173913
H  H54  1  0.73062000  0.85354000  0.45924000  1.0 0.0948128562
H  H55  1  0.92319000  0.62956000  0.98960000  1.0 0.1475338624
H  H56  1  0.78743000  0.74541000  0.18266000  1.0 0.1026011775
H  H57  1  0.74464000  0.66640000  0.31803000  1.0 0.1097173913
H  H58  1  0.81168000  0.78507000  0.50936000  1.0 0.0755118589
H  H59  1  0.89625000  0.80948000  0.40563000  1.0 0.1097173913
H  H60  1  0.85354000  0.73062000  0.54076000  1.0 0.1026011775
H  H61  1  0.37044000  0.29363000  0.98960000  1.0 0.1475338624
H  H62  1  0.25459000  0.04202000  0.18266000  1.0 0.1026011775
H  H63  1  0.33360000  0.07824000  0.31803000  1.0 0.1097173913
H  H64  1  0.21493000  0.02661000  0.50936000  1.0 0.0755118589
H  H65  1  0.19052000  0.08677000  0.40563000  1.0 0.1097173913
H  H66  1  0.26938000  0.12292000  0.54076000  1.0 0.0948128562
H  H67  1  0.70637000  0.07681000  0.98960000  1.0 0.1475338624
H  H68  1  0.95798000  0.21257000  0.18266000  1.0 0.1026011775
H  H69  1  0.92176000  0.25536000  0.31803000  1.0 0.1097173913
H  H70  1  0.97339000  0.18832000  0.50936000  1.0 0.0755118589
H  H71  1  0.91323000  0.10375000  0.40563000  1.0 0.1097173913
H  H72  1  0.87708000  0.14646000  0.54076000  1.0 0.0948128562
H  H73  1  0.76479000  0.52958000  0.53449000  1.0 0.1394032549
H  H74  1  0.76479000  0.23521000  0.53449000  1.0 0.1394032549
H  H75  1  0.47042000  0.23521000  0.53449000  1.0 0.1394032549
H  H76  1  0.23521000  0.47042000  0.46551000  1.0 0.1394032549
H  H77  1  0.52958000  0.76479000  0.46551000  1.0 0.1394032549
H  H78  1  0.23521000  0.76479000  0.46551000  1.0 0.1394032549
C  C1  1  0.64071000  0.54964000  0.65570000  1.0 0.5491503339
C  C2  1  0.72294000  0.57520000  0.74890000  1.0 0.005968359
C  C3  1  0.74344000  0.61678000  0.92880000  1.0 -0.2422886406
C  C4  1  0.91420000  0.71200000  0.27550000  1.0 -0.1510466674
C  C5  1  0.92000000  0.76390000  0.44810000  1.0 -0.2665506293
C  C6  1  0.90893000  0.35929000  0.65570000  1.0 0.5491503339
C  C7  1  0.85226000  0.27706000  0.74890000  1.0 0.005968359
C  C8  1  0.87334000  0.25656000  0.92880000  1.0 -0.2422886406
C  C9  1  0.79780000  0.08580000  0.27550000  1.0 -0.1510466674
C  C10  1  0.84390000  0.08000000  0.44810000  1.0 -0.2665506293
C  C11  1  0.45036000  0.09107000  0.65570000  1.0 0.5491503339
C  C12  1  0.42480000  0.14774000  0.74890000  1.0 0.005968359
C  C13  1  0.38322000  0.12666000  0.92880000  1.0 -0.2422886406
C  C14  1  0.28800000  0.20220000  0.27550000  1.0 -0.1510466674
C  C15  1  0.23610000  0.15610000  0.44810000  1.0 -0.2665506293
C  C16  1  0.09107000  0.45036000  0.34430000  1.0 0.5491503339
C  C17  1  0.14774000  0.42480000  0.25110000  1.0 0.005968359
C  C18  1  0.12666000  0.38322000  0.07120000  1.0 -0.2422886406
C  C19  1  0.20220000  0.28800000  0.72450000  1.0 -0.1510466674
C  C20  1  0.15610000  0.23610000  0.55190000  1.0 -0.2665506293
C  C21  1  0.54964000  0.64071000  0.34430000  1.0 0.5491503339
C  C22  1  0.57520000  0.72294000  0.25110000  1.0 0.005968359
C  C23  1  0.61678000  0.74344000  0.07120000  1.0 -0.2422886406
C  C24  1  0.71200000  0.91420000  0.72450000  1.0 -0.1510466674
C  C25  1  0.76390000  0.92000000  0.55190000  1.0 -0.2665506293
C  C26  1  0.35929000  0.90893000  0.34430000  1.0 0.5491503339
C  C27  1  0.27706000  0.85226000  0.25110000  1.0 0.005968359
C  C28  1  0.25656000  0.87334000  0.07120000  1.0 -0.2422886406
C  C29  1  0.08580000  0.79780000  0.72450000  1.0 -0.1510466674
C  C30  1  0.08000000  0.84390000  0.55190000  1.0 -0.2665506293
C  C31  1  0.35929000  0.45036000  0.34430000  1.0 0.5491503339
C  C32  1  0.27706000  0.42480000  0.25110000  1.0 0.005968359
C  C33  1  0.25656000  0.38322000  0.07120000  1.0 -0.2422886406
C  C34  1  0.08580000  0.28800000  0.72450000  1.0 -0.1510466674
C  C35  1  0.08000000  0.23610000  0.55190000  1.0 -0.2665506293
C  C36  1  0.09107000  0.64071000  0.34430000  1.0 0.5491503339
C  C37  1  0.14774000  0.72294000  0.25110000  1.0 0.005968359
C  C38  1  0.12666000  0.74344000  0.07120000  1.0 -0.2422886406
C  C39  1  0.20220000  0.91420000  0.72450000  1.0 -0.1510466674
C  C40  1  0.15610000  0.92000000  0.55190000  1.0 -0.2665506293
C  C41  1  0.54964000  0.90893000  0.34430000  1.0 0.5491503339
C  C42  1  0.57520000  0.85226000  0.25110000  1.0 0.005968359
C  C43  1  0.61678000  0.87334000  0.07120000  1.0 -0.2422886406
C  C44  1  0.71200000  0.79780000  0.72450000  1.0 -0.1510466674
C  C45  1  0.76390000  0.84390000  0.55190000  1.0 -0.2665506293
C  C46  1  0.90893000  0.54964000  0.65570000  1.0 0.5491503339
C  C47  1  0.85226000  0.57520000  0.74890000  1.0 0.005968359
C  C48  1  0.87334000  0.61678000  0.92880000  1.0 -0.2422886406
C  C49  1  0.79780000  0.71200000  0.27550000  1.0 -0.1510466674
C  C50  1  0.84390000  0.76390000  0.44810000  1.0 -0.2665506293
C  C51  1  0.45036000  0.35929000  0.65570000  1.0 0.5491503339
C  C52  1  0.42480000  0.27706000  0.74890000  1.0 0.005968359
C  C53  1  0.38322000  0.25656000  0.92880000  1.0 -0.2422886406
C  C54  1  0.28800000  0.08580000  0.27550000  1.0 -0.1510466674
C  C55  1  0.23610000  0.08000000  0.44810000  1.0 -0.2665506293
C  C56  1  0.64071000  0.09107000  0.65570000  1.0 0.5491503339
C  C57  1  0.72294000  0.14774000  0.74890000  1.0 0.005968359
C  C58  1  0.74344000  0.12666000  0.92880000  1.0 -0.2422886406
C  C59  1  0.91420000  0.20220000  0.27550000  1.0 -0.1510466674
C  C60  1  0.92000000  0.15610000  0.44810000  1.0 -0.2665506293
C  C61  1  0.77780000  0.55560000  0.65660000  1.0 -0.1632178117
C  C62  1  0.81960000  0.63920000  0.01740000  1.0 0.2138662548
C  C63  1  0.77780000  0.22220000  0.65660000  1.0 -0.1632178117
C  C64  1  0.81960000  0.18040000  0.01740000  1.0 0.2138662548
C  C65  1  0.44440000  0.22220000  0.65660000  1.0 -0.1632178117
C  C66  1  0.36080000  0.18040000  0.01740000  1.0 0.2138662548
C  C67  1  0.22220000  0.44440000  0.34340000  1.0 -0.1632178117
C  C68  1  0.18040000  0.36080000  0.98260000  1.0 0.2138662548
C  C69  1  0.55560000  0.77780000  0.34340000  1.0 -0.1632178117
C  C70  1  0.63920000  0.81960000  0.98260000  1.0 0.2138662548
C  C71  1  0.22220000  0.77780000  0.34340000  1.0 -0.1632178117
C  C72  1  0.18040000  0.81960000  0.98260000  1.0 0.2138662548
O  O1  1  0.58895000  0.55888000  0.75370000  1.0 -0.4912785976
O  O2  1  0.62880000  0.51974000  0.48650000  1.0 -0.5026661892
O  O3  1  0.96993000  0.41105000  0.75370000  1.0 -0.4912785976
O  O4  1  0.89094000  0.37120000  0.48650000  1.0 -0.5026661892
O  O5  1  0.44112000  0.03007000  0.75370000  1.0 -0.4912785976
O  O6  1  0.48026000  0.10906000  0.48650000  1.0 -0.5026661892
O  O7  1  0.03007000  0.44112000  0.24630000  1.0 -0.4912785976
O  O8  1  0.10906000  0.48026000  0.51350000  1.0 -0.5026661892
O  O9  1  0.55888000  0.58895000  0.24630000  1.0 -0.4912785976
O  O10  1  0.51974000  0.62880000  0.51350000  1.0 -0.5026661892
O  O11  1  0.41105000  0.96993000  0.24630000  1.0 -0.4912785976
O  O12  1  0.37120000  0.89094000  0.51350000  1.0 -0.5026661892
O  O13  1  0.41105000  0.44112000  0.24630000  1.0 -0.4912785976
O  O14  1  0.37120000  0.48026000  0.51350000  1.0 -0.5026661892
O  O15  1  0.03007000  0.58895000  0.24630000  1.0 -0.4912785976
O  O16  1  0.10906000  0.62880000  0.51350000  1.0 -0.5026661892
O  O17  1  0.55888000  0.96993000  0.24630000  1.0 -0.4912785976
O  O18  1  0.51974000  0.89094000  0.51350000  1.0 -0.5026661892
O  O19  1  0.96993000  0.55888000  0.75370000  1.0 -0.4912785976
O  O20  1  0.89094000  0.51974000  0.48650000  1.0 -0.5026661892
O  O21  1  0.44112000  0.41105000  0.75370000  1.0 -0.4912785976
O  O22  1  0.48026000  0.37120000  0.48650000  1.0 -0.5026661892
O  O23  1  0.58895000  0.03007000  0.75370000  1.0 -0.4912785976
O  O24  1  0.62880000  0.10906000  0.48650000  1.0 -0.5026661892
O  O25  1  0.84110000  0.68220000  0.18890000  1.0 -0.085259362
O  O26  1  0.84110000  0.15890000  0.18890000  1.0 -0.085259362
O  O27  1  0.31780000  0.15890000  0.18890000  1.0 -0.0846214284
O  O28  1  0.15890000  0.31780000  0.81110000  1.0 -0.0846214284
O  O29  1  0.68220000  0.84110000  0.81110000  1.0 -0.085259362
O  O30  1  0.15890000  0.84110000  0.81110000  1.0 -0.0846214284
