# DDEC6 charges by PACMAN v1.1 (https://github.com/mtap-research/PACMAN-charge/)
data_ZIJVEV_FSR_pacman
_symmetry_space_group_name_H-M   'P 1'
_cell_length_a   14.61600000
_cell_length_b   20.09600000
_cell_length_c   23.08800000
_cell_angle_alpha   90.00000000
_cell_angle_beta   90.00000000
_cell_angle_gamma   90.00000000
_symmetry_Int_Tables_number   1
_chemical_formula_structural   Co2H25C33(N2O3)4
_chemical_formula_sum   'Co16 H200 C264 N64 O96'
_cell_volume   6781.47976397
_cell_formula_units_Z   8
loop_
 _symmetry_equiv_pos_site_id
 _symmetry_equiv_pos_as_xyz
  1  'x, y, z'
loop_
 _atom_site_type_symbol
 _atom_site_label
 _atom_site_symmetry_multiplicity
 _atom_site_fract_x
 _atom_site_fract_y
 _atom_site_fract_z
 _atom_site_occupancy
 _atom_site_charge
Co  Co1  1  0.32661000  0.41631000  0.09138000  1.0 0.87111526
Co  Co2  1  0.32661000  0.08369000  0.40862000  1.0 0.87111526
Co  Co3  1  0.17339000  0.91631000  0.90862000  1.0 0.87111526
Co  Co4  1  0.17339000  0.58369000  0.59138000  1.0 0.87111526
Co  Co5  1  0.67339000  0.58369000  0.90862000  1.0 0.87111526
Co  Co6  1  0.67339000  0.91631000  0.59138000  1.0 0.87111526
Co  Co7  1  0.82661000  0.08369000  0.09138000  1.0 0.87111526
Co  Co8  1  0.82661000  0.41631000  0.40862000  1.0 0.87111526
Co  Co9  1  0.08505000  0.41196000  0.09195000  1.0 0.8540426866
Co  Co10  1  0.08505000  0.08804000  0.40805000  1.0 0.8540426866
Co  Co11  1  0.41495000  0.91196000  0.90805000  1.0 0.8540426866
Co  Co12  1  0.41495000  0.58804000  0.59195000  1.0 0.8540426866
Co  Co13  1  0.91495000  0.58804000  0.90805000  1.0 0.8540426866
Co  Co14  1  0.91495000  0.91196000  0.59195000  1.0 0.8540426866
Co  Co15  1  0.58505000  0.08804000  0.09195000  1.0 0.8540426866
Co  Co16  1  0.58505000  0.41196000  0.40805000  1.0 0.8540426866
H  H1  1  0.38740000  0.54200000  0.07390000  1.0 0.3010806517
H  H2  1  0.38740000  0.95800000  0.42610000  1.0 0.3010806517
H  H3  1  0.11260000  0.04200000  0.92610000  1.0 0.3010806517
H  H4  1  0.11260000  0.45800000  0.57390000  1.0 0.3010806517
H  H5  1  0.61260000  0.45800000  0.92610000  1.0 0.3010806517
H  H6  1  0.61260000  0.04200000  0.57390000  1.0 0.3010806517
H  H7  1  0.88740000  0.95800000  0.07390000  1.0 0.3010806517
H  H8  1  0.88740000  0.54200000  0.42610000  1.0 0.3010806517
H  H9  1  0.43530000  0.50350000  0.03420000  1.0 0.3543364407
H  H10  1  0.43530000  0.99650000  0.46580000  1.0 0.3543364407
H  H11  1  0.06470000  0.00350000  0.96580000  1.0 0.3543364407
H  H12  1  0.06470000  0.49650000  0.53420000  1.0 0.3543364407
H  H13  1  0.56470000  0.49650000  0.96580000  1.0 0.3543364407
H  H14  1  0.56470000  0.00350000  0.53420000  1.0 0.3543364407
H  H15  1  0.93530000  0.99650000  0.03420000  1.0 0.3543364407
H  H16  1  0.93530000  0.50350000  0.46580000  1.0 0.3543364407
H  H17  1  0.07880000  0.53700000  0.03590000  1.0 0.3010806517
H  H18  1  0.07880000  0.96300000  0.46410000  1.0 0.3010806517
H  H19  1  0.42120000  0.03700000  0.96410000  1.0 0.3010806517
H  H20  1  0.42120000  0.46300000  0.53590000  1.0 0.3010806517
H  H21  1  0.92120000  0.46300000  0.96410000  1.0 0.3010806517
H  H22  1  0.92120000  0.03700000  0.53590000  1.0 0.3010806517
H  H23  1  0.57880000  0.96300000  0.03590000  1.0 0.3010806517
H  H24  1  0.57880000  0.53700000  0.46410000  1.0 0.3010806517
H  H25  1  0.98250000  0.51680000  0.04260000  1.0 0.3638448046
H  H26  1  0.98250000  0.98320000  0.45740000  1.0 0.3638448046
H  H27  1  0.51750000  0.01680000  0.95740000  1.0 0.3638448046
H  H28  1  0.51750000  0.48320000  0.54260000  1.0 0.3638448046
H  H29  1  0.01750000  0.48320000  0.95740000  1.0 0.3638448046
H  H30  1  0.01750000  0.01680000  0.54260000  1.0 0.3638448046
H  H31  1  0.48250000  0.98320000  0.04260000  1.0 0.3638448046
H  H32  1  0.48250000  0.51680000  0.45740000  1.0 0.3638448046
H  H33  1  0.36400000  0.24150000  0.84410000  1.0 0.12079284
H  H34  1  0.36400000  0.25850000  0.65590000  1.0 0.12079284
H  H35  1  0.13600000  0.74150000  0.15590000  1.0 0.12079284
H  H36  1  0.13600000  0.75850000  0.34410000  1.0 0.12079284
H  H37  1  0.63600000  0.75850000  0.15590000  1.0 0.12079284
H  H38  1  0.63600000  0.74150000  0.34410000  1.0 0.12079284
H  H39  1  0.86400000  0.25850000  0.84410000  1.0 0.12079284
H  H40  1  0.86400000  0.24150000  0.65590000  1.0 0.12079284
H  H41  1  0.38470000  0.44090000  0.85040000  1.0 0.1505894066
H  H42  1  0.38470000  0.05910000  0.64960000  1.0 0.1505894066
H  H43  1  0.11530000  0.94090000  0.14960000  1.0 0.1505894066
H  H44  1  0.11530000  0.55910000  0.35040000  1.0 0.1505894066
H  H45  1  0.61530000  0.55910000  0.14960000  1.0 0.1505894066
H  H46  1  0.61530000  0.94090000  0.35040000  1.0 0.1505894066
H  H47  1  0.88470000  0.05910000  0.85040000  1.0 0.1505894066
H  H48  1  0.88470000  0.44090000  0.64960000  1.0 0.1505894066
H  H49  1  0.42770000  0.34360000  0.70030000  1.0 0.12079284
H  H50  1  0.42770000  0.15640000  0.79970000  1.0 0.12079284
H  H51  1  0.07230000  0.84360000  0.29970000  1.0 0.12079284
H  H52  1  0.07230000  0.65640000  0.20030000  1.0 0.12079284
H  H53  1  0.57230000  0.65640000  0.29970000  1.0 0.12079284
H  H54  1  0.57230000  0.84360000  0.20030000  1.0 0.12079284
H  H55  1  0.92770000  0.15640000  0.70030000  1.0 0.12079284
H  H56  1  0.92770000  0.34360000  0.79970000  1.0 0.12079284
H  H57  1  0.32090000  0.65650000  0.20260000  1.0 0.12079284
H  H58  1  0.32090000  0.84350000  0.29740000  1.0 0.12079284
H  H59  1  0.17910000  0.15650000  0.79740000  1.0 0.12079284
H  H60  1  0.17910000  0.34350000  0.70260000  1.0 0.12079284
H  H61  1  0.67910000  0.34350000  0.79740000  1.0 0.12079284
H  H62  1  0.67910000  0.15650000  0.70260000  1.0 0.12079284
H  H63  1  0.82090000  0.84350000  0.20260000  1.0 0.12079284
H  H64  1  0.82090000  0.65650000  0.29740000  1.0 0.12079284
H  H65  1  0.37670000  0.56100000  0.35190000  1.0 0.1505894066
H  H66  1  0.37670000  0.93900000  0.14810000  1.0 0.1505894066
H  H67  1  0.12330000  0.06100000  0.64810000  1.0 0.1505894066
H  H68  1  0.12330000  0.43900000  0.85190000  1.0 0.1505894066
H  H69  1  0.62330000  0.43900000  0.64810000  1.0 0.1505894066
H  H70  1  0.62330000  0.06100000  0.85190000  1.0 0.1505894066
H  H71  1  0.87670000  0.93900000  0.35190000  1.0 0.1505894066
H  H72  1  0.87670000  0.56100000  0.14810000  1.0 0.1505894066
H  H73  1  0.39240000  0.76090000  0.34400000  1.0 0.1296366752
H  H74  1  0.39240000  0.73910000  0.15600000  1.0 0.1296366752
H  H75  1  0.10760000  0.26090000  0.65600000  1.0 0.1296366752
H  H76  1  0.10760000  0.23910000  0.84400000  1.0 0.1296366752
H  H77  1  0.60760000  0.23910000  0.65600000  1.0 0.1296366752
H  H78  1  0.60760000  0.26090000  0.84400000  1.0 0.1296366752
H  H79  1  0.89240000  0.73910000  0.34400000  1.0 0.1296366752
H  H80  1  0.89240000  0.76090000  0.15600000  1.0 0.1296366752
H  H81  1  0.70970000  0.45490000  0.08250000  1.0 0.12079284
H  H82  1  0.70970000  0.04510000  0.41750000  1.0 0.12079284
H  H83  1  0.79030000  0.95490000  0.91750000  1.0 0.12079284
H  H84  1  0.79030000  0.54510000  0.58250000  1.0 0.12079284
H  H85  1  0.29030000  0.54510000  0.91750000  1.0 0.12079284
H  H86  1  0.29030000  0.95490000  0.58250000  1.0 0.12079284
H  H87  1  0.20970000  0.04510000  0.08250000  1.0 0.12079284
H  H88  1  0.20970000  0.45490000  0.41750000  1.0 0.12079284
H  H89  1  0.56920000  0.28980000  0.12410000  1.0 0.1296366752
H  H90  1  0.56920000  0.21020000  0.37590000  1.0 0.1296366752
H  H91  1  0.93080000  0.78980000  0.87590000  1.0 0.1296366752
H  H92  1  0.93080000  0.71020000  0.62410000  1.0 0.1296366752
H  H93  1  0.43080000  0.71020000  0.87590000  1.0 0.1296366752
H  H94  1  0.43080000  0.78980000  0.62410000  1.0 0.1296366752
H  H95  1  0.06920000  0.21020000  0.12410000  1.0 0.1296366752
H  H96  1  0.06920000  0.28980000  0.37590000  1.0 0.1296366752
H  H97  1  0.84430000  0.28770000  0.12300000  1.0 0.1296366752
H  H98  1  0.84430000  0.21230000  0.37700000  1.0 0.1296366752
H  H99  1  0.65570000  0.78770000  0.87700000  1.0 0.1296366752
H  H100  1  0.65570000  0.71230000  0.62300000  1.0 0.1296366752
H  H101  1  0.15570000  0.71230000  0.87700000  1.0 0.1296366752
H  H102  1  0.15570000  0.78770000  0.62300000  1.0 0.1296366752
H  H103  1  0.34430000  0.21230000  0.12300000  1.0 0.1296366752
H  H104  1  0.34430000  0.28770000  0.37700000  1.0 0.1296366752
H  H105  1  0.39040000  0.42520000  0.94990000  1.0 0.1296366752
H  H106  1  0.39040000  0.07480000  0.55010000  1.0 0.1296366752
H  H107  1  0.10960000  0.92520000  0.05010000  1.0 0.1296366752
H  H108  1  0.10960000  0.57480000  0.44990000  1.0 0.1296366752
H  H109  1  0.60960000  0.57480000  0.05010000  1.0 0.1296366752
H  H110  1  0.60960000  0.92520000  0.44990000  1.0 0.1296366752
H  H111  1  0.89040000  0.07480000  0.94990000  1.0 0.1296366752
H  H112  1  0.89040000  0.42520000  0.55010000  1.0 0.1296366752
H  H113  1  0.27100000  0.27660000  0.02750000  1.0 0.12079284
H  H114  1  0.27100000  0.22340000  0.47250000  1.0 0.12079284
H  H115  1  0.22900000  0.77660000  0.97250000  1.0 0.12079284
H  H116  1  0.22900000  0.72340000  0.52750000  1.0 0.12079284
H  H117  1  0.72900000  0.72340000  0.97250000  1.0 0.12079284
H  H118  1  0.72900000  0.77660000  0.52750000  1.0 0.12079284
H  H119  1  0.77100000  0.22340000  0.02750000  1.0 0.12079284
H  H120  1  0.77100000  0.27660000  0.47250000  1.0 0.12079284
H  H121  1  0.28620000  0.24590000  0.92650000  1.0 0.12079284
H  H122  1  0.28620000  0.25410000  0.57350000  1.0 0.12079284
H  H123  1  0.21380000  0.74590000  0.07350000  1.0 0.12079284
H  H124  1  0.21380000  0.75410000  0.42650000  1.0 0.12079284
H  H125  1  0.71380000  0.75410000  0.07350000  1.0 0.12079284
H  H126  1  0.71380000  0.74590000  0.42650000  1.0 0.12079284
H  H127  1  0.78620000  0.25410000  0.92650000  1.0 0.12079284
H  H128  1  0.78620000  0.24590000  0.57350000  1.0 0.12079284
H  H129  1  0.38180000  0.44550000  0.65940000  1.0 0.0906816298
H  H130  1  0.38180000  0.05450000  0.84060000  1.0 0.0906816298
H  H131  1  0.11820000  0.94550000  0.34060000  1.0 0.0906816298
H  H132  1  0.11820000  0.55450000  0.15940000  1.0 0.0906816298
H  H133  1  0.61820000  0.55450000  0.34060000  1.0 0.0906816298
H  H134  1  0.61820000  0.94550000  0.15940000  1.0 0.0906816298
H  H135  1  0.88180000  0.05450000  0.65940000  1.0 0.0906816298
H  H136  1  0.88180000  0.44550000  0.84060000  1.0 0.0906816298
H  H137  1  0.47880000  0.60970000  0.72610000  1.0 0.1412711343
H  H138  1  0.47880000  0.89030000  0.77390000  1.0 0.1412711343
H  H139  1  0.02120000  0.10970000  0.27390000  1.0 0.1412711343
H  H140  1  0.02120000  0.39030000  0.22610000  1.0 0.1412711343
H  H141  1  0.52120000  0.39030000  0.27390000  1.0 0.1412711343
H  H142  1  0.52120000  0.10970000  0.22610000  1.0 0.1412711343
H  H143  1  0.97880000  0.89030000  0.72610000  1.0 0.1412711343
H  H144  1  0.97880000  0.60970000  0.77390000  1.0 0.1412711343
H  H145  1  0.47370000  0.52790000  0.80430000  1.0 0.1296366752
H  H146  1  0.47370000  0.97210000  0.69570000  1.0 0.1296366752
H  H147  1  0.02630000  0.02790000  0.19570000  1.0 0.1296366752
H  H148  1  0.02630000  0.47210000  0.30430000  1.0 0.1296366752
H  H149  1  0.52630000  0.47210000  0.19570000  1.0 0.1296366752
H  H150  1  0.52630000  0.02790000  0.30430000  1.0 0.1296366752
H  H151  1  0.97370000  0.97210000  0.80430000  1.0 0.1296366752
H  H152  1  0.97370000  0.52790000  0.69570000  1.0 0.1296366752
H  H153  1  0.36210000  0.55620000  0.16060000  1.0 0.0991203563
H  H154  1  0.36210000  0.94380000  0.33940000  1.0 0.0991203563
H  H155  1  0.13790000  0.05620000  0.83940000  1.0 0.0991203563
H  H156  1  0.13790000  0.44380000  0.66060000  1.0 0.0991203563
H  H157  1  0.63790000  0.44380000  0.83940000  1.0 0.0991203563
H  H158  1  0.63790000  0.05620000  0.66060000  1.0 0.0991203563
H  H159  1  0.86210000  0.94380000  0.16060000  1.0 0.0991203563
H  H160  1  0.86210000  0.55620000  0.33940000  1.0 0.0991203563
H  H161  1  0.27600000  0.39040000  0.23010000  1.0 0.1412711343
H  H162  1  0.27600000  0.10960000  0.26990000  1.0 0.1412711343
H  H163  1  0.22400000  0.89040000  0.76990000  1.0 0.1412711343
H  H164  1  0.22400000  0.60960000  0.73010000  1.0 0.1412711343
H  H165  1  0.72400000  0.60960000  0.76990000  1.0 0.1412711343
H  H166  1  0.72400000  0.89040000  0.73010000  1.0 0.1412711343
H  H167  1  0.77600000  0.10960000  0.23010000  1.0 0.1412711343
H  H168  1  0.77600000  0.39040000  0.26990000  1.0 0.1412711343
H  H169  1  0.28450000  0.47260000  0.30820000  1.0 0.1296366752
H  H170  1  0.28450000  0.02740000  0.19180000  1.0 0.1296366752
H  H171  1  0.21550000  0.97260000  0.69180000  1.0 0.1296366752
H  H172  1  0.21550000  0.52740000  0.80820000  1.0 0.1296366752
H  H173  1  0.71550000  0.52740000  0.69180000  1.0 0.1296366752
H  H174  1  0.71550000  0.97260000  0.80820000  1.0 0.1296366752
H  H175  1  0.78450000  0.02740000  0.30820000  1.0 0.1296366752
H  H176  1  0.78450000  0.47260000  0.19180000  1.0 0.1296366752
H  H177  1  0.35760000  0.58140000  0.45190000  1.0 0.12079284
H  H178  1  0.35760000  0.91860000  0.04810000  1.0 0.12079284
H  H179  1  0.14240000  0.08140000  0.54810000  1.0 0.12079284
H  H180  1  0.14240000  0.41860000  0.95190000  1.0 0.12079284
H  H181  1  0.64240000  0.41860000  0.54810000  1.0 0.12079284
H  H182  1  0.64240000  0.08140000  0.95190000  1.0 0.12079284
H  H183  1  0.85760000  0.91860000  0.45190000  1.0 0.12079284
H  H184  1  0.85760000  0.58140000  0.04810000  1.0 0.12079284
H  H185  1  0.49510000  0.72210000  0.52870000  1.0 0.1412711343
H  H186  1  0.49510000  0.77790000  0.97130000  1.0 0.1412711343
H  H187  1  0.00490000  0.22210000  0.47130000  1.0 0.1412711343
H  H188  1  0.00490000  0.27790000  0.02870000  1.0 0.1412711343
H  H189  1  0.50490000  0.27790000  0.47130000  1.0 0.1412711343
H  H190  1  0.50490000  0.22210000  0.02870000  1.0 0.1412711343
H  H191  1  0.99510000  0.77790000  0.52870000  1.0 0.1412711343
H  H192  1  0.99510000  0.72210000  0.97130000  1.0 0.1412711343
H  H193  1  0.48210000  0.75360000  0.42720000  1.0 0.12079284
H  H194  1  0.48210000  0.74640000  0.07280000  1.0 0.12079284
H  H195  1  0.01790000  0.25360000  0.57280000  1.0 0.12079284
H  H196  1  0.01790000  0.24640000  0.92720000  1.0 0.12079284
H  H197  1  0.51790000  0.24640000  0.57280000  1.0 0.12079284
H  H198  1  0.51790000  0.25360000  0.92720000  1.0 0.12079284
H  H199  1  0.98210000  0.74640000  0.42720000  1.0 0.12079284
H  H200  1  0.98210000  0.75360000  0.07280000  1.0 0.12079284
C  C1  1  0.39540000  0.28180000  0.76655000  1.0 0.1100327071
C  C2  1  0.39540000  0.21820000  0.73345000  1.0 0.1100327071
C  C3  1  0.10460000  0.78180000  0.23345000  1.0 0.1100327071
C  C4  1  0.10460000  0.71820000  0.26655000  1.0 0.1100327071
C  C5  1  0.60460000  0.71820000  0.23345000  1.0 0.1100327071
C  C6  1  0.60460000  0.78180000  0.26655000  1.0 0.1100327071
C  C7  1  0.89540000  0.21820000  0.76655000  1.0 0.1100327071
C  C8  1  0.89540000  0.28180000  0.73345000  1.0 0.1100327071
C  C9  1  0.37530000  0.28157000  0.82536000  1.0 -0.2584326462
C  C10  1  0.37530000  0.21843000  0.67464000  1.0 -0.2584326462
C  C11  1  0.12470000  0.78157000  0.17464000  1.0 -0.2584326462
C  C12  1  0.12470000  0.71843000  0.32536000  1.0 -0.2584326462
C  C13  1  0.62470000  0.71843000  0.17464000  1.0 -0.2584326462
C  C14  1  0.62470000  0.78157000  0.32536000  1.0 -0.2584326462
C  C15  1  0.87530000  0.21843000  0.82536000  1.0 -0.2584326462
C  C16  1  0.87530000  0.28157000  0.67464000  1.0 -0.2584326462
C  C17  1  0.37190000  0.34057000  0.85618000  1.0 0.1872886361
C  C18  1  0.37190000  0.15943000  0.64382000  1.0 0.1872886361
C  C19  1  0.12810000  0.84057000  0.14382000  1.0 0.1872886361
C  C20  1  0.12810000  0.65943000  0.35618000  1.0 0.1872886361
C  C21  1  0.62810000  0.65943000  0.14382000  1.0 0.1872886361
C  C22  1  0.62810000  0.84057000  0.35618000  1.0 0.1872886361
C  C23  1  0.87190000  0.15943000  0.85618000  1.0 0.1872886361
C  C24  1  0.87190000  0.34057000  0.64382000  1.0 0.1872886361
C  C25  1  0.38770000  0.40132000  0.82958000  1.0 -0.2789208142
C  C26  1  0.38770000  0.09868000  0.67042000  1.0 -0.2789208142
C  C27  1  0.11230000  0.90132000  0.17042000  1.0 -0.2789208142
C  C28  1  0.11230000  0.59868000  0.32958000  1.0 -0.2789208142
C  C29  1  0.61230000  0.59868000  0.17042000  1.0 -0.2789208142
C  C30  1  0.61230000  0.90132000  0.32958000  1.0 -0.2789208142
C  C31  1  0.88770000  0.09868000  0.82958000  1.0 -0.2789208142
C  C32  1  0.88770000  0.40132000  0.67042000  1.0 -0.2789208142
C  C33  1  0.40810000  0.40134000  0.77071000  1.0 0.1872886361
C  C34  1  0.40810000  0.09866000  0.72929000  1.0 0.1872886361
C  C35  1  0.09190000  0.90134000  0.22929000  1.0 0.1872886361
C  C36  1  0.09190000  0.59866000  0.27071000  1.0 0.1872886361
C  C37  1  0.59190000  0.59866000  0.22929000  1.0 0.1872886361
C  C38  1  0.59190000  0.90134000  0.27071000  1.0 0.1872886361
C  C39  1  0.90810000  0.09866000  0.77071000  1.0 0.1872886361
C  C40  1  0.90810000  0.40134000  0.72929000  1.0 0.1872886361
C  C41  1  0.41280000  0.34257000  0.73946000  1.0 -0.2584326462
C  C42  1  0.41280000  0.15743000  0.76054000  1.0 -0.2584326462
C  C43  1  0.08720000  0.84257000  0.26054000  1.0 -0.2584326462
C  C44  1  0.08720000  0.65743000  0.23946000  1.0 -0.2584326462
C  C45  1  0.58720000  0.65743000  0.26054000  1.0 -0.2584326462
C  C46  1  0.58720000  0.84257000  0.23946000  1.0 -0.2584326462
C  C47  1  0.91280000  0.15743000  0.73946000  1.0 -0.2584326462
C  C48  1  0.91280000  0.34257000  0.76054000  1.0 -0.2584326462
C  C49  1  0.35900000  0.71885000  0.26740000  1.0 0.1100327071
C  C50  1  0.35900000  0.78115000  0.23260000  1.0 0.1100327071
C  C51  1  0.14100000  0.21885000  0.73260000  1.0 0.1100327071
C  C52  1  0.14100000  0.28115000  0.76740000  1.0 0.1100327071
C  C53  1  0.64100000  0.28115000  0.73260000  1.0 0.1100327071
C  C54  1  0.64100000  0.21885000  0.76740000  1.0 0.1100327071
C  C55  1  0.85900000  0.78115000  0.26740000  1.0 0.1100327071
C  C56  1  0.85900000  0.71885000  0.23260000  1.0 0.1100327071
C  C57  1  0.33880000  0.65795000  0.24126000  1.0 -0.2584326462
C  C58  1  0.33880000  0.84205000  0.25874000  1.0 -0.2584326462
C  C59  1  0.16120000  0.15795000  0.75874000  1.0 -0.2584326462
C  C60  1  0.16120000  0.34205000  0.74126000  1.0 -0.2584326462
C  C61  1  0.66120000  0.34205000  0.75874000  1.0 -0.2584326462
C  C62  1  0.66120000  0.15795000  0.74126000  1.0 -0.2584326462
C  C63  1  0.83880000  0.84205000  0.24126000  1.0 -0.2584326462
C  C64  1  0.83880000  0.65795000  0.25874000  1.0 -0.2584326462
C  C65  1  0.34570000  0.59996000  0.27291000  1.0 0.1872886361
C  C66  1  0.34570000  0.90004000  0.22709000  1.0 0.1872886361
C  C67  1  0.15430000  0.09996000  0.72709000  1.0 0.1872886361
C  C68  1  0.15430000  0.40004000  0.77291000  1.0 0.1872886361
C  C69  1  0.65430000  0.40004000  0.72709000  1.0 0.1872886361
C  C70  1  0.65430000  0.09996000  0.77291000  1.0 0.1872886361
C  C71  1  0.84570000  0.90004000  0.27291000  1.0 0.1872886361
C  C72  1  0.84570000  0.59996000  0.22709000  1.0 0.1872886361
C  C73  1  0.37070000  0.60041000  0.33117000  1.0 -0.2883819929
C  C74  1  0.37070000  0.89959000  0.16883000  1.0 -0.2883819929
C  C75  1  0.12930000  0.10041000  0.66883000  1.0 -0.2883819929
C  C76  1  0.12930000  0.39959000  0.83117000  1.0 -0.2883819929
C  C77  1  0.62930000  0.39959000  0.66883000  1.0 -0.2883819929
C  C78  1  0.62930000  0.10041000  0.83117000  1.0 -0.2883819929
C  C79  1  0.87070000  0.89959000  0.33117000  1.0 -0.2883819929
C  C80  1  0.87070000  0.60041000  0.16883000  1.0 -0.2883819929
C  C81  1  0.38630000  0.66174000  0.35721000  1.0 0.1872886361
C  C82  1  0.38630000  0.83826000  0.14279000  1.0 0.1872886361
C  C83  1  0.11370000  0.16174000  0.64279000  1.0 0.1846276597
C  C84  1  0.11370000  0.33826000  0.85721000  1.0 0.1872886361
C  C85  1  0.61370000  0.33826000  0.64279000  1.0 0.1872886361
C  C86  1  0.61370000  0.16174000  0.85721000  1.0 0.1872886361
C  C87  1  0.88630000  0.83826000  0.35721000  1.0 0.1872886361
C  C88  1  0.88630000  0.66174000  0.14279000  1.0 0.1872886361
C  C89  1  0.38110000  0.72043000  0.32582000  1.0 -0.2584326462
C  C90  1  0.38110000  0.77957000  0.17418000  1.0 -0.2584326462
C  C91  1  0.11890000  0.22043000  0.67418000  1.0 -0.2584326462
C  C92  1  0.11890000  0.27957000  0.82582000  1.0 -0.2584326462
C  C93  1  0.61890000  0.27957000  0.67418000  1.0 -0.2584326462
C  C94  1  0.61890000  0.22043000  0.82582000  1.0 -0.2584326462
C  C95  1  0.88110000  0.77957000  0.32582000  1.0 -0.2584326462
C  C96  1  0.88110000  0.72043000  0.17418000  1.0 -0.2584326462
C  C97  1  0.79050000  0.37737000  0.10107000  1.0 -0.0341248418
C  C98  1  0.79050000  0.12263000  0.39893000  1.0 -0.0341248418
C  C99  1  0.70950000  0.87737000  0.89893000  1.0 -0.0341248418
C  C100  1  0.70950000  0.62263000  0.60107000  1.0 -0.0341248418
C  C101  1  0.20950000  0.62263000  0.89893000  1.0 -0.0341248418
C  C102  1  0.20950000  0.87737000  0.60107000  1.0 -0.0341248418
C  C103  1  0.29050000  0.12263000  0.10107000  1.0 -0.0341248418
C  C104  1  0.29050000  0.37737000  0.39893000  1.0 -0.0341248418
C  C105  1  0.70910000  0.41048000  0.09363000  1.0 -0.1400601701
C  C106  1  0.70910000  0.08952000  0.40637000  1.0 -0.1400601701
C  C107  1  0.79090000  0.91048000  0.90637000  1.0 -0.1400601701
C  C108  1  0.79090000  0.58952000  0.59363000  1.0 -0.1400601701
C  C109  1  0.29090000  0.58952000  0.90637000  1.0 -0.1400601701
C  C110  1  0.29090000  0.91048000  0.59363000  1.0 -0.1400601701
C  C111  1  0.20910000  0.08952000  0.09363000  1.0 -0.1400601701
C  C112  1  0.20910000  0.41048000  0.40637000  1.0 -0.1400601701
C  C113  1  0.62560000  0.37865000  0.10251000  1.0 -0.02170143
C  C114  1  0.62560000  0.12135000  0.39749000  1.0 -0.02170143
C  C115  1  0.87440000  0.87865000  0.89749000  1.0 -0.02170143
C  C116  1  0.87440000  0.62135000  0.60251000  1.0 -0.02170143
C  C117  1  0.37440000  0.62135000  0.89749000  1.0 -0.02170143
C  C118  1  0.37440000  0.87865000  0.60251000  1.0 -0.02170143
C  C119  1  0.12560000  0.12135000  0.10251000  1.0 -0.02170143
C  C120  1  0.12560000  0.37865000  0.39749000  1.0 -0.02170143
C  C121  1  0.62460000  0.31146000  0.11779000  1.0 -0.119581829
C  C122  1  0.62460000  0.18854000  0.38221000  1.0 -0.119581829
C  C123  1  0.87540000  0.81146000  0.88221000  1.0 -0.119581829
C  C124  1  0.87540000  0.68854000  0.61779000  1.0 -0.119581829
C  C125  1  0.37540000  0.68854000  0.88221000  1.0 -0.119581829
C  C126  1  0.37540000  0.81146000  0.61779000  1.0 -0.119581829
C  C127  1  0.12460000  0.18854000  0.11779000  1.0 -0.119581829
C  C128  1  0.12460000  0.31146000  0.38221000  1.0 -0.119581829
C  C129  1  0.70670000  0.27679000  0.12359000  1.0 -0.02170143
C  C130  1  0.70670000  0.22321000  0.37641000  1.0 -0.02170143
C  C131  1  0.79330000  0.77679000  0.87641000  1.0 -0.02170143
C  C132  1  0.79330000  0.72321000  0.62359000  1.0 -0.02170143
C  C133  1  0.29330000  0.72321000  0.87641000  1.0 -0.02170143
C  C134  1  0.29330000  0.77679000  0.62359000  1.0 -0.02170143
C  C135  1  0.20670000  0.22321000  0.12359000  1.0 -0.02170143
C  C136  1  0.20670000  0.27679000  0.37641000  1.0 -0.02170143
C  C137  1  0.78950000  0.31015000  0.11693000  1.0 -0.119581829
C  C138  1  0.78950000  0.18985000  0.38307000  1.0 -0.119581829
C  C139  1  0.71050000  0.81015000  0.88307000  1.0 -0.119581829
C  C140  1  0.71050000  0.68985000  0.61693000  1.0 -0.119581829
C  C141  1  0.21050000  0.68985000  0.88307000  1.0 -0.119581829
C  C142  1  0.21050000  0.81015000  0.61693000  1.0 -0.119581829
C  C143  1  0.28950000  0.18985000  0.11693000  1.0 -0.119581829
C  C144  1  0.28950000  0.31015000  0.38307000  1.0 -0.119581829
C  C145  1  0.88100000  0.41264000  0.09046000  1.0 0.5538462364
C  C146  1  0.88100000  0.08736000  0.40954000  1.0 0.5538462364
C  C147  1  0.61900000  0.91264000  0.90954000  1.0 0.5538462364
C  C148  1  0.61900000  0.58736000  0.59046000  1.0 0.5538462364
C  C149  1  0.11900000  0.58736000  0.90954000  1.0 0.5538462364
C  C150  1  0.11900000  0.91264000  0.59046000  1.0 0.5538462364
C  C151  1  0.38100000  0.08736000  0.09046000  1.0 0.5538462364
C  C152  1  0.38100000  0.41264000  0.40954000  1.0 0.5538462364
C  C153  1  0.53730000  0.41601000  0.09357000  1.0 0.5538462364
C  C154  1  0.53730000  0.08399000  0.40643000  1.0 0.5538462364
C  C155  1  0.96270000  0.91601000  0.90643000  1.0 0.5538462364
C  C156  1  0.96270000  0.58399000  0.59357000  1.0 0.5538462364
C  C157  1  0.46270000  0.58399000  0.90643000  1.0 0.5538462364
C  C158  1  0.46270000  0.91601000  0.59357000  1.0 0.5538462364
C  C159  1  0.03730000  0.08399000  0.09357000  1.0 0.5538462364
C  C160  1  0.03730000  0.41601000  0.40643000  1.0 0.5538462364
C  C161  1  0.70570000  0.20171000  0.12916000  1.0 0.5675033109
C  C162  1  0.70570000  0.29829000  0.37084000  1.0 0.5675033109
C  C163  1  0.79430000  0.70171000  0.87084000  1.0 0.5675033109
C  C164  1  0.79430000  0.79829000  0.62916000  1.0 0.5675033109
C  C165  1  0.29430000  0.79829000  0.87084000  1.0 0.5675033109
C  C166  1  0.29430000  0.70171000  0.62916000  1.0 0.5675033109
C  C167  1  0.20570000  0.29829000  0.12916000  1.0 0.5675033109
C  C168  1  0.20570000  0.20171000  0.37084000  1.0 0.5675033109
C  C169  1  0.36270000  0.38439000  0.95704000  1.0 0.12079284
C  C170  1  0.36270000  0.11561000  0.54296000  1.0 0.12079284
C  C171  1  0.13730000  0.88439000  0.04296000  1.0 0.12079284
C  C172  1  0.13730000  0.61561000  0.45704000  1.0 0.12079284
C  C173  1  0.63730000  0.61561000  0.04296000  1.0 0.12079284
C  C174  1  0.63730000  0.88439000  0.45704000  1.0 0.12079284
C  C175  1  0.86270000  0.11561000  0.95704000  1.0 0.12079284
C  C176  1  0.86270000  0.38439000  0.54296000  1.0 0.12079284
C  C177  1  0.29730000  0.30287000  0.99886000  1.0 -0.02170143
C  C178  1  0.29730000  0.19713000  0.50114000  1.0 -0.02170143
C  C179  1  0.20270000  0.80287000  0.00114000  1.0 -0.02170143
C  C180  1  0.20270000  0.69713000  0.49886000  1.0 -0.02170143
C  C181  1  0.70270000  0.69713000  0.00114000  1.0 -0.02170143
C  C182  1  0.70270000  0.80287000  0.49886000  1.0 -0.02170143
C  C183  1  0.79730000  0.19713000  0.99886000  1.0 -0.02170143
C  C184  1  0.79730000  0.30287000  0.50114000  1.0 -0.02170143
C  C185  1  0.30540000  0.28544000  0.94349000  1.0 -0.119581829
C  C186  1  0.30540000  0.21456000  0.55651000  1.0 -0.119581829
C  C187  1  0.19460000  0.78544000  0.05651000  1.0 -0.119581829
C  C188  1  0.19460000  0.71456000  0.44349000  1.0 -0.119581829
C  C189  1  0.69460000  0.71456000  0.05651000  1.0 -0.119581829
C  C190  1  0.69460000  0.78544000  0.44349000  1.0 -0.119581829
C  C191  1  0.80540000  0.21456000  0.94349000  1.0 -0.119581829
C  C192  1  0.80540000  0.28544000  0.55651000  1.0 -0.119581829
C  C193  1  0.40550000  0.47638000  0.68538000  1.0 0.0906816298
C  C194  1  0.40550000  0.02362000  0.81462000  1.0 0.0906816298
C  C195  1  0.09450000  0.97638000  0.31462000  1.0 0.0906816298
C  C196  1  0.09450000  0.52362000  0.18538000  1.0 0.0906816298
C  C197  1  0.59450000  0.52362000  0.31462000  1.0 0.0906816298
C  C198  1  0.59450000  0.97638000  0.18538000  1.0 0.0906816298
C  C199  1  0.90550000  0.02362000  0.68538000  1.0 0.0906816298
C  C200  1  0.90550000  0.47638000  0.81462000  1.0 0.0906816298
C  C201  1  0.45840000  0.56610000  0.72252000  1.0 -0.0099677289
C  C202  1  0.45840000  0.93390000  0.77748000  1.0 -0.0099677289
C  C203  1  0.04160000  0.06610000  0.27748000  1.0 -0.0099677289
C  C204  1  0.04160000  0.43390000  0.22252000  1.0 -0.0099677289
C  C205  1  0.54160000  0.43390000  0.27748000  1.0 -0.0099677289
C  C206  1  0.54160000  0.06610000  0.22252000  1.0 -0.0099677289
C  C207  1  0.95840000  0.93390000  0.72252000  1.0 -0.0099677289
C  C208  1  0.95840000  0.56610000  0.77748000  1.0 -0.0099677289
C  C209  1  0.45630000  0.52120000  0.76602000  1.0 -0.0879629328
C  C210  1  0.45630000  0.97880000  0.73398000  1.0 -0.0879629328
C  C211  1  0.04370000  0.02120000  0.23398000  1.0 -0.0879629328
C  C212  1  0.04370000  0.47880000  0.26602000  1.0 -0.0879629328
C  C213  1  0.54370000  0.47880000  0.23398000  1.0 -0.0879629328
C  C214  1  0.54370000  0.02120000  0.26602000  1.0 -0.0879629328
C  C215  1  0.95630000  0.97880000  0.76602000  1.0 -0.0879629328
C  C216  1  0.95630000  0.52120000  0.73398000  1.0 -0.0879629328
C  C217  1  0.34170000  0.52491000  0.18735000  1.0 0.0615113463
C  C218  1  0.34170000  0.97509000  0.31265000  1.0 0.0615113463
C  C219  1  0.15830000  0.02491000  0.81265000  1.0 0.0615113463
C  C220  1  0.15830000  0.47509000  0.68735000  1.0 0.0615113463
C  C221  1  0.65830000  0.47509000  0.81265000  1.0 0.0615113463
C  C222  1  0.65830000  0.02491000  0.68735000  1.0 0.0615113463
C  C223  1  0.84170000  0.97509000  0.18735000  1.0 0.0615113463
C  C224  1  0.84170000  0.52491000  0.31265000  1.0 0.0615113463
C  C225  1  0.29470000  0.43435000  0.22590000  1.0 -0.0099677289
C  C226  1  0.29470000  0.06565000  0.27410000  1.0 -0.0099677289
C  C227  1  0.20530000  0.93435000  0.77410000  1.0 -0.0099677289
C  C228  1  0.20530000  0.56565000  0.72590000  1.0 -0.0099677289
C  C229  1  0.70530000  0.56565000  0.77410000  1.0 -0.0099677289
C  C230  1  0.70530000  0.93435000  0.72590000  1.0 -0.0099677289
C  C231  1  0.79470000  0.06565000  0.22590000  1.0 -0.0099677289
C  C232  1  0.79470000  0.43435000  0.27410000  1.0 -0.0099677289
C  C233  1  0.29880000  0.47961000  0.26938000  1.0 -0.0879629328
C  C234  1  0.29880000  0.02039000  0.23062000  1.0 -0.0879629328
C  C235  1  0.20120000  0.97961000  0.73062000  1.0 -0.0879629328
C  C236  1  0.20120000  0.52039000  0.76938000  1.0 -0.0879629328
C  C237  1  0.70120000  0.52039000  0.73062000  1.0 -0.0879629328
C  C238  1  0.70120000  0.97961000  0.76938000  1.0 -0.0879629328
C  C239  1  0.79880000  0.02039000  0.26938000  1.0 -0.0879629328
C  C240  1  0.79880000  0.47961000  0.23062000  1.0 -0.0879629328
C  C241  1  0.39090000  0.62008000  0.45856000  1.0 0.12079284
C  C242  1  0.39090000  0.87992000  0.04144000  1.0 0.12079284
C  C243  1  0.10910000  0.12008000  0.54144000  1.0 0.12079284
C  C244  1  0.10910000  0.37992000  0.95856000  1.0 0.12079284
C  C245  1  0.60910000  0.37992000  0.54144000  1.0 0.12079284
C  C246  1  0.60910000  0.12008000  0.95856000  1.0 0.12079284
C  C247  1  0.89090000  0.87992000  0.45856000  1.0 0.12079284
C  C248  1  0.89090000  0.62008000  0.04144000  1.0 0.12079284
C  C249  1  0.46570000  0.69740000  0.50013000  1.0 -0.0099677289
C  C250  1  0.46570000  0.80260000  0.99987000  1.0 -0.0099677289
C  C251  1  0.03430000  0.19740000  0.49987000  1.0 -0.0099677289
C  C252  1  0.03430000  0.30260000  0.00013000  1.0 -0.0099677289
C  C253  1  0.53430000  0.30260000  0.49987000  1.0 -0.0099677289
C  C254  1  0.53430000  0.19740000  0.00013000  1.0 -0.0099677289
C  C255  1  0.96570000  0.80260000  0.50013000  1.0 -0.0099677289
C  C256  1  0.96570000  0.69740000  0.99987000  1.0 -0.0099677289
C  C257  1  0.45930000  0.71510000  0.44423000  1.0 -0.1145182968
C  C258  1  0.45930000  0.78490000  0.05577000  1.0 -0.1145182968
C  C259  1  0.04070000  0.21510000  0.55577000  1.0 -0.1145182968
C  C260  1  0.04070000  0.28490000  0.94423000  1.0 -0.1145182968
C  C261  1  0.54070000  0.28490000  0.55577000  1.0 -0.1145182968
C  C262  1  0.54070000  0.21510000  0.94423000  1.0 -0.1145182968
C  C263  1  0.95930000  0.78490000  0.44423000  1.0 -0.1145182968
C  C264  1  0.95930000  0.71510000  0.05577000  1.0 -0.1145182968
N  N1  1  0.34820000  0.33817000  0.91649000  1.0 -0.0099677289
N  N2  1  0.34820000  0.16183000  0.58351000  1.0 -0.0099677289
N  N3  1  0.15180000  0.83817000  0.08351000  1.0 -0.0099677289
N  N4  1  0.15180000  0.66183000  0.41649000  1.0 -0.0099677289
N  N5  1  0.65180000  0.66183000  0.08351000  1.0 -0.0099677289
N  N6  1  0.65180000  0.83817000  0.41649000  1.0 -0.0099677289
N  N7  1  0.84820000  0.16183000  0.91649000  1.0 -0.0099677289
N  N8  1  0.84820000  0.33817000  0.58351000  1.0 -0.0099677289
N  N9  1  0.33350000  0.36568000  0.00771000  1.0 -0.2883819929
N  N10  1  0.33350000  0.13432000  0.49229000  1.0 -0.2883819929
N  N11  1  0.16650000  0.86568000  0.99229000  1.0 -0.2883819929
N  N12  1  0.16650000  0.63432000  0.50771000  1.0 -0.2883819929
N  N13  1  0.66650000  0.63432000  0.99229000  1.0 -0.2883819929
N  N14  1  0.66650000  0.86568000  0.50771000  1.0 -0.2883819929
N  N15  1  0.83350000  0.13432000  0.00771000  1.0 -0.2883819929
N  N16  1  0.83350000  0.36568000  0.49229000  1.0 -0.2883819929
N  N17  1  0.42310000  0.46357000  0.74194000  1.0 -0.0024212444
N  N18  1  0.42310000  0.03643000  0.75806000  1.0 -0.0024212444
N  N19  1  0.07690000  0.96357000  0.25806000  1.0 -0.0024212444
N  N20  1  0.07690000  0.53643000  0.24194000  1.0 -0.0024212444
N  N21  1  0.57690000  0.53643000  0.25806000  1.0 -0.0024212444
N  N22  1  0.57690000  0.96357000  0.24194000  1.0 -0.0024212444
N  N23  1  0.92310000  0.03643000  0.74194000  1.0 -0.0024212444
N  N24  1  0.92310000  0.46357000  0.75806000  1.0 -0.0024212444
N  N25  1  0.42600000  0.53789000  0.67206000  1.0 -0.2883819929
N  N26  1  0.42600000  0.96211000  0.82794000  1.0 -0.2883819929
N  N27  1  0.07400000  0.03789000  0.32794000  1.0 -0.2883819929
N  N28  1  0.07400000  0.46211000  0.17206000  1.0 -0.2883819929
N  N29  1  0.57400000  0.46211000  0.32794000  1.0 -0.2883819929
N  N30  1  0.57400000  0.03789000  0.17206000  1.0 -0.2883819929
N  N31  1  0.92600000  0.96211000  0.67206000  1.0 -0.2883819929
N  N32  1  0.92600000  0.53789000  0.82794000  1.0 -0.2883819929
N  N33  1  0.32810000  0.53770000  0.24471000  1.0 0.0009365033
N  N34  1  0.32810000  0.96230000  0.25529000  1.0 0.0009365033
N  N35  1  0.17190000  0.03770000  0.75529000  1.0 0.0009365033
N  N36  1  0.17190000  0.46230000  0.74471000  1.0 0.0009365033
N  N37  1  0.67190000  0.46230000  0.75529000  1.0 0.0009365033
N  N38  1  0.67190000  0.03770000  0.74471000  1.0 0.0009365033
N  N39  1  0.82810000  0.96230000  0.24471000  1.0 0.0009365033
N  N40  1  0.82810000  0.53770000  0.25529000  1.0 0.0009365033
N  N41  1  0.32230000  0.46284000  0.17472000  1.0 -0.2883819929
N  N42  1  0.32230000  0.03716000  0.32528000  1.0 -0.2883819929
N  N43  1  0.17770000  0.96284000  0.82528000  1.0 -0.2883819929
N  N44  1  0.17770000  0.53716000  0.67472000  1.0 -0.2883819929
N  N45  1  0.67770000  0.53716000  0.82528000  1.0 -0.2883819929
N  N46  1  0.67770000  0.96284000  0.67472000  1.0 -0.2883819929
N  N47  1  0.82230000  0.03716000  0.17472000  1.0 -0.2883819929
N  N48  1  0.82230000  0.46284000  0.32528000  1.0 -0.2883819929
N  N49  1  0.41190000  0.66457000  0.41709000  1.0 -0.0099677289
N  N50  1  0.41190000  0.83543000  0.08291000  1.0 -0.0099677289
N  N51  1  0.08810000  0.16457000  0.58291000  1.0 -0.0099677289
N  N52  1  0.08810000  0.33543000  0.91709000  1.0 -0.0099677289
N  N53  1  0.58810000  0.33543000  0.58291000  1.0 -0.0099677289
N  N54  1  0.58810000  0.16457000  0.91709000  1.0 -0.0099677289
N  N55  1  0.91190000  0.83543000  0.41709000  1.0 -0.0099677289
N  N56  1  0.91190000  0.66457000  0.08291000  1.0 -0.0099677289
N  N57  1  0.42250000  0.63745000  0.50892000  1.0 -0.2883819929
N  N58  1  0.42250000  0.86255000  0.99108000  1.0 -0.2883819929
N  N59  1  0.07750000  0.13745000  0.49108000  1.0 -0.2883819929
N  N60  1  0.07750000  0.36255000  0.00892000  1.0 -0.2883819929
N  N61  1  0.57750000  0.36255000  0.49108000  1.0 -0.2883819929
N  N62  1  0.57750000  0.13745000  0.00892000  1.0 -0.2883819929
N  N63  1  0.92250000  0.86255000  0.50892000  1.0 -0.2883819929
N  N64  1  0.92250000  0.63745000  0.99108000  1.0 -0.2883819929
O  O1  1  0.87740000  0.47085000  0.07050000  1.0 -0.5877238287
O  O2  1  0.87740000  0.02915000  0.42950000  1.0 -0.5877238287
O  O3  1  0.62260000  0.97085000  0.92950000  1.0 -0.5877238287
O  O4  1  0.62260000  0.52915000  0.57050000  1.0 -0.5877238287
O  O5  1  0.12260000  0.52915000  0.92950000  1.0 -0.5877238287
O  O6  1  0.12260000  0.97085000  0.57050000  1.0 -0.5877238287
O  O7  1  0.37740000  0.02915000  0.07050000  1.0 -0.5877238287
O  O8  1  0.37740000  0.47085000  0.42950000  1.0 -0.5877238287
O  O9  1  0.95109000  0.38163000  0.10222000  1.0 -0.5160352289
O  O10  1  0.95109000  0.11837000  0.39778000  1.0 -0.5160352289
O  O11  1  0.54891000  0.88163000  0.89778000  1.0 -0.5160352289
O  O12  1  0.54891000  0.61837000  0.60222000  1.0 -0.5160352289
O  O13  1  0.04891000  0.61837000  0.89778000  1.0 -0.5160352289
O  O14  1  0.04891000  0.88163000  0.60222000  1.0 -0.5160352289
O  O15  1  0.45109000  0.11837000  0.10222000  1.0 -0.5160352289
O  O16  1  0.45109000  0.38163000  0.39778000  1.0 -0.5160352289
O  O17  1  0.54530000  0.47555000  0.07649000  1.0 -0.6004702522
O  O18  1  0.54530000  0.02445000  0.42351000  1.0 -0.6004702522
O  O19  1  0.95470000  0.97555000  0.92351000  1.0 -0.6004702522
O  O20  1  0.95470000  0.52445000  0.57649000  1.0 -0.6004702522
O  O21  1  0.45470000  0.52445000  0.92351000  1.0 -0.6004702522
O  O22  1  0.45470000  0.97555000  0.57649000  1.0 -0.6004702522
O  O23  1  0.04530000  0.02445000  0.07649000  1.0 -0.6004702522
O  O24  1  0.04530000  0.47555000  0.42351000  1.0 -0.6004702522
O  O25  1  0.46406000  0.38797000  0.10428000  1.0 -0.5378695651
O  O26  1  0.46406000  0.11203000  0.39572000  1.0 -0.5378695651
O  O27  1  0.03594000  0.88797000  0.89572000  1.0 -0.5378695651
O  O28  1  0.03594000  0.61203000  0.60428000  1.0 -0.5378695651
O  O29  1  0.53594000  0.61203000  0.89572000  1.0 -0.5378695651
O  O30  1  0.53594000  0.88797000  0.60428000  1.0 -0.5378695651
O  O31  1  0.96406000  0.11203000  0.10428000  1.0 -0.5378695651
O  O32  1  0.96406000  0.38797000  0.39572000  1.0 -0.5378695651
O  O33  1  0.78197000  0.17282000  0.12829000  1.0 -0.5507850348
O  O34  1  0.78197000  0.32718000  0.37171000  1.0 -0.5507850348
O  O35  1  0.71803000  0.67282000  0.87171000  1.0 -0.5507850348
O  O36  1  0.71803000  0.82718000  0.62829000  1.0 -0.5507850348
O  O37  1  0.21803000  0.82718000  0.87171000  1.0 -0.5507850348
O  O38  1  0.21803000  0.67282000  0.62829000  1.0 -0.5507850348
O  O39  1  0.28197000  0.32718000  0.12829000  1.0 -0.5507850348
O  O40  1  0.28197000  0.17282000  0.37171000  1.0 -0.5507850348
O  O41  1  0.62845000  0.17454000  0.13106000  1.0 -0.5507850348
O  O42  1  0.62845000  0.32546000  0.36894000  1.0 -0.5507850348
O  O43  1  0.87155000  0.67454000  0.86894000  1.0 -0.5507850348
O  O44  1  0.87155000  0.82546000  0.63106000  1.0 -0.5507850348
O  O45  1  0.37155000  0.82546000  0.86894000  1.0 -0.5507850348
O  O46  1  0.37155000  0.67454000  0.63106000  1.0 -0.5507850348
O  O47  1  0.12845000  0.32546000  0.13106000  1.0 -0.5507850348
O  O48  1  0.12845000  0.17454000  0.36894000  1.0 -0.5507850348
O  O49  1  0.20365000  0.45632000  0.07003000  1.0 -0.5013198181
O  O50  1  0.20365000  0.04368000  0.42997000  1.0 -0.5013198181
O  O51  1  0.29635000  0.95632000  0.92997000  1.0 -0.5013198181
O  O52  1  0.29635000  0.54368000  0.57003000  1.0 -0.5013198181
O  O53  1  0.79635000  0.54368000  0.92997000  1.0 -0.5013198181
O  O54  1  0.79635000  0.95632000  0.57003000  1.0 -0.5013198181
O  O55  1  0.70365000  0.04368000  0.07003000  1.0 -0.5013198181
O  O56  1  0.70365000  0.45632000  0.42997000  1.0 -0.5013198181
O  O57  1  0.38280000  0.51145000  0.04859000  1.0 -0.6703830658
O  O58  1  0.38280000  0.98855000  0.45141000  1.0 -0.6703830658
O  O59  1  0.11720000  0.01145000  0.95141000  1.0 -0.6703830658
O  O60  1  0.11720000  0.48855000  0.54859000  1.0 -0.6703830658
O  O61  1  0.61720000  0.48855000  0.95141000  1.0 -0.6703830658
O  O62  1  0.61720000  0.01145000  0.54859000  1.0 -0.6703830658
O  O63  1  0.88280000  0.98855000  0.04859000  1.0 -0.6703830658
O  O64  1  0.88280000  0.51145000  0.45141000  1.0 -0.6703830658
O  O65  1  0.03860000  0.50880000  0.04660000  1.0 -0.6249415799
O  O66  1  0.03860000  0.99120000  0.45340000  1.0 -0.6265069886
O  O67  1  0.46140000  0.00880000  0.95340000  1.0 -0.6249415799
O  O68  1  0.46140000  0.49120000  0.54660000  1.0 -0.6265069886
O  O69  1  0.96140000  0.49120000  0.95340000  1.0 -0.6265069886
O  O70  1  0.96140000  0.00880000  0.54660000  1.0 -0.6249415799
O  O71  1  0.53860000  0.99120000  0.04660000  1.0 -0.6265069886
O  O72  1  0.53860000  0.50880000  0.45340000  1.0 -0.6265069886
O  O73  1  0.14310000  0.61300000  0.06990000  1.0 -0.1400601701
O  O74  1  0.14310000  0.88700000  0.43010000  1.0 -0.1332062332
O  O75  1  0.35690000  0.11300000  0.93010000  1.0 -0.1332062332
O  O76  1  0.35690000  0.38700000  0.56990000  1.0 -0.1400601701
O  O77  1  0.85690000  0.38700000  0.93010000  1.0 -0.1400601701
O  O78  1  0.85690000  0.11300000  0.56990000  1.0 -0.1332062332
O  O79  1  0.64310000  0.88700000  0.06990000  1.0 -0.1332062332
O  O80  1  0.64310000  0.61300000  0.43010000  1.0 -0.1400601701
O  O81  1  0.17900000  0.52230000  0.05040000  1.0 0.0692985003
O  O82  1  0.17900000  0.97770000  0.44960000  1.0 0.0692985003
O  O83  1  0.32100000  0.02230000  0.94960000  1.0 0.0692985003
O  O84  1  0.32100000  0.47770000  0.55040000  1.0 0.0692985003
O  O85  1  0.82100000  0.47770000  0.94960000  1.0 0.0692985003
O  O86  1  0.82100000  0.02230000  0.55040000  1.0 0.0692985003
O  O87  1  0.67900000  0.97770000  0.05040000  1.0 0.0692985003
O  O88  1  0.67900000  0.52230000  0.44960000  1.0 0.0692985003
O  O89  1  0.19340000  0.59510000  0.07860000  1.0 0.1606709456
O  O90  1  0.19340000  0.90490000  0.42140000  1.0 0.1606709456
O  O91  1  0.30660000  0.09510000  0.92140000  1.0 0.1606709456
O  O92  1  0.30660000  0.40490000  0.57860000  1.0 0.1606709456
O  O93  1  0.80660000  0.40490000  0.92140000  1.0 0.1606709456
O  O94  1  0.80660000  0.09510000  0.57860000  1.0 0.1606709456
O  O95  1  0.69340000  0.90490000  0.07860000  1.0 0.1606709456
O  O96  1  0.69340000  0.59510000  0.42140000  1.0 0.1606709456
