# DDEC6 charges by PACMAN v1.1 (https://github.com/mtap-research/PACMAN-charge/)
data_ZIJXOI_ASR_pacman
_symmetry_space_group_name_H-M   'P 1'
_cell_length_a   34.82340000
_cell_length_b   34.82340000
_cell_length_c   34.82340000
_cell_angle_alpha   115.65300000
_cell_angle_beta   107.10100000
_cell_angle_gamma   105.84400000
_symmetry_Int_Tables_number   1
_chemical_formula_structural   Eu2H66Ru2C120N24O13
_chemical_formula_sum   'Eu8 H264 Ru8 C480 N96 O52'
_cell_volume   32217.88882065
_cell_formula_units_Z   4
loop_
 _symmetry_equiv_pos_site_id
 _symmetry_equiv_pos_as_xyz
  1  'x, y, z'
loop_
 _atom_site_type_symbol
 _atom_site_label
 _atom_site_symmetry_multiplicity
 _atom_site_fract_x
 _atom_site_fract_y
 _atom_site_fract_z
 _atom_site_occupancy
 _atom_site_charge
Eu  Eu1  1  0.35148000  0.80286000  0.07420000  1.0 2.0429045652
Eu  Eu2  1  0.21762000  0.70924000  0.99278000  1.0 2.0132442211
Eu  Eu3  1  0.72866000  0.27728000  0.92580000  1.0 2.0429045652
Eu  Eu4  1  0.71646000  0.22484000  0.00722000  1.0 2.0132442211
Eu  Eu5  1  0.27134000  0.19714000  0.54862000  1.0 2.0429045652
Eu  Eu6  1  0.28354000  0.29076000  0.50838000  1.0 2.0132442211
Eu  Eu7  1  0.64852000  0.72272000  0.45138000  1.0 2.0429045652
Eu  Eu8  1  0.78238000  0.77516000  0.49162000  1.0 2.0132442211
H  H1  1  0.83470000  0.72890000  0.23220000  1.0 0.1290651623
H  H2  1  0.90380000  0.75320000  0.23620000  1.0 0.1290651623
H  H3  1  0.96540000  0.82440000  0.30840000  1.0 0.1209836479
H  H4  1  0.92000000  0.93670000  0.47750000  1.0 0.1290651623
H  H5  1  0.84860000  0.89980000  0.46800000  1.0 0.1390595094
H  H6  1  0.79910000  0.82420000  0.39970000  1.0 0.1290651623
H  H7  1  0.05280000  0.04500000  0.50000000  1.0 0.1290651623
H  H8  1  0.11630000  0.11090000  0.53140000  1.0 0.1290651623
H  H9  1  0.15090000  0.03020000  0.44250000  1.0 0.1209836479
H  H10  1  0.08330000  0.96660000  0.40930000  1.0 0.1125656984
H  H11  1  0.81610000  0.81980000  0.25970000  1.0 0.1290651623
H  H12  1  0.79590000  0.85970000  0.23680000  1.0 0.1290651623
H  H13  1  0.72100000  0.85270000  0.21770000  1.0 0.1209836479
H  H14  1  0.62040000  0.74140000  0.29320000  1.0 0.1290651623
H  H15  1  0.66020000  0.71860000  0.33640000  1.0 0.1491168434
H  H16  1  0.73040000  0.72280000  0.33720000  1.0 0.1209836479
H  H17  1  0.52270000  0.74620000  0.18750000  1.0 0.1209836479
H  H18  1  0.45810000  0.74850000  0.15500000  1.0 0.1209836479
H  H19  1  0.51440000  0.85810000  0.14870000  1.0 0.1014205861
H  H20  1  0.57760000  0.85850000  0.18490000  1.0 0.1209836479
H  H21  1  0.73010000  0.71530000  0.18100000  1.0 0.1125656984
H  H22  1  0.68680000  0.63440000  0.10820000  1.0 0.1390595094
H  H23  1  0.69600000  0.58070000  0.12490000  1.0 0.1125656984
H  H24  1  0.81730000  0.61500000  0.31850000  1.0 0.1290651623
H  H25  1  0.84040000  0.69280000  0.39300000  1.0 0.1390595094
H  H26  1  0.83240000  0.74270000  0.37690000  1.0 0.1290651623
H  H27  1  0.78560000  0.46980000  0.19900000  1.0 0.1290651623
H  H28  1  0.78400000  0.40170000  0.16390000  1.0 0.1209836479
H  H29  1  0.68450000  0.35970000  0.04680000  1.0 0.1290651623
H  H30  1  0.67670000  0.42010000  0.09360000  1.0 0.1209836479
H  H31  1  0.42400000  0.76350000  0.53970000  1.0 0.1209836479
H  H32  1  0.40720000  0.74340000  0.58880000  1.0 0.1290651623
H  H33  1  0.40190000  0.67220000  0.58490000  1.0 0.1290651623
H  H34  1  0.46890000  0.55900000  0.42390000  1.0 0.1290651623
H  H35  1  0.50450000  0.60030000  0.39760000  1.0 0.1390595094
H  H36  1  0.50680000  0.67030000  0.41770000  1.0 0.1290651623
H  H37  1  0.37860000  0.44190000  0.43470000  1.0 0.1290651623
H  H38  1  0.34800000  0.37750000  0.44090000  1.0 0.1209836479
H  H39  1  0.33920000  0.45940000  0.55760000  1.0 0.1125656984
H  H40  1  0.36300000  0.52560000  0.55280000  1.0 0.1125656984
H  H41  1  0.36170000  0.67050000  0.43200000  1.0 0.1209836479
H  H42  1  0.29780000  0.64520000  0.37520000  1.0 0.1290651623
H  H43  1  0.29760000  0.65630000  0.31310000  1.0 0.1125656984
H  H44  1  0.49230000  0.75980000  0.32890000  1.0 0.1290651623
H  H45  1  0.55390000  0.78360000  0.39410000  1.0 0.1390595094
H  H46  1  0.55140000  0.77700000  0.45840000  1.0 0.1390595094
H  H47  1  0.38950000  0.76960000  0.22430000  1.0 0.1290651623
H  H48  1  0.35550000  0.76140000  0.15630000  1.0 0.1390595094
H  H49  1  0.23770000  0.66050000  0.11480000  1.0 0.1209836479
H  H50  1  0.27270000  0.65340000  0.17210000  1.0 0.1209836479
H  H51  1  0.56590000  0.74980000  0.53210000  1.0 0.1290651623
H  H52  1  0.63100000  0.80070000  0.58670000  1.0 0.1290651623
H  H53  1  0.64870000  0.88230000  0.64420000  1.0 0.1290651623
H  H54  1  0.48240000  0.92180000  0.57680000  1.0 0.1209836479
H  H55  1  0.41420000  0.86720000  0.50820000  1.0 0.1290651623
H  H56  1  0.39750000  0.78410000  0.46000000  1.0 0.1125656984
H  H57  1  0.58980000  0.06170000  0.68670000  1.0 0.1125656984
H  H58  1  0.62880000  0.14380000  0.75580000  1.0 0.1290651623
H  H59  1  0.71080000  0.10640000  0.82520000  1.0 0.1209836479
H  H60  1  0.66920000  0.02820000  0.75500000  1.0 0.1209836479
H  H61  1  0.01430000  0.90430000  0.37020000  1.0 0.2979475533
H  H62  1  0.65160000  0.84520000  0.21800000  1.0 0.2906983074
H  H63  1  0.70560000  0.52340000  0.12220000  1.0 0.2906983074
H  H64  1  0.38800000  0.58320000  0.54340000  1.0 0.2838913475
H  H65  1  0.31050000  0.68670000  0.26020000  1.0 0.2906983074
H  H66  1  0.54030000  0.97910000  0.63700000  1.0 0.2906983074
H  H67  1  0.49670000  0.60250000  0.76780000  1.0 0.1290651623
H  H68  1  0.51700000  0.66760000  0.76380000  1.0 0.1290651623
H  H69  1  0.51600000  0.65700000  0.69160000  1.0 0.1209836479
H  H70  1  0.45920000  0.44250000  0.52250000  1.0 0.1290651623
H  H71  1  0.43180000  0.38060000  0.53200000  1.0 0.1491168434
H  H72  1  0.42450000  0.39940000  0.60030000  1.0 0.1290651623
H  H73  1  0.54500000  0.55280000  0.50000000  1.0 0.1290651623
H  H74  1  0.57950000  0.58490000  0.46860000  1.0 0.1290651623
H  H75  1  0.58770000  0.70840000  0.55750000  1.0 0.1209836479
H  H76  1  0.55730000  0.67400000  0.59070000  1.0 0.1125656984
H  H77  1  0.56010000  0.55640000  0.74030000  1.0 0.1209836479
H  H78  1  0.62290000  0.55910000  0.76320000  1.0 0.1290651623
H  H79  1  0.63500000  0.50330000  0.78230000  1.0 0.1209836479
H  H80  1  0.44820000  0.32720000  0.70680000  1.0 0.1290651623
H  H81  1  0.38220000  0.32380000  0.66360000  1.0 0.1491168434
H  H82  1  0.38560000  0.39320000  0.66280000  1.0 0.1209836479
H  H83  1  0.55870000  0.33520000  0.81250000  1.0 0.1209836479
H  H84  1  0.59350000  0.30310000  0.84500000  1.0 0.1209836479
H  H85  1  0.70940000  0.36570000  0.85130000  1.0 0.1014205861
H  H86  1  0.67360000  0.39270000  0.81510000  1.0 0.1209836479
H  H87  1  0.53430000  0.54910000  0.81900000  1.0 0.1125656984
H  H88  1  0.52620000  0.57860000  0.89180000  1.0 0.1390595094
H  H89  1  0.45580000  0.57110000  0.87510000  1.0 0.1125656984
H  H90  1  0.29650000  0.49880000  0.68150000  1.0 0.1290651623
H  H91  1  0.29980000  0.44740000  0.60700000  1.0 0.1390595094
H  H92  1  0.36580000  0.45550000  0.62310000  1.0 0.1290651623
H  H93  1  0.27080000  0.58660000  0.80100000  1.0 0.1290651623
H  H94  1  0.23780000  0.62010000  0.83610000  1.0 0.1209836479
H  H95  1  0.31290000  0.63770000  0.95320000  1.0 0.1290651623
H  H96  1  0.32650000  0.58310000  0.90640000  1.0 0.1209836479
H  H97  1  0.22380000  0.88430000  0.46030000  1.0 0.1209836479
H  H98  1  0.15460000  0.81840000  0.41120000  1.0 0.1290651623
H  H99  1  0.08730000  0.81700000  0.41510000  1.0 0.1290651623
H  H100  1  0.13510000  0.04500000  0.57610000  1.0 0.1290651623
H  H101  1  0.20270000  0.10690000  0.60240000  1.0 0.1390595094
H  H102  1  0.25260000  0.08910000  0.58230000  1.0 0.1290651623
H  H103  1  0.00720000  0.94390000  0.56530000  1.0 0.1290651623
H  H104  1  0.93660000  0.90710000  0.55910000  1.0 0.1209836479
H  H105  1  0.90180000  0.78160000  0.44240000  1.0 0.1125656984
H  H106  1  0.97280000  0.81020000  0.44720000  1.0 0.1125656984
H  H107  1  0.23850000  0.92970000  0.56800000  1.0 0.1209836479
H  H108  1  0.27000000  0.92260000  0.62480000  1.0 0.1290651623
H  H109  1  0.34320000  0.98450000  0.68690000  1.0 0.1125656984
H  H110  1  0.43090000  0.16340000  0.67110000  1.0 0.1290651623
H  H111  1  0.38950000  0.15980000  0.60590000  1.0 0.1390595094
H  H112  1  0.31860000  0.09300000  0.54160000  1.0 0.1390595094
H  H113  1  0.54530000  0.16520000  0.77570000  1.0 0.1290651623
H  H114  1  0.60510000  0.19920000  0.84370000  1.0 0.1390595094
H  H115  1  0.54570000  0.12290000  0.88520000  1.0 0.1125656984
H  H116  1  0.48130000  0.10060000  0.82790000  1.0 0.1209836479
H  H117  1  0.21770000  0.03380000  0.46790000  1.0 0.1290651623
H  H118  1  0.21400000  0.04430000  0.41330000  1.0 0.1390595094
H  H119  1  0.23810000  0.00450000  0.35580000  1.0 0.1290651623
H  H120  1  0.34500000  0.90560000  0.42320000  1.0 0.1209836479
H  H121  1  0.35900000  0.90600000  0.49180000  1.0 0.1290651623
H  H122  1  0.32410000  0.93750000  0.54000000  1.0 0.1125656984
H  H123  1  0.37500000  0.90310000  0.31330000  1.0 0.1125656984
H  H124  1  0.38800000  0.87300000  0.24420000  1.0 0.1290651623
H  H125  1  0.28120000  0.88560000  0.17480000  1.0 0.1209836479
H  H126  1  0.27320000  0.91420000  0.24500000  1.0 0.1290651623
H  H127  1  0.53410000  0.64410000  0.62980000  1.0 0.2979475533
H  H128  1  0.62720000  0.43360000  0.78200000  1.0 0.2906983074
H  H129  1  0.40120000  0.58340000  0.87780000  1.0 0.2906983074
H  H130  1  0.03980000  0.84460000  0.45660000  1.0 0.2838913475
H  H131  1  0.42650000  0.05030000  0.73980000  1.0 0.2906983074
H  H132  1  0.34210000  0.90330000  0.36300000  1.0 0.2906983074
H  H133  1  0.50330000  0.27110000  0.10580000  1.0 0.1290651623
H  H134  1  0.48300000  0.24680000  0.15060000  1.0 0.1290651623
H  H135  1  0.48400000  0.17560000  0.14100000  1.0 0.1209836479
H  H136  1  0.54080000  0.06330000  0.98330000  1.0 0.1290651623
H  H137  1  0.56820000  0.10020000  0.94880000  1.0 0.1390595094
H  H138  1  0.57550000  0.17580000  0.97490000  1.0 0.1290651623
H  H139  1  0.45500000  0.95500000  0.00780000  1.0 0.1290651623
H  H140  1  0.42050000  0.88910000  0.00540000  1.0 0.1290651623
H  H141  1  0.41230000  0.96980000  0.12070000  1.0 0.1209836479
H  H142  1  0.44270000  0.03340000  0.11670000  1.0 0.1125656984
H  H143  1  0.43990000  0.18020000  0.99630000  1.0 0.1209836479
H  H144  1  0.37710000  0.14030000  0.93620000  1.0 0.1290651623
H  H145  1  0.36500000  0.14730000  0.86830000  1.0 0.1209836479
H  H146  1  0.55180000  0.25860000  0.87900000  1.0 0.1290651623
H  H147  1  0.61780000  0.28140000  0.94160000  1.0 0.1491168434
H  H148  1  0.61440000  0.27720000  0.00760000  1.0 0.1209836479
H  H149  1  0.44130000  0.25380000  0.77650000  1.0 0.1209836479
H  H150  1  0.40650000  0.25150000  0.70960000  1.0 0.1209836479
H  H151  1  0.29060000  0.14190000  0.65630000  1.0 0.1014205861
H  H152  1  0.32640000  0.14150000  0.71910000  1.0 0.1209836479
H  H153  1  0.46570000  0.28470000  0.01480000  1.0 0.1125656984
H  H154  1  0.47380000  0.36560000  0.05240000  1.0 0.1390595094
H  H155  1  0.54420000  0.41930000  0.11530000  1.0 0.1125656984
H  H156  1  0.70350000  0.38500000  0.20230000  1.0 0.1290651623
H  H157  1  0.70020000  0.30720000  0.14760000  1.0 0.1390595094
H  H158  1  0.63420000  0.25730000  0.08970000  1.0 0.1290651623
H  H159  1  0.72920000  0.53020000  0.31580000  1.0 0.1290651623
H  H160  1  0.76220000  0.59830000  0.38230000  1.0 0.1209836479
H  H161  1  0.68710000  0.64030000  0.32480000  1.0 0.1290651623
H  H162  1  0.67350000  0.57990000  0.25660000  1.0 0.1209836479
H  H163  1  0.77620000  0.23650000  0.66050000  1.0 0.1209836479
H  H164  1  0.84540000  0.25660000  0.66380000  1.0 0.1290651623
H  H165  1  0.91270000  0.32780000  0.72970000  1.0 0.1290651623
H  H166  1  0.86490000  0.44100000  0.90990000  1.0 0.1290651623
H  H167  1  0.79730000  0.39970000  0.90420000  1.0 0.1390595094
H  H168  1  0.74740000  0.32970000  0.83650000  1.0 0.1290651623
H  H169  1  0.99280000  0.55810000  0.93670000  1.0 0.1290651623
H  H170  1  0.06340000  0.62250000  0.97050000  1.0 0.1209836479
H  H171  1  0.09820000  0.54060000  0.87980000  1.0 0.1125656984
H  H172  1  0.02720000  0.47440000  0.83740000  1.0 0.1125656984
H  H173  1  0.76150000  0.32950000  0.69120000  1.0 0.1209836479
H  H174  1  0.73000000  0.35480000  0.65260000  1.0 0.1290651623
H  H175  1  0.65680000  0.34370000  0.64130000  1.0 0.1125656984
H  H176  1  0.56910000  0.24020000  0.73250000  1.0 0.1290651623
H  H177  1  0.61050000  0.21640000  0.77030000  1.0 0.1390595094
H  H178  1  0.68140000  0.22300000  0.77440000  1.0 0.1390595094
H  H179  1  0.45470000  0.23040000  0.61990000  1.0 0.1290651623
H  H180  1  0.39490000  0.23860000  0.59410000  1.0 0.1390595094
H  H181  1  0.45430000  0.33950000  0.57720000  1.0 0.1125656984
H  H182  1  0.51870000  0.34660000  0.61930000  1.0 0.1209836479
H  H183  1  0.78230000  0.25020000  0.81610000  1.0 0.1290651623
H  H184  1  0.78600000  0.19930000  0.83030000  1.0 0.1290651623
H  H185  1  0.76190000  0.11770000  0.76640000  1.0 0.1290651623
H  H186  1  0.65500000  0.07820000  0.56060000  1.0 0.1209836479
H  H187  1  0.64100000  0.13280000  0.54700000  1.0 0.1290651623
H  H188  1  0.67590000  0.21590000  0.61340000  1.0 0.1125656984
H  H189  1  0.62500000  0.93830000  0.52810000  1.0 0.1125656984
H  H190  1  0.61200000  0.85620000  0.48500000  1.0 0.1290651623
H  H191  1  0.71880000  0.89360000  0.60440000  1.0 0.1209836479
H  H192  1  0.72680000  0.97180000  0.64100000  1.0 0.1290651623
H  H193  1  0.46590000  0.09570000  0.11000000  1.0 0.2979475533
H  H194  1  0.37280000  0.15480000  0.80640000  1.0 0.2906983074
H  H195  1  0.59880000  0.47660000  0.18220000  1.0 0.2906983074
H  H196  1  0.96020000  0.41680000  0.80480000  1.0 0.2838913475
H  H197  1  0.57350000  0.31330000  0.62380000  1.0 0.2906983074
H  H198  1  0.65790000  0.02090000  0.56120000  1.0 0.2906983074
H  H199  1  0.16530000  0.39750000  0.89420000  1.0 0.1290651623
H  H200  1  0.09620000  0.33240000  0.84940000  1.0 0.1290651623
H  H201  1  0.03460000  0.34300000  0.85900000  1.0 0.1209836479
H  H202  1  0.08000000  0.55750000  0.01670000  1.0 0.1290651623
H  H203  1  0.15140000  0.61940000  0.05120000  1.0 0.1491168434
H  H204  1  0.20090000  0.60060000  0.02510000  1.0 0.1290651623
H  H205  1  0.94720000  0.44720000  0.99220000  1.0 0.1290651623
H  H206  1  0.88370000  0.41510000  0.99460000  1.0 0.1290651623
H  H207  1  0.84910000  0.29160000  0.87930000  1.0 0.1209836479
H  H208  1  0.91670000  0.32600000  0.88330000  1.0 0.1125656984
H  H209  1  0.18390000  0.44360000  0.00370000  1.0 0.1209836479
H  H210  1  0.20410000  0.44090000  0.06380000  1.0 0.1290651623
H  H211  1  0.27900000  0.49670000  0.13170000  1.0 0.1209836479
H  H212  1  0.37960000  0.67280000  0.12100000  1.0 0.1290651623
H  H213  1  0.33980000  0.67620000  0.05840000  1.0 0.1491168434
H  H214  1  0.26960000  0.60680000  0.99240000  1.0 0.1209836479
H  H215  1  0.47730000  0.66480000  0.22350000  1.0 0.1209836479
H  H216  1  0.54190000  0.69690000  0.29040000  1.0 0.1209836479
H  H217  1  0.48560000  0.63430000  0.34370000  1.0 0.1014205861
H  H218  1  0.42240000  0.60730000  0.28090000  1.0 0.1209836479
H  H219  1  0.26990000  0.45090000  0.98520000  1.0 0.1125656984
H  H220  1  0.31320000  0.42140000  0.94760000  1.0 0.1390595094
H  H221  1  0.30400000  0.42890000  0.88470000  1.0 0.1125656984
H  H222  1  0.18270000  0.50120000  0.79770000  1.0 0.1290651623
H  H223  1  0.15960000  0.55260000  0.85240000  1.0 0.1390595094
H  H224  1  0.16760000  0.54450000  0.91030000  1.0 0.1209836479
H  H225  1  0.21440000  0.41340000  0.68420000  1.0 0.1290651623
H  H226  1  0.21600000  0.37990000  0.61770000  1.0 0.1209836479
H  H227  1  0.31550000  0.36230000  0.67520000  1.0 0.1290651623
H  H228  1  0.32330000  0.41690000  0.74340000  1.0 0.1209836479
H  H229  1  0.57600000  0.11570000  0.33950000  1.0 0.1209836479
H  H230  1  0.59280000  0.18160000  0.33620000  1.0 0.1290651623
H  H231  1  0.59810000  0.18300000  0.27030000  1.0 0.1290651623
H  H232  1  0.53110000  0.95500000  0.09010000  1.0 0.1290651623
H  H233  1  0.49550000  0.89310000  0.09580000  1.0 0.1390595094
H  H234  1  0.49320000  0.91090000  0.16350000  1.0 0.1290651623
H  H235  1  0.62140000  0.05610000  0.06330000  1.0 0.1290651623
H  H236  1  0.65200000  0.09290000  0.02950000  1.0 0.1125656984
H  H237  1  0.66080000  0.21840000  0.12020000  1.0 0.1125656984
H  H238  1  0.63700000  0.18980000  0.16260000  1.0 0.1125656984
H  H239  1  0.63830000  0.07030000  0.30880000  1.0 0.1209836479
H  H240  1  0.70220000  0.07740000  0.34740000  1.0 0.1290651623
H  H241  1  0.70240000  0.01550000  0.35870000  1.0 0.1125656984
H  H242  1  0.50770000  0.83660000  0.26750000  1.0 0.1290651623
H  H243  1  0.44610000  0.84020000  0.22970000  1.0 0.1390595094
H  H244  1  0.44860000  0.90700000  0.22560000  1.0 0.1390595094
H  H245  1  0.61050000  0.83480000  0.38010000  1.0 0.1290651623
H  H246  1  0.64450000  0.80080000  0.40590000  1.0 0.1390595094
H  H247  1  0.76230000  0.87710000  0.42280000  1.0 0.1209836479
H  H248  1  0.72730000  0.89940000  0.38070000  1.0 0.1209836479
H  H249  1  0.43410000  0.96620000  0.18390000  1.0 0.1290651623
H  H250  1  0.36900000  0.95570000  0.16970000  1.0 0.1390595094
H  H251  1  0.35130000  0.99550000  0.23360000  1.0 0.1290651623
H  H252  1  0.51760000  0.09440000  0.43940000  1.0 0.1209836479
H  H253  1  0.58580000  0.09400000  0.45300000  1.0 0.1290651623
H  H254  1  0.60250000  0.06250000  0.38660000  1.0 0.1125656984
H  H255  1  0.41020000  0.09690000  0.47190000  1.0 0.1125656984
H  H256  1  0.37120000  0.12700000  0.51500000  1.0 0.1290651623
H  H257  1  0.28920000  0.11440000  0.39560000  1.0 0.1209836479
H  H258  1  0.33080000  0.08580000  0.35900000  1.0 0.1290651623
H  H259  1  0.98570000  0.35590000  0.89000000  1.0 0.2979475533
H  H260  1  0.34840000  0.56640000  0.19360000  1.0 0.2979475533
H  H261  1  0.29440000  0.41660000  0.81780000  1.0 0.2906983074
H  H262  1  0.61200000  0.15540000  0.19520000  1.0 0.2838913475
H  H263  1  0.68950000  0.94970000  0.37620000  1.0 0.2906983074
H  H264  1  0.45970000  0.09670000  0.43880000  1.0 0.2906983074
Ru  Ru1  1  0.78976000  0.75875000  0.29779000  1.0 0.6876467362
Ru  Ru2  1  0.46744000  0.73762000  0.47484000  1.0 0.6827695464
Ru  Ru3  1  0.46096000  0.49197000  0.70221000  1.0 0.6876467362
Ru  Ru4  1  0.26278000  0.99260000  0.52516000  1.0 0.6827695464
Ru  Ru5  1  0.53904000  0.24125000  0.03101000  1.0 0.6876467362
Ru  Ru6  1  0.73722000  0.26238000  0.72982000  1.0 0.6876467362
Ru  Ru7  1  0.21024000  0.50803000  0.96899000  1.0 0.6876467362
Ru  Ru8  1  0.53256000  0.00740000  0.27018000  1.0 0.6876467362
C  C1  1  0.85880000  0.75700000  0.26220000  1.0 0.0324260857
C  C2  1  0.90000000  0.77180000  0.26300000  1.0 -0.1589512575
C  C3  1  0.93500000  0.81380000  0.30320000  1.0 -0.1285296374
C  C4  1  0.92340000  0.83880000  0.33440000  1.0 -0.0399013258
C  C5  1  0.88420000  0.81880000  0.33340000  1.0 0.0683416073
C  C6  1  0.87680000  0.84310000  0.37090000  1.0 0.0813505669
C  C7  1  0.90920000  0.88690000  0.41070000  1.0 0.0175851023
C  C8  1  0.89780000  0.90690000  0.44810000  1.0 -0.0796778862
C  C9  1  0.85660000  0.88520000  0.44360000  1.0 -0.1194130659
C  C10  1  0.82710000  0.84110000  0.40200000  1.0 0.0540542496
C  C11  1  0.95490000  0.88350000  0.37120000  1.0 0.0606656772
C  C12  1  0.94880000  0.90900000  0.41020000  1.0 0.0813505669
C  C13  1  0.01620000  0.95810000  0.42630000  1.0 0.2627011781
C  C14  1  0.05780000  0.99590000  0.44990000  1.0 -0.0011185202
C  C15  1  0.07200000  0.04070000  0.48570000  1.0 -0.1285296374
C  C16  1  0.11010000  0.08130000  0.50460000  1.0 -0.1005411216
C  C17  1  0.13990000  0.08090000  0.48620000  1.0 -0.0503399145
C  C18  1  0.12970000  0.03550000  0.45340000  1.0 -0.1005411216
C  C19  1  0.08930000  0.99650000  0.43520000  1.0 -0.1680511419
C  C20  1  0.18000000  0.12020000  0.50180000  1.0 0.5465867613
C  C21  1  0.78840000  0.81700000  0.26040000  1.0 -0.0399013258
C  C22  1  0.77590000  0.84100000  0.24270000  1.0 -0.1404982165
C  C23  1  0.73400000  0.83910000  0.23290000  1.0 -0.1589512575
C  C24  1  0.71400000  0.81370000  0.24910000  1.0 -0.0503399145
C  C25  1  0.73710000  0.79500000  0.26670000  1.0 0.0606656772
C  C26  1  0.71190000  0.77270000  0.28340000  1.0 0.1209836479
C  C27  1  0.66920000  0.76430000  0.27690000  1.0 0.0018239178
C  C28  1  0.64940000  0.74480000  0.29660000  1.0 -0.0796778862
C  C29  1  0.67180000  0.73080000  0.32040000  1.0 -0.1005411216
C  C30  1  0.71410000  0.73410000  0.32160000  1.0 0.0324260857
C  C31  1  0.66930000  0.80510000  0.23800000  1.0 0.0933955089
C  C32  1  0.65230000  0.78200000  0.25850000  1.0 0.0606656772
C  C33  1  0.59490000  0.79860000  0.21430000  1.0 0.2079310996
C  C34  1  0.56280000  0.80450000  0.19170000  1.0 -0.0301721088
C  C35  1  0.52300000  0.76950000  0.18030000  1.0 -0.1285296374
C  C36  1  0.48390000  0.77030000  0.15800000  1.0 -0.1094180267
C  C37  1  0.47400000  0.79610000  0.13910000  1.0 -0.0503399145
C  C38  1  0.51380000  0.83350000  0.15410000  1.0 -0.1194130659
C  C39  1  0.55130000  0.83260000  0.17670000  1.0 -0.1680511419
C  C40  1  0.44460000  0.80880000  0.11980000  1.0 0.4297098909
C  C41  1  0.72940000  0.68830000  0.18210000  1.0 0.0324260857
C  C42  1  0.70540000  0.64280000  0.13960000  1.0 -0.1285296374
C  C43  1  0.71370000  0.61340000  0.15150000  1.0 -0.1094180267
C  C44  1  0.74040000  0.61800000  0.19100000  1.0 -0.0503399145
C  C45  1  0.75730000  0.66150000  0.23080000  1.0 0.0813505669
C  C46  1  0.77930000  0.67080000  0.27270000  1.0 0.0107190359
C  C47  1  0.78580000  0.63610000  0.27670000  1.0 0.0175851023
C  C48  1  0.81100000  0.63980000  0.31840000  1.0 -0.1285296374
C  C49  1  0.82620000  0.68430000  0.36070000  1.0 -0.1194130659
C  C50  1  0.81700000  0.71230000  0.34710000  1.0 -0.0137534741
C  C51  1  0.74340000  0.58070000  0.19410000  1.0 0.0813505669
C  C52  1  0.76960000  0.58810000  0.23650000  1.0 0.0606656772
C  C53  1  0.74180000  0.51390000  0.17710000  1.0 0.2838913475
C  C54  1  0.73730000  0.46290000  0.14740000  1.0 0.0107190359
C  C55  1  0.76310000  0.44750000  0.16600000  1.0 -0.1094180267
C  C56  1  0.76130000  0.40480000  0.14410000  1.0 -0.1094180267
C  C57  1  0.73250000  0.36340000  0.09770000  1.0 0.0107190359
C  C58  1  0.70530000  0.37960000  0.08050000  1.0 -0.1094180267
C  C59  1  0.70510000  0.42070000  0.10640000  1.0 -0.1404982165
C  C60  1  0.73490000  0.31800000  0.07410000  1.0 0.517852733
C  C61  1  0.42870000  0.73810000  0.54020000  1.0 0.0683416073
C  C62  1  0.41460000  0.72290000  0.56690000  1.0 -0.1680511419
C  C63  1  0.41030000  0.68110000  0.56520000  1.0 -0.1589512575
C  C64  1  0.42150000  0.65170000  0.52600000  1.0 -0.0195817397
C  C65  1  0.44180000  0.67880000  0.50860000  1.0 0.1290651623
C  C66  1  0.45540000  0.65260000  0.47180000  1.0 0.1209836479
C  C67  1  0.45360000  0.60950000  0.46170000  1.0 -0.0011185202
C  C68  1  0.47100000  0.58980000  0.43280000  1.0 -0.1005411216
C  C69  1  0.49100000  0.61310000  0.41670000  1.0 -0.1005411216
C  C70  1  0.49110000  0.65350000  0.42820000  1.0 -0.0195817397
C  C71  1  0.42050000  0.60770000  0.51120000  1.0 0.0107190359
C  C72  1  0.42850000  0.58230000  0.47600000  1.0 0.0683416073
C  C73  1  0.40020000  0.53730000  0.49490000  1.0 0.2906983074
C  C74  1  0.38410000  0.49550000  0.50120000  1.0 0.0606656772
C  C75  1  0.37280000  0.44660000  0.46100000  1.0 -0.1680511419
C  C76  1  0.35310000  0.40800000  0.46490000  1.0 -0.0883218776
C  C77  1  0.33960000  0.40900000  0.50040000  1.0 -0.0399013258
C  C78  1  0.34690000  0.45550000  0.53260000  1.0 -0.0691525867
C  C79  1  0.36420000  0.49740000  0.53280000  1.0 -0.2196772541
C  C80  1  0.32020000  0.36390000  0.49730000  1.0 0.5465867613
C  C81  1  0.36670000  0.67940000  0.41110000  1.0 -0.1005411216
C  C82  1  0.32490000  0.66130000  0.37560000  1.0 -0.1005411216
C  C83  1  0.32540000  0.66840000  0.34040000  1.0 -0.185384289
C  C84  1  0.36640000  0.69330000  0.34410000  1.0 0.0107190359
C  C85  1  0.40260000  0.70710000  0.38270000  1.0 -0.0503399145
C  C86  1  0.44330000  0.73140000  0.38490000  1.0 0.1861052496
C  C87  1  0.44750000  0.73870000  0.35000000  1.0 -0.0195817397
C  C88  1  0.48910000  0.75690000  0.35380000  1.0 -0.0691525867
C  C89  1  0.52510000  0.77030000  0.39240000  1.0 -0.1094180267
C  C90  1  0.52530000  0.76700000  0.43050000  1.0 0.0107190359
C  C91  1  0.36550000  0.70220000  0.30930000  1.0 0.0386334035
C  C92  1  0.40850000  0.72670000  0.31580000  1.0 0.0933955089
C  C93  1  0.35590000  0.71450000  0.24440000  1.0 0.1599760746
C  C94  1  0.33060000  0.71210000  0.20450000  1.0 -0.0301721088
C  C95  1  0.35880000  0.74660000  0.20120000  1.0 -0.1285296374
C  C96  1  0.33580000  0.74140000  0.16140000  1.0 -0.0796778862
C  C97  1  0.28700000  0.71400000  0.11880000  1.0 -0.1005411216
C  C98  1  0.26910000  0.68220000  0.13470000  1.0 -0.0796778862
C  C99  1  0.28850000  0.67910000  0.17040000  1.0 -0.1404982165
C  C100  1  0.26920000  0.71190000  0.07930000  1.0 0.527543137
C  C101  1  0.56650000  0.78030000  0.54680000  1.0 -0.0691525867
C  C102  1  0.60870000  0.81140000  0.58330000  1.0 -0.1094180267
C  C103  1  0.62070000  0.85800000  0.61570000  1.0 -0.1094180267
C  C104  1  0.58100000  0.86080000  0.59620000  1.0 0.0540542496
C  C105  1  0.54080000  0.83160000  0.55780000  1.0 -0.0195817397
C  C106  1  0.50590000  0.83660000  0.54270000  1.0 0.1209836479
C  C107  1  0.51050000  0.88030000  0.56920000  1.0 -0.0399013258
C  C108  1  0.47760000  0.89000000  0.55680000  1.0 -0.1285296374
C  C109  1  0.43620000  0.85700000  0.51640000  1.0 -0.1404982165
C  C110  1  0.42560000  0.80950000  0.48750000  1.0 -0.0399013258
C  C111  1  0.58080000  0.91030000  0.62110000  1.0 0.1014205861
C  C112  1  0.54670000  0.91770000  0.60360000  1.0 0.0018239178
C  C113  1  0.59880000  0.98790000  0.67110000  1.0 0.2480854189
C  C114  1  0.62240000  0.03380000  0.71000000  1.0 -0.0195817397
C  C115  1  0.61440000  0.06940000  0.71440000  1.0 -0.1589512575
C  C116  1  0.63820000  0.12080000  0.75660000  1.0 -0.1005411216
C  C117  1  0.67260000  0.13180000  0.79460000  1.0 0.0107190359
C  C118  1  0.68620000  0.09830000  0.79710000  1.0 -0.1194130659
C  C119  1  0.66020000  0.05140000  0.75420000  1.0 -0.1404982165
C  C120  1  0.70320000  0.18730000  0.85250000  1.0 0.527543137
C  C121  1  0.49480000  0.59660000  0.73780000  1.0 0.0324260857
C  C122  1  0.50880000  0.63700000  0.73700000  1.0 -0.1589512575
C  C123  1  0.51060000  0.63180000  0.69680000  1.0 -0.1285296374
C  C124  1  0.50440000  0.58900000  0.66560000  1.0 -0.0399013258
C  C125  1  0.48540000  0.55080000  0.66666667  1.0 0.0683416073
C  C126  1  0.47220000  0.50590000  0.62910000  1.0 0.0813505669
C  C127  1  0.47620000  0.49850000  0.58930000  1.0 0.0175851023
C  C128  1  0.45880000  0.44970000  0.55190000  1.0 -0.0796778862
C  C129  1  0.44160000  0.41300000  0.55640000  1.0 -0.1194130659
C  C130  1  0.43910000  0.42510000  0.59800000  1.0 0.0540542496
C  C131  1  0.51230000  0.58370000  0.62880000  1.0 0.0606656772
C  C132  1  0.49880000  0.53860000  0.58980000  1.0 0.0813505669
C  C133  1  0.53180000  0.58990000  0.57370000  1.0 0.2627011781
C  C134  1  0.54600000  0.60790000  0.55010000  1.0 -0.0011185202
C  C135  1  0.55500000  0.58630000  0.51430000  1.0 -0.1285296374
C  C136  1  0.57670000  0.60550000  0.49540000  1.0 -0.1005411216
C  C137  1  0.59470000  0.65370000  0.51380000  1.0 -0.0503399145
C  C138  1  0.58210000  0.67630000  0.54660000  1.0 -0.1005411216
C  C139  1  0.56130000  0.65410000  0.56480000  1.0 -0.1589512575
C  C140  1  0.61840000  0.67820000  0.49820000  1.0 0.5465867613
C  C141  1  0.55660000  0.52800000  0.73960000  1.0 -0.0399013258
C  C142  1  0.59830000  0.53320000  0.75730000  1.0 -0.1404982165
C  C143  1  0.60620000  0.50110000  0.76710000  1.0 -0.1589512575
C  C144  1  0.56460000  0.46490000  0.75090000  1.0 -0.0503399145
C  C145  1  0.52830000  0.47040000  0.73330000  1.0 0.0606656772
C  C146  1  0.48930000  0.42850000  0.71660000  1.0 0.1209836479
C  C147  1  0.48740000  0.39230000  0.72310000  1.0 0.0018239178
C  C148  1  0.44820000  0.35280000  0.70340000  1.0 -0.0796778862
C  C149  1  0.41040000  0.35140000  0.67960000  1.0 -0.1005411216
C  C150  1  0.41250000  0.39250000  0.67840000  1.0 0.0324260857
C  C151  1  0.56710000  0.43130000  0.76200000  1.0 0.0933955089
C  C152  1  0.52350000  0.39380000  0.74150000  1.0 0.0606656772
C  C153  1  0.58430000  0.38060000  0.78570000  1.0 0.2079310996
C  C154  1  0.61280000  0.37110000  0.80830000  1.0 -0.0301721088
C  C155  1  0.58920000  0.34270000  0.81970000  1.0 -0.1285296374
C  C156  1  0.61230000  0.32590000  0.84200000  1.0 -0.1094180267
C  C157  1  0.65700000  0.33490000  0.86090000  1.0 -0.0503399145
C  C158  1  0.67940000  0.35970000  0.84590000  1.0 -0.1094180267
C  C159  1  0.65590000  0.37460000  0.82330000  1.0 -0.1680511419
C  C160  1  0.68900000  0.32480000  0.88020000  1.0 0.4297098909
C  C161  1  0.50620000  0.54730000  0.81790000  1.0 0.0324260857
C  C162  1  0.50320000  0.56580000  0.86040000  1.0 -0.1285296374
C  C163  1  0.46190000  0.56220000  0.84850000  1.0 -0.1094180267
C  C164  1  0.42700000  0.54940000  0.80900000  1.0 -0.0399013258
C  C165  1  0.43070000  0.52650000  0.76920000  1.0 0.0813505669
C  C166  1  0.39810000  0.50660000  0.72730000  1.0 0.0107190359
C  C167  1  0.35940000  0.50910000  0.72330000  1.0 0.0175851023
C  C168  1  0.32140000  0.49260000  0.68160000  1.0 -0.1285296374
C  C169  1  0.32360000  0.46550000  0.63930000  1.0 -0.1194130659
C  C170  1  0.36520000  0.46990000  0.65290000  1.0 -0.0137534741
C  C171  1  0.38660000  0.54930000  0.80590000  1.0 0.0813505669
C  C172  1  0.35160000  0.53310000  0.76350000  1.0 0.0606656772
C  C173  1  0.33680000  0.56470000  0.82290000  1.0 0.2906983074
C  C174  1  0.31550000  0.58990000  0.85260000  1.0 0.0107190359
C  C175  1  0.28150000  0.59710000  0.83400000  1.0 -0.1094180267
C  C176  1  0.26070000  0.61720000  0.85590000  1.0 -0.1094180267
C  C177  1  0.26570000  0.63480000  0.90230000  1.0 0.0107190359
C  C178  1  0.29910000  0.62480000  0.91950000  1.0 -0.1094180267
C  C179  1  0.31430000  0.59870000  0.89360000  1.0 -0.1404982165
C  C180  1  0.24390000  0.66080000  0.92590000  1.0 0.517852733
C  C181  1  0.19790000  0.88850000  0.45980000  1.0 0.0683416073
C  C182  1  0.15600000  0.84770000  0.43310000  1.0 -0.1680511419
C  C183  1  0.11590000  0.84510000  0.43480000  1.0 -0.1589512575
C  C184  1  0.12570000  0.89550000  0.47400000  1.0 -0.0137534741
C  C185  1  0.17020000  0.93320000  0.49140000  1.0 0.1290651623
C  C186  1  0.18080000  0.98360000  0.52820000  1.0 0.1209836479
C  C187  1  0.14780000  0.99190000  0.53830000  1.0 -0.0011185202
C  C188  1  0.15700000  0.03820000  0.56720000  1.0 -0.1005411216
C  C189  1  0.19640000  0.07430000  0.58330000  1.0 -0.1005411216
C  C190  1  0.22530000  0.06290000  0.57180000  1.0 -0.0195817397
C  C191  1  0.09650000  0.90930000  0.48880000  1.0 0.0107190359
C  C192  1  0.10630000  0.95250000  0.52400000  1.0 0.0683416073
C  C193  1  0.04240000  0.90530000  0.50510000  1.0 0.2906983074
C  C194  1  0.99430000  0.88290000  0.49880000  1.0 0.0606656772
C  C195  1  0.98560000  0.91180000  0.53900000  1.0 -0.1680511419
C  C196  1  0.94310000  0.88820000  0.53510000  1.0 -0.0883218776
C  C197  1  0.90860000  0.83920000  0.49960000  1.0 -0.0399013258
C  C198  1  0.92290000  0.81430000  0.46740000  1.0 -0.0691525867
C  C199  1  0.96460000  0.83140000  0.46720000  1.0 -0.2196772541
C  C200  1  0.86660000  0.82290000  0.50270000  1.0 0.5465867613
C  C201  1  0.26830000  0.95560000  0.58890000  1.0 -0.1005411216
C  C202  1  0.28570000  0.94930000  0.62440000  1.0 -0.1005411216
C  C203  1  0.32800000  0.98500000  0.65960000  1.0 -0.1845095958
C  C204  1  0.34920000  0.02230000  0.65590000  1.0 0.0107190359
C  C205  1  0.32440000  0.01990000  0.61730000  1.0 -0.0503399145
C  C206  1  0.34650000  0.05840000  0.61510000  1.0 0.1861052496
C  C207  1  0.38870000  0.09750000  0.65000000  1.0 -0.0195817397
C  C208  1  0.40310000  0.13530000  0.64620000  1.0 -0.0691525867
C  C209  1  0.37790000  0.13270000  0.60760000  1.0 -0.1094180267
C  C210  1  0.33650000  0.09480000  0.56950000  1.0 0.0107190359
C  C211  1  0.39290000  0.05620000  0.69070000  1.0 0.0386334035
C  C212  1  0.41090000  0.09270000  0.68420000  1.0 0.0933955089
C  C213  1  0.47010000  0.11150000  0.75560000  1.0 0.1599760746
C  C214  1  0.50760000  0.12610000  0.79550000  1.0 -0.0399013258
C  C215  1  0.54540000  0.15760000  0.79880000  1.0 -0.1285296374
C  C216  1  0.58000000  0.17440000  0.83860000  1.0 -0.0796778862
C  C217  1  0.59520000  0.16820000  0.88120000  1.0 -0.1094180267
C  C218  1  0.54750000  0.13440000  0.86530000  1.0 -0.0796778862
C  C219  1  0.50870000  0.11810000  0.82960000  1.0 -0.1404982165
C  C220  1  0.63260000  0.18990000  0.92070000  1.0 0.527543137
C  C221  1  0.23350000  0.01970000  0.45320000  1.0 -0.0691525867
C  C222  1  0.22810000  0.02540000  0.41670000  1.0 -0.1094180267
C  C223  1  0.24230000  0.00500000  0.38430000  1.0 -0.1094180267
C  C224  1  0.26460000  0.98480000  0.40380000  1.0 0.0540542496
C  C225  1  0.27380000  0.98300000  0.44220000  1.0 -0.0195817397
C  C226  1  0.29390000  0.96320000  0.45730000  1.0 0.1209836479
C  C227  1  0.31110000  0.94130000  0.43080000  1.0 -0.0399013258
C  C228  1  0.33320000  0.92080000  0.44320000  1.0 -0.1285296374
C  C229  1  0.34060000  0.91980000  0.48360000  1.0 -0.1404982165
C  C230  1  0.32200000  0.93810000  0.51250000  1.0 -0.0399013258
C  C231  1  0.28920000  0.95970000  0.37890000  1.0 0.1014205861
C  C232  1  0.31410000  0.94310000  0.39640000  1.0 0.0018239178
C  C233  1  0.31680000  0.92770000  0.32890000  1.0 0.2480854189
C  C234  1  0.32380000  0.91240000  0.29000000  1.0 -0.0137534741
C  C235  1  0.35500000  0.90000000  0.28560000  1.0 -0.1589512575
C  C236  1  0.36420000  0.88160000  0.24340000  1.0 -0.1005411216
C  C237  1  0.33720000  0.87800000  0.20540000  1.0 0.0107190359
C  C238  1  0.30120000  0.88910000  0.20290000  1.0 -0.1194130659
C  C239  1  0.29720000  0.90600000  0.24580000  1.0 -0.1404982165
C  C240  1  0.33480000  0.85070000  0.14750000  1.0 0.527543137
C  C241  1  0.50520000  0.24300000  0.10180000  1.0 0.0324260857
C  C242  1  0.49120000  0.22820000  0.12820000  1.0 -0.1589512575
C  C243  1  0.48940000  0.18620000  0.12120000  1.0 -0.1285296374
C  C244  1  0.49560000  0.16120000  0.08460000  1.0 -0.0399013258
C  C245  1  0.51460000  0.18120000  0.06540000  1.0 0.0683416073
C  C246  1  0.52780000  0.15690000  0.03370000  1.0 0.0813505669
C  C247  1  0.52380000  0.11310000  0.02230000  1.0 0.0175851023
C  C248  1  0.54120000  0.09310000  0.99090000  1.0 -0.0796778862
C  C249  1  0.55840000  0.11480000  0.97140000  1.0 -0.1194130659
C  C250  1  0.56090000  0.15890000  0.98600000  1.0 0.0540542496
C  C251  1  0.48770000  0.11650000  0.07140000  1.0 0.0606656772
C  C252  1  0.50120000  0.09100000  0.03980000  1.0 0.0813505669
C  C253  1  0.46820000  0.04190000  0.05810000  1.0 0.2627011781
C  C254  1  0.45400000  0.00410000  0.06190000  1.0 -0.0011185202
C  C255  1  0.44500000  0.95930000  0.03130000  1.0 -0.1285296374
C  C256  1  0.42330000  0.91870000  0.02880000  1.0 -0.1005411216
C  C257  1  0.40530000  0.91910000  0.05900000  1.0 -0.0503399145
C  C258  1  0.41790000  0.96450000  0.09420000  1.0 -0.1005411216
C  C259  1  0.43870000  0.00350000  0.09280000  1.0 -0.1680511419
C  C260  1  0.38160000  0.87980000  0.05980000  1.0 0.5465867613
C  C261  1  0.44340000  0.18300000  0.97140000  1.0 -0.0399013258
C  C262  1  0.40170000  0.15900000  0.93490000  1.0 -0.1404982165
C  C263  1  0.39380000  0.16090000  0.89490000  1.0 -0.1589512575
C  C264  1  0.43540000  0.18630000  0.90030000  1.0 -0.0503399145
C  C265  1  0.47170000  0.20500000  0.94210000  1.0 0.0606656772
C  C266  1  0.51070000  0.22730000  0.93920000  1.0 0.1209836479
C  C267  1  0.51260000  0.23570000  0.90490000  1.0 0.0018239178
C  C268  1  0.55180000  0.25520000  0.90460000  1.0 -0.0796778862
C  C269  1  0.58960000  0.26920000  0.94100000  1.0 -0.1005411216
C  C270  1  0.58750000  0.26590000  0.98000000  1.0 0.0324260857
C  C271  1  0.43290000  0.19490000  0.86420000  1.0 0.0933955089
C  C272  1  0.47650000  0.21800000  0.87030000  1.0 0.0606656772
C  C273  1  0.41570000  0.20140000  0.79630000  1.0 0.2079310996
C  C274  1  0.38720000  0.19550000  0.75830000  1.0 -0.0301721088
C  C275  1  0.41080000  0.23050000  0.75350000  1.0 -0.1285296374
C  C276  1  0.38770000  0.22970000  0.71360000  1.0 -0.1094180267
C  C277  1  0.34300000  0.20390000  0.67790000  1.0 -0.0503399145
C  C278  1  0.32060000  0.16650000  0.68030000  1.0 -0.1194130659
C  C279  1  0.34410000  0.16740000  0.71870000  1.0 -0.1680511419
C  C280  1  0.31100000  0.19120000  0.63580000  1.0 0.4297098909
C  C281  1  0.49380000  0.31170000  0.04110000  1.0 0.0324260857
C  C282  1  0.49680000  0.35720000  0.06260000  1.0 -0.1285296374
C  C283  1  0.53810000  0.38660000  0.10030000  1.0 -0.1094180267
C  C284  1  0.57300000  0.38200000  0.12240000  1.0 -0.0503399145
C  C285  1  0.56930000  0.33850000  0.09580000  1.0 0.0813505669
C  C286  1  0.60190000  0.32920000  0.10850000  1.0 0.0107190359
C  C287  1  0.64060000  0.36390000  0.14970000  1.0 0.0175851023
C  C288  1  0.67860000  0.36020000  0.17120000  1.0 -0.1285296374
C  C289  1  0.67640000  0.31570000  0.14190000  1.0 -0.1194130659
C  C290  1  0.63480000  0.28770000  0.10470000  1.0 -0.0137534741
C  C291  1  0.61340000  0.41930000  0.16270000  1.0 0.0813505669
C  C292  1  0.64840000  0.41190000  0.18150000  1.0 0.0606656772
C  C293  1  0.66320000  0.48610000  0.22790000  1.0 0.2906983074
C  C294  1  0.68450000  0.53710000  0.27440000  1.0 0.0107190359
C  C295  1  0.71850000  0.55250000  0.31560000  1.0 -0.1094180267
C  C296  1  0.73930000  0.59520000  0.35650000  1.0 -0.1094180267
C  C297  1  0.73430000  0.63660000  0.36910000  1.0 0.0107190359
C  C298  1  0.70090000  0.62040000  0.32570000  1.0 -0.1094180267
C  C299  1  0.68570000  0.57930000  0.28440000  1.0 -0.1404982165
C  C300  1  0.75610000  0.68200000  0.41690000  1.0 0.517852733
C  C301  1  0.80210000  0.26190000  0.69060000  1.0 0.0683416073
C  C302  1  0.84400000  0.27710000  0.69170000  1.0 -0.1680511419
C  C303  1  0.88410000  0.31890000  0.72920000  1.0 -0.1589512575
C  C304  1  0.87430000  0.34830000  0.76980000  1.0 -0.0137534741
C  C305  1  0.82980000  0.32120000  0.76300000  1.0 0.1290651623
C  C306  1  0.81920000  0.34740000  0.80280000  1.0 0.1209836479
C  C307  1  0.85220000  0.39050000  0.84410000  1.0 -0.0011185202
C  C308  1  0.84300000  0.41020000  0.88120000  1.0 -0.1005411216
C  C309  1  0.80360000  0.38690000  0.87790000  1.0 -0.1005411216
C  C310  1  0.77470000  0.34650000  0.83760000  1.0 -0.0195817397
C  C311  1  0.90350000  0.39230000  0.81280000  1.0 0.0107190359
C  C312  1  0.89370000  0.41770000  0.84620000  1.0 0.0683416073
C  C313  1  0.95760000  0.46270000  0.86290000  1.0 0.2906983074
C  C314  1  0.00570000  0.50450000  0.88860000  1.0 0.0606656772
C  C315  1  0.01440000  0.55340000  0.92620000  1.0 -0.1680511419
C  C316  1  0.05690000  0.59200000  0.94510000  1.0 -0.0883218776
C  C317  1  0.09140000  0.59100000  0.93060000  1.0 -0.0399013258
C  C318  1  0.07710000  0.54450000  0.89140000  1.0 -0.0691525867
C  C319  1  0.03540000  0.50260000  0.86680000  1.0 -0.2196772541
C  C320  1  0.13340000  0.63610000  0.95630000  1.0 0.5465867613
C  C321  1  0.73170000  0.32060000  0.68730000  1.0 -0.1005411216
C  C322  1  0.71430000  0.33870000  0.66360000  1.0 -0.1005411216
C  C323  1  0.67200000  0.33160000  0.65700000  1.0 -0.185384289
C  C324  1  0.65080000  0.30670000  0.67310000  1.0 0.0107190359
C  C325  1  0.67560000  0.29290000  0.69550000  1.0 -0.0552130024
C  C326  1  0.65350000  0.26860000  0.71190000  1.0 0.1861052496
C  C327  1  0.61130000  0.26130000  0.70880000  1.0 -0.0195817397
C  C328  1  0.59690000  0.24310000  0.73220000  1.0 -0.0691525867
C  C329  1  0.62210000  0.22970000  0.75480000  1.0 -0.1094180267
C  C330  1  0.66350000  0.23300000  0.75830000  1.0 0.0107190359
C  C331  1  0.60710000  0.29780000  0.66330000  1.0 0.0386334035
C  C332  1  0.58910000  0.27330000  0.68180000  1.0 0.0933955089
C  C333  1  0.52990000  0.28550000  0.64140000  1.0 0.1599760746
C  C334  1  0.49240000  0.28790000  0.61850000  1.0 -0.0399013258
C  C335  1  0.45460000  0.25340000  0.61220000  1.0 -0.1285296374
C  C336  1  0.42000000  0.25860000  0.59440000  1.0 -0.0796778862
C  C337  1  0.40480000  0.28600000  0.57300000  1.0 -0.1005411216
C  C338  1  0.45250000  0.31780000  0.58690000  1.0 -0.0796778862
C  C339  1  0.49130000  0.32090000  0.60940000  1.0 -0.1404982165
C  C340  1  0.36740000  0.28810000  0.55730000  1.0 0.527543137
C  C341  1  0.76650000  0.21970000  0.78620000  1.0 -0.0691525867
C  C342  1  0.77190000  0.18860000  0.79730000  1.0 -0.1094180267
C  C343  1  0.75770000  0.14200000  0.76270000  1.0 -0.1094180267
C  C344  1  0.73540000  0.13920000  0.72020000  1.0 0.0540542496
C  C345  1  0.72620000  0.16840000  0.70920000  1.0 -0.0195817397
C  C346  1  0.70610000  0.16340000  0.66930000  1.0 0.1209836479
C  C347  1  0.68890000  0.11970000  0.63020000  1.0 -0.0399013258
C  C348  1  0.66680000  0.11000000  0.58760000  1.0 -0.1285296374
C  C349  1  0.65940000  0.14300000  0.57920000  1.0 -0.1404982165
C  C350  1  0.67800000  0.19050000  0.61610000  1.0 -0.0399013258
C  C351  1  0.71080000  0.08970000  0.67050000  1.0 0.1014205861
C  C352  1  0.68590000  0.08230000  0.62900000  1.0 0.0018239178
C  C353  1  0.68320000  0.01210000  0.61090000  1.0 0.2480854189
C  C354  1  0.67620000  0.96620000  0.58860000  1.0 -0.0137534741
C  C355  1  0.64500000  0.93060000  0.54500000  1.0 -0.1589512575
C  C356  1  0.63580000  0.87920000  0.51740000  1.0 -0.1005411216
C  C357  1  0.66280000  0.86820000  0.54080000  1.0 0.0107190359
C  C358  1  0.69880000  0.90170000  0.58790000  1.0 -0.1194130659
C  C359  1  0.70280000  0.94860000  0.60880000  1.0 -0.1404982165
C  C360  1  0.66520000  0.81270000  0.51590000  1.0 0.527543137
C  C361  1  0.14120000  0.40340000  0.89820000  1.0 0.0324260857
C  C362  1  0.10000000  0.36300000  0.87180000  1.0 -0.1589512575
C  C363  1  0.06500000  0.36820000  0.87880000  1.0 -0.1285296374
C  C364  1  0.07660000  0.41100000  0.91540000  1.0 -0.0399013258
C  C365  1  0.11580000  0.44920000  0.93460000  1.0 0.0683416073
C  C366  1  0.12320000  0.49410000  0.96630000  1.0 0.0813505669
C  C367  1  0.09080000  0.50150000  0.97770000  1.0 0.0175851023
C  C368  1  0.10220000  0.55030000  0.00910000  1.0 -0.0796778862
C  C369  1  0.14340000  0.58700000  0.02860000  1.0 -0.1194130659
C  C370  1  0.17290000  0.57490000  0.01400000  1.0 0.0540542496
C  C371  1  0.04510000  0.41630000  0.92860000  1.0 0.0606656772
C  C372  1  0.05120000  0.46140000  0.96020000  1.0 0.0813505669
C  C373  1  0.98380000  0.41010000  0.94190000  1.0 0.2627011781
C  C374  1  0.94220000  0.39210000  0.93810000  1.0 -0.0011185202
C  C375  1  0.92800000  0.41370000  0.96870000  1.0 -0.1285296374
C  C376  1  0.88990000  0.39450000  0.97120000  1.0 -0.1005411216
C  C377  1  0.86010000  0.34630000  0.94100000  1.0 -0.0503399145
C  C378  1  0.87030000  0.32370000  0.90580000  1.0 -0.1005411216
C  C379  1  0.91070000  0.34590000  0.90720000  1.0 -0.1589512575
C  C380  1  0.82000000  0.32180000  0.94020000  1.0 0.5465867613
C  C381  1  0.21160000  0.47200000  0.02860000  1.0 -0.0399013258
C  C382  1  0.22410000  0.46680000  0.06510000  1.0 -0.1404982165
C  C383  1  0.26600000  0.49890000  0.10510000  1.0 -0.1589512575
C  C384  1  0.28600000  0.53510000  0.09970000  1.0 -0.0503399145
C  C385  1  0.26290000  0.52960000  0.05790000  1.0 0.0606656772
C  C386  1  0.28810000  0.57150000  0.06080000  1.0 0.1209836479
C  C387  1  0.33080000  0.60770000  0.09510000  1.0 0.0018239178
C  C388  1  0.35060000  0.64720000  0.09540000  1.0 -0.0796778862
C  C389  1  0.32820000  0.64860000  0.05900000  1.0 -0.1005411216
C  C390  1  0.28590000  0.60750000  0.02000000  1.0 0.0324260857
C  C391  1  0.33070000  0.56870000  0.13580000  1.0 0.0933955089
C  C392  1  0.34770000  0.60620000  0.12970000  1.0 0.0606656772
C  C393  1  0.40510000  0.61940000  0.20370000  1.0 0.2079310996
C  C394  1  0.43720000  0.62890000  0.24170000  1.0 -0.0301721088
C  C395  1  0.47700000  0.65730000  0.24650000  1.0 -0.1285296374
C  C396  1  0.51610000  0.67410000  0.28640000  1.0 -0.1094180267
C  C397  1  0.52600000  0.66510000  0.32210000  1.0 -0.0503399145
C  C398  1  0.48620000  0.64030000  0.31970000  1.0 -0.1194130659
C  C399  1  0.44870000  0.62540000  0.28130000  1.0 -0.1680511419
C  C400  1  0.55540000  0.67520000  0.36420000  1.0 0.4297098909
C  C401  1  0.27060000  0.45270000  0.95890000  1.0 0.0324260857
C  C402  1  0.29460000  0.43420000  0.93740000  1.0 -0.1285296374
C  C403  1  0.28630000  0.43780000  0.89970000  1.0 -0.1094180267
C  C404  1  0.25960000  0.45060000  0.87760000  1.0 -0.0399013258
C  C405  1  0.24270000  0.47350000  0.90420000  1.0 0.0813505669
C  C406  1  0.22070000  0.49340000  0.89150000  1.0 0.0107190359
C  C407  1  0.21420000  0.49090000  0.85030000  1.0 0.0175851023
C  C408  1  0.18900000  0.50740000  0.82880000  1.0 -0.1285296374
C  C409  1  0.17380000  0.53450000  0.85810000  1.0 -0.1194130659
C  C410  1  0.18300000  0.53010000  0.89530000  1.0 -0.0137534741
C  C411  1  0.25660000  0.45070000  0.83730000  1.0 0.0813505669
C  C412  1  0.23040000  0.46690000  0.81850000  1.0 0.0606656772
C  C413  1  0.25820000  0.43530000  0.77210000  1.0 0.2906983074
C  C414  1  0.26270000  0.41010000  0.72560000  1.0 0.0107190359
C  C415  1  0.23690000  0.40290000  0.68440000  1.0 -0.1094180267
C  C416  1  0.23870000  0.38280000  0.64350000  1.0 -0.1094180267
C  C417  1  0.26750000  0.36520000  0.63090000  1.0 0.0107190359
C  C418  1  0.29470000  0.37520000  0.67430000  1.0 -0.1094180267
C  C419  1  0.29490000  0.40130000  0.71560000  1.0 -0.1404982165
C  C420  1  0.26510000  0.33920000  0.58310000  1.0 0.517852733
C  C421  1  0.57130000  0.11150000  0.30940000  1.0 0.0683416073
C  C422  1  0.58540000  0.15230000  0.30830000  1.0 -0.1680511419
C  C423  1  0.58970000  0.15490000  0.27080000  1.0 -0.1589512575
C  C424  1  0.57850000  0.10450000  0.23020000  1.0 -0.0137534741
C  C425  1  0.55820000  0.06680000  0.23700000  1.0 0.1290651623
C  C426  1  0.54460000  0.01640000  0.19720000  1.0 0.1209836479
C  C427  1  0.54640000  0.00810000  0.15590000  1.0 0.0018239178
C  C428  1  0.52900000  0.96180000  0.11880000  1.0 -0.1005411216
C  C429  1  0.50900000  0.92570000  0.12210000  1.0 -0.1005411216
C  C430  1  0.50890000  0.93710000  0.16240000  1.0 -0.0195817397
C  C431  1  0.57950000  0.09070000  0.18720000  1.0 0.0107190359
C  C432  1  0.57150000  0.04750000  0.15380000  1.0 0.0683416073
C  C433  1  0.59980000  0.09470000  0.13710000  1.0 0.2906983074
C  C434  1  0.61590000  0.11710000  0.11140000  1.0 0.0606656772
C  C435  1  0.62720000  0.08820000  0.07380000  1.0 -0.1680511419
C  C436  1  0.64690000  0.11180000  0.05490000  1.0 -0.0883218776
C  C437  1  0.66040000  0.16080000  0.06940000  1.0 -0.0399013258
C  C438  1  0.65310000  0.18570000  0.10860000  1.0 -0.0691525867
C  C439  1  0.63580000  0.16860000  0.13320000  1.0 -0.2196772541
C  C440  1  0.67980000  0.17710000  0.04370000  1.0 0.5465867613
C  C441  1  0.63330000  0.04440000  0.31270000  1.0 -0.1005411216
C  C442  1  0.67510000  0.05070000  0.33640000  1.0 -0.1005411216
C  C443  1  0.67460000  0.01500000  0.34300000  1.0 -0.185384289
C  C444  1  0.63360000  0.97770000  0.32690000  1.0 0.0107190359
C  C445  1  0.59740000  0.98010000  0.30450000  1.0 -0.0552130024
C  C446  1  0.55670000  0.94160000  0.28810000  1.0 0.1861052496
C  C447  1  0.55250000  0.90250000  0.29120000  1.0 -0.0195817397
C  C448  1  0.51090000  0.86470000  0.26780000  1.0 -0.0691525867
C  C449  1  0.47490000  0.86730000  0.24520000  1.0 -0.1094180267
C  C450  1  0.47470000  0.90520000  0.24170000  1.0 0.0107190359
C  C451  1  0.63450000  0.94380000  0.33670000  1.0 0.0386334035
C  C452  1  0.59150000  0.90730000  0.31820000  1.0 0.0933955089
C  C453  1  0.64410000  0.88850000  0.35860000  1.0 0.1599760746
C  C454  1  0.66940000  0.87390000  0.38150000  1.0 -0.0399013258
C  C455  1  0.64120000  0.84240000  0.38780000  1.0 -0.1285296374
C  C456  1  0.66420000  0.82560000  0.40560000  1.0 -0.0796778862
C  C457  1  0.71300000  0.83180000  0.42700000  1.0 -0.1094180267
C  C458  1  0.73090000  0.86560000  0.41310000  1.0 -0.0796778862
C  C459  1  0.71150000  0.88190000  0.39060000  1.0 -0.1404982165
C  C460  1  0.73080000  0.81010000  0.44270000  1.0 0.527543137
C  C461  1  0.43350000  0.98030000  0.21380000  1.0 -0.0691525867
C  C462  1  0.39130000  0.97460000  0.20270000  1.0 -0.1094180267
C  C463  1  0.37930000  0.99500000  0.23730000  1.0 -0.1094180267
C  C464  1  0.41900000  0.01520000  0.27980000  1.0 0.0540542496
C  C465  1  0.45920000  0.01700000  0.29080000  1.0 -0.0195817397
C  C466  1  0.49410000  0.03680000  0.33070000  1.0 0.1209836479
C  C467  1  0.48950000  0.05870000  0.36980000  1.0 -0.0399013258
C  C468  1  0.52240000  0.07920000  0.41240000  1.0 -0.1285296374
C  C469  1  0.56380000  0.08020000  0.42080000  1.0 -0.1404982165
C  C470  1  0.57440000  0.06190000  0.38390000  1.0 -0.0399013258
C  C471  1  0.41920000  0.04030000  0.32950000  1.0 0.1014205861
C  C472  1  0.45330000  0.05690000  0.37100000  1.0 0.0018239178
C  C473  1  0.40120000  0.07230000  0.38910000  1.0 0.2480854189
C  C474  1  0.37760000  0.08760000  0.41140000  1.0 -0.0195817397
C  C475  1  0.38560000  0.10000000  0.45500000  1.0 -0.1589512575
C  C476  1  0.36180000  0.11840000  0.48260000  1.0 -0.1005411216
C  C477  1  0.32740000  0.12200000  0.45920000  1.0 0.0107190359
C  C478  1  0.31380000  0.11090000  0.41210000  1.0 -0.1194130659
C  C479  1  0.33980000  0.09400000  0.39120000  1.0 -0.1404982165
C  C480  1  0.29680000  0.14930000  0.48410000  1.0 0.527543137
N  N1  1  0.84670000  0.77520000  0.29630000  1.0 -0.2196772541
N  N2  1  0.83350000  0.81910000  0.36360000  1.0 -0.2111188563
N  N3  1  0.99900000  0.91320000  0.38540000  1.0 -0.2919822837
N  N4  1  0.98920000  0.95220000  0.44600000  1.0 -0.360509118
N  N5  1  0.78010000  0.78740000  0.28090000  1.0 -0.2513782875
N  N6  1  0.73080000  0.75410000  0.29990000  1.0 -0.2111188563
N  N7  1  0.64230000  0.82220000  0.22270000  1.0 -0.2728769898
N  N8  1  0.60570000  0.77890000  0.24040000  1.0 -0.360509118
N  N9  1  0.75140000  0.69470000  0.22410000  1.0 -0.2196772541
N  N10  1  0.79790000  0.72210000  0.31440000  1.0 -0.2513782875
N  N11  1  0.72330000  0.53550000  0.15280000  1.0 -0.3783368523
N  N12  1  0.77010000  0.54420000  0.22730000  1.0 -0.4166624526
N  N13  1  0.44650000  0.72050000  0.51760000  1.0 -0.1589512575
N  N14  1  0.47050000  0.67770000  0.45540000  1.0 -0.2196772541
N  N15  1  0.39910000  0.57730000  0.52300000  1.0 -0.3258742969
N  N16  1  0.42220000  0.53910000  0.47110000  1.0 -0.3668802883
N  N17  1  0.41910000  0.70780000  0.43470000  1.0 -0.2513782875
N  N18  1  0.47830000  0.74540000  0.42070000  1.0 -0.2196772541
N  N19  1  0.33990000  0.69920000  0.27050000  1.0 -0.1404982165
N  N20  1  0.39910000  0.72960000  0.27710000  1.0 -0.275534978
N  N21  1  0.51810000  0.77170000  0.51760000  1.0 -0.2513782875
N  N22  1  0.46500000  0.80670000  0.50730000  1.0 -0.23383837
N  N23  1  0.61300000  0.95250000  0.66210000  1.0 -0.3258742969
N  N24  1  0.55860000  0.96610000  0.63830000  1.0 -0.2373840379
N  N25  1  0.47890000  0.55040000  0.70370000  1.0 -0.2196772541
N  N26  1  0.45550000  0.46990000  0.63640000  1.0 -0.2111188563
N  N27  1  0.52780000  0.61360000  0.61460000  1.0 -0.2919822837
N  N28  1  0.50620000  0.54320000  0.55400000  1.0 -0.360509118
N  N29  1  0.50650000  0.49920000  0.71910000  1.0 -0.2513782875
N  N30  1  0.45420000  0.43090000  0.70010000  1.0 -0.2111188563
N  N31  1  0.59950000  0.41960000  0.77730000  1.0 -0.2728769898
N  N32  1  0.53850000  0.36530000  0.75960000  1.0 -0.360509118
N  N33  1  0.47060000  0.52730000  0.77590000  1.0 -0.2196772541
N  N34  1  0.40770000  0.48350000  0.68560000  1.0 -0.2513782875
N  N35  1  0.38270000  0.57050000  0.84720000  1.0 -0.3783368523
N  N36  1  0.31690000  0.54280000  0.77270000  1.0 -0.4166624526
N  N37  1  0.20290000  0.92890000  0.48240000  1.0 -0.1589512575
N  N38  1  0.22230000  0.01510000  0.54460000  1.0 -0.2196772541
N  N39  1  0.05430000  0.87610000  0.47700000  1.0 -0.3232114445
N  N40  1  0.06800000  0.95110000  0.52890000  1.0 -0.3668802883
N  N41  1  0.27310000  0.98440000  0.56530000  1.0 -0.2513782875
N  N42  1  0.32470000  0.05760000  0.57930000  1.0 -0.2196772541
N  N43  1  0.42870000  0.06940000  0.72950000  1.0 -0.1404982165
N  N44  1  0.45250000  0.12200000  0.72290000  1.0 -0.2728769898
N  N45  1  0.25410000  0.00050000  0.48240000  1.0 -0.2513782875
N  N46  1  0.29940000  0.95770000  0.49270000  1.0 -0.23383837
N  N47  1  0.29040000  0.95090000  0.33790000  1.0 -0.3232114445
N  N48  1  0.32780000  0.92030000  0.36170000  1.0 -0.2373840379
N  N49  1  0.52110000  0.22480000  0.07150000  1.0 -0.2196772541
N  N50  1  0.54450000  0.18090000  0.01440000  1.0 -0.2111188563
N  N51  1  0.47220000  0.08680000  0.08580000  1.0 -0.2919822837
N  N52  1  0.49380000  0.04780000  0.03700000  1.0 -0.360509118
N  N53  1  0.49350000  0.21260000  0.99270000  1.0 -0.2513782875
N  N54  1  0.54580000  0.24590000  0.97670000  1.0 -0.2111188563
N  N55  1  0.40050000  0.17780000  0.82010000  1.0 -0.2728769898
N  N56  1  0.46150000  0.22110000  0.82680000  1.0 -0.360509118
N  N57  1  0.52940000  0.30530000  0.05670000  1.0 -0.2196772541
N  N58  1  0.59230000  0.27790000  0.07580000  1.0 -0.2513782875
N  N59  1  0.61730000  0.46450000  0.18780000  1.0 -0.3783368523
N  N60  1  0.68310000  0.45580000  0.22590000  1.0 -0.4166624526
N  N61  1  0.79710000  0.27950000  0.72600000  1.0 -0.1589512575
N  N62  1  0.77770000  0.32230000  0.79280000  1.0 -0.2196772541
N  N63  1  0.94570000  0.42270000  0.82180000  1.0 -0.3258742969
N  N64  1  0.93200000  0.46090000  0.88310000  1.0 -0.3668802883
N  N65  1  0.72690000  0.29220000  0.71130000  1.0 -0.2513782875
N  N66  1  0.67530000  0.25460000  0.73290000  1.0 -0.2196772541
N  N67  1  0.57130000  0.30080000  0.64070000  1.0 -0.1404982165
N  N68  1  0.54750000  0.27040000  0.66950000  1.0 -0.2728769898
N  N69  1  0.74590000  0.22830000  0.74640000  1.0 -0.2513782875
N  N70  1  0.70060000  0.19330000  0.65830000  1.0 -0.23383837
N  N71  1  0.70960000  0.04750000  0.66050000  1.0 -0.3232114445
N  N72  1  0.67220000  0.03390000  0.59250000  1.0 -0.2373840379
N  N73  1  0.15330000  0.44960000  0.92850000  1.0 -0.2196772541
N  N74  1  0.16650000  0.53010000  0.98560000  1.0 -0.2111188563
N  N75  1  0.00100000  0.38640000  0.91420000  1.0 -0.2919822837
N  N76  1  0.01080000  0.45680000  0.96300000  1.0 -0.360509118
N  N77  1  0.21990000  0.50080000  0.00730000  1.0 -0.2513782875
N  N78  1  0.26920000  0.56910000  0.02330000  1.0 -0.2111188563
N  N79  1  0.35770000  0.58040000  0.17990000  1.0 -0.2728769898
N  N80  1  0.39430000  0.63470000  0.17320000  1.0 -0.360509118
N  N81  1  0.24860000  0.47270000  0.94330000  1.0 -0.2196772541
N  N82  1  0.20210000  0.51650000  0.92420000  1.0 -0.2513782875
N  N83  1  0.27670000  0.42950000  0.81220000  1.0 -0.3783368523
N  N84  1  0.22990000  0.45720000  0.77410000  1.0 -0.4166624526
N  N85  1  0.55350000  0.07110000  0.27400000  1.0 -0.1589512575
N  N86  1  0.52950000  0.98490000  0.20720000  1.0 -0.2196772541
N  N87  1  0.60090000  0.12390000  0.17820000  1.0 -0.3258742969
N  N88  1  0.57780000  0.04890000  0.11690000  1.0 -0.3668802883
N  N89  1  0.58090000  0.01560000  0.28870000  1.0 -0.2513782875
N  N90  1  0.52170000  0.94240000  0.26710000  1.0 -0.2196772541
N  N91  1  0.66010000  0.93060000  0.35930000  1.0 -0.1404982165
N  N92  1  0.60090000  0.87800000  0.33050000  1.0 -0.2728769898
N  N93  1  0.48190000  0.99950000  0.25360000  1.0 -0.2513782875
N  N94  1  0.53500000  0.04230000  0.34170000  1.0 -0.23383837
N  N95  1  0.38700000  0.04910000  0.33950000  1.0 -0.3232114445
N  N96  1  0.44140000  0.07970000  0.40750000  1.0 -0.2373840379
O  O1  1  0.21160000  0.11410000  0.49350000  1.0 -0.6060670669
O  O2  1  0.18880000  0.16280000  0.53400000  1.0 -0.5771885793
O  O3  1  0.43250000  0.83200000  0.10630000  1.0 -0.5288811232
O  O4  1  0.39660000  0.76830000  0.10830000  1.0 -0.7294917609
O  O5  1  0.76770000  0.30800000  0.09570000  1.0 -0.5771885793
O  O6  1  0.69470000  0.28950000  0.03300000  1.0 -0.6398733611
O  O7  1  0.31120000  0.37470000  0.53270000  1.0 -0.618554322
O  O8  1  0.31010000  0.32480000  0.46490000  1.0 -0.5393119807
O  O9  1  0.22710000  0.68290000  0.04860000  1.0 -0.618554322
O  O10  1  0.29390000  0.74210000  0.07420000  1.0 -0.6464744116
O  O11  1  0.72940000  0.19390000  0.88470000  1.0 -0.3390881474
O  O12  1  0.68660000  0.20940000  0.83580000  1.0 -0.5924942399
O  O13  1  0.28302000  0.77504000  0.01502000  1.0 -1.1581612334
O  O14  1  0.62060000  0.71810000  0.50650000  1.0 -0.6060670669
O  O15  1  0.62880000  0.65480000  0.46600000  1.0 -0.5771885793
O  O16  1  0.72570000  0.32620000  0.89370000  1.0 -0.5288811232
O  O17  1  0.66000000  0.28830000  0.89170000  1.0 -0.7230198885
O  O18  1  0.21230000  0.67200000  0.90430000  1.0 -0.5771885793
O  O19  1  0.25650000  0.66170000  0.96700000  1.0 -0.6398733611
O  O20  1  0.84200000  0.77850000  0.46730000  1.0 -0.618554322
O  O21  1  0.85990000  0.84520000  0.53510000  1.0 -0.5393119807
O  O22  1  0.63430000  0.17850000  0.95140000  1.0 -0.618554322
O  O23  1  0.66790000  0.21970000  0.92580000  1.0 -0.6464744116
O  O24  1  0.30920000  0.84470000  0.11530000  1.0 -0.3390881474
O  O25  1  0.37360000  0.85080000  0.16420000  1.0 -0.5924942399
O  O26  1  0.76002000  0.26800000  0.98498000  1.0 -1.1581612334
O  O27  1  0.37940000  0.88590000  0.09750000  1.0 -0.6060670669
O  O28  1  0.37120000  0.83720000  0.02600000  1.0 -0.5771885793
O  O29  1  0.27430000  0.16800000  0.60050000  1.0 -0.5288811232
O  O30  1  0.34000000  0.23170000  0.62830000  1.0 -0.7230198885
O  O31  1  0.78770000  0.69200000  0.45970000  1.0 -0.5771885793
O  O32  1  0.74350000  0.71050000  0.40520000  1.0 -0.6398733611
O  O33  1  0.15800000  0.62530000  0.93650000  1.0 -0.618554322
O  O34  1  0.14010000  0.67520000  0.98530000  1.0 -0.5393119807
O  O35  1  0.36570000  0.31710000  0.54420000  1.0 -0.618554322
O  O36  1  0.33210000  0.25790000  0.55180000  1.0 -0.6464744116
O  O37  1  0.69080000  0.80610000  0.53550000  1.0 -0.3390881474
O  O38  1  0.62640000  0.79060000  0.47720000  1.0 -0.5924942399
O  O39  1  0.23998000  0.22496000  0.50798000  1.0 -1.1800579931
O  O40  1  0.78840000  0.28190000  0.90250000  1.0 -0.6060670669
O  O41  1  0.81120000  0.34520000  0.97400000  1.0 -0.5771885793
O  O42  1  0.56750000  0.67380000  0.39950000  1.0 -0.5288811232
O  O43  1  0.60340000  0.71170000  0.37170000  1.0 -0.7230198885
O  O44  1  0.23230000  0.32800000  0.54030000  1.0 -0.5771885793
O  O45  1  0.30530000  0.33830000  0.59480000  1.0 -0.6398733611
O  O46  1  0.68880000  0.22150000  0.06350000  1.0 -0.618554322
O  O47  1  0.68990000  0.15480000  0.01470000  1.0 -0.5393119807
O  O48  1  0.77290000  0.82150000  0.45580000  1.0 -0.618554322
O  O49  1  0.70610000  0.78030000  0.44820000  1.0 -0.6464744116
O  O50  1  0.27060000  0.15530000  0.46450000  1.0 -0.3390881474
O  O51  1  0.31340000  0.14920000  0.52280000  1.0 -0.5924942399
O  O52  1  0.71698000  0.73200000  0.49202000  1.0 -1.1581612334
