# DDEC6 charges by PACMAN v1.1 (https://github.com/mtap-research/PACMAN-charge/)
data_ZIKCAZ_FSR_pacman
_symmetry_space_group_name_H-M   'P 1'
_cell_length_a   13.96610000
_cell_length_b   13.96610000
_cell_length_c   25.10060000
_cell_angle_alpha   84.21900000
_cell_angle_beta   95.78100000
_cell_angle_gamma   120.06300000
_symmetry_Int_Tables_number   1
_chemical_formula_structural   Cd3H80C108(N7O8)2
_chemical_formula_sum   'Cd6 H160 C216 N28 O32'
_cell_volume   4208.55787463
_cell_formula_units_Z   2
loop_
 _symmetry_equiv_pos_site_id
 _symmetry_equiv_pos_as_xyz
  1  'x, y, z'
loop_
 _atom_site_type_symbol
 _atom_site_label
 _atom_site_symmetry_multiplicity
 _atom_site_fract_x
 _atom_site_fract_y
 _atom_site_fract_z
 _atom_site_occupancy
 _atom_site_charge
Cd  Cd1  1  0.73242000  0.73242000  0.75000000  1.0 0.6806380593
Cd  Cd2  1  0.26758000  0.26758000  0.25000000  1.0 0.6806380593
Cd  Cd3  1  0.53364000  0.99356000  0.07897000  1.0 0.8607923977
Cd  Cd4  1  0.99356000  0.53364000  0.42103000  1.0 0.8607923977
Cd  Cd5  1  0.46636000  0.00644000  0.92103000  1.0 0.8607923977
Cd  Cd6  1  0.00644000  0.46636000  0.57897000  1.0 0.8607923977
H  H1  1  0.68390000  0.82630000  0.22640000  1.0 0.1092896947
H  H2  1  0.82630000  0.68390000  0.27360000  1.0 0.1092896947
H  H3  1  0.31610000  0.17370000  0.77360000  1.0 0.1092896947
H  H4  1  0.17370000  0.31610000  0.72640000  1.0 0.1092896947
H  H5  1  0.72720000  0.79440000  0.31530000  1.0 0.1029477128
H  H6  1  0.79440000  0.72720000  0.18470000  1.0 0.1029477128
H  H7  1  0.27280000  0.20560000  0.68470000  1.0 0.1029477128
H  H8  1  0.20560000  0.27280000  0.81530000  1.0 0.1029477128
H  H9  1  0.57480000  0.94780000  0.35880000  1.0 0.1092896947
H  H10  1  0.94780000  0.57480000  0.14120000  1.0 0.1092896947
H  H11  1  0.42520000  0.05220000  0.64120000  1.0 0.1092896947
H  H12  1  0.05220000  0.42520000  0.85880000  1.0 0.1092896947
H  H13  1  0.54100000  0.98800000  0.27050000  1.0 0.1092896947
H  H14  1  0.98800000  0.54100000  0.22950000  1.0 0.1092896947
H  H15  1  0.45900000  0.01200000  0.72950000  1.0 0.1092896947
H  H16  1  0.01200000  0.45900000  0.77050000  1.0 0.1092896947
H  H17  1  0.82660000  0.67980000  0.44380000  1.0 0.1395728879
H  H18  1  0.67980000  0.82660000  0.05620000  1.0 0.1395728879
H  H19  1  0.17340000  0.32020000  0.55620000  1.0 0.1395728879
H  H20  1  0.32020000  0.17340000  0.94380000  1.0 0.1395728879
H  H21  1  0.82120000  0.65340000  0.60400000  1.0 0.120144576
H  H22  1  0.65340000  0.82120000  0.89600000  1.0 0.120144576
H  H23  1  0.17880000  0.34660000  0.39600000  1.0 0.120144576
H  H24  1  0.34660000  0.17880000  0.10400000  1.0 0.120144576
H  H25  1  0.68190000  0.81350000  0.51650000  1.0 0.1341070693
H  H26  1  0.81350000  0.68190000  0.98350000  1.0 0.1341070693
H  H27  1  0.31810000  0.18650000  0.48350000  1.0 0.1341070693
H  H28  1  0.18650000  0.31810000  0.01650000  1.0 0.1341070693
H  H29  1  0.64870000  0.25650000  0.07290000  1.0 0.1029477128
H  H30  1  0.25650000  0.64870000  0.42710000  1.0 0.1029477128
H  H31  1  0.35130000  0.74350000  0.92710000  1.0 0.1029477128
H  H32  1  0.74350000  0.35130000  0.57290000  1.0 0.1029477128
H  H33  1  0.82100000  0.41740000  0.07160000  1.0 0.120144576
H  H34  1  0.41740000  0.82100000  0.42840000  1.0 0.120144576
H  H35  1  0.17900000  0.58260000  0.92840000  1.0 0.120144576
H  H36  1  0.58260000  0.17900000  0.57160000  1.0 0.120144576
H  H37  1  0.96170000  0.23530000  0.06460000  1.0 0.1092896947
H  H38  1  0.23530000  0.96170000  0.43540000  1.0 0.1092896947
H  H39  1  0.03830000  0.76470000  0.93540000  1.0 0.1092896947
H  H40  1  0.76470000  0.03830000  0.56460000  1.0 0.1092896947
H  H41  1  0.79210000  0.08330000  0.06830000  1.0 0.1092896947
H  H42  1  0.08330000  0.79210000  0.43170000  1.0 0.1092896947
H  H43  1  0.20790000  0.91670000  0.93170000  1.0 0.1092896947
H  H44  1  0.91670000  0.20790000  0.56830000  1.0 0.1092896947
H  H45  1  0.08340000  0.41320000  0.07720000  1.0 0.120144576
H  H46  1  0.41320000  0.08340000  0.42280000  1.0 0.120144576
H  H47  1  0.91660000  0.58680000  0.92280000  1.0 0.120144576
H  H48  1  0.58680000  0.91660000  0.57720000  1.0 0.120144576
H  H49  1  0.99860000  0.55880000  0.06130000  1.0 0.1341070693
H  H50  1  0.55880000  0.99860000  0.43870000  1.0 0.1341070693
H  H51  1  0.00140000  0.44120000  0.93870000  1.0 0.1341070693
H  H52  1  0.44120000  0.00140000  0.56130000  1.0 0.1341070693
H  H53  1  0.43560000  0.73240000  0.07090000  1.0 0.1029477128
H  H54  1  0.73240000  0.43560000  0.42910000  1.0 0.1029477128
H  H55  1  0.56440000  0.26760000  0.92910000  1.0 0.1029477128
H  H56  1  0.26760000  0.56440000  0.57090000  1.0 0.1029477128
H  H57  1  0.26730000  0.56530000  0.06810000  1.0 0.1029477128
H  H58  1  0.56530000  0.26730000  0.43190000  1.0 0.1029477128
H  H59  1  0.73270000  0.43470000  0.93190000  1.0 0.1029477128
H  H60  1  0.43470000  0.73270000  0.56810000  1.0 0.1029477128
H  H61  1  0.10790000  0.73350000  0.07610000  1.0 0.120144576
H  H62  1  0.73350000  0.10790000  0.42390000  1.0 0.120144576
H  H63  1  0.89210000  0.26650000  0.92390000  1.0 0.120144576
H  H64  1  0.26650000  0.89210000  0.57610000  1.0 0.120144576
H  H65  1  0.27530000  0.89270000  0.07750000  1.0 0.1029477128
H  H66  1  0.89270000  0.27530000  0.42250000  1.0 0.1029477128
H  H67  1  0.72470000  0.10730000  0.92250000  1.0 0.1029477128
H  H68  1  0.10730000  0.72470000  0.57750000  1.0 0.1029477128
H  H69  1  0.74260000  0.76420000  0.39350000  1.0 0.2656887911
H  H70  1  0.76420000  0.74260000  0.10650000  1.0 0.2656887911
H  H71  1  0.25740000  0.23580000  0.60650000  1.0 0.2656887911
H  H72  1  0.23580000  0.25740000  0.89350000  1.0 0.2656887911
H  H73  1  0.81440000  0.27080000  0.70780000  1.0 0.1029477128
H  H74  1  0.27080000  0.81440000  0.79220000  1.0 0.1029477128
H  H75  1  0.18560000  0.72920000  0.29220000  1.0 0.1029477128
H  H76  1  0.72920000  0.18560000  0.20780000  1.0 0.1029477128
H  H77  1  0.66980000  0.20960000  0.78720000  1.0 0.1092896947
H  H78  1  0.20960000  0.66980000  0.71280000  1.0 0.1092896947
H  H79  1  0.33020000  0.79040000  0.21280000  1.0 0.1092896947
H  H80  1  0.79040000  0.33020000  0.28720000  1.0 0.1092896947
H  H81  1  0.60200000  0.50440000  0.67220000  1.0 0.1092896947
H  H82  1  0.50440000  0.60200000  0.82780000  1.0 0.1092896947
H  H83  1  0.39800000  0.49560000  0.32780000  1.0 0.1092896947
H  H84  1  0.49560000  0.39800000  0.17220000  1.0 0.1092896947
H  H85  1  0.63000000  0.35700000  0.66190000  1.0 0.1092896947
H  H86  1  0.35700000  0.63000000  0.83810000  1.0 0.1092896947
H  H87  1  0.37000000  0.64300000  0.33810000  1.0 0.1092896947
H  H88  1  0.64300000  0.37000000  0.16190000  1.0 0.1092896947
H  H89  1  0.76470000  0.38270000  0.81260000  1.0 0.1029477128
H  H90  1  0.38270000  0.76470000  0.68740000  1.0 0.1029477128
H  H91  1  0.23530000  0.61730000  0.18740000  1.0 0.1029477128
H  H92  1  0.61730000  0.23530000  0.31260000  1.0 0.1029477128
H  H93  1  0.73680000  0.53000000  0.82290000  1.0 0.0802456936
H  H94  1  0.53000000  0.73680000  0.67710000  1.0 0.0802456936
H  H95  1  0.26320000  0.47000000  0.17710000  1.0 0.0802456936
H  H96  1  0.47000000  0.26320000  0.32290000  1.0 0.0802456936
H  H97  1  0.63000000  0.86080000  0.79780000  1.0 0.120144576
H  H98  1  0.86080000  0.63000000  0.70220000  1.0 0.120144576
H  H99  1  0.37000000  0.13920000  0.20220000  1.0 0.120144576
H  H100  1  0.13920000  0.37000000  0.29780000  1.0 0.120144576
H  H101  1  0.63920000  0.03160000  0.79560000  1.0 0.120144576
H  H102  1  0.03160000  0.63920000  0.70440000  1.0 0.120144576
H  H103  1  0.36080000  0.96840000  0.20440000  1.0 0.120144576
H  H104  1  0.96840000  0.36080000  0.29560000  1.0 0.120144576
H  H105  1  0.88320000  0.15700000  0.69330000  1.0 0.1092896947
H  H106  1  0.15700000  0.88320000  0.80670000  1.0 0.1092896947
H  H107  1  0.11680000  0.84300000  0.30670000  1.0 0.1092896947
H  H108  1  0.84300000  0.11680000  0.19330000  1.0 0.1092896947
H  H109  1  0.87400000  0.98620000  0.69560000  1.0 0.0802456936
H  H110  1  0.98620000  0.87400000  0.80440000  1.0 0.0802456936
H  H111  1  0.12600000  0.01380000  0.30440000  1.0 0.0802456936
H  H112  1  0.01380000  0.12600000  0.19560000  1.0 0.0802456936
H  H113  1  0.97810000  0.53730000  0.05940000  1.0 0.1395728879
H  H114  1  0.53730000  0.97810000  0.44060000  1.0 0.1395728879
H  H115  1  0.02190000  0.46270000  0.94060000  1.0 0.1395728879
H  H116  1  0.46270000  0.02190000  0.55940000  1.0 0.1395728879
H  H117  1  0.10790000  0.43730000  0.07890000  1.0 0.120144576
H  H118  1  0.43730000  0.10790000  0.42110000  1.0 0.120144576
H  H119  1  0.89210000  0.56270000  0.92110000  1.0 0.120144576
H  H120  1  0.56270000  0.89210000  0.57890000  1.0 0.120144576
H  H121  1  0.78970000  0.24750000  0.79590000  1.0 0.1092896947
H  H122  1  0.24750000  0.78970000  0.70410000  1.0 0.1092896947
H  H123  1  0.21030000  0.75250000  0.20410000  1.0 0.1092896947
H  H124  1  0.75250000  0.21030000  0.29590000  1.0 0.1092896947
H  H125  1  0.71160000  0.26240000  0.69180000  1.0 0.1092896947
H  H126  1  0.26240000  0.71160000  0.80820000  1.0 0.1092896947
H  H127  1  0.28840000  0.73760000  0.30820000  1.0 0.1092896947
H  H128  1  0.73760000  0.28840000  0.19180000  1.0 0.1092896947
H  H129  1  0.59100000  0.47460000  0.80350000  1.0 0.0802456936
H  H130  1  0.47460000  0.59100000  0.69650000  1.0 0.0802456936
H  H131  1  0.40900000  0.52540000  0.19650000  1.0 0.0802456936
H  H132  1  0.52540000  0.40900000  0.30350000  1.0 0.0802456936
H  H133  1  0.58940000  0.30700000  0.80840000  1.0 0.1029477128
H  H134  1  0.30700000  0.58940000  0.69160000  1.0 0.1029477128
H  H135  1  0.41060000  0.69300000  0.19160000  1.0 0.1029477128
H  H136  1  0.69300000  0.41060000  0.30840000  1.0 0.1029477128
H  H137  1  0.83400000  0.43580000  0.70640000  1.0 0.120144576
H  H138  1  0.43580000  0.83400000  0.79360000  1.0 0.120144576
H  H139  1  0.16600000  0.56420000  0.29360000  1.0 0.120144576
H  H140  1  0.56420000  0.16600000  0.20640000  1.0 0.120144576
H  H141  1  0.83560000  0.60340000  0.70140000  1.0 0.120144576
H  H142  1  0.60340000  0.83560000  0.79860000  1.0 0.120144576
H  H143  1  0.16440000  0.39660000  0.29860000  1.0 0.120144576
H  H144  1  0.39660000  0.16440000  0.20140000  1.0 0.120144576
H  H145  1  0.86860000  0.96760000  0.82400000  1.0 0.1092896947
H  H146  1  0.96760000  0.86860000  0.67600000  1.0 0.1092896947
H  H147  1  0.13140000  0.03240000  0.17600000  1.0 0.1092896947
H  H148  1  0.03240000  0.13140000  0.32400000  1.0 0.1092896947
H  H149  1  0.85550000  0.12550000  0.82930000  1.0 0.1092896947
H  H150  1  0.12550000  0.85550000  0.67070000  1.0 0.1092896947
H  H151  1  0.14450000  0.87450000  0.17070000  1.0 0.1092896947
H  H152  1  0.87450000  0.14450000  0.32930000  1.0 0.1092896947
H  H153  1  0.70840000  0.08600000  0.68090000  1.0 0.1092896947
H  H154  1  0.08600000  0.70840000  0.81910000  1.0 0.1092896947
H  H155  1  0.29160000  0.91400000  0.31910000  1.0 0.1092896947
H  H156  1  0.91400000  0.29160000  0.18090000  1.0 0.1092896947
H  H157  1  0.72140000  0.92800000  0.67550000  1.0 0.0802456936
H  H158  1  0.92800000  0.72140000  0.82450000  1.0 0.0802456936
H  H159  1  0.27860000  0.07200000  0.32450000  1.0 0.0802456936
H  H160  1  0.07200000  0.27860000  0.17550000  1.0 0.0802456936
C  C1  1  0.61130000  0.91370000  0.23950000  1.0 -0.0290716391
C  C2  1  0.91370000  0.61130000  0.26050000  1.0 -0.0290716391
C  C3  1  0.38870000  0.08630000  0.76050000  1.0 -0.0290716391
C  C4  1  0.08630000  0.38870000  0.73950000  1.0 -0.0290716391
C  C5  1  0.66390000  0.85310000  0.25320000  1.0 -0.101450172
C  C6  1  0.85310000  0.66390000  0.24680000  1.0 -0.101450172
C  C7  1  0.33610000  0.14690000  0.74680000  1.0 -0.101450172
C  C8  1  0.14690000  0.33610000  0.75320000  1.0 -0.101450172
C  C9  1  0.68770000  0.83170000  0.30660000  1.0 -0.1402663484
C  C10  1  0.83170000  0.68770000  0.19340000  1.0 -0.1402663484
C  C11  1  0.31230000  0.16830000  0.69340000  1.0 -0.1402663484
C  C12  1  0.16830000  0.31230000  0.80660000  1.0 -0.1402663484
C  C13  1  0.65290000  0.86570000  0.34700000  1.0 -0.004978001
C  C14  1  0.86570000  0.65290000  0.15300000  1.0 -0.004978001
C  C15  1  0.34710000  0.13430000  0.65300000  1.0 -0.004978001
C  C16  1  0.13430000  0.34710000  0.84700000  1.0 -0.0057806044
C  C17  1  0.59850000  0.92390000  0.33230000  1.0 -0.2524512864
C  C18  1  0.92390000  0.59850000  0.16770000  1.0 -0.2524512864
C  C19  1  0.40150000  0.07610000  0.66770000  1.0 -0.2524512864
C  C20  1  0.07610000  0.40150000  0.83230000  1.0 -0.2524512864
C  C21  1  0.57790000  0.94810000  0.27920000  1.0 -0.2796771645
C  C22  1  0.94810000  0.57790000  0.22080000  1.0 -0.2796771645
C  C23  1  0.42210000  0.05190000  0.72080000  1.0 -0.2796771645
C  C24  1  0.05190000  0.42210000  0.77920000  1.0 -0.2796771645
C  C25  1  0.74900000  0.75200000  0.47180000  1.0 0.2433030449
C  C26  1  0.75200000  0.74900000  0.02820000  1.0 0.2433030449
C  C27  1  0.25100000  0.24800000  0.52820000  1.0 0.2433030449
C  C28  1  0.24800000  0.25100000  0.97180000  1.0 0.2433030449
C  C29  1  0.80650000  0.69410000  0.47500000  1.0 -0.2070153363
C  C30  1  0.69410000  0.80650000  0.02500000  1.0 -0.2070153363
C  C31  1  0.19350000  0.30590000  0.52500000  1.0 -0.2070153363
C  C32  1  0.30590000  0.19350000  0.97500000  1.0 -0.2070153363
C  C33  1  0.83390000  0.65750000  0.52420000  1.0 -0.004978001
C  C34  1  0.65750000  0.83390000  0.97580000  1.0 -0.004978001
C  C35  1  0.16610000  0.34250000  0.47580000  1.0 -0.004978001
C  C36  1  0.34250000  0.16610000  0.02420000  1.0 -0.004978001
C  C37  1  0.80300000  0.67820000  0.57080000  1.0 -0.151323611
C  C38  1  0.67820000  0.80300000  0.92920000  1.0 -0.151323611
C  C39  1  0.19700000  0.32180000  0.42920000  1.0 -0.151323611
C  C40  1  0.32180000  0.19700000  0.07080000  1.0 -0.151323611
C  C41  1  0.74550000  0.73570000  0.56790000  1.0 -0.0209654121
C  C42  1  0.73570000  0.74550000  0.93210000  1.0 -0.0209654121
C  C43  1  0.25450000  0.26430000  0.43210000  1.0 -0.0209654121
C  C44  1  0.26430000  0.25450000  0.06790000  1.0 -0.0209654121
C  C45  1  0.71930000  0.77370000  0.51840000  1.0 -0.1890037365
C  C46  1  0.77370000  0.71930000  0.98160000  1.0 -0.1890037365
C  C47  1  0.28070000  0.22630000  0.48160000  1.0 -0.1890037365
C  C48  1  0.22630000  0.28070000  0.01840000  1.0 -0.1890037365
C  C49  1  0.58890000  0.94110000  0.18190000  1.0 0.5103115879
C  C50  1  0.94110000  0.58890000  0.31810000  1.0 0.5103115879
C  C51  1  0.41110000  0.05890000  0.81810000  1.0 0.5103115879
C  C52  1  0.05890000  0.41110000  0.68190000  1.0 0.5103115879
C  C53  1  0.89660000  0.59520000  0.52750000  1.0 0.554258927
C  C54  1  0.59520000  0.89660000  0.97250000  1.0 0.554258927
C  C55  1  0.10340000  0.40480000  0.47250000  1.0 0.554258927
C  C56  1  0.40480000  0.10340000  0.02750000  1.0 0.554258927
C  C57  1  0.71240000  0.75900000  0.61770000  1.0 0.4570067965
C  C58  1  0.75900000  0.71240000  0.88230000  1.0 0.4570067965
C  C59  1  0.28760000  0.24100000  0.38230000  1.0 0.4570067965
C  C60  1  0.24100000  0.28760000  0.11770000  1.0 0.4570067965
C  C61  1  0.66950000  0.84130000  0.40570000  1.0 0.4493280195
C  C62  1  0.84130000  0.66950000  0.09430000  1.0 0.4493280195
C  C63  1  0.33050000  0.15870000  0.59430000  1.0 0.4493280195
C  C64  1  0.15870000  0.33050000  0.90570000  1.0 0.4493280195
C  C65  1  0.71210000  0.25090000  0.07200000  1.0 0.0576381322
C  C66  1  0.25090000  0.71210000  0.42800000  1.0 0.0576381322
C  C67  1  0.28790000  0.74910000  0.92800000  1.0 0.0576381322
C  C68  1  0.74910000  0.28790000  0.57200000  1.0 0.0576381322
C  C69  1  0.81710000  0.34910000  0.07110000  1.0 -0.3175894774
C  C70  1  0.34910000  0.81710000  0.42890000  1.0 -0.3175894774
C  C71  1  0.18290000  0.65090000  0.92890000  1.0 -0.3175894774
C  C72  1  0.65090000  0.18290000  0.57110000  1.0 -0.3175894774
C  C73  1  0.91100000  0.34500000  0.06950000  1.0 0.0713329643
C  C74  1  0.34500000  0.91100000  0.43050000  1.0 0.0713329643
C  C75  1  0.08900000  0.65500000  0.93050000  1.0 0.0713329643
C  C76  1  0.65500000  0.08900000  0.56950000  1.0 0.0713329643
C  C77  1  0.89990000  0.24290000  0.06730000  1.0 -0.2681667539
C  C78  1  0.24290000  0.89990000  0.43270000  1.0 -0.2681667539
C  C79  1  0.10010000  0.75710000  0.93270000  1.0 -0.2681667539
C  C80  1  0.75710000  0.10010000  0.56730000  1.0 -0.2681667539
C  C81  1  0.79720000  0.15220000  0.06900000  1.0 0.0294265398
C  C82  1  0.15220000  0.79720000  0.43100000  1.0 0.0294265398
C  C83  1  0.20280000  0.84780000  0.93100000  1.0 0.0294265398
C  C84  1  0.84780000  0.20280000  0.56900000  1.0 0.0294265398
C  C85  1  0.02790000  0.43210000  0.07210000  1.0 -0.058223619
C  C86  1  0.43210000  0.02790000  0.42790000  1.0 -0.058223619
C  C87  1  0.97210000  0.56790000  0.92790000  1.0 -0.058223619
C  C88  1  0.56790000  0.97210000  0.57210000  1.0 -0.058223619
C  C89  1  0.05510000  0.54150000  0.06690000  1.0 -0.058223619
C  C90  1  0.54150000  0.05510000  0.43310000  1.0 -0.058223619
C  C91  1  0.94490000  0.45850000  0.93310000  1.0 -0.058223619
C  C92  1  0.45850000  0.94490000  0.56690000  1.0 -0.058223619
C  C93  1  0.36920000  0.73240000  0.07170000  1.0 0.0802456936
C  C94  1  0.73240000  0.36920000  0.42830000  1.0 0.0802456936
C  C95  1  0.63080000  0.26760000  0.92830000  1.0 0.0802456936
C  C96  1  0.26760000  0.63080000  0.57170000  1.0 0.0802456936
C  C97  1  0.26720000  0.63140000  0.06970000  1.0 -0.3021965779
C  C98  1  0.63140000  0.26720000  0.43030000  1.0 -0.3021965779
C  C99  1  0.73280000  0.36860000  0.93030000  1.0 -0.3021965779
C  C100  1  0.36860000  0.73280000  0.56970000  1.0 -0.3021965779
C  C101  1  0.16760000  0.62960000  0.07000000  1.0 0.0713329643
C  C102  1  0.62960000  0.16760000  0.43000000  1.0 0.0713329643
C  C103  1  0.83240000  0.37040000  0.93000000  1.0 0.0713329643
C  C104  1  0.37040000  0.83240000  0.57000000  1.0 0.0713329643
C  C105  1  0.17260000  0.73060000  0.07430000  1.0 -0.2796771645
C  C106  1  0.73060000  0.17260000  0.42570000  1.0 -0.2796771645
C  C107  1  0.82740000  0.26940000  0.92570000  1.0 -0.2796771645
C  C108  1  0.26940000  0.82740000  0.57430000  1.0 -0.2796771645
C  C109  1  0.27360000  0.82560000  0.07580000  1.0 0.049542011
C  C110  1  0.82560000  0.27360000  0.42420000  1.0 0.049542011
C  C111  1  0.72640000  0.17440000  0.92420000  1.0 0.049542011
C  C112  1  0.17440000  0.72640000  0.57580000  1.0 0.049542011
C  C113  1  0.76680000  0.22100000  0.73320000  1.0 -0.0389886804
C  C114  1  0.22100000  0.76680000  0.76680000  1.0 -0.0389886804
C  C115  1  0.23320000  0.77900000  0.26680000  1.0 -0.0389886804
C  C116  1  0.77900000  0.23320000  0.23320000  1.0 -0.0389886804
C  C117  1  0.70760000  0.25120000  0.75730000  1.0 -0.058223619
C  C118  1  0.25120000  0.70760000  0.74270000  1.0 -0.058223619
C  C119  1  0.29240000  0.74880000  0.24270000  1.0 -0.058223619
C  C120  1  0.74880000  0.29240000  0.25730000  1.0 -0.058223619
C  C121  1  0.63460000  0.48000000  0.70030000  1.0 -0.0873115256
C  C122  1  0.48000000  0.63460000  0.79970000  1.0 -0.0873115256
C  C123  1  0.36540000  0.52000000  0.29970000  1.0 -0.0873115256
C  C124  1  0.52000000  0.36540000  0.20030000  1.0 -0.0873115256
C  C125  1  0.65130000  0.39170000  0.69420000  1.0 -0.2407701097
C  C126  1  0.39170000  0.65130000  0.80580000  1.0 -0.2407701097
C  C127  1  0.34870000  0.60830000  0.30580000  1.0 -0.2407701097
C  C128  1  0.60830000  0.34870000  0.19420000  1.0 -0.2407701097
C  C129  1  0.70010000  0.35530000  0.73630000  1.0 0.0878230773
C  C130  1  0.35530000  0.70010000  0.76370000  1.0 0.0878230773
C  C131  1  0.29990000  0.64470000  0.26370000  1.0 0.0878230773
C  C132  1  0.64470000  0.29990000  0.23630000  1.0 0.0878230773
C  C133  1  0.73210000  0.40710000  0.78450000  1.0 -0.0713310547
C  C134  1  0.40710000  0.73210000  0.71550000  1.0 -0.0713310547
C  C135  1  0.26790000  0.59290000  0.21550000  1.0 -0.0713310547
C  C136  1  0.59290000  0.26790000  0.28450000  1.0 -0.0713310547
C  C137  1  0.71540000  0.49540000  0.79060000  1.0 0.0294265398
C  C138  1  0.49540000  0.71540000  0.70940000  1.0 0.0294265398
C  C139  1  0.28460000  0.50460000  0.20940000  1.0 0.0294265398
C  C140  1  0.50460000  0.28460000  0.29060000  1.0 0.0294265398
C  C141  1  0.68070000  0.92010000  0.77690000  1.0 -0.151323611
C  C142  1  0.92010000  0.68070000  0.72310000  1.0 -0.151323611
C  C143  1  0.31930000  0.07990000  0.22310000  1.0 -0.151323611
C  C144  1  0.07990000  0.31930000  0.27690000  1.0 -0.151323611
C  C145  1  0.68630000  0.02250000  0.77550000  1.0 -0.151323611
C  C146  1  0.02250000  0.68630000  0.72450000  1.0 -0.151323611
C  C147  1  0.31370000  0.97750000  0.22450000  1.0 -0.151323611
C  C148  1  0.97750000  0.31370000  0.27550000  1.0 -0.151323611
C  C149  1  0.76210000  0.11130000  0.74430000  1.0 0.0802456936
C  C150  1  0.11130000  0.76210000  0.75570000  1.0 0.0802456936
C  C151  1  0.23790000  0.88870000  0.25570000  1.0 0.0802456936
C  C152  1  0.88870000  0.23790000  0.24430000  1.0 0.0802456936
C  C153  1  0.83250000  0.09770000  0.71430000  1.0 -0.101450172
C  C154  1  0.09770000  0.83250000  0.78570000  1.0 -0.101450172
C  C155  1  0.16750000  0.90230000  0.28570000  1.0 -0.101450172
C  C156  1  0.90230000  0.16750000  0.21430000  1.0 -0.101450172
C  C157  1  0.82700000  0.99520000  0.71560000  1.0 0.0368768416
C  C158  1  0.99520000  0.82700000  0.78440000  1.0 0.0368768416
C  C159  1  0.17300000  0.00480000  0.28440000  1.0 0.0368768416
C  C160  1  0.00480000  0.17300000  0.21560000  1.0 0.0368768416
C  C161  1  0.99660000  0.48160000  0.06570000  1.0 -0.0500592386
C  C162  1  0.48160000  0.99660000  0.43430000  1.0 -0.0500592386
C  C163  1  0.00340000  0.51840000  0.93430000  1.0 -0.0500592386
C  C164  1  0.51840000  0.00340000  0.56570000  1.0 -0.0500592386
C  C165  1  0.08750000  0.49170000  0.07310000  1.0 -0.0500592386
C  C166  1  0.49170000  0.08750000  0.42690000  1.0 -0.0500592386
C  C167  1  0.91250000  0.50830000  0.92690000  1.0 -0.0500592386
C  C168  1  0.50830000  0.91250000  0.57310000  1.0 -0.0500592386
C  C169  1  0.76670000  0.21910000  0.76210000  1.0 -0.0290716391
C  C170  1  0.21910000  0.76670000  0.73790000  1.0 -0.0290716391
C  C171  1  0.23330000  0.78090000  0.23790000  1.0 -0.0290716391
C  C172  1  0.78090000  0.23330000  0.26210000  1.0 -0.0290716391
C  C173  1  0.72720000  0.27280000  0.72830000  1.0 -0.0500592386
C  C174  1  0.27280000  0.72720000  0.77170000  1.0 -0.0500592386
C  C175  1  0.27280000  0.72720000  0.27170000  1.0 -0.0500592386
C  C176  1  0.72720000  0.27280000  0.22830000  1.0 -0.0500592386
C  C177  1  0.63960000  0.46680000  0.78400000  1.0 0.0211191934
C  C178  1  0.46680000  0.63960000  0.71600000  1.0 0.0211191934
C  C179  1  0.36040000  0.53320000  0.21600000  1.0 0.0211191934
C  C180  1  0.53320000  0.36040000  0.28400000  1.0 0.0211191934
C  C181  1  0.63880000  0.36640000  0.78700000  1.0 -0.101450172
C  C182  1  0.36640000  0.63880000  0.71300000  1.0 -0.101450172
C  C183  1  0.36120000  0.63360000  0.21300000  1.0 -0.101450172
C  C184  1  0.63360000  0.36120000  0.28700000  1.0 -0.101450172
C  C185  1  0.71160000  0.35480000  0.75790000  1.0 0.0802456936
C  C186  1  0.35480000  0.71160000  0.74210000  1.0 0.0802456936
C  C187  1  0.28840000  0.64520000  0.24210000  1.0 0.0802456936
C  C188  1  0.64520000  0.28840000  0.25790000  1.0 0.0802456936
C  C189  1  0.78530000  0.44350000  0.72580000  1.0 -0.101450172
C  C190  1  0.44350000  0.78530000  0.77420000  1.0 -0.101450172
C  C191  1  0.21470000  0.55650000  0.27420000  1.0 -0.101450172
C  C192  1  0.55650000  0.21470000  0.22580000  1.0 -0.101450172
C  C193  1  0.78630000  0.54390000  0.72290000  1.0 -0.1620609023
C  C194  1  0.54390000  0.78630000  0.77710000  1.0 -0.1620609023
C  C195  1  0.21370000  0.45610000  0.27710000  1.0 -0.1620609023
C  C196  1  0.45610000  0.21370000  0.22290000  1.0 -0.1620609023
C  C197  1  0.83650000  0.99130000  0.79530000  1.0 -0.0873115256
C  C198  1  0.99130000  0.83650000  0.70470000  1.0 -0.0873115256
C  C199  1  0.16350000  0.00870000  0.20470000  1.0 -0.0873115256
C  C200  1  0.00870000  0.16350000  0.29530000  1.0 -0.0873115256
C  C201  1  0.82870000  0.08590000  0.79850000  1.0 -0.1693394191
C  C202  1  0.08590000  0.82870000  0.70150000  1.0 -0.1693394191
C  C203  1  0.17130000  0.91410000  0.20150000  1.0 -0.1693394191
C  C204  1  0.91410000  0.17130000  0.29850000  1.0 -0.1693394191
C  C205  1  0.78060000  0.12140000  0.75560000  1.0 0.0802456936
C  C206  1  0.12140000  0.78060000  0.74440000  1.0 0.0802456936
C  C207  1  0.21940000  0.87860000  0.24440000  1.0 0.0802456936
C  C208  1  0.87860000  0.21940000  0.25560000  1.0 0.0802456936
C  C209  1  0.74040000  0.06220000  0.70960000  1.0 -0.0784068692
C  C210  1  0.06220000  0.74040000  0.79040000  1.0 -0.0784068692
C  C211  1  0.25960000  0.93780000  0.29040000  1.0 -0.0784068692
C  C212  1  0.93780000  0.25960000  0.20960000  1.0 -0.0784068692
C  C213  1  0.74840000  0.96760000  0.70640000  1.0 0.0211191934
C  C214  1  0.96760000  0.74840000  0.79360000  1.0 0.0211191934
C  C215  1  0.25160000  0.03240000  0.29360000  1.0 0.0211191934
C  C216  1  0.03240000  0.25160000  0.20640000  1.0 0.0211191934
N  N1  1  0.36980000  0.82700000  0.07490000  1.0 -0.2556187071
N  N2  1  0.82700000  0.36980000  0.42510000  1.0 -0.2556187071
N  N3  1  0.63020000  0.17300000  0.92510000  1.0 -0.2556187071
N  N4  1  0.17300000  0.63020000  0.57490000  1.0 -0.2556187071
N  N5  1  0.70260000  0.15400000  0.07150000  1.0 -0.2407701097
N  N6  1  0.15400000  0.70260000  0.42850000  1.0 -0.2407701097
N  N7  1  0.29740000  0.84600000  0.92850000  1.0 -0.2407701097
N  N8  1  0.84600000  0.29740000  0.57150000  1.0 -0.2407701097
N  N9  1  0.72230000  0.78410000  0.41960000  1.0 -0.3546468176
N  N10  1  0.78410000  0.72230000  0.08040000  1.0 -0.3546468176
N  N11  1  0.27770000  0.21590000  0.58040000  1.0 -0.3546468176
N  N12  1  0.21590000  0.27770000  0.91960000  1.0 -0.3546468176
N  N13  1  0.66666667  0.53180000  0.74850000  1.0 0.1029477128
N  N14  1  0.53180000  0.66666667  0.75150000  1.0 0.1029477128
N  N15  1  0.33340000  0.46820000  0.25150000  1.0 0.1029477128
N  N16  1  0.46820000  0.33340000  0.24850000  1.0 0.1029477128
N  N17  1  0.75110000  0.90650000  0.74690000  1.0 0.0294265398
N  N18  1  0.90650000  0.75110000  0.75310000  1.0 0.0294265398
N  N19  1  0.24890000  0.09350000  0.25310000  1.0 0.0294265398
N  N20  1  0.09350000  0.24890000  0.24690000  1.0 0.0294265398
N  N21  1  0.71340000  0.55560000  0.75190000  1.0 0.049542011
N  N22  1  0.55560000  0.71340000  0.74810000  1.0 0.049542011
N  N23  1  0.28660000  0.44440000  0.24810000  1.0 0.049542011
N  N24  1  0.44440000  0.28660000  0.25190000  1.0 0.049542011
N  N25  1  0.79630000  0.93210000  0.74920000  1.0 0.1092896947
N  N26  1  0.93210000  0.79630000  0.75080000  1.0 0.1092896947
N  N27  1  0.20370000  0.06790000  0.25080000  1.0 0.1092896947
N  N28  1  0.06790000  0.20370000  0.24920000  1.0 0.1092896947
O  O1  1  0.53960000  0.99600000  0.17180000  1.0 -0.5433347605
O  O2  1  0.99600000  0.53960000  0.32820000  1.0 -0.5433347605
O  O3  1  0.46040000  0.00400000  0.82820000  1.0 -0.5433347605
O  O4  1  0.00400000  0.46040000  0.67180000  1.0 -0.5433347605
O  O5  1  0.90810000  0.55390000  0.57250000  1.0 -0.5433347605
O  O6  1  0.55390000  0.90810000  0.92750000  1.0 -0.5433347605
O  O7  1  0.09190000  0.44610000  0.42750000  1.0 -0.5433347605
O  O8  1  0.44610000  0.09190000  0.07250000  1.0 -0.5433347605
O  O9  1  0.74190000  0.72990000  0.66100000  1.0 -0.5760708012
O  O10  1  0.72990000  0.74190000  0.83900000  1.0 -0.5760708012
O  O11  1  0.25810000  0.27010000  0.33900000  1.0 -0.5760708012
O  O12  1  0.27010000  0.25810000  0.16100000  1.0 -0.5760708012
O  O13  1  0.63890000  0.87710000  0.43820000  1.0 -0.482680545
O  O14  1  0.87710000  0.63890000  0.06180000  1.0 -0.482680545
O  O15  1  0.36110000  0.12290000  0.56180000  1.0 -0.482680545
O  O16  1  0.12290000  0.36110000  0.93820000  1.0 -0.482680545
O  O17  1  0.61920000  0.90980000  0.14500000  1.0 -0.533524216
O  O18  1  0.90980000  0.61920000  0.35500000  1.0 -0.533524216
O  O19  1  0.38080000  0.09020000  0.85500000  1.0 -0.533524216
O  O20  1  0.09020000  0.38080000  0.64500000  1.0 -0.533524216
O  O21  1  0.93350000  0.58810000  0.48630000  1.0 -0.5603524901
O  O22  1  0.58810000  0.93350000  0.01370000  1.0 -0.5603524901
O  O23  1  0.06650000  0.41190000  0.51370000  1.0 -0.5603524901
O  O24  1  0.41190000  0.06650000  0.98630000  1.0 -0.5603524901
O  O25  1  0.62520000  0.76680000  0.61260000  1.0 -0.2681667539
O  O26  1  0.76680000  0.62520000  0.88740000  1.0 -0.2681667539
O  O27  1  0.37480000  0.23320000  0.38740000  1.0 -0.2681667539
O  O28  1  0.23320000  0.37480000  0.11260000  1.0 -0.2681667539
O  O29  1  0.69630000  0.83970000  0.61490000  1.0 -0.2681667539
O  O30  1  0.83970000  0.69630000  0.88510000  1.0 -0.2681667539
O  O31  1  0.30370000  0.16030000  0.38510000  1.0 -0.2681667539
O  O32  1  0.16030000  0.30370000  0.11490000  1.0 -0.2681667539
