# DDEC6 charges by PACMAN v1.1 (https://github.com/mtap-research/PACMAN-charge/)
data_ZIKFIL_ASR_pacman
_symmetry_space_group_name_H-M   'P 1'
_cell_length_a   24.17620000
_cell_length_b   24.17620000
_cell_length_c   24.17620000
_cell_angle_alpha   109.47100000
_cell_angle_beta   109.47100000
_cell_angle_gamma   109.47100000
_symmetry_Int_Tables_number   1
_chemical_formula_structural   CoH7C14(NO)6
_chemical_formula_sum   'Co24 H168 C336 N144 O144'
_cell_volume   10877.91788538
_cell_formula_units_Z   24
loop_
 _symmetry_equiv_pos_site_id
 _symmetry_equiv_pos_as_xyz
  1  'x, y, z'
loop_
 _atom_site_type_symbol
 _atom_site_label
 _atom_site_symmetry_multiplicity
 _atom_site_fract_x
 _atom_site_fract_y
 _atom_site_fract_z
 _atom_site_occupancy
 _atom_site_charge
Co  Co1  1  0.46188000  0.73094000  0.73094000  1.0 0.7028894923
Co  Co2  1  0.59638000  0.79819000  0.79819000  1.0 0.9244097671
Co  Co3  1  0.00000000  0.73094000  0.26906000  1.0 0.7028894923
Co  Co4  1  0.00000000  0.79819000  0.20181000  1.0 0.9244097671
Co  Co5  1  0.00000000  0.26906000  0.73094000  1.0 0.7028894923
Co  Co6  1  0.00000000  0.20181000  0.79819000  1.0 0.9244097671
Co  Co7  1  0.53812000  0.26906000  0.26906000  1.0 0.7028894923
Co  Co8  1  0.40362000  0.20181000  0.20181000  1.0 0.9244097671
Co  Co9  1  0.73094000  0.46188000  0.73094000  1.0 0.7028894923
Co  Co10  1  0.79819000  0.59638000  0.79819000  1.0 0.9244097671
Co  Co11  1  0.26906000  0.00000000  0.73094000  1.0 0.7028894923
Co  Co12  1  0.20181000  0.00000000  0.79819000  1.0 0.9244097671
Co  Co13  1  0.73094000  0.00000000  0.26906000  1.0 0.7028894923
Co  Co14  1  0.79819000  0.00000000  0.20181000  1.0 0.9244097671
Co  Co15  1  0.26906000  0.53812000  0.26906000  1.0 0.7028894923
Co  Co16  1  0.20181000  0.40362000  0.20181000  1.0 0.9244097671
Co  Co17  1  0.73094000  0.73094000  0.46188000  1.0 0.7028894923
Co  Co18  1  0.79819000  0.79819000  0.59638000  1.0 0.9244097671
Co  Co19  1  0.73094000  0.26906000  0.00000000  1.0 0.7028894923
Co  Co20  1  0.79819000  0.20181000  0.00000000  1.0 0.9244097671
Co  Co21  1  0.26906000  0.73094000  0.00000000  1.0 0.7028894923
Co  Co22  1  0.20181000  0.79819000  0.00000000  1.0 0.9244097671
Co  Co23  1  0.26906000  0.26906000  0.53812000  1.0 0.7028894923
Co  Co24  1  0.20181000  0.20181000  0.40362000  1.0 0.9244097671
H  H1  1  0.39890000  0.37710000  0.61780000  1.0 0.1310221263
H  H2  1  0.42850000  0.53120000  0.69110000  1.0 0.1310221263
H  H3  1  0.36230000  0.41420000  0.85890000  1.0 0.2162510261
H  H4  1  0.75930000  0.78110000  0.38220000  1.0 0.1310221263
H  H5  1  0.84010000  0.73740000  0.30890000  1.0 0.1310221263
H  H6  1  0.55530000  0.50340000  0.14110000  1.0 0.2162510261
H  H7  1  0.24070000  0.62290000  0.02180000  1.0 0.1310221263
H  H8  1  0.15990000  0.46880000  0.89730000  1.0 0.1310221263
H  H9  1  0.44470000  0.58580000  0.94810000  1.0 0.2162510261
H  H10  1  0.60110000  0.21890000  0.97820000  1.0 0.1310221263
H  H11  1  0.57150000  0.26260000  0.10270000  1.0 0.1310221263
H  H12  1  0.63770000  0.49660000  0.05190000  1.0 0.2162510261
H  H13  1  0.61780000  0.39890000  0.37710000  1.0 0.1310221263
H  H14  1  0.69110000  0.42850000  0.53120000  1.0 0.1310221263
H  H15  1  0.85890000  0.36230000  0.41420000  1.0 0.2162510261
H  H16  1  0.38220000  0.75930000  0.78110000  1.0 0.1310221263
H  H17  1  0.30890000  0.84010000  0.73740000  1.0 0.1310221263
H  H18  1  0.14110000  0.55530000  0.50340000  1.0 0.2162510261
H  H19  1  0.02180000  0.24070000  0.62290000  1.0 0.1310221263
H  H20  1  0.89730000  0.15990000  0.46880000  1.0 0.1310221263
H  H21  1  0.94810000  0.44470000  0.58580000  1.0 0.2162510261
H  H22  1  0.97820000  0.60110000  0.21890000  1.0 0.1310221263
H  H23  1  0.10270000  0.57150000  0.26260000  1.0 0.1310221263
H  H24  1  0.05190000  0.63770000  0.49660000  1.0 0.2162510261
H  H25  1  0.37710000  0.61780000  0.39890000  1.0 0.1310221263
H  H26  1  0.53120000  0.69110000  0.42850000  1.0 0.1310221263
H  H27  1  0.41420000  0.85890000  0.36230000  1.0 0.2162510261
H  H28  1  0.78110000  0.38220000  0.75930000  1.0 0.1310221263
H  H29  1  0.73740000  0.30890000  0.84010000  1.0 0.1310221263
H  H30  1  0.50340000  0.14110000  0.55530000  1.0 0.2162510261
H  H31  1  0.62290000  0.02180000  0.24070000  1.0 0.1310221263
H  H32  1  0.46880000  0.89730000  0.15990000  1.0 0.1310221263
H  H33  1  0.58580000  0.94810000  0.44470000  1.0 0.2162510261
H  H34  1  0.21890000  0.97820000  0.60110000  1.0 0.1310221263
H  H35  1  0.26260000  0.10270000  0.57150000  1.0 0.1310221263
H  H36  1  0.49660000  0.05190000  0.63770000  1.0 0.2162510261
H  H37  1  0.21890000  0.24070000  0.61780000  1.0 0.1310221263
H  H38  1  0.26260000  0.15990000  0.69110000  1.0 0.1310221263
H  H39  1  0.49660000  0.44470000  0.85890000  1.0 0.2162510261
H  H40  1  0.62290000  0.60110000  0.38220000  1.0 0.1310221263
H  H41  1  0.46880000  0.57150000  0.30890000  1.0 0.1310221263
H  H42  1  0.58580000  0.63770000  0.14110000  1.0 0.2162510261
H  H43  1  0.78110000  0.39890000  0.02180000  1.0 0.1310221263
H  H44  1  0.73740000  0.42850000  0.89730000  1.0 0.1310221263
H  H45  1  0.50340000  0.36230000  0.94810000  1.0 0.2162510261
H  H46  1  0.37710000  0.75930000  0.97820000  1.0 0.1310221263
H  H47  1  0.53120000  0.84010000  0.10270000  1.0 0.1310221263
H  H48  1  0.41420000  0.55530000  0.05190000  1.0 0.2162510261
H  H49  1  0.75930000  0.97820000  0.37710000  1.0 0.1310221263
H  H50  1  0.84010000  0.10270000  0.53120000  1.0 0.1310221263
H  H51  1  0.55530000  0.05190000  0.41420000  1.0 0.2162510261
H  H52  1  0.39890000  0.02180000  0.78110000  1.0 0.1310221263
H  H53  1  0.42850000  0.89730000  0.73740000  1.0 0.1310221263
H  H54  1  0.36230000  0.94810000  0.50340000  1.0 0.2162510261
H  H55  1  0.60110000  0.38220000  0.62290000  1.0 0.1310221263
H  H56  1  0.57150000  0.30890000  0.46880000  1.0 0.1310221263
H  H57  1  0.63770000  0.14110000  0.58580000  1.0 0.2162510261
H  H58  1  0.24070000  0.61780000  0.21890000  1.0 0.1310221263
H  H59  1  0.15990000  0.69110000  0.26260000  1.0 0.1310221263
H  H60  1  0.44470000  0.85890000  0.49660000  1.0 0.2162510261
H  H61  1  0.02180000  0.78110000  0.39890000  1.0 0.1310221263
H  H62  1  0.89730000  0.73740000  0.42850000  1.0 0.1310221263
H  H63  1  0.94810000  0.50340000  0.36230000  1.0 0.2162510261
H  H64  1  0.97820000  0.37710000  0.75930000  1.0 0.1310221263
H  H65  1  0.10270000  0.53120000  0.84010000  1.0 0.1310221263
H  H66  1  0.05190000  0.41420000  0.55530000  1.0 0.2162510261
H  H67  1  0.61780000  0.21890000  0.24070000  1.0 0.1310221263
H  H68  1  0.69110000  0.26260000  0.15990000  1.0 0.1310221263
H  H69  1  0.85890000  0.49660000  0.44470000  1.0 0.2162510261
H  H70  1  0.38220000  0.62290000  0.60110000  1.0 0.1310221263
H  H71  1  0.30890000  0.46880000  0.57150000  1.0 0.1310221263
H  H72  1  0.14110000  0.58580000  0.63770000  1.0 0.2162510261
H  H73  1  0.60110000  0.62290000  0.38220000  1.0 0.1310221263
H  H74  1  0.57150000  0.46880000  0.30890000  1.0 0.1310221263
H  H75  1  0.63770000  0.58580000  0.14110000  1.0 0.2162510261
H  H76  1  0.24070000  0.21890000  0.61780000  1.0 0.1310221263
H  H77  1  0.15990000  0.26260000  0.69110000  1.0 0.1310221263
H  H78  1  0.44470000  0.49660000  0.85890000  1.0 0.2162510261
H  H79  1  0.75930000  0.37710000  0.97820000  1.0 0.1310221263
H  H80  1  0.84010000  0.53120000  0.10270000  1.0 0.1310221263
H  H81  1  0.55530000  0.41420000  0.05190000  1.0 0.2162510261
H  H82  1  0.39890000  0.78110000  0.02180000  1.0 0.1310221263
H  H83  1  0.42850000  0.73740000  0.89730000  1.0 0.1310221263
H  H84  1  0.36230000  0.50340000  0.94810000  1.0 0.2162510261
H  H85  1  0.38220000  0.60110000  0.62290000  1.0 0.1310221263
H  H86  1  0.30890000  0.57150000  0.46880000  1.0 0.1310221263
H  H87  1  0.14110000  0.63770000  0.58580000  1.0 0.2162510261
H  H88  1  0.61780000  0.24070000  0.21890000  1.0 0.1310221263
H  H89  1  0.69110000  0.15990000  0.26260000  1.0 0.1310221263
H  H90  1  0.85890000  0.44470000  0.49660000  1.0 0.2162510261
H  H91  1  0.97820000  0.75930000  0.37710000  1.0 0.1310221263
H  H92  1  0.10270000  0.84010000  0.53120000  1.0 0.1310221263
H  H93  1  0.05190000  0.55530000  0.41420000  1.0 0.2162510261
H  H94  1  0.02180000  0.39890000  0.78110000  1.0 0.1310221263
H  H95  1  0.89730000  0.42850000  0.73740000  1.0 0.1310221263
H  H96  1  0.94810000  0.36230000  0.50340000  1.0 0.2162510261
H  H97  1  0.62290000  0.38220000  0.60110000  1.0 0.1310221263
H  H98  1  0.46880000  0.30890000  0.57150000  1.0 0.1310221263
H  H99  1  0.58580000  0.14110000  0.63770000  1.0 0.2162510261
H  H100  1  0.21890000  0.61780000  0.24070000  1.0 0.1310221263
H  H101  1  0.26260000  0.69110000  0.15990000  1.0 0.1310221263
H  H102  1  0.49660000  0.85890000  0.44470000  1.0 0.2162510261
H  H103  1  0.37710000  0.97820000  0.75930000  1.0 0.1310221263
H  H104  1  0.53120000  0.10270000  0.84010000  1.0 0.1310221263
H  H105  1  0.41420000  0.05190000  0.55530000  1.0 0.2162510261
H  H106  1  0.78110000  0.02180000  0.39890000  1.0 0.1310221263
H  H107  1  0.73740000  0.89730000  0.42850000  1.0 0.1310221263
H  H108  1  0.50340000  0.94810000  0.36230000  1.0 0.2162510261
H  H109  1  0.78110000  0.75930000  0.38220000  1.0 0.1310221263
H  H110  1  0.73740000  0.84010000  0.30890000  1.0 0.1310221263
H  H111  1  0.50340000  0.55530000  0.14110000  1.0 0.2162510261
H  H112  1  0.37710000  0.39890000  0.61780000  1.0 0.1310221263
H  H113  1  0.53120000  0.42850000  0.69110000  1.0 0.1310221263
H  H114  1  0.41420000  0.36230000  0.85890000  1.0 0.2162510261
H  H115  1  0.21890000  0.60110000  0.97820000  1.0 0.1310221263
H  H116  1  0.26260000  0.57150000  0.10270000  1.0 0.1310221263
H  H117  1  0.49660000  0.63770000  0.05190000  1.0 0.2162510261
H  H118  1  0.62290000  0.24070000  0.02180000  1.0 0.1310221263
H  H119  1  0.46880000  0.15990000  0.89730000  1.0 0.1310221263
H  H120  1  0.58580000  0.44470000  0.94810000  1.0 0.2162510261
H  H121  1  0.24070000  0.02180000  0.62290000  1.0 0.1310221263
H  H122  1  0.15990000  0.89730000  0.46880000  1.0 0.1310221263
H  H123  1  0.44470000  0.94810000  0.58580000  1.0 0.2162510261
H  H124  1  0.60110000  0.97820000  0.21890000  1.0 0.1310221263
H  H125  1  0.57150000  0.10270000  0.26260000  1.0 0.1310221263
H  H126  1  0.63770000  0.05190000  0.49660000  1.0 0.2162510261
H  H127  1  0.39890000  0.61780000  0.37710000  1.0 0.1310221263
H  H128  1  0.42850000  0.69110000  0.53120000  1.0 0.1310221263
H  H129  1  0.36230000  0.85890000  0.41420000  1.0 0.2162510261
H  H130  1  0.75930000  0.38220000  0.78110000  1.0 0.1310221263
H  H131  1  0.84010000  0.30890000  0.73740000  1.0 0.1310221263
H  H132  1  0.55530000  0.14110000  0.50340000  1.0 0.2162510261
H  H133  1  0.97820000  0.21890000  0.60110000  1.0 0.1310221263
H  H134  1  0.10270000  0.26260000  0.57150000  1.0 0.1310221263
H  H135  1  0.05190000  0.49660000  0.63770000  1.0 0.2162510261
H  H136  1  0.02180000  0.62290000  0.24070000  1.0 0.1310221263
H  H137  1  0.89730000  0.46880000  0.15990000  1.0 0.1310221263
H  H138  1  0.94810000  0.58580000  0.44470000  1.0 0.2162510261
H  H139  1  0.38220000  0.78110000  0.75930000  1.0 0.1310221263
H  H140  1  0.30890000  0.73740000  0.84010000  1.0 0.1310221263
H  H141  1  0.14110000  0.50340000  0.55530000  1.0 0.2162510261
H  H142  1  0.61780000  0.37710000  0.39890000  1.0 0.1310221263
H  H143  1  0.69110000  0.53120000  0.42850000  1.0 0.1310221263
H  H144  1  0.85890000  0.41420000  0.36230000  1.0 0.2162510261
H  H145  1  0.63180000  0.63180000  0.76700000  1.0 0.1405543122
H  H146  1  0.86480000  0.86480000  0.23300000  1.0 0.1405543122
H  H147  1  0.13520000  0.36820000  0.00000000  1.0 0.1405543122
H  H148  1  0.36820000  0.13520000  0.00000000  1.0 0.1405543122
H  H149  1  0.76700000  0.63180000  0.63180000  1.0 0.1405543122
H  H150  1  0.23300000  0.86480000  0.86480000  1.0 0.1405543122
H  H151  1  0.00000000  0.13520000  0.36820000  1.0 0.1405543122
H  H152  1  0.00000000  0.36820000  0.13520000  1.0 0.1405543122
H  H153  1  0.63180000  0.76700000  0.63180000  1.0 0.1405543122
H  H154  1  0.86480000  0.23300000  0.86480000  1.0 0.1405543122
H  H155  1  0.36820000  0.00000000  0.13520000  1.0 0.1405543122
H  H156  1  0.13520000  0.00000000  0.36820000  1.0 0.1405543122
H  H157  1  0.13520000  0.13520000  0.76700000  1.0 0.1405543122
H  H158  1  0.36820000  0.36820000  0.23300000  1.0 0.1405543122
H  H159  1  0.86480000  0.63180000  0.00000000  1.0 0.1405543122
H  H160  1  0.63180000  0.86480000  0.00000000  1.0 0.1405543122
H  H161  1  0.86480000  0.00000000  0.63180000  1.0 0.1405543122
H  H162  1  0.63180000  0.00000000  0.86480000  1.0 0.1405543122
H  H163  1  0.36820000  0.23300000  0.36820000  1.0 0.1405543122
H  H164  1  0.13520000  0.76700000  0.13520000  1.0 0.1405543122
H  H165  1  0.00000000  0.86480000  0.63180000  1.0 0.1405543122
H  H166  1  0.00000000  0.63180000  0.86480000  1.0 0.1405543122
H  H167  1  0.76700000  0.13520000  0.13520000  1.0 0.1405543122
H  H168  1  0.23300000  0.36820000  0.36820000  1.0 0.1405543122
C  C1  1  0.52920000  0.65547000  0.74443000  1.0 0.5654343939
C  C2  1  0.53004000  0.59089000  0.73049000  1.0 -0.0030820854
C  C3  1  0.46998000  0.53106000  0.70160000  1.0 -0.2402650517
C  C4  1  0.36540000  0.39370000  0.67770000  1.0 0.0745070827
C  C5  1  0.36080000  0.41400000  0.78040000  1.0 0.1240824277
C  C6  1  0.30750000  0.30000000  0.68910000  1.0 0.1478371848
C  C7  1  0.91104000  0.78477000  0.25557000  1.0 0.5654343939
C  C8  1  0.86040000  0.79955000  0.26951000  1.0 -0.0030820854
C  C9  1  0.82946000  0.76838000  0.29840000  1.0 -0.2402650517
C  C10  1  0.71600000  0.68770000  0.32230000  1.0 0.0745070827
C  C11  1  0.63360000  0.58040000  0.21960000  1.0 0.1240824277
C  C12  1  0.61090000  0.61840000  0.31090000  1.0 0.1478371848
C  C13  1  0.08896000  0.34453000  0.87373000  1.0 0.5654343939
C  C14  1  0.13960000  0.40911000  0.93915000  1.0 -0.0030820854
C  C15  1  0.17054000  0.46894000  0.93892000  1.0 -0.2402650517
C  C16  1  0.28400000  0.60630000  0.97170000  1.0 0.0745070827
C  C17  1  0.36640000  0.58600000  0.94680000  1.0 0.1240824277
C  C18  1  0.38910000  0.70000000  0.00750000  1.0 0.1478371848
C  C19  1  0.47080000  0.21523000  0.12627000  1.0 0.5654343939
C  C20  1  0.46996000  0.20045000  0.06085000  1.0 -0.0030820854
C  C21  1  0.53002000  0.23162000  0.06108000  1.0 -0.2402650517
C  C22  1  0.63460000  0.31230000  0.02830000  1.0 0.0745070827
C  C23  1  0.63920000  0.41960000  0.05320000  1.0 0.1310221263
C  C24  1  0.69250000  0.38160000  0.99250000  1.0 0.1478371848
C  C25  1  0.74443000  0.52920000  0.65547000  1.0 0.5654343939
C  C26  1  0.73049000  0.53004000  0.59089000  1.0 -0.0030820854
C  C27  1  0.70160000  0.46998000  0.53106000  1.0 -0.2402650517
C  C28  1  0.67770000  0.36540000  0.39370000  1.0 0.0745070827
C  C29  1  0.78040000  0.36080000  0.41400000  1.0 0.1240824277
C  C30  1  0.68910000  0.30750000  0.30000000  1.0 0.1478371848
C  C31  1  0.25557000  0.91104000  0.78477000  1.0 0.5654343939
C  C32  1  0.26951000  0.86040000  0.79955000  1.0 -0.0030820854
C  C33  1  0.29840000  0.82946000  0.76838000  1.0 -0.2402650517
C  C34  1  0.32230000  0.71600000  0.68770000  1.0 0.0745070827
C  C35  1  0.21960000  0.63360000  0.58040000  1.0 0.1240824277
C  C36  1  0.31090000  0.61090000  0.61840000  1.0 0.1478371848
C  C37  1  0.87373000  0.08896000  0.34453000  1.0 0.5654343939
C  C38  1  0.93915000  0.13960000  0.40911000  1.0 -0.0030820854
C  C39  1  0.93892000  0.17054000  0.46894000  1.0 -0.2402650517
C  C40  1  0.97170000  0.28400000  0.60630000  1.0 0.0745070827
C  C41  1  0.94680000  0.36640000  0.58600000  1.0 0.1310221263
C  C42  1  0.00750000  0.38910000  0.70000000  1.0 0.1478371848
C  C43  1  0.12627000  0.47080000  0.21523000  1.0 0.5654343939
C  C44  1  0.06085000  0.46996000  0.20045000  1.0 -0.0030820854
C  C45  1  0.06108000  0.53002000  0.23162000  1.0 -0.2402650517
C  C46  1  0.02830000  0.63460000  0.31230000  1.0 0.0761548382
C  C47  1  0.05320000  0.63920000  0.41960000  1.0 0.1240824277
C  C48  1  0.99250000  0.69250000  0.38160000  1.0 0.1478371848
C  C49  1  0.65547000  0.74443000  0.52920000  1.0 0.5654343939
C  C50  1  0.59089000  0.73049000  0.53004000  1.0 -0.0030820854
C  C51  1  0.53106000  0.70160000  0.46998000  1.0 -0.2402650517
C  C52  1  0.39370000  0.67770000  0.36540000  1.0 0.0745070827
C  C53  1  0.41400000  0.78040000  0.36080000  1.0 0.1240824277
C  C54  1  0.30000000  0.68910000  0.30750000  1.0 0.1478371848
C  C55  1  0.78477000  0.25557000  0.91104000  1.0 0.5654343939
C  C56  1  0.79955000  0.26951000  0.86040000  1.0 -0.0030820854
C  C57  1  0.76838000  0.29840000  0.82946000  1.0 -0.2402650517
C  C58  1  0.68770000  0.32230000  0.71600000  1.0 0.0745070827
C  C59  1  0.58040000  0.21960000  0.63360000  1.0 0.1310221263
C  C60  1  0.61840000  0.31090000  0.61090000  1.0 0.1478371848
C  C61  1  0.34453000  0.87373000  0.08896000  1.0 0.5654343939
C  C62  1  0.40911000  0.93915000  0.13960000  1.0 -0.0030820854
C  C63  1  0.46894000  0.93892000  0.17054000  1.0 -0.2402650517
C  C64  1  0.60630000  0.97170000  0.28400000  1.0 0.0745070827
C  C65  1  0.58600000  0.94680000  0.36640000  1.0 0.1240824277
C  C66  1  0.70000000  0.00750000  0.38910000  1.0 0.1478371848
C  C67  1  0.21523000  0.12627000  0.47080000  1.0 0.5654343939
C  C68  1  0.20045000  0.06085000  0.46996000  1.0 -0.0030820854
C  C69  1  0.23162000  0.06108000  0.53002000  1.0 -0.2402650517
C  C70  1  0.31230000  0.02830000  0.63460000  1.0 0.0745070827
C  C71  1  0.41960000  0.05320000  0.63920000  1.0 0.1240824277
C  C72  1  0.38160000  0.99250000  0.69250000  1.0 0.1478371848
C  C73  1  0.21523000  0.08896000  0.74443000  1.0 0.5654343939
C  C74  1  0.20045000  0.13960000  0.73049000  1.0 -0.0030820854
C  C75  1  0.23162000  0.17054000  0.70160000  1.0 -0.2402650517
C  C76  1  0.31230000  0.28400000  0.67770000  1.0 0.0745070827
C  C77  1  0.41960000  0.36640000  0.78040000  1.0 0.1240824277
C  C78  1  0.38160000  0.38910000  0.68910000  1.0 0.1478371848
C  C79  1  0.34453000  0.47080000  0.25557000  1.0 0.5654343939
C  C80  1  0.40911000  0.46996000  0.26951000  1.0 -0.0030820854
C  C81  1  0.46894000  0.53002000  0.29840000  1.0 -0.2402650517
C  C82  1  0.60630000  0.63460000  0.32230000  1.0 0.0745070827
C  C83  1  0.58600000  0.63920000  0.21960000  1.0 0.1240824277
C  C84  1  0.70000000  0.69250000  0.31090000  1.0 0.1478371848
C  C85  1  0.78477000  0.52920000  0.87373000  1.0 0.5654343939
C  C86  1  0.79955000  0.53004000  0.93915000  1.0 -0.0030820854
C  C87  1  0.76838000  0.46998000  0.93892000  1.0 -0.2402650517
C  C88  1  0.68770000  0.36540000  0.97170000  1.0 0.0745070827
C  C89  1  0.58040000  0.36080000  0.94680000  1.0 0.1240824277
C  C90  1  0.61840000  0.30750000  0.00750000  1.0 0.1478371848
C  C91  1  0.65547000  0.91104000  0.12627000  1.0 0.5654343939
C  C92  1  0.59089000  0.86040000  0.06085000  1.0 -0.0030820854
C  C93  1  0.53106000  0.82946000  0.06108000  1.0 -0.2402650517
C  C94  1  0.39370000  0.71600000  0.02830000  1.0 0.0745070827
C  C95  1  0.41400000  0.63360000  0.05320000  1.0 0.1310221263
C  C96  1  0.30000000  0.61090000  0.99250000  1.0 0.1478371848
C  C97  1  0.91104000  0.12627000  0.65547000  1.0 0.5654343939
C  C98  1  0.86040000  0.06085000  0.59089000  1.0 -0.0030820854
C  C99  1  0.82946000  0.06108000  0.53106000  1.0 -0.2402650517
C  C100  1  0.71600000  0.02830000  0.39370000  1.0 0.0745070827
C  C101  1  0.63360000  0.05320000  0.41400000  1.0 0.1240824277
C  C102  1  0.61090000  0.99250000  0.30000000  1.0 0.1478371848
C  C103  1  0.52920000  0.87373000  0.78477000  1.0 0.5654343939
C  C104  1  0.53004000  0.93915000  0.79955000  1.0 -0.0030820854
C  C105  1  0.46998000  0.93892000  0.76838000  1.0 -0.2402650517
C  C106  1  0.36540000  0.97170000  0.68770000  1.0 0.0745070827
C  C107  1  0.36080000  0.94680000  0.58040000  1.0 0.1310221263
C  C108  1  0.30750000  0.00750000  0.61840000  1.0 0.1478371848
C  C109  1  0.47080000  0.25557000  0.34453000  1.0 0.5654343939
C  C110  1  0.46996000  0.26951000  0.40911000  1.0 -0.0030820854
C  C111  1  0.53002000  0.29840000  0.46894000  1.0 -0.2402650517
C  C112  1  0.63460000  0.32230000  0.60630000  1.0 0.0745070827
C  C113  1  0.63920000  0.21960000  0.58600000  1.0 0.1310221263
C  C114  1  0.69250000  0.31090000  0.70000000  1.0 0.1478371848
C  C115  1  0.08896000  0.74443000  0.21523000  1.0 0.5654343939
C  C116  1  0.13960000  0.73049000  0.20045000  1.0 -0.0030820854
C  C117  1  0.17054000  0.70160000  0.23162000  1.0 -0.2402650517
C  C118  1  0.28400000  0.67770000  0.31230000  1.0 0.0745070827
C  C119  1  0.36640000  0.78040000  0.41960000  1.0 0.1240824277
C  C120  1  0.38910000  0.68910000  0.38160000  1.0 0.1478371848
C  C121  1  0.87373000  0.78477000  0.52920000  1.0 0.5654343939
C  C122  1  0.93915000  0.79955000  0.53004000  1.0 -0.0030820854
C  C123  1  0.93892000  0.76838000  0.46998000  1.0 -0.2402650517
C  C124  1  0.97170000  0.68770000  0.36540000  1.0 0.0745070827
C  C125  1  0.94680000  0.58040000  0.36080000  1.0 0.1240824277
C  C126  1  0.00750000  0.61840000  0.30750000  1.0 0.1478371848
C  C127  1  0.12627000  0.65547000  0.91104000  1.0 0.5654343939
C  C128  1  0.06085000  0.59089000  0.86040000  1.0 -0.0030820854
C  C129  1  0.06108000  0.53106000  0.82946000  1.0 -0.2402650517
C  C130  1  0.02830000  0.39370000  0.71600000  1.0 0.0745070827
C  C131  1  0.05320000  0.41400000  0.63360000  1.0 0.1310221263
C  C132  1  0.99250000  0.30000000  0.61090000  1.0 0.1478371848
C  C133  1  0.74443000  0.21523000  0.08896000  1.0 0.5654343939
C  C134  1  0.73049000  0.20045000  0.13960000  1.0 -0.0030820854
C  C135  1  0.70160000  0.23162000  0.17054000  1.0 -0.2402650517
C  C136  1  0.67770000  0.31230000  0.28400000  1.0 0.0745070827
C  C137  1  0.78040000  0.41960000  0.36640000  1.0 0.1310221263
C  C138  1  0.68910000  0.38160000  0.38910000  1.0 0.1478371848
C  C139  1  0.25557000  0.34453000  0.47080000  1.0 0.5654343939
C  C140  1  0.26951000  0.40911000  0.46996000  1.0 -0.0030820854
C  C141  1  0.29840000  0.46894000  0.53002000  1.0 -0.2402650517
C  C142  1  0.32230000  0.60630000  0.63460000  1.0 0.0745070827
C  C143  1  0.21960000  0.58600000  0.63920000  1.0 0.1240824277
C  C144  1  0.31090000  0.70000000  0.69250000  1.0 0.1478371848
C  C145  1  0.47080000  0.34453000  0.25557000  1.0 0.5654343939
C  C146  1  0.46996000  0.40911000  0.26951000  1.0 -0.0030820854
C  C147  1  0.53002000  0.46894000  0.29840000  1.0 -0.2402650517
C  C148  1  0.63460000  0.60630000  0.32230000  1.0 0.0745070827
C  C149  1  0.63920000  0.58600000  0.21960000  1.0 0.1240824277
C  C150  1  0.69250000  0.70000000  0.31090000  1.0 0.1478371848
C  C151  1  0.08896000  0.21523000  0.74443000  1.0 0.5654343939
C  C152  1  0.13960000  0.20045000  0.73049000  1.0 -0.0030820854
C  C153  1  0.17054000  0.23162000  0.70160000  1.0 -0.2402650517
C  C154  1  0.28400000  0.31230000  0.67770000  1.0 0.0745070827
C  C155  1  0.36640000  0.41960000  0.78040000  1.0 0.1240824277
C  C156  1  0.38910000  0.38160000  0.68910000  1.0 0.1478371848
C  C157  1  0.91104000  0.65547000  0.12627000  1.0 0.5654343939
C  C158  1  0.86040000  0.59089000  0.06085000  1.0 -0.0030820854
C  C159  1  0.82946000  0.53106000  0.06108000  1.0 -0.2402650517
C  C160  1  0.71600000  0.39370000  0.02830000  1.0 0.0745070827
C  C161  1  0.63360000  0.41400000  0.05320000  1.0 0.1310221263
C  C162  1  0.61090000  0.30000000  0.99250000  1.0 0.1478371848
C  C163  1  0.52920000  0.78477000  0.87373000  1.0 0.5654343939
C  C164  1  0.53004000  0.79955000  0.93915000  1.0 -0.0030820854
C  C165  1  0.46998000  0.76838000  0.93892000  1.0 -0.2402650517
C  C166  1  0.36540000  0.68770000  0.97170000  1.0 0.0745070827
C  C167  1  0.36080000  0.58040000  0.94680000  1.0 0.1240824277
C  C168  1  0.30750000  0.61840000  0.00750000  1.0 0.1478371848
C  C169  1  0.25557000  0.47080000  0.34453000  1.0 0.5654343939
C  C170  1  0.26951000  0.46996000  0.40911000  1.0 -0.0030820854
C  C171  1  0.29840000  0.53002000  0.46894000  1.0 -0.2402650517
C  C172  1  0.32230000  0.63460000  0.60630000  1.0 0.0745070827
C  C173  1  0.21960000  0.63920000  0.58600000  1.0 0.1240824277
C  C174  1  0.31090000  0.69250000  0.70000000  1.0 0.1478371848
C  C175  1  0.74443000  0.08896000  0.21523000  1.0 0.5654343939
C  C176  1  0.73049000  0.13960000  0.20045000  1.0 -0.0030820854
C  C177  1  0.70160000  0.17054000  0.23162000  1.0 -0.2402650517
C  C178  1  0.67770000  0.28400000  0.31230000  1.0 0.0745070827
C  C179  1  0.78040000  0.36640000  0.41960000  1.0 0.1240824277
C  C180  1  0.68910000  0.38910000  0.38160000  1.0 0.1478371848
C  C181  1  0.12627000  0.91104000  0.65547000  1.0 0.5654343939
C  C182  1  0.06085000  0.86040000  0.59089000  1.0 -0.0030820854
C  C183  1  0.06108000  0.82946000  0.53106000  1.0 -0.2402650517
C  C184  1  0.02830000  0.71600000  0.39370000  1.0 0.0745070827
C  C185  1  0.05320000  0.63360000  0.41400000  1.0 0.1240824277
C  C186  1  0.99250000  0.61090000  0.30000000  1.0 0.1478371848
C  C187  1  0.87373000  0.52920000  0.78477000  1.0 0.5654343939
C  C188  1  0.93915000  0.53004000  0.79955000  1.0 -0.0030820854
C  C189  1  0.93892000  0.46998000  0.76838000  1.0 -0.2402650517
C  C190  1  0.97170000  0.36540000  0.68770000  1.0 0.0745070827
C  C191  1  0.94680000  0.36080000  0.58040000  1.0 0.1310221263
C  C192  1  0.00750000  0.30750000  0.61840000  1.0 0.1478371848
C  C193  1  0.34453000  0.25557000  0.47080000  1.0 0.5654343939
C  C194  1  0.40911000  0.26951000  0.46996000  1.0 -0.0030820854
C  C195  1  0.46894000  0.29840000  0.53002000  1.0 -0.2402650517
C  C196  1  0.60630000  0.32230000  0.63460000  1.0 0.0745070827
C  C197  1  0.58600000  0.21960000  0.63920000  1.0 0.1310221263
C  C198  1  0.70000000  0.31090000  0.69250000  1.0 0.1478371848
C  C199  1  0.21523000  0.74443000  0.08896000  1.0 0.5654343939
C  C200  1  0.20045000  0.73049000  0.13960000  1.0 -0.0030820854
C  C201  1  0.23162000  0.70160000  0.17054000  1.0 -0.2402650517
C  C202  1  0.31230000  0.67770000  0.28400000  1.0 0.0745070827
C  C203  1  0.41960000  0.78040000  0.36640000  1.0 0.1240824277
C  C204  1  0.38160000  0.68910000  0.38910000  1.0 0.1478371848
C  C205  1  0.65547000  0.12627000  0.91104000  1.0 0.5654343939
C  C206  1  0.59089000  0.06085000  0.86040000  1.0 -0.0030820854
C  C207  1  0.53106000  0.06108000  0.82946000  1.0 -0.2402650517
C  C208  1  0.39370000  0.02830000  0.71600000  1.0 0.0745070827
C  C209  1  0.41400000  0.05320000  0.63360000  1.0 0.1240824277
C  C210  1  0.30000000  0.99250000  0.61090000  1.0 0.1478371848
C  C211  1  0.78477000  0.87373000  0.52920000  1.0 0.5654343939
C  C212  1  0.79955000  0.93915000  0.53004000  1.0 -0.0030820854
C  C213  1  0.76838000  0.93892000  0.46998000  1.0 -0.2402650517
C  C214  1  0.68770000  0.97170000  0.36540000  1.0 0.0745070827
C  C215  1  0.58040000  0.94680000  0.36080000  1.0 0.1240824277
C  C216  1  0.61840000  0.00750000  0.30750000  1.0 0.1478371848
C  C217  1  0.78477000  0.91104000  0.25557000  1.0 0.5654343939
C  C218  1  0.79955000  0.86040000  0.26951000  1.0 -0.0030820854
C  C219  1  0.76838000  0.82946000  0.29840000  1.0 -0.2402650517
C  C220  1  0.68770000  0.71600000  0.32230000  1.0 0.0745070827
C  C221  1  0.58040000  0.63360000  0.21960000  1.0 0.1240824277
C  C222  1  0.61840000  0.61090000  0.31090000  1.0 0.1478371848
C  C223  1  0.65547000  0.52920000  0.74443000  1.0 0.5654343939
C  C224  1  0.59089000  0.53004000  0.73049000  1.0 -0.0030820854
C  C225  1  0.53106000  0.46998000  0.70160000  1.0 -0.2402650517
C  C226  1  0.39370000  0.36540000  0.67770000  1.0 0.0745070827
C  C227  1  0.41400000  0.36080000  0.78040000  1.0 0.1240824277
C  C228  1  0.30000000  0.30750000  0.68910000  1.0 0.1478371848
C  C229  1  0.21523000  0.47080000  0.12627000  1.0 0.5654343939
C  C230  1  0.20045000  0.46996000  0.06085000  1.0 -0.0030820854
C  C231  1  0.23162000  0.53002000  0.06108000  1.0 -0.2402650517
C  C232  1  0.31230000  0.63460000  0.02830000  1.0 0.0745070827
C  C233  1  0.41960000  0.63920000  0.05320000  1.0 0.1310221263
C  C234  1  0.38160000  0.69250000  0.99250000  1.0 0.1478371848
C  C235  1  0.34453000  0.08896000  0.87373000  1.0 0.5654343939
C  C236  1  0.40911000  0.13960000  0.93915000  1.0 -0.0030820854
C  C237  1  0.46894000  0.17054000  0.93892000  1.0 -0.2402650517
C  C238  1  0.60630000  0.28400000  0.97170000  1.0 0.0745070827
C  C239  1  0.58600000  0.36640000  0.94680000  1.0 0.1240824277
C  C240  1  0.70000000  0.38910000  0.00750000  1.0 0.1478371848
C  C241  1  0.08896000  0.87373000  0.34453000  1.0 0.5654343939
C  C242  1  0.13960000  0.93915000  0.40911000  1.0 -0.0030820854
C  C243  1  0.17054000  0.93892000  0.46894000  1.0 -0.2402650517
C  C244  1  0.28400000  0.97170000  0.60630000  1.0 0.0745070827
C  C245  1  0.36640000  0.94680000  0.58600000  1.0 0.1310221263
C  C246  1  0.38910000  0.00750000  0.70000000  1.0 0.1478371848
C  C247  1  0.47080000  0.12627000  0.21523000  1.0 0.5654343939
C  C248  1  0.46996000  0.06085000  0.20045000  1.0 -0.0030820854
C  C249  1  0.53002000  0.06108000  0.23162000  1.0 -0.2402650517
C  C250  1  0.63460000  0.02830000  0.31230000  1.0 0.0761548382
C  C251  1  0.63920000  0.05320000  0.41960000  1.0 0.1240824277
C  C252  1  0.69250000  0.99250000  0.38160000  1.0 0.1478371848
C  C253  1  0.52920000  0.74443000  0.65547000  1.0 0.5654343939
C  C254  1  0.53004000  0.73049000  0.59089000  1.0 -0.0030820854
C  C255  1  0.46998000  0.70160000  0.53106000  1.0 -0.2402650517
C  C256  1  0.36540000  0.67770000  0.39370000  1.0 0.0745070827
C  C257  1  0.36080000  0.78040000  0.41400000  1.0 0.1240824277
C  C258  1  0.30750000  0.68910000  0.30000000  1.0 0.1478371848
C  C259  1  0.91104000  0.25557000  0.78477000  1.0 0.5654343939
C  C260  1  0.86040000  0.26951000  0.79955000  1.0 -0.0030820854
C  C261  1  0.82946000  0.29840000  0.76838000  1.0 -0.2402650517
C  C262  1  0.71600000  0.32230000  0.68770000  1.0 0.0745070827
C  C263  1  0.63360000  0.21960000  0.58040000  1.0 0.1310221263
C  C264  1  0.61090000  0.31090000  0.61840000  1.0 0.1478371848
C  C265  1  0.12627000  0.21523000  0.47080000  1.0 0.5654343939
C  C266  1  0.06085000  0.20045000  0.46996000  1.0 -0.0030820854
C  C267  1  0.06108000  0.23162000  0.53002000  1.0 -0.2402650517
C  C268  1  0.02830000  0.31230000  0.63460000  1.0 0.0745070827
C  C269  1  0.05320000  0.41960000  0.63920000  1.0 0.1310221263
C  C270  1  0.99250000  0.38160000  0.69250000  1.0 0.1478371848
C  C271  1  0.87373000  0.34453000  0.08896000  1.0 0.5654343939
C  C272  1  0.93915000  0.40911000  0.13960000  1.0 -0.0030820854
C  C273  1  0.93892000  0.46894000  0.17054000  1.0 -0.2402650517
C  C274  1  0.97170000  0.60630000  0.28400000  1.0 0.0745070827
C  C275  1  0.94680000  0.58600000  0.36640000  1.0 0.1240824277
C  C276  1  0.00750000  0.70000000  0.38910000  1.0 0.1478371848
C  C277  1  0.25557000  0.78477000  0.91104000  1.0 0.5654343939
C  C278  1  0.26951000  0.79955000  0.86040000  1.0 -0.0030820854
C  C279  1  0.29840000  0.76838000  0.82946000  1.0 -0.2402650517
C  C280  1  0.32230000  0.68770000  0.71600000  1.0 0.0745070827
C  C281  1  0.21960000  0.58040000  0.63360000  1.0 0.1240824277
C  C282  1  0.31090000  0.61840000  0.61090000  1.0 0.1478371848
C  C283  1  0.74443000  0.65547000  0.52920000  1.0 0.5654343939
C  C284  1  0.73049000  0.59089000  0.53004000  1.0 -0.0030820854
C  C285  1  0.70160000  0.53106000  0.46998000  1.0 -0.2402650517
C  C286  1  0.67770000  0.39370000  0.36540000  1.0 0.0745070827
C  C287  1  0.78040000  0.41400000  0.36080000  1.0 0.1240824277
C  C288  1  0.68910000  0.30000000  0.30750000  1.0 0.1478371848
C  C289  1  0.59063000  0.59063000  0.74594000  1.0 -0.1300937236
C  C290  1  0.47132000  0.47132000  0.68836000  1.0 0.0269603463
C  C291  1  0.84469000  0.84469000  0.25406000  1.0 -0.1300937236
C  C292  1  0.78296000  0.78296000  0.31164000  1.0 0.0269603463
C  C293  1  0.15531000  0.40937000  0.00000000  1.0 -0.1300937236
C  C294  1  0.21704000  0.52868000  0.00000000  1.0 0.0269603463
C  C295  1  0.40937000  0.15531000  0.00000000  1.0 -0.1300937236
C  C296  1  0.52868000  0.21704000  0.00000000  1.0 0.0269603463
C  C297  1  0.74594000  0.59063000  0.59063000  1.0 -0.1300937236
C  C298  1  0.68836000  0.47132000  0.47132000  1.0 0.0269603463
C  C299  1  0.25406000  0.84469000  0.84469000  1.0 -0.1300937236
C  C300  1  0.31164000  0.78296000  0.78296000  1.0 0.0269603463
C  C301  1  0.00000000  0.15531000  0.40937000  1.0 -0.1300937236
C  C302  1  0.00000000  0.21704000  0.52868000  1.0 0.0269603463
C  C303  1  0.00000000  0.40937000  0.15531000  1.0 -0.1300937236
C  C304  1  0.00000000  0.52868000  0.21704000  1.0 0.0269603463
C  C305  1  0.59063000  0.74594000  0.59063000  1.0 -0.1300937236
C  C306  1  0.47132000  0.68836000  0.47132000  1.0 0.0269603463
C  C307  1  0.84469000  0.25406000  0.84469000  1.0 -0.1300937236
C  C308  1  0.78296000  0.31164000  0.78296000  1.0 0.0269603463
C  C309  1  0.40937000  0.00000000  0.15531000  1.0 -0.1300937236
C  C310  1  0.52868000  0.00000000  0.21704000  1.0 0.0269603463
C  C311  1  0.15531000  0.00000000  0.40937000  1.0 -0.1300937236
C  C312  1  0.21704000  0.00000000  0.52868000  1.0 0.0269603463
C  C313  1  0.15531000  0.15531000  0.74594000  1.0 -0.1300937236
C  C314  1  0.21704000  0.21704000  0.68836000  1.0 0.0269603463
C  C315  1  0.40937000  0.40937000  0.25406000  1.0 -0.1300937236
C  C316  1  0.52868000  0.52868000  0.31164000  1.0 0.0269603463
C  C317  1  0.84469000  0.59063000  0.00000000  1.0 -0.1300937236
C  C318  1  0.78296000  0.47132000  0.00000000  1.0 0.0269603463
C  C319  1  0.59063000  0.84469000  0.00000000  1.0 -0.1300937236
C  C320  1  0.47132000  0.78296000  0.00000000  1.0 0.0269603463
C  C321  1  0.84469000  0.00000000  0.59063000  1.0 -0.1300937236
C  C322  1  0.78296000  0.00000000  0.47132000  1.0 0.0269603463
C  C323  1  0.59063000  0.00000000  0.84469000  1.0 -0.1300937236
C  C324  1  0.47132000  0.00000000  0.78296000  1.0 0.0269603463
C  C325  1  0.40937000  0.25406000  0.40937000  1.0 -0.1300937236
C  C326  1  0.52868000  0.31164000  0.52868000  1.0 0.0269603463
C  C327  1  0.15531000  0.74594000  0.15531000  1.0 -0.1300937236
C  C328  1  0.21704000  0.68836000  0.21704000  1.0 0.0269603463
C  C329  1  0.00000000  0.84469000  0.59063000  1.0 -0.1300937236
C  C330  1  0.00000000  0.78296000  0.47132000  1.0 0.0269603463
C  C331  1  0.00000000  0.59063000  0.84469000  1.0 -0.1300937236
C  C332  1  0.00000000  0.47132000  0.78296000  1.0 0.0269603463
C  C333  1  0.74594000  0.15531000  0.15531000  1.0 -0.1300937236
C  C334  1  0.68836000  0.21704000  0.21704000  1.0 0.0269603463
C  C335  1  0.25406000  0.40937000  0.40937000  1.0 -0.1300937236
C  C336  1  0.31164000  0.52868000  0.52868000  1.0 0.0269603463
N  N1  1  0.38090000  0.44080000  0.74090000  1.0 -0.1400884599
N  N2  1  0.32350000  0.34400000  0.75450000  1.0 0.0412278261
N  N3  1  0.69990000  0.64000000  0.25910000  1.0 -0.1400884599
N  N4  1  0.58950000  0.56900000  0.24550000  1.0 0.0412278261
N  N5  1  0.30010000  0.55920000  0.94010000  1.0 -0.1400884599
N  N6  1  0.41050000  0.65600000  0.97950000  1.0 0.0412278261
N  N7  1  0.61910000  0.36000000  0.05990000  1.0 -0.1400884599
N  N8  1  0.67650000  0.43100000  0.02050000  1.0 0.0412278261
N  N9  1  0.74090000  0.38090000  0.44080000  1.0 -0.1400884599
N  N10  1  0.75450000  0.32350000  0.34400000  1.0 0.0412278261
N  N11  1  0.25910000  0.69990000  0.64000000  1.0 -0.1400884599
N  N12  1  0.24550000  0.58950000  0.56900000  1.0 0.0412278261
N  N13  1  0.94010000  0.30010000  0.55920000  1.0 -0.1400884599
N  N14  1  0.97950000  0.41050000  0.65600000  1.0 0.0412278261
N  N15  1  0.05990000  0.61910000  0.36000000  1.0 -0.1400884599
N  N16  1  0.02050000  0.67650000  0.43100000  1.0 0.0412278261
N  N17  1  0.44080000  0.74090000  0.38090000  1.0 -0.1400884599
N  N18  1  0.34400000  0.75450000  0.32350000  1.0 0.0412278261
N  N19  1  0.64000000  0.25910000  0.69990000  1.0 -0.1400884599
N  N20  1  0.56900000  0.24550000  0.58950000  1.0 0.0412278261
N  N21  1  0.55920000  0.94010000  0.30010000  1.0 -0.1400884599
N  N22  1  0.65600000  0.97950000  0.41050000  1.0 0.0412278261
N  N23  1  0.36000000  0.05990000  0.61910000  1.0 -0.1400884599
N  N24  1  0.43100000  0.02050000  0.67650000  1.0 0.0412278261
N  N25  1  0.36000000  0.30010000  0.74090000  1.0 -0.1400884599
N  N26  1  0.43100000  0.41050000  0.75450000  1.0 0.0412278261
N  N27  1  0.55920000  0.61910000  0.25910000  1.0 -0.1400884599
N  N28  1  0.65600000  0.67650000  0.24550000  1.0 0.0412278261
N  N29  1  0.64000000  0.38090000  0.94010000  1.0 -0.1400884599
N  N30  1  0.56900000  0.32350000  0.97950000  1.0 0.0412278261
N  N31  1  0.44080000  0.69990000  0.05990000  1.0 -0.1400884599
N  N32  1  0.34400000  0.58950000  0.02050000  1.0 0.0412278261
N  N33  1  0.69990000  0.05990000  0.44080000  1.0 -0.1400884599
N  N34  1  0.58950000  0.02050000  0.34400000  1.0 0.0412278261
N  N35  1  0.38090000  0.94010000  0.64000000  1.0 -0.1400884599
N  N36  1  0.32350000  0.97950000  0.56900000  1.0 0.0412278261
N  N37  1  0.61910000  0.25910000  0.55920000  1.0 -0.1400884599
N  N38  1  0.67650000  0.24550000  0.65600000  1.0 0.0412278261
N  N39  1  0.30010000  0.74090000  0.36000000  1.0 -0.1400884599
N  N40  1  0.41050000  0.75450000  0.43100000  1.0 0.0412278261
N  N41  1  0.94010000  0.64000000  0.38090000  1.0 -0.1400884599
N  N42  1  0.97950000  0.56900000  0.32350000  1.0 0.0412278261
N  N43  1  0.05990000  0.44080000  0.69990000  1.0 -0.1400884599
N  N44  1  0.02050000  0.34400000  0.58950000  1.0 0.0412278261
N  N45  1  0.74090000  0.36000000  0.30010000  1.0 -0.1400884599
N  N46  1  0.75450000  0.43100000  0.41050000  1.0 0.0412278261
N  N47  1  0.25910000  0.55920000  0.61910000  1.0 -0.1400884599
N  N48  1  0.24550000  0.65600000  0.67650000  1.0 0.0476464395
N  N49  1  0.61910000  0.55920000  0.25910000  1.0 -0.1400884599
N  N50  1  0.67650000  0.65600000  0.24550000  1.0 0.0412278261
N  N51  1  0.30010000  0.36000000  0.74090000  1.0 -0.1400884599
N  N52  1  0.41050000  0.43100000  0.75450000  1.0 0.0412278261
N  N53  1  0.69990000  0.44080000  0.05990000  1.0 -0.1400884599
N  N54  1  0.58950000  0.34400000  0.02050000  1.0 0.0412278261
N  N55  1  0.38090000  0.64000000  0.94010000  1.0 -0.1400884599
N  N56  1  0.32350000  0.56900000  0.97950000  1.0 0.0412278261
N  N57  1  0.25910000  0.61910000  0.55920000  1.0 -0.1400884599
N  N58  1  0.24550000  0.67650000  0.65600000  1.0 0.0412278261
N  N59  1  0.74090000  0.30010000  0.36000000  1.0 -0.1400884599
N  N60  1  0.75450000  0.41050000  0.43100000  1.0 0.0412278261
N  N61  1  0.05990000  0.69990000  0.44080000  1.0 -0.1400884599
N  N62  1  0.02050000  0.58950000  0.34400000  1.0 0.0412278261
N  N63  1  0.94010000  0.38090000  0.64000000  1.0 -0.1400884599
N  N64  1  0.97950000  0.32350000  0.56900000  1.0 0.0412278261
N  N65  1  0.55920000  0.25910000  0.61910000  1.0 -0.1400884599
N  N66  1  0.65600000  0.24550000  0.67650000  1.0 0.0412278261
N  N67  1  0.36000000  0.74090000  0.30010000  1.0 -0.1400884599
N  N68  1  0.43100000  0.75450000  0.41050000  1.0 0.0412278261
N  N69  1  0.44080000  0.05990000  0.69990000  1.0 -0.1400884599
N  N70  1  0.34400000  0.02050000  0.58950000  1.0 0.0412278261
N  N71  1  0.64000000  0.94010000  0.38090000  1.0 -0.1400884599
N  N72  1  0.56900000  0.97950000  0.32350000  1.0 0.0412278261
N  N73  1  0.64000000  0.69990000  0.25910000  1.0 -0.1400884599
N  N74  1  0.56900000  0.58950000  0.24550000  1.0 0.0412278261
N  N75  1  0.44080000  0.38090000  0.74090000  1.0 -0.1400884599
N  N76  1  0.34400000  0.32350000  0.75450000  1.0 0.0412278261
N  N77  1  0.36000000  0.61910000  0.05990000  1.0 -0.1400884599
N  N78  1  0.43100000  0.67650000  0.02050000  1.0 0.0412278261
N  N79  1  0.55920000  0.30010000  0.94010000  1.0 -0.1400884599
N  N80  1  0.65600000  0.41050000  0.97950000  1.0 0.0412278261
N  N81  1  0.30010000  0.94010000  0.55920000  1.0 -0.1400884599
N  N82  1  0.41050000  0.97950000  0.65600000  1.0 0.0412278261
N  N83  1  0.61910000  0.05990000  0.36000000  1.0 -0.1400884599
N  N84  1  0.67650000  0.02050000  0.43100000  1.0 0.0412278261
N  N85  1  0.38090000  0.74090000  0.44080000  1.0 -0.1400884599
N  N86  1  0.32350000  0.75450000  0.34400000  1.0 0.0412278261
N  N87  1  0.69990000  0.25910000  0.64000000  1.0 -0.1400884599
N  N88  1  0.58950000  0.24550000  0.56900000  1.0 0.0412278261
N  N89  1  0.05990000  0.36000000  0.61910000  1.0 -0.1400884599
N  N90  1  0.02050000  0.43100000  0.67650000  1.0 0.0412278261
N  N91  1  0.94010000  0.55920000  0.30010000  1.0 -0.1400884599
N  N92  1  0.97950000  0.65600000  0.41050000  1.0 0.0412278261
N  N93  1  0.25910000  0.64000000  0.69990000  1.0 -0.1400884599
N  N94  1  0.24550000  0.56900000  0.58950000  1.0 0.0412278261
N  N95  1  0.74090000  0.44080000  0.38090000  1.0 -0.1400884599
N  N96  1  0.75450000  0.34400000  0.32350000  1.0 0.0412278261
N  N97  1  0.40922000  0.40922000  0.65662000  1.0 -0.2586130169
N  N98  1  0.75260000  0.75260000  0.34338000  1.0 -0.2586130169
N  N99  1  0.24740000  0.59078000  0.00000000  1.0 -0.2586130169
N  N100  1  0.59078000  0.24740000  0.00000000  1.0 -0.2586130169
N  N101  1  0.65662000  0.40922000  0.40922000  1.0 -0.2586130169
N  N102  1  0.34338000  0.75260000  0.75260000  1.0 -0.2586130169
N  N103  1  0.00000000  0.24740000  0.59078000  1.0 -0.2586130169
N  N104  1  0.00000000  0.59078000  0.24740000  1.0 -0.2586130169
N  N105  1  0.40922000  0.65662000  0.40922000  1.0 -0.2586130169
N  N106  1  0.75260000  0.34338000  0.75260000  1.0 -0.2586130169
N  N107  1  0.59078000  0.00000000  0.24740000  1.0 -0.2586130169
N  N108  1  0.24740000  0.00000000  0.59078000  1.0 -0.2586130169
N  N109  1  0.24740000  0.24740000  0.65662000  1.0 -0.2586130169
N  N110  1  0.59078000  0.59078000  0.34338000  1.0 -0.2586130169
N  N111  1  0.75260000  0.40922000  0.00000000  1.0 -0.2586130169
N  N112  1  0.40922000  0.75260000  0.00000000  1.0 -0.2586130169
N  N113  1  0.75260000  0.00000000  0.40922000  1.0 -0.2586130169
N  N114  1  0.40922000  0.00000000  0.75260000  1.0 -0.2586130169
N  N115  1  0.59078000  0.34338000  0.59078000  1.0 -0.2586130169
N  N116  1  0.24740000  0.65662000  0.24740000  1.0 -0.2586130169
N  N117  1  0.00000000  0.75260000  0.40922000  1.0 -0.2586130169
N  N118  1  0.00000000  0.40922000  0.75260000  1.0 -0.2586130169
N  N119  1  0.65662000  0.24740000  0.24740000  1.0 -0.2586130169
N  N120  1  0.34338000  0.59078000  0.59078000  1.0 -0.2586130169
N  N121  1  0.32650000  0.32290000  0.64940000  1.0 -0.2852841366
N  N122  1  0.67350000  0.67710000  0.35060000  1.0 -0.2852841366
N  N123  1  0.32650000  0.67710000  0.00360000  1.0 -0.2852841366
N  N124  1  0.67350000  0.32290000  0.99640000  1.0 -0.2852841366
N  N125  1  0.64940000  0.32650000  0.32290000  1.0 -0.2852841366
N  N126  1  0.35060000  0.67350000  0.67710000  1.0 -0.2852841366
N  N127  1  0.00360000  0.32650000  0.67710000  1.0 -0.2852841366
N  N128  1  0.99640000  0.67350000  0.32290000  1.0 -0.2852841366
N  N129  1  0.32290000  0.64940000  0.32650000  1.0 -0.2852841366
N  N130  1  0.67710000  0.35060000  0.67350000  1.0 -0.2852841366
N  N131  1  0.67710000  0.00360000  0.32650000  1.0 -0.2852841366
N  N132  1  0.32290000  0.99640000  0.67350000  1.0 -0.2852841366
N  N133  1  0.32290000  0.32650000  0.64940000  1.0 -0.2852841366
N  N134  1  0.67710000  0.67350000  0.35060000  1.0 -0.2852841366
N  N135  1  0.67710000  0.32650000  0.00360000  1.0 -0.2852841366
N  N136  1  0.32290000  0.67350000  0.99640000  1.0 -0.2852841366
N  N137  1  0.67350000  0.99640000  0.32290000  1.0 -0.2852841366
N  N138  1  0.32650000  0.00360000  0.67710000  1.0 -0.2852841366
N  N139  1  0.67350000  0.35060000  0.67710000  1.0 -0.2852841366
N  N140  1  0.32650000  0.64940000  0.32290000  1.0 -0.2852841366
N  N141  1  0.00360000  0.67710000  0.32650000  1.0 -0.2852841366
N  N142  1  0.99640000  0.32290000  0.67350000  1.0 -0.2852841366
N  N143  1  0.64940000  0.32290000  0.32650000  1.0 -0.2852841366
N  N144  1  0.35060000  0.67710000  0.67350000  1.0 -0.2852841366
O  O1  1  0.58626000  0.70890000  0.77810000  1.0 -0.5426581116
O  O2  1  0.47274000  0.65164000  0.72158000  1.0 -0.5311545008
O  O3  1  0.36790000  0.44300000  0.84610000  1.0 -0.1300937236
O  O4  1  0.93080000  0.80816000  0.22190000  1.0 -0.5426581116
O  O5  1  0.93006000  0.75116000  0.27842000  1.0 -0.5311545008
O  O6  1  0.59690000  0.52180000  0.15390000  1.0 -0.1300937236
O  O7  1  0.06920000  0.29110000  0.87736000  1.0 -0.5426581116
O  O8  1  0.06994000  0.34836000  0.82110000  1.0 -0.5311545008
O  O9  1  0.40310000  0.55700000  0.92490000  1.0 -0.1300937236
O  O10  1  0.41374000  0.19184000  0.12264000  1.0 -0.5426581116
O  O11  1  0.52726000  0.24884000  0.17890000  1.0 -0.5311545008
O  O12  1  0.63210000  0.47820000  0.07510000  1.0 -0.1300937236
O  O13  1  0.77810000  0.58626000  0.70890000  1.0 -0.5426581116
O  O14  1  0.72158000  0.47274000  0.65164000  1.0 -0.5311545008
O  O15  1  0.84610000  0.36790000  0.44300000  1.0 -0.1300937236
O  O16  1  0.22190000  0.93080000  0.80816000  1.0 -0.5426581116
O  O17  1  0.27842000  0.93006000  0.75116000  1.0 -0.5311545008
O  O18  1  0.15390000  0.59690000  0.52180000  1.0 -0.1300937236
O  O19  1  0.87736000  0.06920000  0.29110000  1.0 -0.5426581116
O  O20  1  0.82110000  0.06994000  0.34836000  1.0 -0.5311545008
O  O21  1  0.92490000  0.40310000  0.55700000  1.0 -0.1300937236
O  O22  1  0.12264000  0.41374000  0.19184000  1.0 -0.5426581116
O  O23  1  0.17890000  0.52726000  0.24884000  1.0 -0.5311545008
O  O24  1  0.07510000  0.63210000  0.47820000  1.0 -0.1300937236
O  O25  1  0.70890000  0.77810000  0.58626000  1.0 -0.5426581116
O  O26  1  0.65164000  0.72158000  0.47274000  1.0 -0.5311545008
O  O27  1  0.44300000  0.84610000  0.36790000  1.0 -0.1300937236
O  O28  1  0.80816000  0.22190000  0.93080000  1.0 -0.5426581116
O  O29  1  0.75116000  0.27842000  0.93006000  1.0 -0.5311545008
O  O30  1  0.52180000  0.15390000  0.59690000  1.0 -0.1300937236
O  O31  1  0.29110000  0.87736000  0.06920000  1.0 -0.5426581116
O  O32  1  0.34836000  0.82110000  0.06994000  1.0 -0.5311545008
O  O33  1  0.55700000  0.92490000  0.40310000  1.0 -0.1300937236
O  O34  1  0.19184000  0.12264000  0.41374000  1.0 -0.5426581116
O  O35  1  0.24884000  0.17890000  0.52726000  1.0 -0.5311545008
O  O36  1  0.47820000  0.07510000  0.63210000  1.0 -0.1300937236
O  O37  1  0.19184000  0.06920000  0.77810000  1.0 -0.5426581116
O  O38  1  0.24884000  0.06994000  0.72158000  1.0 -0.5311545008
O  O39  1  0.47820000  0.40310000  0.84610000  1.0 -0.1300937236
O  O40  1  0.29110000  0.41374000  0.22190000  1.0 -0.5426581116
O  O41  1  0.34836000  0.52726000  0.27842000  1.0 -0.5311545008
O  O42  1  0.55700000  0.63210000  0.15390000  1.0 -0.1300937236
O  O43  1  0.80816000  0.58626000  0.87736000  1.0 -0.5426581116
O  O44  1  0.75116000  0.47274000  0.82110000  1.0 -0.5311545008
O  O45  1  0.52180000  0.36790000  0.92490000  1.0 -0.1300937236
O  O46  1  0.70890000  0.93080000  0.12264000  1.0 -0.5426581116
O  O47  1  0.65164000  0.93006000  0.17890000  1.0 -0.5311545008
O  O48  1  0.44300000  0.59690000  0.07510000  1.0 -0.1300937236
O  O49  1  0.93080000  0.12264000  0.70890000  1.0 -0.5426581116
O  O50  1  0.93006000  0.17890000  0.65164000  1.0 -0.5311545008
O  O51  1  0.59690000  0.07510000  0.44300000  1.0 -0.1300937236
O  O52  1  0.58626000  0.87736000  0.80816000  1.0 -0.5426581116
O  O53  1  0.47274000  0.82110000  0.75116000  1.0 -0.5311545008
O  O54  1  0.36790000  0.92490000  0.52180000  1.0 -0.1300937236
O  O55  1  0.41374000  0.22190000  0.29110000  1.0 -0.5426581116
O  O56  1  0.52726000  0.27842000  0.34836000  1.0 -0.5311545008
O  O57  1  0.63210000  0.15390000  0.55700000  1.0 -0.1300937236
O  O58  1  0.06920000  0.77810000  0.19184000  1.0 -0.5426581116
O  O59  1  0.06994000  0.72158000  0.24884000  1.0 -0.5311545008
O  O60  1  0.40310000  0.84610000  0.47820000  1.0 -0.1300937236
O  O61  1  0.87736000  0.80816000  0.58626000  1.0 -0.5426581116
O  O62  1  0.82110000  0.75116000  0.47274000  1.0 -0.5311545008
O  O63  1  0.92490000  0.52180000  0.36790000  1.0 -0.1300937236
O  O64  1  0.12264000  0.70890000  0.93080000  1.0 -0.5426581116
O  O65  1  0.17890000  0.65164000  0.93006000  1.0 -0.5311545008
O  O66  1  0.07510000  0.44300000  0.59690000  1.0 -0.1300937236
O  O67  1  0.77810000  0.19184000  0.06920000  1.0 -0.5426581116
O  O68  1  0.72158000  0.24884000  0.06994000  1.0 -0.5311545008
O  O69  1  0.84610000  0.47820000  0.40310000  1.0 -0.1300937236
O  O70  1  0.22190000  0.29110000  0.41374000  1.0 -0.5426581116
O  O71  1  0.27842000  0.34836000  0.52726000  1.0 -0.5311545008
O  O72  1  0.15390000  0.55700000  0.63210000  1.0 -0.1300937236
O  O73  1  0.41374000  0.29110000  0.22190000  1.0 -0.5426581116
O  O74  1  0.52726000  0.34836000  0.27842000  1.0 -0.5311545008
O  O75  1  0.63210000  0.55700000  0.15390000  1.0 -0.1300937236
O  O76  1  0.06920000  0.19184000  0.77810000  1.0 -0.5426581116
O  O77  1  0.06994000  0.24884000  0.72158000  1.0 -0.5311545008
O  O78  1  0.40310000  0.47820000  0.84610000  1.0 -0.1300937236
O  O79  1  0.93080000  0.70890000  0.12264000  1.0 -0.5426581116
O  O80  1  0.93006000  0.65164000  0.17890000  1.0 -0.5311545008
O  O81  1  0.59690000  0.44300000  0.07510000  1.0 -0.1300937236
O  O82  1  0.58626000  0.80816000  0.87736000  1.0 -0.5426581116
O  O83  1  0.47274000  0.75116000  0.82110000  1.0 -0.5311545008
O  O84  1  0.36790000  0.52180000  0.92490000  1.0 -0.1300937236
O  O85  1  0.22190000  0.41374000  0.29110000  1.0 -0.5426581116
O  O86  1  0.27842000  0.52726000  0.34836000  1.0 -0.5311545008
O  O87  1  0.15390000  0.63210000  0.55700000  1.0 -0.1300937236
O  O88  1  0.77810000  0.06920000  0.19184000  1.0 -0.5426581116
O  O89  1  0.72158000  0.06994000  0.24884000  1.0 -0.5311545008
O  O90  1  0.84610000  0.40310000  0.47820000  1.0 -0.1300937236
O  O91  1  0.12264000  0.93080000  0.70890000  1.0 -0.5426581116
O  O92  1  0.17890000  0.93006000  0.65164000  1.0 -0.5311545008
O  O93  1  0.07510000  0.59690000  0.44300000  1.0 -0.1300937236
O  O94  1  0.87736000  0.58626000  0.80816000  1.0 -0.5426581116
O  O95  1  0.82110000  0.47274000  0.75116000  1.0 -0.5311545008
O  O96  1  0.92490000  0.36790000  0.52180000  1.0 -0.1300937236
O  O97  1  0.29110000  0.22190000  0.41374000  1.0 -0.5426581116
O  O98  1  0.34836000  0.27842000  0.52726000  1.0 -0.5311545008
O  O99  1  0.55700000  0.15390000  0.63210000  1.0 -0.1300937236
O  O100  1  0.19184000  0.77810000  0.06920000  1.0 -0.5426581116
O  O101  1  0.24884000  0.72158000  0.06994000  1.0 -0.5311545008
O  O102  1  0.47820000  0.84610000  0.40310000  1.0 -0.1300937236
O  O103  1  0.70890000  0.12264000  0.93080000  1.0 -0.5426581116
O  O104  1  0.65164000  0.17890000  0.93006000  1.0 -0.5311545008
O  O105  1  0.44300000  0.07510000  0.59690000  1.0 -0.1300937236
O  O106  1  0.80816000  0.87736000  0.58626000  1.0 -0.5426581116
O  O107  1  0.75116000  0.82110000  0.47274000  1.0 -0.5311545008
O  O108  1  0.52180000  0.92490000  0.36790000  1.0 -0.1300937236
O  O109  1  0.80816000  0.93080000  0.22190000  1.0 -0.5426581116
O  O110  1  0.75116000  0.93006000  0.27842000  1.0 -0.5311545008
O  O111  1  0.52180000  0.59690000  0.15390000  1.0 -0.1300937236
O  O112  1  0.70890000  0.58626000  0.77810000  1.0 -0.5426581116
O  O113  1  0.65164000  0.47274000  0.72158000  1.0 -0.5311545008
O  O114  1  0.44300000  0.36790000  0.84610000  1.0 -0.1300937236
O  O115  1  0.19184000  0.41374000  0.12264000  1.0 -0.5426581116
O  O116  1  0.24884000  0.52726000  0.17890000  1.0 -0.5311545008
O  O117  1  0.47820000  0.63210000  0.07510000  1.0 -0.1300937236
O  O118  1  0.29110000  0.06920000  0.87736000  1.0 -0.5426581116
O  O119  1  0.34836000  0.06994000  0.82110000  1.0 -0.5311545008
O  O120  1  0.55700000  0.40310000  0.92490000  1.0 -0.1300937236
O  O121  1  0.06920000  0.87736000  0.29110000  1.0 -0.5426581116
O  O122  1  0.06994000  0.82110000  0.34836000  1.0 -0.5311545008
O  O123  1  0.40310000  0.92490000  0.55700000  1.0 -0.1300937236
O  O124  1  0.41374000  0.12264000  0.19184000  1.0 -0.5426581116
O  O125  1  0.52726000  0.17890000  0.24884000  1.0 -0.5311545008
O  O126  1  0.63210000  0.07510000  0.47820000  1.0 -0.1300937236
O  O127  1  0.58626000  0.77810000  0.70890000  1.0 -0.5426581116
O  O128  1  0.47274000  0.72158000  0.65164000  1.0 -0.5311545008
O  O129  1  0.36790000  0.84610000  0.44300000  1.0 -0.1300937236
O  O130  1  0.93080000  0.22190000  0.80816000  1.0 -0.5426581116
O  O131  1  0.93006000  0.27842000  0.75116000  1.0 -0.5311545008
O  O132  1  0.59690000  0.15390000  0.52180000  1.0 -0.1300937236
O  O133  1  0.12264000  0.19184000  0.41374000  1.0 -0.5426581116
O  O134  1  0.17890000  0.24884000  0.52726000  1.0 -0.5311545008
O  O135  1  0.07510000  0.47820000  0.63210000  1.0 -0.1300937236
O  O136  1  0.87736000  0.29110000  0.06920000  1.0 -0.5426581116
O  O137  1  0.82110000  0.34836000  0.06994000  1.0 -0.5311545008
O  O138  1  0.92490000  0.55700000  0.40310000  1.0 -0.1300937236
O  O139  1  0.22190000  0.80816000  0.93080000  1.0 -0.5426581116
O  O140  1  0.27842000  0.75116000  0.93006000  1.0 -0.5311545008
O  O141  1  0.15390000  0.52180000  0.59690000  1.0 -0.1300937236
O  O142  1  0.77810000  0.70890000  0.58626000  1.0 -0.5426581116
O  O143  1  0.72158000  0.65164000  0.47274000  1.0 -0.5311545008
O  O144  1  0.84610000  0.44300000  0.36790000  1.0 -0.1300937236
