# DDEC6 charges by PACMAN v1.1 (https://github.com/mtap-research/PACMAN-charge/)
data_ZIKXAV_ASR_pacman
_symmetry_space_group_name_H-M   'P 1'
_cell_length_a   18.30550000
_cell_length_b   18.30550000
_cell_length_c   18.91700000
_cell_angle_alpha   72.67100000
_cell_angle_beta   107.32900000
_cell_angle_gamma   97.18440000
_symmetry_Int_Tables_number   1
_chemical_formula_structural   Cd5H30C46(NO10)2
_chemical_formula_sum   'Cd20 H120 C184 N8 O80'
_cell_volume   5771.94120821
_cell_formula_units_Z   4
loop_
 _symmetry_equiv_pos_site_id
 _symmetry_equiv_pos_as_xyz
  1  'x, y, z'
loop_
 _atom_site_type_symbol
 _atom_site_label
 _atom_site_symmetry_multiplicity
 _atom_site_fract_x
 _atom_site_fract_y
 _atom_site_fract_z
 _atom_site_occupancy
 _atom_site_charge
Cd  Cd1  1  0.75083000  0.38377000  0.32828000  1.0 0.9722178217
Cd  Cd2  1  0.82176000  0.32166000  0.18720000  1.0 0.9781633403
Cd  Cd3  1  0.76510000  0.74632000  0.60195000  1.0 0.6884232547
Cd  Cd4  1  0.81413000  0.64323000  0.10606000  1.0 0.9892304625
Cd  Cd5  1  0.80210000  0.73110000  0.59490000  1.0 0.5928959783
Cd  Cd6  1  0.38377000  0.75083000  0.17172000  1.0 0.9722178217
Cd  Cd7  1  0.32166000  0.82176000  0.31280000  1.0 0.9781633403
Cd  Cd8  1  0.74632000  0.76510000  0.89805000  1.0 0.6884232547
Cd  Cd9  1  0.64323000  0.81413000  0.39394000  1.0 0.9892304625
Cd  Cd10  1  0.73110000  0.80210000  0.90510000  1.0 0.5928959783
Cd  Cd11  1  0.24917000  0.61623000  0.67172000  1.0 0.9722178217
Cd  Cd12  1  0.17824000  0.67834000  0.81280000  1.0 0.9781633403
Cd  Cd13  1  0.23490000  0.25368000  0.39805000  1.0 0.6884232547
Cd  Cd14  1  0.18587000  0.35677000  0.89394000  1.0 0.9892304625
Cd  Cd15  1  0.19790000  0.26890000  0.40510000  1.0 0.5928959783
Cd  Cd16  1  0.61623000  0.24917000  0.82828000  1.0 0.9722178217
Cd  Cd17  1  0.67834000  0.17824000  0.68720000  1.0 0.9781633403
Cd  Cd18  1  0.25368000  0.23490000  0.10195000  1.0 0.6884232547
Cd  Cd19  1  0.35677000  0.18587000  0.60606000  1.0 0.9892304625
Cd  Cd20  1  0.26890000  0.19790000  0.09490000  1.0 0.5928959783
H  H1  1  0.89638000  0.40988000  0.29001000  1.0 0.4032528337
H  H2  1  0.83876000  0.46440000  0.22072000  1.0 0.4032528337
H  H3  1  0.71515000  0.12411000  0.56000000  1.0 0.1007100368
H  H4  1  0.80495000  0.08531000  0.31417000  1.0 0.1111790263
H  H5  1  0.79295000  0.95845000  0.37931000  1.0 0.1201801471
H  H6  1  0.79475000  0.01937000  0.56552000  1.0 0.1201801471
H  H7  1  0.56215000  0.29319000  0.95198000  1.0 0.1007100368
H  H8  1  0.72611000  0.39573000  0.86372000  1.0 0.1111790263
H  H9  1  0.91460000  0.60368000  0.00585000  1.0 0.1201801471
H  H10  1  0.90535000  0.67549000  0.88013000  1.0 0.1201801471
H  H11  1  0.71915000  0.55021000  0.80789000  1.0 0.1201801471
H  H12  1  0.67117000  0.47549000  0.01464000  1.0 0.1201801471
H  H13  1  0.45971000  0.38177000  0.94023000  1.0 0.1201801471
H  H14  1  0.39424000  0.37480000  0.12454000  1.0 0.1111790263
H  H15  1  0.52007000  0.37865000  0.19428000  1.0 0.1201801471
H  H16  1  0.82773000  0.28559000  0.65062000  1.0 0.1111790263
H  H17  1  0.90217000  0.22539000  0.49914000  1.0 0.1201801471
H  H18  1  0.97303000  0.29229000  0.70021000  1.0 0.1111790263
H  H19  1  0.12179000  0.44411000  0.61105000  1.0 0.1201801471
H  H20  1  0.04789000  0.44271000  0.49005000  1.0 0.1111790263
H  H21  1  0.86384000  0.64626000  0.59043000  1.0 0.2259428288
H  H22  1  0.86373000  0.70365000  0.52904000  1.0 0.2155022483
H  H23  1  0.74099000  0.67971000  0.26764000  1.0 0.0893282305
H  H24  1  0.66621000  0.72275000  0.25456000  1.0 0.081851286
H  H25  1  0.82622000  0.88888000  0.20431000  1.0 0.0591107236
H  H26  1  0.86682000  0.81050000  0.22937000  1.0 0.081851286
H  H27  1  0.65796000  0.77656000  0.12662000  1.0 0.081851286
H  H28  1  0.66828000  0.68924000  0.14169000  1.0 0.1007100368
H  H29  1  0.82531000  0.84211000  0.09564000  1.0 0.1007100368
H  H30  1  0.74436000  0.86278000  0.09460000  1.0 0.0893282305
H  H31  1  0.40988000  0.89638000  0.20999000  1.0 0.4032528337
H  H32  1  0.46440000  0.83876000  0.27928000  1.0 0.4032528337
H  H33  1  0.12411000  0.71515000  0.94000000  1.0 0.1007100368
H  H34  1  0.08531000  0.80495000  0.18583000  1.0 0.1111790263
H  H35  1  0.95845000  0.79295000  0.12069000  1.0 0.1201801471
H  H36  1  0.01937000  0.79475000  0.93448000  1.0 0.1201801471
H  H37  1  0.29319000  0.56215000  0.54802000  1.0 0.1007100368
H  H38  1  0.39573000  0.72611000  0.63628000  1.0 0.1111790263
H  H39  1  0.60368000  0.91460000  0.49415000  1.0 0.1201801471
H  H40  1  0.67549000  0.90535000  0.61987000  1.0 0.1201801471
H  H41  1  0.55021000  0.71915000  0.69211000  1.0 0.1201801471
H  H42  1  0.47549000  0.67117000  0.48536000  1.0 0.1201801471
H  H43  1  0.38177000  0.45971000  0.55977000  1.0 0.1201801471
H  H44  1  0.37480000  0.39424000  0.37546000  1.0 0.1111790263
H  H45  1  0.37865000  0.52007000  0.30572000  1.0 0.1201801471
H  H46  1  0.28559000  0.82773000  0.84938000  1.0 0.1111790263
H  H47  1  0.22539000  0.90217000  0.00086000  1.0 0.1201801471
H  H48  1  0.29229000  0.97303000  0.79979000  1.0 0.1111790263
H  H49  1  0.44411000  0.12179000  0.88895000  1.0 0.1201801471
H  H50  1  0.44271000  0.04789000  0.00995000  1.0 0.1111790263
H  H51  1  0.64626000  0.86384000  0.90957000  1.0 0.2259428288
H  H52  1  0.70365000  0.86373000  0.97096000  1.0 0.2155022483
H  H53  1  0.67971000  0.74099000  0.23236000  1.0 0.0893282305
H  H54  1  0.72275000  0.66621000  0.24544000  1.0 0.081851286
H  H55  1  0.88888000  0.82622000  0.29569000  1.0 0.0591107236
H  H56  1  0.81050000  0.86682000  0.27063000  1.0 0.081851286
H  H57  1  0.77656000  0.65796000  0.37338000  1.0 0.081851286
H  H58  1  0.68924000  0.66828000  0.35831000  1.0 0.1007100368
H  H59  1  0.84211000  0.82531000  0.40436000  1.0 0.1007100368
H  H60  1  0.86278000  0.74436000  0.40540000  1.0 0.0893282305
H  H61  1  0.10362000  0.59012000  0.70999000  1.0 0.4032528337
H  H62  1  0.16124000  0.53560000  0.77928000  1.0 0.4032528337
H  H63  1  0.28485000  0.87589000  0.44000000  1.0 0.1007100368
H  H64  1  0.19505000  0.91469000  0.68583000  1.0 0.1111790263
H  H65  1  0.20705000  0.04155000  0.62069000  1.0 0.1201801471
H  H66  1  0.20525000  0.98063000  0.43448000  1.0 0.1201801471
H  H67  1  0.43785000  0.70681000  0.04802000  1.0 0.1007100368
H  H68  1  0.27389000  0.60427000  0.13628000  1.0 0.1111790263
H  H69  1  0.08540000  0.39632000  0.99415000  1.0 0.1201801471
H  H70  1  0.09465000  0.32451000  0.11987000  1.0 0.1201801471
H  H71  1  0.28085000  0.44979000  0.19211000  1.0 0.1201801471
H  H72  1  0.32883000  0.52451000  0.98536000  1.0 0.1201801471
H  H73  1  0.54029000  0.61823000  0.05977000  1.0 0.1201801471
H  H74  1  0.60576000  0.62520000  0.87546000  1.0 0.1111790263
H  H75  1  0.47993000  0.62135000  0.80572000  1.0 0.1201801471
H  H76  1  0.17227000  0.71441000  0.34938000  1.0 0.1111790263
H  H77  1  0.09783000  0.77461000  0.50086000  1.0 0.1201801471
H  H78  1  0.02697000  0.70771000  0.29979000  1.0 0.1111790263
H  H79  1  0.87821000  0.55589000  0.38895000  1.0 0.1201801471
H  H80  1  0.95211000  0.55729000  0.50995000  1.0 0.1111790263
H  H81  1  0.13616000  0.35374000  0.40957000  1.0 0.2259428288
H  H82  1  0.13627000  0.29635000  0.47096000  1.0 0.2155022483
H  H83  1  0.25901000  0.32029000  0.73236000  1.0 0.0893282305
H  H84  1  0.33379000  0.27725000  0.74544000  1.0 0.081851286
H  H85  1  0.17378000  0.11112000  0.79569000  1.0 0.0591107236
H  H86  1  0.13318000  0.18950000  0.77063000  1.0 0.081851286
H  H87  1  0.34204000  0.22344000  0.87338000  1.0 0.081851286
H  H88  1  0.33172000  0.31076000  0.85831000  1.0 0.1007100368
H  H89  1  0.17469000  0.15789000  0.90436000  1.0 0.1007100368
H  H90  1  0.25564000  0.13722000  0.90540000  1.0 0.0893282305
H  H91  1  0.59012000  0.10362000  0.79001000  1.0 0.4032528337
H  H92  1  0.53560000  0.16124000  0.72072000  1.0 0.4032528337
H  H93  1  0.87589000  0.28485000  0.06000000  1.0 0.1007100368
H  H94  1  0.91469000  0.19505000  0.81417000  1.0 0.1111790263
H  H95  1  0.04155000  0.20705000  0.87931000  1.0 0.1201801471
H  H96  1  0.98063000  0.20525000  0.06552000  1.0 0.1201801471
H  H97  1  0.70681000  0.43785000  0.45198000  1.0 0.1007100368
H  H98  1  0.60427000  0.27389000  0.36372000  1.0 0.1111790263
H  H99  1  0.39632000  0.08540000  0.50585000  1.0 0.1201801471
H  H100  1  0.32451000  0.09465000  0.38013000  1.0 0.1201801471
H  H101  1  0.44979000  0.28085000  0.30789000  1.0 0.1201801471
H  H102  1  0.52451000  0.32883000  0.51464000  1.0 0.1201801471
H  H103  1  0.61823000  0.54029000  0.44023000  1.0 0.1201801471
H  H104  1  0.62520000  0.60576000  0.62454000  1.0 0.1111790263
H  H105  1  0.62135000  0.47993000  0.69428000  1.0 0.1201801471
H  H106  1  0.71441000  0.17227000  0.15062000  1.0 0.1111790263
H  H107  1  0.77461000  0.09783000  0.99914000  1.0 0.1201801471
H  H108  1  0.70771000  0.02697000  0.20021000  1.0 0.1111790263
H  H109  1  0.55589000  0.87821000  0.11105000  1.0 0.1201801471
H  H110  1  0.55729000  0.95211000  0.99005000  1.0 0.1111790263
H  H111  1  0.35374000  0.13616000  0.09043000  1.0 0.2259428288
H  H112  1  0.29635000  0.13627000  0.02904000  1.0 0.2155022483
H  H113  1  0.32029000  0.25901000  0.76764000  1.0 0.0893282305
H  H114  1  0.27725000  0.33379000  0.75456000  1.0 0.081851286
H  H115  1  0.11112000  0.17378000  0.70431000  1.0 0.0591107236
H  H116  1  0.18950000  0.13318000  0.72937000  1.0 0.081851286
H  H117  1  0.22344000  0.34204000  0.62662000  1.0 0.081851286
H  H118  1  0.31076000  0.33172000  0.64169000  1.0 0.1007100368
H  H119  1  0.15789000  0.17469000  0.59564000  1.0 0.1007100368
H  H120  1  0.13722000  0.25564000  0.59460000  1.0 0.0893282305
C  C1  1  0.75600000  0.15980000  0.56390000  1.0 -0.0028440675
C  C2  1  0.80590000  0.16550000  0.52000000  1.0 0.0493959475
C  C3  1  0.79950000  0.11030000  0.47510000  1.0 0.0493959475
C  C4  1  0.80110000  0.13070000  0.39830000  1.0 -0.0589786571
C  C5  1  0.80070000  0.07230000  0.36420000  1.0 -0.121544516
C  C6  1  0.79420000  0.99640000  0.40320000  1.0 -0.1115761767
C  C7  1  0.78980000  0.97680000  0.47850000  1.0 -0.0130156685
C  C8  1  0.79470000  0.03310000  0.51400000  1.0 -0.1610529834
C  C9  1  0.78250000  0.89410000  0.52130000  1.0 0.5433156278
C  C10  1  0.79760000  0.21140000  0.34660000  1.0 0.5928959783
C  C11  1  0.64640000  0.36920000  0.16380000  1.0 0.5928959783
C  C12  1  0.56750000  0.37710000  0.11140000  1.0 -0.0723808621
C  C13  1  0.54980000  0.37940000  0.03360000  1.0 0.0591107236
C  C14  1  0.60720000  0.38340000  0.99120000  1.0 0.0493959475
C  C15  1  0.59950000  0.33250000  0.94820000  1.0 -0.0130156685
C  C16  1  0.69590000  0.39270000  0.89630000  1.0 0.0380975851
C  C17  1  0.70970000  0.44790000  0.93700000  1.0 0.0380975851
C  C18  1  0.76590000  0.51170000  0.92310000  1.0 0.0493959475
C  C19  1  0.82540000  0.53200000  0.98290000  1.0 -0.0589786571
C  C20  1  0.87550000  0.59190000  0.96590000  1.0 -0.129578349
C  C21  1  0.86980000  0.63580000  0.89090000  1.0 -0.1115761767
C  C22  1  0.80890000  0.61870000  0.83160000  1.0 -0.0130156685
C  C23  1  0.75940000  0.55980000  0.84800000  1.0 -0.1470810984
C  C24  1  0.79700000  0.66820000  0.75100000  1.0 0.5318148519
C  C25  1  0.83460000  0.48580000  0.06620000  1.0 0.5928959783
C  C26  1  0.66380000  0.44100000  0.98550000  1.0 -0.121544516
C  C27  1  0.47260000  0.37920000  0.99230000  1.0 -0.1610529834
C  C28  1  0.41590000  0.37530000  0.02580000  1.0 -0.0208321975
C  C29  1  0.43310000  0.37570000  0.10190000  1.0 -0.121544516
C  C30  1  0.50820000  0.37740000  0.14330000  1.0 -0.1115761767
C  C31  1  0.33290000  0.37150000  0.97990000  1.0 0.5533141877
C  C32  1  0.91460000  0.38080000  0.43980000  1.0 0.564259031
C  C33  1  0.96510000  0.36950000  0.52140000  1.0 -0.0589786571
C  C34  1  0.94150000  0.32230000  0.58440000  1.0 0.0493959475
C  C35  1  0.87540000  0.26740000  0.57570000  1.0 0.0380975851
C  C36  1  0.82270000  0.25570000  0.61720000  1.0 0.0119479701
C  C37  1  0.86690000  0.22030000  0.52710000  1.0 -0.1384915326
C  C38  1  0.98730000  0.32370000  0.65750000  1.0 -0.1805983547
C  C39  1  0.05320000  0.36960000  0.66920000  1.0 -0.0208321975
C  C40  1  0.07660000  0.41420000  0.60480000  1.0 -0.121544516
C  C41  1  0.03220000  0.41320000  0.53270000  1.0 -0.129578349
C  C42  1  0.10110000  0.37030000  0.74820000  1.0 0.5318148519
C  C43  1  0.71220000  0.72520000  0.23840000  1.0 -0.0254675042
C  C44  1  0.81840000  0.83540000  0.20470000  1.0 0.0317640949
C  C45  1  0.69390000  0.73590000  0.15280000  1.0 -0.1610529834
C  C46  1  0.78550000  0.82770000  0.12210000  1.0 -0.1977632184
C  C47  1  0.15980000  0.75600000  0.93610000  1.0 -0.0028440675
C  C48  1  0.16550000  0.80590000  0.98000000  1.0 0.0493959475
C  C49  1  0.11030000  0.79950000  0.02490000  1.0 0.0493959475
C  C50  1  0.13070000  0.80110000  0.10170000  1.0 -0.0589786571
C  C51  1  0.07230000  0.80070000  0.13580000  1.0 -0.121544516
C  C52  1  0.99640000  0.79420000  0.09680000  1.0 -0.1115761767
C  C53  1  0.97680000  0.78980000  0.02150000  1.0 -0.0130156685
C  C54  1  0.03310000  0.79470000  0.98600000  1.0 -0.1610529834
C  C55  1  0.89410000  0.78250000  0.97870000  1.0 0.5433156278
C  C56  1  0.21140000  0.79760000  0.15340000  1.0 0.5928959783
C  C57  1  0.36920000  0.64640000  0.33620000  1.0 0.5928959783
C  C58  1  0.37710000  0.56750000  0.38860000  1.0 -0.0723808621
C  C59  1  0.37940000  0.54980000  0.46640000  1.0 0.0591107236
C  C60  1  0.38340000  0.60720000  0.50880000  1.0 0.0493959475
C  C61  1  0.33250000  0.59950000  0.55180000  1.0 -0.0130156685
C  C62  1  0.39270000  0.69590000  0.60370000  1.0 0.0380975851
C  C63  1  0.44790000  0.70970000  0.56300000  1.0 0.0380975851
C  C64  1  0.51170000  0.76590000  0.57690000  1.0 0.0493959475
C  C65  1  0.53200000  0.82540000  0.51710000  1.0 -0.0589786571
C  C66  1  0.59190000  0.87550000  0.53410000  1.0 -0.129578349
C  C67  1  0.63580000  0.86980000  0.60910000  1.0 -0.1115761767
C  C68  1  0.61870000  0.80890000  0.66840000  1.0 -0.0130156685
C  C69  1  0.55980000  0.75940000  0.65200000  1.0 -0.1470810984
C  C70  1  0.66820000  0.79700000  0.74900000  1.0 0.5318148519
C  C71  1  0.48580000  0.83460000  0.43380000  1.0 0.5928959783
C  C72  1  0.44100000  0.66380000  0.51450000  1.0 -0.121544516
C  C73  1  0.37920000  0.47260000  0.50770000  1.0 -0.1610529834
C  C74  1  0.37530000  0.41590000  0.47420000  1.0 -0.0208321975
C  C75  1  0.37570000  0.43310000  0.39810000  1.0 -0.121544516
C  C76  1  0.37740000  0.50820000  0.35670000  1.0 -0.1115761767
C  C77  1  0.37150000  0.33290000  0.52010000  1.0 0.5533141877
C  C78  1  0.38080000  0.91460000  0.06020000  1.0 0.564259031
C  C79  1  0.36950000  0.96510000  0.97860000  1.0 -0.0589786571
C  C80  1  0.32230000  0.94150000  0.91560000  1.0 0.0493959475
C  C81  1  0.26740000  0.87540000  0.92430000  1.0 0.0380975851
C  C82  1  0.25570000  0.82270000  0.88280000  1.0 0.0119479701
C  C83  1  0.22030000  0.86690000  0.97290000  1.0 -0.1384915326
C  C84  1  0.32370000  0.98730000  0.84250000  1.0 -0.1805983547
C  C85  1  0.36960000  0.05320000  0.83080000  1.0 -0.0208321975
C  C86  1  0.41420000  0.07660000  0.89520000  1.0 -0.121544516
C  C87  1  0.41320000  0.03220000  0.96730000  1.0 -0.129578349
C  C88  1  0.37030000  0.10110000  0.75180000  1.0 0.5318148519
C  C89  1  0.72520000  0.71220000  0.26160000  1.0 -0.0254675042
C  C90  1  0.83540000  0.81840000  0.29530000  1.0 0.0317640949
C  C91  1  0.73590000  0.69390000  0.34720000  1.0 -0.1610529834
C  C92  1  0.82770000  0.78550000  0.37790000  1.0 -0.1977632184
C  C93  1  0.24400000  0.84020000  0.43610000  1.0 -0.0028440675
C  C94  1  0.19410000  0.83450000  0.48000000  1.0 0.0493959475
C  C95  1  0.20050000  0.88970000  0.52490000  1.0 0.0493959475
C  C96  1  0.19890000  0.86930000  0.60170000  1.0 -0.0589786571
C  C97  1  0.19930000  0.92770000  0.63580000  1.0 -0.121544516
C  C98  1  0.20580000  0.00360000  0.59680000  1.0 -0.1115761767
C  C99  1  0.21020000  0.02320000  0.52150000  1.0 -0.0130156685
C  C100  1  0.20530000  0.96690000  0.48600000  1.0 -0.1610529834
C  C101  1  0.21750000  0.10590000  0.47870000  1.0 0.5433156278
C  C102  1  0.20240000  0.78860000  0.65340000  1.0 0.5928959783
C  C103  1  0.35360000  0.63080000  0.83620000  1.0 0.5928959783
C  C104  1  0.43250000  0.62290000  0.88860000  1.0 -0.0723808621
C  C105  1  0.45020000  0.62060000  0.96640000  1.0 0.0591107236
C  C106  1  0.39280000  0.61660000  0.00880000  1.0 0.0493959475
C  C107  1  0.40050000  0.66750000  0.05180000  1.0 -0.0130156685
C  C108  1  0.30410000  0.60730000  0.10370000  1.0 0.0380975851
C  C109  1  0.29030000  0.55210000  0.06300000  1.0 0.0380975851
C  C110  1  0.23410000  0.48830000  0.07690000  1.0 0.0493959475
C  C111  1  0.17460000  0.46800000  0.01710000  1.0 -0.0589786571
C  C112  1  0.12450000  0.40810000  0.03410000  1.0 -0.129578349
C  C113  1  0.13020000  0.36420000  0.10910000  1.0 -0.1115761767
C  C114  1  0.19110000  0.38130000  0.16840000  1.0 -0.0130156685
C  C115  1  0.24060000  0.44020000  0.15200000  1.0 -0.1470810984
C  C116  1  0.20300000  0.33180000  0.24900000  1.0 0.5318148519
C  C117  1  0.16540000  0.51420000  0.93380000  1.0 0.5928959783
C  C118  1  0.33620000  0.55900000  0.01450000  1.0 -0.121544516
C  C119  1  0.52740000  0.62080000  0.00770000  1.0 -0.1610529834
C  C120  1  0.58410000  0.62470000  0.97420000  1.0 -0.0208321975
C  C121  1  0.56690000  0.62430000  0.89810000  1.0 -0.121544516
C  C122  1  0.49180000  0.62260000  0.85670000  1.0 -0.1115761767
C  C123  1  0.66710000  0.62850000  0.02010000  1.0 0.5533141877
C  C124  1  0.08540000  0.61920000  0.56020000  1.0 0.564259031
C  C125  1  0.03490000  0.63050000  0.47860000  1.0 -0.0589786571
C  C126  1  0.05850000  0.67770000  0.41560000  1.0 0.0493959475
C  C127  1  0.12460000  0.73260000  0.42430000  1.0 0.0380975851
C  C128  1  0.17730000  0.74430000  0.38280000  1.0 0.0119479701
C  C129  1  0.13310000  0.77970000  0.47290000  1.0 -0.1384915326
C  C130  1  0.01270000  0.67630000  0.34250000  1.0 -0.1805983547
C  C131  1  0.94680000  0.63040000  0.33080000  1.0 -0.0208321975
C  C132  1  0.92340000  0.58580000  0.39520000  1.0 -0.121544516
C  C133  1  0.96780000  0.58680000  0.46730000  1.0 -0.129578349
C  C134  1  0.89890000  0.62970000  0.25180000  1.0 0.5318148519
C  C135  1  0.28780000  0.27480000  0.76160000  1.0 -0.0254675042
C  C136  1  0.18160000  0.16460000  0.79530000  1.0 0.0317640949
C  C137  1  0.30610000  0.26410000  0.84720000  1.0 -0.1610529834
C  C138  1  0.21450000  0.17230000  0.87790000  1.0 -0.1977632184
C  C139  1  0.84020000  0.24400000  0.06390000  1.0 -0.0028440675
C  C140  1  0.83450000  0.19410000  0.02000000  1.0 0.0493959475
C  C141  1  0.88970000  0.20050000  0.97510000  1.0 0.0493959475
C  C142  1  0.86930000  0.19890000  0.89830000  1.0 -0.0589786571
C  C143  1  0.92770000  0.19930000  0.86420000  1.0 -0.121544516
C  C144  1  0.00360000  0.20580000  0.90320000  1.0 -0.1115761767
C  C145  1  0.02320000  0.21020000  0.97850000  1.0 -0.0130156685
C  C146  1  0.96690000  0.20530000  0.01400000  1.0 -0.1610529834
C  C147  1  0.10590000  0.21750000  0.02130000  1.0 0.5433156278
C  C148  1  0.78860000  0.20240000  0.84660000  1.0 0.5928959783
C  C149  1  0.63080000  0.35360000  0.66380000  1.0 0.5928959783
C  C150  1  0.62290000  0.43250000  0.61140000  1.0 -0.0723808621
C  C151  1  0.62060000  0.45020000  0.53360000  1.0 0.0591107236
C  C152  1  0.61660000  0.39280000  0.49120000  1.0 0.0493959475
C  C153  1  0.66750000  0.40050000  0.44820000  1.0 -0.0130156685
C  C154  1  0.60730000  0.30410000  0.39630000  1.0 0.0380975851
C  C155  1  0.55210000  0.29030000  0.43700000  1.0 0.0380975851
C  C156  1  0.48830000  0.23410000  0.42310000  1.0 0.0493959475
C  C157  1  0.46800000  0.17460000  0.48290000  1.0 -0.0589786571
C  C158  1  0.40810000  0.12450000  0.46590000  1.0 -0.129578349
C  C159  1  0.36420000  0.13020000  0.39090000  1.0 -0.1115761767
C  C160  1  0.38130000  0.19110000  0.33160000  1.0 -0.0130156685
C  C161  1  0.44020000  0.24060000  0.34800000  1.0 -0.1470810984
C  C162  1  0.33180000  0.20300000  0.25100000  1.0 0.5318148519
C  C163  1  0.51420000  0.16540000  0.56620000  1.0 0.5928959783
C  C164  1  0.55900000  0.33620000  0.48550000  1.0 -0.121544516
C  C165  1  0.62080000  0.52740000  0.49230000  1.0 -0.1610529834
C  C166  1  0.62470000  0.58410000  0.52580000  1.0 -0.0208321975
C  C167  1  0.62430000  0.56690000  0.60190000  1.0 -0.121544516
C  C168  1  0.62260000  0.49180000  0.64330000  1.0 -0.1115761767
C  C169  1  0.62850000  0.66710000  0.47990000  1.0 0.5533141877
C  C170  1  0.61920000  0.08540000  0.93980000  1.0 0.564259031
C  C171  1  0.63050000  0.03490000  0.02140000  1.0 -0.0589786571
C  C172  1  0.67770000  0.05850000  0.08440000  1.0 0.0493959475
C  C173  1  0.73260000  0.12460000  0.07570000  1.0 0.0380975851
C  C174  1  0.74430000  0.17730000  0.11720000  1.0 0.0119479701
C  C175  1  0.77970000  0.13310000  0.02710000  1.0 -0.1384915326
C  C176  1  0.67630000  0.01270000  0.15750000  1.0 -0.1805983547
C  C177  1  0.63040000  0.94680000  0.16920000  1.0 -0.0254675042
C  C178  1  0.58580000  0.92340000  0.10480000  1.0 -0.121544516
C  C179  1  0.58680000  0.96780000  0.03270000  1.0 -0.129578349
C  C180  1  0.62970000  0.89890000  0.24820000  1.0 0.5318148519
C  C181  1  0.27480000  0.28780000  0.73840000  1.0 -0.0254675042
C  C182  1  0.16460000  0.18160000  0.70470000  1.0 0.0317640949
C  C183  1  0.26410000  0.30610000  0.65280000  1.0 -0.1610529834
C  C184  1  0.17230000  0.21450000  0.62210000  1.0 -0.1977632184
N  N1  1  0.64320000  0.33700000  0.90110000  1.0 -0.2421165023
N  N2  1  0.76390000  0.20330000  0.61200000  1.0 -0.2421165023
N  N3  1  0.33700000  0.64320000  0.59890000  1.0 -0.2421165023
N  N4  1  0.20330000  0.76390000  0.88800000  1.0 -0.2421165023
N  N5  1  0.35680000  0.66300000  0.09890000  1.0 -0.2421165023
N  N6  1  0.23610000  0.79670000  0.38800000  1.0 -0.2421165023
N  N7  1  0.66300000  0.35680000  0.40110000  1.0 -0.2421165023
N  N8  1  0.79670000  0.23610000  0.11200000  1.0 -0.2421165023
O  O1  1  0.75130000  0.84650000  0.48360000  1.0 -0.5597881411
O  O2  1  0.80500000  0.87360000  0.59190000  1.0 -0.4607261707
O  O3  1  0.76095000  0.25665000  0.35950000  1.0 -0.5597881411
O  O4  1  0.84487000  0.41321000  0.25566000  1.0 -0.7758529995
O  O5  1  0.83067000  0.22533000  0.29450000  1.0 -0.5785923962
O  O6  1  0.69420000  0.33560000  0.15040000  1.0 -0.5597881411
O  O7  1  0.84300000  0.72040000  0.73460000  1.0 -0.4518455182
O  O8  1  0.74070000  0.65770000  0.70050000  1.0 -0.4607261707
O  O9  1  0.83410000  0.41492000  0.08130000  1.0 -0.5597881411
O  O10  1  0.84412000  0.52304000  0.11560000  1.0 -0.5889845703
O  O11  1  0.28158000  0.34524000  0.01400000  1.0 -0.5597881411
O  O12  1  0.31650000  0.39470000  0.90840000  1.0 -0.5028304372
O  O13  1  0.65933000  0.39807000  0.21960000  1.0 -0.5714449797
O  O14  1  0.84637000  0.39419000  0.42990000  1.0 -0.5714449797
O  O15  1  0.16475000  0.40495000  0.75850000  1.0 -0.5492280711
O  O16  1  0.07496000  0.33596000  0.80440000  1.0 -0.532960615
O  O17  1  0.94450000  0.37950000  0.38950000  1.0 -0.5492280711
O  O18  1  0.84320000  0.69060000  0.56820000  1.0 -0.4393140886
O  O19  1  0.75790000  0.75390000  0.12050000  1.0 -0.283129773
O  O20  1  0.76000000  0.79720000  0.24570000  1.0 -0.0028440675
O  O21  1  0.84650000  0.75130000  0.01640000  1.0 -0.5597881411
O  O22  1  0.87360000  0.80500000  0.90810000  1.0 -0.4607261707
O  O23  1  0.25665000  0.76095000  0.14050000  1.0 -0.5597881411
O  O24  1  0.41321000  0.84487000  0.24434000  1.0 -0.7758529995
O  O25  1  0.22533000  0.83067000  0.20550000  1.0 -0.5785923962
O  O26  1  0.33560000  0.69420000  0.34960000  1.0 -0.5597881411
O  O27  1  0.72040000  0.84300000  0.76540000  1.0 -0.4518455182
O  O28  1  0.65770000  0.74070000  0.79950000  1.0 -0.4607261707
O  O29  1  0.41492000  0.83410000  0.41870000  1.0 -0.5597881411
O  O30  1  0.52304000  0.84412000  0.38440000  1.0 -0.5889845703
O  O31  1  0.34524000  0.28158000  0.48600000  1.0 -0.5597881411
O  O32  1  0.39470000  0.31650000  0.59160000  1.0 -0.5028304372
O  O33  1  0.39807000  0.65933000  0.28040000  1.0 -0.5714449797
O  O34  1  0.39419000  0.84637000  0.07010000  1.0 -0.5714449797
O  O35  1  0.40495000  0.16475000  0.74150000  1.0 -0.5492280711
O  O36  1  0.33596000  0.07496000  0.69560000  1.0 -0.532960615
O  O37  1  0.37950000  0.94450000  0.11050000  1.0 -0.5492280711
O  O38  1  0.69060000  0.84320000  0.93180000  1.0 -0.4393140886
O  O39  1  0.75390000  0.75790000  0.37950000  1.0 -0.2861144259
O  O40  1  0.79720000  0.76000000  0.25430000  1.0 -0.0028440675
O  O41  1  0.24870000  0.15350000  0.51640000  1.0 -0.5597881411
O  O42  1  0.19500000  0.12640000  0.40810000  1.0 -0.4607261707
O  O43  1  0.23905000  0.74335000  0.64050000  1.0 -0.5597881411
O  O44  1  0.15513000  0.58679000  0.74434000  1.0 -0.7758529995
O  O45  1  0.16933000  0.77467000  0.70550000  1.0 -0.5785923962
O  O46  1  0.30580000  0.66440000  0.84960000  1.0 -0.5597881411
O  O47  1  0.15700000  0.27960000  0.26540000  1.0 -0.4518455182
O  O48  1  0.25930000  0.34230000  0.29950000  1.0 -0.4607261707
O  O49  1  0.16590000  0.58508000  0.91870000  1.0 -0.5597881411
O  O50  1  0.15588000  0.47696000  0.88440000  1.0 -0.5889845703
O  O51  1  0.71842000  0.65476000  0.98600000  1.0 -0.5597881411
O  O52  1  0.68350000  0.60530000  0.09160000  1.0 -0.5028304372
O  O53  1  0.34067000  0.60193000  0.78040000  1.0 -0.5714449797
O  O54  1  0.15363000  0.60581000  0.57010000  1.0 -0.5714449797
O  O55  1  0.83525000  0.59505000  0.24150000  1.0 -0.5492280711
O  O56  1  0.92504000  0.66404000  0.19560000  1.0 -0.532960615
O  O57  1  0.05550000  0.62050000  0.61050000  1.0 -0.5492280711
O  O58  1  0.15680000  0.30940000  0.43180000  1.0 -0.4393140886
O  O59  1  0.24210000  0.24610000  0.87950000  1.0 -0.2861144259
O  O60  1  0.24000000  0.20280000  0.75430000  1.0 -0.0028440675
O  O61  1  0.15350000  0.24870000  0.98360000  1.0 -0.5597881411
O  O62  1  0.12640000  0.19500000  0.09190000  1.0 -0.4607261707
O  O63  1  0.74335000  0.23905000  0.85950000  1.0 -0.5597881411
O  O64  1  0.58679000  0.15513000  0.75566000  1.0 -0.7758529995
O  O65  1  0.77467000  0.16933000  0.79450000  1.0 -0.5785923962
O  O66  1  0.66440000  0.30580000  0.65040000  1.0 -0.5597881411
O  O67  1  0.27960000  0.15700000  0.23460000  1.0 -0.4518455182
O  O68  1  0.34230000  0.25930000  0.20050000  1.0 -0.4607261707
O  O69  1  0.58508000  0.16590000  0.58130000  1.0 -0.5597881411
O  O70  1  0.47696000  0.15588000  0.61560000  1.0 -0.5889845703
O  O71  1  0.65476000  0.71842000  0.51400000  1.0 -0.5597881411
O  O72  1  0.60530000  0.68350000  0.40840000  1.0 -0.5028304372
O  O73  1  0.60193000  0.34067000  0.71960000  1.0 -0.5714449797
O  O74  1  0.60581000  0.15363000  0.92990000  1.0 -0.5714449797
O  O75  1  0.59505000  0.83525000  0.25850000  1.0 -0.5492280711
O  O76  1  0.66404000  0.92504000  0.30440000  1.0 -0.532960615
O  O77  1  0.62050000  0.05550000  0.88950000  1.0 -0.5492280711
O  O78  1  0.30940000  0.15680000  0.06820000  1.0 -0.4393140886
O  O79  1  0.24610000  0.24210000  0.62050000  1.0 -0.2861144259
O  O80  1  0.20280000  0.24000000  0.74570000  1.0 -0.0028440675
