# DDEC6 charges by PACMAN v1.1 (https://github.com/mtap-research/PACMAN-charge/)
data_ZIKYEB_FSR_pacman
_symmetry_space_group_name_H-M   'P 1'
_cell_length_a   37.99260000
_cell_length_b   37.99260000
_cell_length_c   37.99260000
_cell_angle_alpha   34.10140000
_cell_angle_beta   34.10140000
_cell_angle_gamma   34.10140000
_symmetry_Int_Tables_number   1
_chemical_formula_structural   Th6C81N3O38
_chemical_formula_sum   'Th24 C324 N12 O152'
_cell_volume   15368.42579860
_cell_formula_units_Z   4
loop_
 _symmetry_equiv_pos_site_id
 _symmetry_equiv_pos_as_xyz
  1  'x, y, z'
loop_
 _atom_site_type_symbol
 _atom_site_label
 _atom_site_symmetry_multiplicity
 _atom_site_fract_x
 _atom_site_fract_y
 _atom_site_fract_z
 _atom_site_occupancy
 _atom_site_charge
Th  Th1  1  0.26081000  0.41418000  0.45224000  1.0 2.3390181407
Th  Th2  1  0.41418000  0.45224000  0.26081000  1.0 2.3390181407
Th  Th3  1  0.45224000  0.26081000  0.41418000  1.0 2.3390181407
Th  Th4  1  0.08582000  0.23919000  0.04776000  1.0 2.3390181407
Th  Th5  1  0.04776000  0.08582000  0.23919000  1.0 2.3390181407
Th  Th6  1  0.23919000  0.04776000  0.08582000  1.0 2.3390181407
Th  Th7  1  0.73919000  0.58582000  0.54776000  1.0 2.3390181407
Th  Th8  1  0.58582000  0.54776000  0.73919000  1.0 2.3390181407
Th  Th9  1  0.54776000  0.73919000  0.58582000  1.0 2.3390181407
Th  Th10  1  0.91418000  0.76081000  0.95224000  1.0 2.3390181407
Th  Th11  1  0.95224000  0.91418000  0.76081000  1.0 2.3390181407
Th  Th12  1  0.76081000  0.95224000  0.91418000  1.0 2.3390181407
Th  Th13  1  0.36729000  0.32791000  0.52122000  1.0 2.3321677297
Th  Th14  1  0.32791000  0.52122000  0.36729000  1.0 2.3321677297
Th  Th15  1  0.52122000  0.36729000  0.32791000  1.0 2.3321677297
Th  Th16  1  0.17209000  0.13271000  0.97878000  1.0 2.3321677297
Th  Th17  1  0.97878000  0.17209000  0.13271000  1.0 2.3390181407
Th  Th18  1  0.13271000  0.97878000  0.17209000  1.0 2.3321677297
Th  Th19  1  0.63271000  0.67209000  0.47878000  1.0 2.3321677297
Th  Th20  1  0.67209000  0.47878000  0.63271000  1.0 2.3321677297
Th  Th21  1  0.47878000  0.63271000  0.67209000  1.0 2.3321677297
Th  Th22  1  0.82791000  0.86729000  0.02122000  1.0 2.3321677297
Th  Th23  1  0.02122000  0.82791000  0.86729000  1.0 2.3321677297
Th  Th24  1  0.86729000  0.02122000  0.82791000  1.0 2.3321677297
C  C1  1  0.19807000  0.34357000  0.62627000  1.0 0.6542132712
C  C2  1  0.34357000  0.62627000  0.19807000  1.0 0.6542132712
C  C3  1  0.62627000  0.19807000  0.34357000  1.0 0.6542132712
C  C4  1  0.15643000  0.30193000  0.87373000  1.0 0.6542132712
C  C5  1  0.87373000  0.15643000  0.30193000  1.0 0.6542132712
C  C6  1  0.30193000  0.87373000  0.15643000  1.0 0.6542132712
C  C7  1  0.80193000  0.65643000  0.37373000  1.0 0.6542132712
C  C8  1  0.65643000  0.37373000  0.80193000  1.0 0.6542132712
C  C9  1  0.37373000  0.80193000  0.65643000  1.0 0.6542132712
C  C10  1  0.84357000  0.69807000  0.12627000  1.0 0.6542132712
C  C11  1  0.12627000  0.84357000  0.69807000  1.0 0.6542132712
C  C12  1  0.69807000  0.12627000  0.84357000  1.0 0.6542132712
C  C13  1  0.14459000  0.32289000  0.70229000  1.0 -0.0789740565
C  C14  1  0.32289000  0.70229000  0.14459000  1.0 -0.0789740565
C  C15  1  0.70229000  0.14459000  0.32289000  1.0 -0.0789740565
C  C16  1  0.17711000  0.35541000  0.79771000  1.0 -0.0789740565
C  C17  1  0.79771000  0.17711000  0.35541000  1.0 -0.0789740565
C  C18  1  0.35541000  0.79771000  0.17711000  1.0 -0.0789740565
C  C19  1  0.85541000  0.67711000  0.29771000  1.0 -0.0789740565
C  C20  1  0.67711000  0.29771000  0.85541000  1.0 -0.0789740565
C  C21  1  0.29771000  0.85541000  0.67711000  1.0 -0.0789740565
C  C22  1  0.82289000  0.64459000  0.20229000  1.0 -0.0789740565
C  C23  1  0.20229000  0.82289000  0.64459000  1.0 -0.0789740565
C  C24  1  0.64459000  0.20229000  0.82289000  1.0 -0.0789740565
C  C25  1  0.12039000  0.25289000  0.82229000  1.0 -0.0654458262
C  C26  1  0.25289000  0.82229000  0.12039000  1.0 -0.0593977131
C  C27  1  0.82229000  0.12039000  0.25289000  1.0 -0.0654458262
C  C28  1  0.24711000  0.37961000  0.67771000  1.0 -0.0654458262
C  C29  1  0.67771000  0.24711000  0.37961000  1.0 -0.0593977131
C  C30  1  0.37961000  0.67771000  0.24711000  1.0 -0.0593977131
C  C31  1  0.87961000  0.74711000  0.17771000  1.0 -0.0593977131
C  C32  1  0.74711000  0.17771000  0.87961000  1.0 -0.0593977131
C  C33  1  0.17771000  0.87961000  0.74711000  1.0 -0.0593977131
C  C34  1  0.75289000  0.62039000  0.32229000  1.0 -0.0593977131
C  C35  1  0.32229000  0.75289000  0.62039000  1.0 -0.0654458262
C  C36  1  0.62039000  0.32229000  0.75289000  1.0 -0.0654458262
C  C37  1  0.16641000  0.27431000  0.75251000  1.0 0.0822727495
C  C38  1  0.27431000  0.75251000  0.16641000  1.0 0.0822727495
C  C39  1  0.75251000  0.16641000  0.27431000  1.0 0.0822727495
C  C40  1  0.22569000  0.33359000  0.74749000  1.0 0.0822727495
C  C41  1  0.74749000  0.22569000  0.33359000  1.0 0.0822727495
C  C42  1  0.33359000  0.74749000  0.22569000  1.0 0.0822727495
C  C43  1  0.83359000  0.72569000  0.24749000  1.0 0.0822727495
C  C44  1  0.72569000  0.24749000  0.83359000  1.0 0.0822727495
C  C45  1  0.24749000  0.83359000  0.72569000  1.0 0.0822727495
C  C46  1  0.77431000  0.66641000  0.25251000  1.0 0.0822727495
C  C47  1  0.25251000  0.77431000  0.66641000  1.0 0.0822727495
C  C48  1  0.66641000  0.25251000  0.77431000  1.0 0.0822727495
C  C49  1  0.05057000  0.28007000  0.84447000  1.0 0.0398428828
C  C50  1  0.28007000  0.84447000  0.05057000  1.0 0.0398428828
C  C51  1  0.84447000  0.05057000  0.28007000  1.0 0.0398428828
C  C52  1  0.21993000  0.44943000  0.65553000  1.0 0.0398428828
C  C53  1  0.65553000  0.21993000  0.44943000  1.0 0.0398428828
C  C54  1  0.44943000  0.65553000  0.21993000  1.0 0.0398428828
C  C55  1  0.94943000  0.71993000  0.15553000  1.0 0.0398428828
C  C56  1  0.71993000  0.15553000  0.94943000  1.0 0.0398428828
C  C57  1  0.15553000  0.94943000  0.71993000  1.0 0.0469199173
C  C58  1  0.78007000  0.55057000  0.34447000  1.0 0.0398428828
C  C59  1  0.34447000  0.78007000  0.55057000  1.0 0.0398428828
C  C60  1  0.55057000  0.34447000  0.78007000  1.0 0.0398428828
C  C61  1  0.93668000  0.37808000  0.78208000  1.0 -0.2605664498
C  C62  1  0.37808000  0.78208000  0.93668000  1.0 -0.2605664498
C  C63  1  0.78208000  0.93668000  0.37808000  1.0 -0.2605664498
C  C64  1  0.12192000  0.56332000  0.71792000  1.0 -0.2538937263
C  C65  1  0.71792000  0.12192000  0.56332000  1.0 -0.2605664498
C  C66  1  0.56332000  0.71792000  0.12192000  1.0 -0.2605664498
C  C67  1  0.06332000  0.62192000  0.21792000  1.0 -0.2605664498
C  C68  1  0.62192000  0.21792000  0.06332000  1.0 -0.2605664498
C  C69  1  0.21792000  0.06332000  0.62192000  1.0 -0.2669542812
C  C70  1  0.87808000  0.43668000  0.28208000  1.0 -0.2605664498
C  C71  1  0.28208000  0.87808000  0.43668000  1.0 -0.2669542812
C  C72  1  0.43668000  0.28208000  0.87808000  1.0 -0.2605664498
C  C73  1  0.86809000  0.40279000  0.80769000  1.0 0.2137207853
C  C74  1  0.40279000  0.80769000  0.86809000  1.0 0.2137207853
C  C75  1  0.80769000  0.86809000  0.40279000  1.0 0.2137207853
C  C76  1  0.09721000  0.63191000  0.69231000  1.0 0.2137207853
C  C77  1  0.69231000  0.09721000  0.63191000  1.0 0.2137207853
C  C78  1  0.63191000  0.69231000  0.09721000  1.0 0.2137207853
C  C79  1  0.13191000  0.59721000  0.19231000  1.0 0.2137207853
C  C80  1  0.59721000  0.19231000  0.13191000  1.0 0.2227544079
C  C81  1  0.19231000  0.13191000  0.59721000  1.0 0.2227544079
C  C82  1  0.90279000  0.36809000  0.30769000  1.0 0.2137207853
C  C83  1  0.30769000  0.90279000  0.36809000  1.0 0.2227544079
C  C84  1  0.36809000  0.30769000  0.90279000  1.0 0.2137207853
C  C85  1  0.02848000  0.32908000  0.79538000  1.0 0.0312520109
C  C86  1  0.32908000  0.79538000  0.02848000  1.0 0.0312520109
C  C87  1  0.79538000  0.02848000  0.32908000  1.0 0.0312520109
C  C88  1  0.17092000  0.47152000  0.70462000  1.0 0.0312520109
C  C89  1  0.70462000  0.17092000  0.47152000  1.0 0.0312520109
C  C90  1  0.47152000  0.70462000  0.17092000  1.0 0.0312520109
C  C91  1  0.97152000  0.67092000  0.20462000  1.0 0.0312520109
C  C92  1  0.67092000  0.20462000  0.97152000  1.0 0.0312520109
C  C93  1  0.20462000  0.97152000  0.67092000  1.0 0.0312520109
C  C94  1  0.82908000  0.52848000  0.29538000  1.0 0.0312520109
C  C95  1  0.29538000  0.82908000  0.52848000  1.0 0.0312520109
C  C96  1  0.52848000  0.29538000  0.82908000  1.0 0.0312520109
C  C97  1  0.07684000  0.34904000  0.72364000  1.0 0.0186270657
C  C98  1  0.34904000  0.72364000  0.07684000  1.0 0.0186270657
C  C99  1  0.72364000  0.07684000  0.34904000  1.0 0.0186270657
C  C100  1  0.15096000  0.42316000  0.77636000  1.0 0.0186270657
C  C101  1  0.77636000  0.15096000  0.42316000  1.0 0.0186270657
C  C102  1  0.42316000  0.77636000  0.15096000  1.0 0.0186270657
C  C103  1  0.92316000  0.65096000  0.27636000  1.0 0.0186270657
C  C104  1  0.65096000  0.27636000  0.92316000  1.0 0.0186270657
C  C105  1  0.27636000  0.92316000  0.65096000  1.0 0.0186270657
C  C106  1  0.84904000  0.57684000  0.22364000  1.0 0.0186270657
C  C107  1  0.22364000  0.84904000  0.57684000  1.0 0.0186270657
C  C108  1  0.57684000  0.22364000  0.84904000  1.0 0.0186270657
C  C109  1  0.95432000  0.35842000  0.81932000  1.0 0.1104211487
C  C110  1  0.35842000  0.81932000  0.95432000  1.0 0.1104211487
C  C111  1  0.81932000  0.95432000  0.35842000  1.0 0.1104211487
C  C112  1  0.14158000  0.54568000  0.68068000  1.0 0.1011506758
C  C113  1  0.68068000  0.14158000  0.54568000  1.0 0.1011506758
C  C114  1  0.54568000  0.68068000  0.14158000  1.0 0.1104211487
C  C115  1  0.04568000  0.64158000  0.18068000  1.0 0.1011506758
C  C116  1  0.64158000  0.18068000  0.04568000  1.0 0.1011506758
C  C117  1  0.18068000  0.04568000  0.64158000  1.0 0.1011506758
C  C118  1  0.85842000  0.45432000  0.31932000  1.0 0.1104211487
C  C119  1  0.31932000  0.85842000  0.45432000  1.0 0.1011506758
C  C120  1  0.45432000  0.31932000  0.85842000  1.0 0.1011506758
C  C121  1  0.90158000  0.36438000  0.88068000  1.0 -0.2193071307
C  C122  1  0.36438000  0.88068000  0.90158000  1.0 -0.2193071307
C  C123  1  0.88068000  0.90158000  0.36438000  1.0 -0.2193071307
C  C124  1  0.13562000  0.59842000  0.61932000  1.0 -0.2121790283
C  C125  1  0.61932000  0.13562000  0.59842000  1.0 -0.2121790283
C  C126  1  0.59842000  0.61932000  0.13562000  1.0 -0.2193071307
C  C127  1  0.09842000  0.63562000  0.11932000  1.0 -0.2121790283
C  C128  1  0.63562000  0.11932000  0.09842000  1.0 -0.2121790283
C  C129  1  0.11932000  0.09842000  0.63562000  1.0 -0.2193071307
C  C130  1  0.86438000  0.40158000  0.38068000  1.0 -0.2193071307
C  C131  1  0.38068000  0.86438000  0.40158000  1.0 -0.2121790283
C  C132  1  0.40158000  0.38068000  0.86438000  1.0 -0.2193071307
C  C133  1  0.83201000  0.39441000  0.90141000  1.0 0.2227544079
C  C134  1  0.39441000  0.90141000  0.83201000  1.0 0.2227544079
C  C135  1  0.90141000  0.83201000  0.39441000  1.0 0.2227544079
C  C136  1  0.10559000  0.66799000  0.59859000  1.0 0.2227544079
C  C137  1  0.59859000  0.10559000  0.66799000  1.0 0.2227544079
C  C138  1  0.66799000  0.59859000  0.10559000  1.0 0.2280214533
C  C139  1  0.16799000  0.60559000  0.09859000  1.0 0.2280214533
C  C140  1  0.60559000  0.09859000  0.16799000  1.0 0.2227544079
C  C141  1  0.09859000  0.16799000  0.60559000  1.0 0.2280214533
C  C142  1  0.89441000  0.33201000  0.40141000  1.0 0.2227544079
C  C143  1  0.40141000  0.89441000  0.33201000  1.0 0.2227544079
C  C144  1  0.33201000  0.40141000  0.89441000  1.0 0.2280214533
C  C145  1  0.14322000  0.20192000  0.87602000  1.0 0.5721069989
C  C146  1  0.20192000  0.87602000  0.14322000  1.0 0.5721069989
C  C147  1  0.87602000  0.14322000  0.20192000  1.0 0.5721069989
C  C148  1  0.29808000  0.35678000  0.62398000  1.0 0.5721069989
C  C149  1  0.62398000  0.29808000  0.35678000  1.0 0.5721069989
C  C150  1  0.35678000  0.62398000  0.29808000  1.0 0.5721069989
C  C151  1  0.85678000  0.79808000  0.12398000  1.0 0.5721069989
C  C152  1  0.79808000  0.12398000  0.85678000  1.0 0.5721069989
C  C153  1  0.12398000  0.85678000  0.79808000  1.0 0.5721069989
C  C154  1  0.70192000  0.64322000  0.37602000  1.0 0.5721069989
C  C155  1  0.37602000  0.70192000  0.64322000  1.0 0.5721069989
C  C156  1  0.64322000  0.37602000  0.70192000  1.0 0.5721069989
C  C157  1  0.87777000  0.44107000  0.70687000  1.0 -0.0181024384
C  C158  1  0.44107000  0.70687000  0.87777000  1.0 -0.0181024384
C  C159  1  0.70687000  0.87777000  0.44107000  1.0 -0.0181024384
C  C160  1  0.05893000  0.62223000  0.79313000  1.0 -0.0181024384
C  C161  1  0.79313000  0.05893000  0.62223000  1.0 -0.0101591794
C  C162  1  0.62223000  0.79313000  0.05893000  1.0 -0.0181024384
C  C163  1  0.12223000  0.55893000  0.29313000  1.0 -0.0181024384
C  C164  1  0.55893000  0.29313000  0.12223000  1.0 -0.0181024384
C  C165  1  0.29313000  0.12223000  0.55893000  1.0 -0.0181024384
C  C166  1  0.94107000  0.37777000  0.20687000  1.0 -0.0181024384
C  C167  1  0.20687000  0.94107000  0.37777000  1.0 -0.0181024384
C  C168  1  0.37777000  0.20687000  0.94107000  1.0 -0.0181024384
C  C169  1  0.84162000  0.42482000  0.77622000  1.0 0.0398428828
C  C170  1  0.42482000  0.77622000  0.84162000  1.0 0.0398428828
C  C171  1  0.77622000  0.84162000  0.42482000  1.0 0.0398428828
C  C172  1  0.07518000  0.65838000  0.72378000  1.0 0.0398428828
C  C173  1  0.72378000  0.07518000  0.65838000  1.0 0.0398428828
C  C174  1  0.65838000  0.72378000  0.07518000  1.0 0.0398428828
C  C175  1  0.15838000  0.57518000  0.22378000  1.0 0.0398428828
C  C176  1  0.57518000  0.22378000  0.15838000  1.0 0.0398428828
C  C177  1  0.22378000  0.15838000  0.57518000  1.0 0.0398428828
C  C178  1  0.92482000  0.34162000  0.27622000  1.0 0.0398428828
C  C179  1  0.27622000  0.92482000  0.34162000  1.0 0.0398428828
C  C180  1  0.34162000  0.27622000  0.92482000  1.0 0.0398428828
C  C181  1  0.70420000  0.43880000  0.97790000  1.0 -0.0101591794
C  C182  1  0.43880000  0.97790000  0.70420000  1.0 -0.0181024384
C  C183  1  0.97790000  0.70420000  0.43880000  1.0 -0.0101591794
C  C184  1  0.06120000  0.79580000  0.52210000  1.0 -0.0181024384
C  C185  1  0.52210000  0.06120000  0.79580000  1.0 -0.0181024384
C  C186  1  0.79580000  0.52210000  0.06120000  1.0 -0.0101591794
C  C187  1  0.29580000  0.56120000  0.02210000  1.0 -0.0181024384
C  C188  1  0.56120000  0.02210000  0.29580000  1.0 -0.0181024384
C  C189  1  0.02210000  0.29580000  0.56120000  1.0 -0.0181024384
C  C190  1  0.93880000  0.20420000  0.47790000  1.0 -0.0181024384
C  C191  1  0.47790000  0.93880000  0.20420000  1.0 -0.0101591794
C  C192  1  0.20420000  0.47790000  0.93880000  1.0 -0.0181024384
C  C193  1  0.77190000  0.40160000  0.96660000  1.0 0.0469199173
C  C194  1  0.40160000  0.96660000  0.77190000  1.0 0.0469199173
C  C195  1  0.96660000  0.77190000  0.40160000  1.0 0.0469199173
C  C196  1  0.09840000  0.72810000  0.53340000  1.0 0.0469199173
C  C197  1  0.53340000  0.09840000  0.72810000  1.0 0.0469199173
C  C198  1  0.72810000  0.53340000  0.09840000  1.0 0.0469199173
C  C199  1  0.22810000  0.59840000  0.03340000  1.0 0.0469199173
C  C200  1  0.59840000  0.03340000  0.22810000  1.0 0.0469199173
C  C201  1  0.03340000  0.22810000  0.59840000  1.0 0.0469199173
C  C202  1  0.90160000  0.27190000  0.46660000  1.0 0.0469199173
C  C203  1  0.46660000  0.90160000  0.27190000  1.0 0.0469199173
C  C204  1  0.27190000  0.46660000  0.90160000  1.0 0.0469199173
C  C205  1  0.77840000  0.36730000  0.02170000  1.0 -0.0101591794
C  C206  1  0.36730000  0.02170000  0.77840000  1.0 -0.0101591794
C  C207  1  0.02170000  0.77840000  0.36730000  1.0 -0.0101591794
C  C208  1  0.13270000  0.72160000  0.47830000  1.0 -0.0101591794
C  C209  1  0.47830000  0.13270000  0.72160000  1.0 -0.0101591794
C  C210  1  0.72160000  0.47830000  0.13270000  1.0 -0.0101591794
C  C211  1  0.22160000  0.63270000  0.97830000  1.0 -0.0101591794
C  C212  1  0.63270000  0.97830000  0.22160000  1.0 -0.0101591794
C  C213  1  0.97830000  0.22160000  0.63270000  1.0 -0.0101591794
C  C214  1  0.86730000  0.27840000  0.52170000  1.0 -0.0101591794
C  C215  1  0.52170000  0.86730000  0.27840000  1.0 -0.0101591794
C  C216  1  0.27840000  0.52170000  0.86730000  1.0 -0.0101591794
C  C217  1  0.77850000  0.42890000  0.81630000  1.0 -0.0300327875
C  C218  1  0.42890000  0.81630000  0.77850000  1.0 -0.0300327875
C  C219  1  0.81630000  0.77850000  0.42890000  1.0 -0.0300327875
C  C220  1  0.07110000  0.72150000  0.68370000  1.0 -0.0300327875
C  C221  1  0.68370000  0.07110000  0.72150000  1.0 -0.0181024384
C  C222  1  0.72150000  0.68370000  0.07110000  1.0 -0.0300327875
C  C223  1  0.22150000  0.57110000  0.18370000  1.0 -0.0300327875
C  C224  1  0.57110000  0.18370000  0.22150000  1.0 -0.0300327875
C  C225  1  0.18370000  0.22150000  0.57110000  1.0 -0.0300327875
C  C226  1  0.92890000  0.27850000  0.31630000  1.0 -0.0300327875
C  C227  1  0.31630000  0.92890000  0.27850000  1.0 -0.0181024384
C  C228  1  0.27850000  0.31630000  0.92890000  1.0 -0.0300327875
C  C229  1  0.78185000  0.47225000  0.71935000  1.0 -0.0593977131
C  C230  1  0.47225000  0.71935000  0.78185000  1.0 -0.0593977131
C  C231  1  0.71935000  0.78185000  0.47225000  1.0 -0.0593977131
C  C232  1  0.02775000  0.71815000  0.78065000  1.0 -0.0593977131
C  C233  1  0.78065000  0.02775000  0.71815000  1.0 -0.0593977131
C  C234  1  0.71815000  0.78065000  0.02775000  1.0 -0.0548680358
C  C235  1  0.21815000  0.52775000  0.28065000  1.0 -0.0548680358
C  C236  1  0.52775000  0.28065000  0.21815000  1.0 -0.0593977131
C  C237  1  0.28065000  0.21815000  0.52775000  1.0 -0.0593977131
C  C238  1  0.97225000  0.28185000  0.21935000  1.0 -0.0593977131
C  C239  1  0.21935000  0.97225000  0.28185000  1.0 -0.0593977131
C  C240  1  0.28185000  0.21935000  0.97225000  1.0 -0.0593977131
C  C241  1  0.65174000  0.41694000  0.09074000  1.0 -0.040497707
C  C242  1  0.41694000  0.09074000  0.65174000  1.0 -0.040497707
C  C243  1  0.09074000  0.65174000  0.41694000  1.0 -0.040497707
C  C244  1  0.08306000  0.84826000  0.40926000  1.0 -0.040497707
C  C245  1  0.40926000  0.08306000  0.84826000  1.0 -0.040497707
C  C246  1  0.84826000  0.40926000  0.08306000  1.0 -0.040497707
C  C247  1  0.34826000  0.58306000  0.90926000  1.0 -0.040497707
C  C248  1  0.58306000  0.90926000  0.34826000  1.0 -0.040497707
C  C249  1  0.90926000  0.34826000  0.58306000  1.0 -0.040497707
C  C250  1  0.91694000  0.15174000  0.59074000  1.0 -0.040497707
C  C251  1  0.59074000  0.91694000  0.15174000  1.0 -0.040497707
C  C252  1  0.15174000  0.59074000  0.91694000  1.0 -0.040497707
C  C253  1  0.84761000  0.46481000  0.67861000  1.0 0.0122814096
C  C254  1  0.46481000  0.67861000  0.84761000  1.0 0.0186270657
C  C255  1  0.67861000  0.84761000  0.46481000  1.0 0.0122814096
C  C256  1  0.03519000  0.65239000  0.82139000  1.0 0.0186270657
C  C257  1  0.82139000  0.03519000  0.65239000  1.0 0.0122814096
C  C258  1  0.65239000  0.82139000  0.03519000  1.0 0.0186270657
C  C259  1  0.15239000  0.53519000  0.32139000  1.0 0.0186270657
C  C260  1  0.53519000  0.32139000  0.15239000  1.0 0.0186270657
C  C261  1  0.32139000  0.15239000  0.53519000  1.0 0.0186270657
C  C262  1  0.96481000  0.34761000  0.17861000  1.0 0.0186270657
C  C263  1  0.17861000  0.96481000  0.34761000  1.0 0.0186270657
C  C264  1  0.34761000  0.17861000  0.96481000  1.0 0.0186270657
C  C265  1  0.71760000  0.37920000  0.08260000  1.0 0.062708758
C  C266  1  0.37920000  0.08260000  0.71760000  1.0 0.062708758
C  C267  1  0.08260000  0.71760000  0.37920000  1.0 0.062708758
C  C268  1  0.12080000  0.78240000  0.41740000  1.0 0.062708758
C  C269  1  0.41740000  0.12080000  0.78240000  1.0 0.062708758
C  C270  1  0.78240000  0.41740000  0.12080000  1.0 0.062708758
C  C271  1  0.28240000  0.62080000  0.91740000  1.0 0.062708758
C  C272  1  0.62080000  0.91740000  0.28240000  1.0 0.062708758
C  C273  1  0.91740000  0.28240000  0.62080000  1.0 0.062708758
C  C274  1  0.87920000  0.21760000  0.58260000  1.0 0.062708758
C  C275  1  0.58260000  0.87920000  0.21760000  1.0 0.062708758
C  C276  1  0.21760000  0.58260000  0.87920000  1.0 0.062708758
C  C277  1  0.64480000  0.44660000  0.03970000  1.0 0.0122814096
C  C278  1  0.44660000  0.03970000  0.64480000  1.0 0.0122814096
C  C279  1  0.03970000  0.64480000  0.44660000  1.0 0.0122814096
C  C280  1  0.05340000  0.85520000  0.46030000  1.0 0.0122814096
C  C281  1  0.46030000  0.05340000  0.85520000  1.0 0.0122814096
C  C282  1  0.85520000  0.46030000  0.05340000  1.0 0.0122814096
C  C283  1  0.35520000  0.55340000  0.96030000  1.0 0.0122814096
C  C284  1  0.55340000  0.96030000  0.35520000  1.0 0.0122814096
C  C285  1  0.96030000  0.35520000  0.55340000  1.0 0.0122814096
C  C286  1  0.94660000  0.14480000  0.53970000  1.0 0.0122814096
C  C287  1  0.53970000  0.94660000  0.14480000  1.0 0.0122814096
C  C288  1  0.14480000  0.53970000  0.94660000  1.0 0.0122814096
C  C289  1  0.74650000  0.45690000  0.78640000  1.0 0.0312520109
C  C290  1  0.45690000  0.78640000  0.74650000  1.0 0.0312520109
C  C291  1  0.78640000  0.74650000  0.45690000  1.0 0.0312520109
C  C292  1  0.04310000  0.75350000  0.71360000  1.0 0.0312520109
C  C293  1  0.71360000  0.04310000  0.75350000  1.0 0.0312520109
C  C294  1  0.75350000  0.71360000  0.04310000  1.0 0.0312520109
C  C295  1  0.25350000  0.54310000  0.21360000  1.0 0.0312520109
C  C296  1  0.54310000  0.21360000  0.25350000  1.0 0.0312520109
C  C297  1  0.21360000  0.25350000  0.54310000  1.0 0.0398428828
C  C298  1  0.95690000  0.24650000  0.28640000  1.0 0.0312520109
C  C299  1  0.28640000  0.95690000  0.24650000  1.0 0.0312520109
C  C300  1  0.24650000  0.28640000  0.95690000  1.0 0.0312520109
C  C301  1  0.74686000  0.50076000  0.69016000  1.0 0.6663967835
C  C302  1  0.50076000  0.69016000  0.74686000  1.0 0.6663967835
C  C303  1  0.69016000  0.74686000  0.50076000  1.0 0.6663967835
C  C304  1  0.99924000  0.75314000  0.80984000  1.0 0.6663967835
C  C305  1  0.80984000  0.99924000  0.75314000  1.0 0.6663967835
C  C306  1  0.75314000  0.80984000  0.99924000  1.0 0.6663967835
C  C307  1  0.25314000  0.49924000  0.30984000  1.0 0.6663967835
C  C308  1  0.49924000  0.30984000  0.25314000  1.0 0.6663967835
C  C309  1  0.30984000  0.25314000  0.49924000  1.0 0.6663967835
C  C310  1  0.00076000  0.24686000  0.19016000  1.0 0.6663967835
C  C311  1  0.19016000  0.00076000  0.24686000  1.0 0.6663967835
C  C312  1  0.24686000  0.19016000  0.00076000  1.0 0.6663967835
C  C313  1  0.58758000  0.42298000  0.15798000  1.0 0.6663967835
C  C314  1  0.42298000  0.15798000  0.58758000  1.0 0.6663967835
C  C315  1  0.15798000  0.58758000  0.42298000  1.0 0.6663967835
C  C316  1  0.07702000  0.91242000  0.34202000  1.0 0.6663967835
C  C317  1  0.34202000  0.07702000  0.91242000  1.0 0.6663967835
C  C318  1  0.91242000  0.34202000  0.07702000  1.0 0.6663967835
C  C319  1  0.41242000  0.57702000  0.84202000  1.0 0.6663967835
C  C320  1  0.57702000  0.84202000  0.41242000  1.0 0.6663967835
C  C321  1  0.84202000  0.41242000  0.57702000  1.0 0.6663967835
C  C322  1  0.92298000  0.08758000  0.65798000  1.0 0.6663967835
C  C323  1  0.65798000  0.92298000  0.08758000  1.0 0.6663967835
C  C324  1  0.08758000  0.65798000  0.92298000  1.0 0.6663967835
N  N1  1  0.81693000  0.41033000  0.86673000  1.0 -0.299842096
N  N2  1  0.41033000  0.86673000  0.81693000  1.0 -0.299842096
N  N3  1  0.86673000  0.81693000  0.41033000  1.0 -0.299842096
N  N4  1  0.08967000  0.68307000  0.63327000  1.0 -0.299842096
N  N5  1  0.63327000  0.08967000  0.68307000  1.0 -0.299842096
N  N6  1  0.68307000  0.63327000  0.08967000  1.0 -0.299842096
N  N7  1  0.18307000  0.58967000  0.13327000  1.0 -0.307315482
N  N8  1  0.58967000  0.13327000  0.18307000  1.0 -0.299842096
N  N9  1  0.13327000  0.18307000  0.58967000  1.0 -0.307315482
N  N10  1  0.91033000  0.31693000  0.36673000  1.0 -0.299842096
N  N11  1  0.36673000  0.91033000  0.31693000  1.0 -0.299842096
N  N12  1  0.31693000  0.36673000  0.91033000  1.0 -0.307315482
O  O1  1  0.27374000  0.44124000  0.48314000  1.0 -0.9609157906
O  O2  1  0.44124000  0.48314000  0.27374000  1.0 -0.9655264549
O  O3  1  0.48314000  0.27374000  0.44124000  1.0 -0.9655264549
O  O4  1  0.05876000  0.22626000  0.01686000  1.0 -0.9609157906
O  O5  1  0.01686000  0.05876000  0.22626000  1.0 -0.9609157906
O  O6  1  0.22626000  0.01686000  0.05876000  1.0 -0.9609157906
O  O7  1  0.72626000  0.55876000  0.51686000  1.0 -0.9609157906
O  O8  1  0.55876000  0.51686000  0.72626000  1.0 -0.9609157906
O  O9  1  0.51686000  0.72626000  0.55876000  1.0 -0.9655264549
O  O10  1  0.94124000  0.77374000  0.98314000  1.0 -0.9609157906
O  O11  1  0.98314000  0.94124000  0.77374000  1.0 -0.9609157906
O  O12  1  0.77374000  0.98314000  0.94124000  1.0 -0.9609157906
O  O13  1  0.18327000  0.37887000  0.58117000  1.0 -0.5309093338
O  O14  1  0.37887000  0.58117000  0.18327000  1.0 -0.5309093338
O  O15  1  0.58117000  0.18327000  0.37887000  1.0 -0.5309093338
O  O16  1  0.12113000  0.31673000  0.91883000  1.0 -0.5309093338
O  O17  1  0.91883000  0.12113000  0.31673000  1.0 -0.5309093338
O  O18  1  0.31673000  0.91883000  0.12113000  1.0 -0.5309093338
O  O19  1  0.81673000  0.62113000  0.41883000  1.0 -0.5309093338
O  O20  1  0.62113000  0.41883000  0.81673000  1.0 -0.5309093338
O  O21  1  0.41883000  0.81673000  0.62113000  1.0 -0.5309093338
O  O22  1  0.87887000  0.68327000  0.08117000  1.0 -0.5309093338
O  O23  1  0.08117000  0.87887000  0.68327000  1.0 -0.5309093338
O  O24  1  0.68327000  0.08117000  0.87887000  1.0 -0.5309093338
O  O25  1  0.25436000  0.32286000  0.61346000  1.0 -0.5529780818
O  O26  1  0.32286000  0.61346000  0.25436000  1.0 -0.5529780818
O  O27  1  0.61346000  0.25436000  0.32286000  1.0 -0.5529780818
O  O28  1  0.17714000  0.24564000  0.88654000  1.0 -0.5529780818
O  O29  1  0.88654000  0.17714000  0.24564000  1.0 -0.5529780818
O  O30  1  0.24564000  0.88654000  0.17714000  1.0 -0.5529780818
O  O31  1  0.74564000  0.67714000  0.38654000  1.0 -0.5529780818
O  O32  1  0.67714000  0.38654000  0.74564000  1.0 -0.5529780818
O  O33  1  0.38654000  0.74564000  0.67714000  1.0 -0.5529780818
O  O34  1  0.82286000  0.75436000  0.11346000  1.0 -0.5529780818
O  O35  1  0.11346000  0.82286000  0.75436000  1.0 -0.5529780818
O  O36  1  0.75436000  0.11346000  0.82286000  1.0 -0.5529780818
O  O37  1  0.59562000  0.39912000  0.20182000  1.0 -0.5309093338
O  O38  1  0.39912000  0.20182000  0.59562000  1.0 -0.5309093338
O  O39  1  0.20182000  0.59562000  0.39912000  1.0 -0.5408685055
O  O40  1  0.10088000  0.90438000  0.29818000  1.0 -0.5309093338
O  O41  1  0.29818000  0.10088000  0.90438000  1.0 -0.5408685055
O  O42  1  0.90438000  0.29818000  0.10088000  1.0 -0.5309093338
O  O43  1  0.40438000  0.60088000  0.79818000  1.0 -0.5309093338
O  O44  1  0.60088000  0.79818000  0.40438000  1.0 -0.5309093338
O  O45  1  0.79818000  0.40438000  0.60088000  1.0 -0.5309093338
O  O46  1  0.89912000  0.09562000  0.70182000  1.0 -0.5309093338
O  O47  1  0.70182000  0.89912000  0.09562000  1.0 -0.5309093338
O  O48  1  0.09562000  0.70182000  0.89912000  1.0 -0.5309093338
O  O49  1  0.77603000  0.52283000  0.62653000  1.0 -0.5171717835
O  O50  1  0.52283000  0.62653000  0.77603000  1.0 -0.5171717835
O  O51  1  0.62653000  0.77603000  0.52283000  1.0 -0.5171717835
O  O52  1  0.97717000  0.72397000  0.87347000  1.0 -0.5171717835
O  O53  1  0.87347000  0.97717000  0.72397000  1.0 -0.5171717835
O  O54  1  0.72397000  0.87347000  0.97717000  1.0 -0.5171717835
O  O55  1  0.22397000  0.47717000  0.37347000  1.0 -0.5171717835
O  O56  1  0.47717000  0.37347000  0.22397000  1.0 -0.5171717835
O  O57  1  0.37347000  0.22397000  0.47717000  1.0 -0.5171717835
O  O58  1  0.02283000  0.27603000  0.12653000  1.0 -0.5171717835
O  O59  1  0.12653000  0.02283000  0.27603000  1.0 -0.5171717835
O  O60  1  0.27603000  0.12653000  0.02283000  1.0 -0.5171717835
O  O61  1  0.53096000  0.45066000  0.16466000  1.0 -0.5408685055
O  O62  1  0.45066000  0.16466000  0.53096000  1.0 -0.5408685055
O  O63  1  0.16466000  0.53096000  0.45066000  1.0 -0.5408685055
O  O64  1  0.04934000  0.96904000  0.33534000  1.0 -0.5408685055
O  O65  1  0.33534000  0.04934000  0.96904000  1.0 -0.5408685055
O  O66  1  0.96904000  0.33534000  0.04934000  1.0 -0.5408685055
O  O67  1  0.46904000  0.54934000  0.83534000  1.0 -0.5408685055
O  O68  1  0.54934000  0.83534000  0.46904000  1.0 -0.5408685055
O  O69  1  0.83534000  0.46904000  0.54934000  1.0 -0.5408685055
O  O70  1  0.95066000  0.03096000  0.66466000  1.0 -0.5408685055
O  O71  1  0.66466000  0.95066000  0.03096000  1.0 -0.5408685055
O  O72  1  0.03096000  0.66466000  0.95066000  1.0 -0.5408685055
O  O73  1  0.35411000  0.32251000  0.47731000  1.0 -1.0591921342
O  O74  1  0.32251000  0.47731000  0.35411000  1.0 -1.0591921342
O  O75  1  0.47731000  0.35411000  0.32251000  1.0 -1.0591921342
O  O76  1  0.17749000  0.14589000  0.02269000  1.0 -1.0591921342
O  O77  1  0.02269000  0.17749000  0.14589000  1.0 -1.0591921342
O  O78  1  0.14589000  0.02269000  0.17749000  1.0 -1.0591921342
O  O79  1  0.64589000  0.67749000  0.52269000  1.0 -1.0591921342
O  O80  1  0.67749000  0.52269000  0.64589000  1.0 -1.0591921342
O  O81  1  0.52269000  0.64589000  0.67749000  1.0 -1.0591921342
O  O82  1  0.82251000  0.85411000  0.97731000  1.0 -1.0591921342
O  O83  1  0.97731000  0.82251000  0.85411000  1.0 -1.0591921342
O  O84  1  0.85411000  0.97731000  0.82251000  1.0 -1.0591921342
O  O85  1  0.41036000  0.41036000  0.41036000  1.0 -1.0263957911
O  O86  1  0.08964000  0.08964000  0.08964000  1.0 -1.0263957911
O  O87  1  0.58964000  0.58964000  0.58964000  1.0 -1.0263957911
O  O88  1  0.91036000  0.91036000  0.91036000  1.0 -1.0263957911
O  O89  1  0.46327000  0.27397000  0.53387000  1.0 -0.2386628829
O  O90  1  0.27397000  0.53387000  0.46327000  1.0 -0.2305733942
O  O91  1  0.53387000  0.46327000  0.27397000  1.0 -0.2305733942
O  O92  1  0.22603000  0.03673000  0.96613000  1.0 -0.2386628829
O  O93  1  0.96613000  0.22603000  0.03673000  1.0 -0.2386628829
O  O94  1  0.03673000  0.96613000  0.22603000  1.0 -0.2386628829
O  O95  1  0.53673000  0.72603000  0.46613000  1.0 -0.2386628829
O  O96  1  0.72603000  0.46613000  0.53673000  1.0 -0.2386628829
O  O97  1  0.46613000  0.53673000  0.72603000  1.0 -0.2386628829
O  O98  1  0.77397000  0.96327000  0.03387000  1.0 -0.2386628829
O  O99  1  0.03387000  0.77397000  0.96327000  1.0 -0.2386628829
O  O100  1  0.96327000  0.03387000  0.77397000  1.0 -0.2386628829
O  O101  1  0.68803000  0.49833000  0.73603000  1.0 -0.5718956026
O  O102  1  0.49833000  0.73603000  0.68803000  1.0 -0.5718956026
O  O103  1  0.73603000  0.68803000  0.49833000  1.0 -0.5718956026
O  O104  1  0.00167000  0.81197000  0.76397000  1.0 -0.5718956026
O  O105  1  0.76397000  0.00167000  0.81197000  1.0 -0.5718956026
O  O106  1  0.81197000  0.76397000  0.00167000  1.0 -0.5718956026
O  O107  1  0.31197000  0.50167000  0.26397000  1.0 -0.5718956026
O  O108  1  0.50167000  0.26397000  0.31197000  1.0 -0.5718956026
O  O109  1  0.26397000  0.31197000  0.50167000  1.0 -0.5718956026
O  O110  1  0.99833000  0.18803000  0.23603000  1.0 -0.5718956026
O  O111  1  0.23603000  0.99833000  0.18803000  1.0 -0.5718956026
O  O112  1  0.18803000  0.23603000  0.99833000  1.0 -0.5718956026
O  O113  1  0.20569000  0.17489000  0.85639000  1.0 -0.4995623611
O  O114  1  0.17489000  0.85639000  0.20569000  1.0 -0.4995623611
O  O115  1  0.85639000  0.20569000  0.17489000  1.0 -0.4995623611
O  O116  1  0.32511000  0.29431000  0.64361000  1.0 -0.4995623611
O  O117  1  0.64361000  0.32511000  0.29431000  1.0 -0.4995623611
O  O118  1  0.29431000  0.64361000  0.32511000  1.0 -0.4995623611
O  O119  1  0.79431000  0.82511000  0.14361000  1.0 -0.4995623611
O  O120  1  0.82511000  0.14361000  0.79431000  1.0 -0.4995623611
O  O121  1  0.14361000  0.79431000  0.82511000  1.0 -0.4995623611
O  O122  1  0.67489000  0.70569000  0.35639000  1.0 -0.4995623611
O  O123  1  0.35639000  0.67489000  0.70569000  1.0 -0.4995623611
O  O124  1  0.70569000  0.35639000  0.67489000  1.0 -0.4995623611
O  O125  1  0.13468000  0.43728000  0.50868000  1.0 0.0897322411
O  O126  1  0.43728000  0.50868000  0.13468000  1.0 0.0822727495
O  O127  1  0.50868000  0.13468000  0.43728000  1.0 0.0897322411
O  O128  1  0.06272000  0.36532000  0.99132000  1.0 0.0897322411
O  O129  1  0.99132000  0.06272000  0.36532000  1.0 0.0897322411
O  O130  1  0.36532000  0.99132000  0.06272000  1.0 0.1011506758
O  O131  1  0.86532000  0.56272000  0.49132000  1.0 0.1011506758
O  O132  1  0.56272000  0.49132000  0.86532000  1.0 0.1011506758
O  O133  1  0.49132000  0.86532000  0.56272000  1.0 0.0897322411
O  O134  1  0.93728000  0.63468000  0.00868000  1.0 0.0897322411
O  O135  1  0.00868000  0.93728000  0.63468000  1.0 0.0897322411
O  O136  1  0.63468000  0.00868000  0.93728000  1.0 0.0897322411
O  O137  1  0.09716000  0.18846000  0.94076000  1.0 -0.4995623611
O  O138  1  0.18846000  0.94076000  0.09716000  1.0 -0.4995623611
O  O139  1  0.94076000  0.09716000  0.18846000  1.0 -0.4995623611
O  O140  1  0.31154000  0.40284000  0.55924000  1.0 -0.4995623611
O  O141  1  0.55924000  0.31154000  0.40284000  1.0 -0.4995623611
O  O142  1  0.40284000  0.55924000  0.31154000  1.0 -0.4995623611
O  O143  1  0.90284000  0.81154000  0.05924000  1.0 -0.4995623611
O  O144  1  0.81154000  0.05924000  0.90284000  1.0 -0.4995623611
O  O145  1  0.05924000  0.90284000  0.81154000  1.0 -0.4995623611
O  O146  1  0.68846000  0.59716000  0.44076000  1.0 -0.4995623611
O  O147  1  0.44076000  0.68846000  0.59716000  1.0 -0.4995623611
O  O148  1  0.59716000  0.44076000  0.68846000  1.0 -0.4995623611
O  O149  1  0.36557000  0.36557000  0.36557000  1.0 -0.9461597535
O  O150  1  0.13443000  0.13443000  0.13443000  1.0 -0.9461597535
O  O151  1  0.63443000  0.63443000  0.63443000  1.0 -0.9439982705
O  O152  1  0.86557000  0.86557000  0.86557000  1.0 -0.9461597535
