# DDEC6 charges by PACMAN v1.1 (https://github.com/mtap-research/PACMAN-charge/)
data_ZIKYIF_FSR_pacman
_symmetry_space_group_name_H-M   'P 1'
_cell_length_a   38.53580000
_cell_length_b   38.53580000
_cell_length_c   38.53580000
_cell_angle_alpha   33.09980000
_cell_angle_beta   33.09980000
_cell_angle_gamma   33.09980000
_symmetry_Int_Tables_number   1
_chemical_formula_structural   Th6C81N3O38
_chemical_formula_sum   'Th24 C324 N12 O152'
_cell_volume   15189.87427001
_cell_formula_units_Z   4
loop_
 _symmetry_equiv_pos_site_id
 _symmetry_equiv_pos_as_xyz
  1  'x, y, z'
loop_
 _atom_site_type_symbol
 _atom_site_label
 _atom_site_symmetry_multiplicity
 _atom_site_fract_x
 _atom_site_fract_y
 _atom_site_fract_z
 _atom_site_occupancy
 _atom_site_charge
Th  Th1  1  0.32142000  0.36929000  0.51974000  1.0 2.3179825
Th  Th2  1  0.36929000  0.51974000  0.32142000  1.0 2.3179825
Th  Th3  1  0.51974000  0.32142000  0.36929000  1.0 2.3179825
Th  Th4  1  0.13071000  0.17858000  0.98026000  1.0 2.3179825
Th  Th5  1  0.98026000  0.13071000  0.17858000  1.0 2.3179825
Th  Th6  1  0.17858000  0.98026000  0.13071000  1.0 2.3179825
Th  Th7  1  0.67858000  0.63071000  0.48026000  1.0 2.3179825
Th  Th8  1  0.63071000  0.48026000  0.67858000  1.0 2.3179825
Th  Th9  1  0.48026000  0.67858000  0.63071000  1.0 2.3179825
Th  Th10  1  0.86929000  0.82142000  0.01974000  1.0 2.3179825
Th  Th11  1  0.01974000  0.86929000  0.82142000  1.0 2.3179825
Th  Th12  1  0.82142000  0.01974000  0.86929000  1.0 2.3179825
Th  Th13  1  0.40894000  0.25809000  0.45582000  1.0 2.3469461056
Th  Th14  1  0.25809000  0.45582000  0.40894000  1.0 2.3469461056
Th  Th15  1  0.45582000  0.40894000  0.25809000  1.0 2.3469461056
Th  Th16  1  0.24191000  0.09106000  0.04418000  1.0 2.3469461056
Th  Th17  1  0.04418000  0.24191000  0.09106000  1.0 2.3469461056
Th  Th18  1  0.09106000  0.04418000  0.24191000  1.0 2.3469461056
Th  Th19  1  0.59106000  0.74191000  0.54418000  1.0 2.3469461056
Th  Th20  1  0.74191000  0.54418000  0.59106000  1.0 2.3469461056
Th  Th21  1  0.54418000  0.59106000  0.74191000  1.0 2.3469461056
Th  Th22  1  0.75809000  0.90894000  0.95582000  1.0 2.3469461056
Th  Th23  1  0.95582000  0.75809000  0.90894000  1.0 2.3469461056
Th  Th24  1  0.90894000  0.95582000  0.75809000  1.0 2.3469461056
C  C1  1  0.42213000  0.58403000  0.15413000  1.0 0.6593905872
C  C2  1  0.58403000  0.15413000  0.42213000  1.0 0.6593905872
C  C3  1  0.15413000  0.42213000  0.58403000  1.0 0.6593905872
C  C4  1  0.91597000  0.07787000  0.34587000  1.0 0.6593905872
C  C5  1  0.34587000  0.91597000  0.07787000  1.0 0.6593905872
C  C6  1  0.07787000  0.34587000  0.91597000  1.0 0.6593905872
C  C7  1  0.57787000  0.41597000  0.84587000  1.0 0.6593905872
C  C8  1  0.41597000  0.84587000  0.57787000  1.0 0.6593905872
C  C9  1  0.84587000  0.57787000  0.41597000  1.0 0.6593905872
C  C10  1  0.08403000  0.92213000  0.65413000  1.0 0.6593905872
C  C11  1  0.65413000  0.08403000  0.92213000  1.0 0.6593905872
C  C12  1  0.92213000  0.65413000  0.08403000  1.0 0.6593905872
C  C13  1  0.19424000  0.14934000  0.88034000  1.0 0.5827546619
C  C14  1  0.14934000  0.88034000  0.19424000  1.0 0.5827546619
C  C15  1  0.88034000  0.19424000  0.14934000  1.0 0.5827546619
C  C16  1  0.35066000  0.30576000  0.61966000  1.0 0.5827546619
C  C17  1  0.61966000  0.35066000  0.30576000  1.0 0.5827546619
C  C18  1  0.30576000  0.61966000  0.35066000  1.0 0.5827546619
C  C19  1  0.80576000  0.85066000  0.11966000  1.0 0.5827546619
C  C20  1  0.85066000  0.11966000  0.80576000  1.0 0.5827546619
C  C21  1  0.11966000  0.80576000  0.85066000  1.0 0.5827546619
C  C22  1  0.64934000  0.69424000  0.38034000  1.0 0.5827546619
C  C23  1  0.38034000  0.64934000  0.69424000  1.0 0.5827546619
C  C24  1  0.69424000  0.38034000  0.64934000  1.0 0.5827546619
C  C25  1  0.32827000  0.20307000  0.63177000  1.0 0.6593905872
C  C26  1  0.20307000  0.63177000  0.32827000  1.0 0.6593905872
C  C27  1  0.63177000  0.32827000  0.20307000  1.0 0.6593905872
C  C28  1  0.29693000  0.17173000  0.86823000  1.0 0.6593905872
C  C29  1  0.86823000  0.29693000  0.17173000  1.0 0.6593905872
C  C30  1  0.17173000  0.86823000  0.29693000  1.0 0.6593905872
C  C31  1  0.67173000  0.79693000  0.36823000  1.0 0.6593905872
C  C32  1  0.79693000  0.36823000  0.67173000  1.0 0.6593905872
C  C33  1  0.36823000  0.67173000  0.79693000  1.0 0.6593905872
C  C34  1  0.70307000  0.82827000  0.13177000  1.0 0.6593905872
C  C35  1  0.13177000  0.70307000  0.82827000  1.0 0.6593905872
C  C36  1  0.82827000  0.13177000  0.70307000  1.0 0.6593905872
C  C37  1  0.32104000  0.08534000  0.73564000  1.0 0.0125952755
C  C38  1  0.08534000  0.73564000  0.32104000  1.0 0.0125952755
C  C39  1  0.73564000  0.32104000  0.08534000  1.0 0.0125952755
C  C40  1  0.41466000  0.17896000  0.76436000  1.0 0.0125952755
C  C41  1  0.76436000  0.41466000  0.17896000  1.0 0.0125952755
C  C42  1  0.17896000  0.76436000  0.41466000  1.0 0.0125952755
C  C43  1  0.67896000  0.91466000  0.26436000  1.0 0.0125952755
C  C44  1  0.91466000  0.26436000  0.67896000  1.0 0.0125952755
C  C45  1  0.26436000  0.67896000  0.91466000  1.0 0.0125952755
C  C46  1  0.58534000  0.82104000  0.23564000  1.0 0.0125952755
C  C47  1  0.23564000  0.58534000  0.82104000  1.0 0.0125952755
C  C48  1  0.82104000  0.23564000  0.58534000  1.0 0.0125952755
C  C49  1  0.30305000  0.15145000  0.71035000  1.0 -0.0817878467
C  C50  1  0.15145000  0.71035000  0.30305000  1.0 -0.0817878467
C  C51  1  0.71035000  0.30305000  0.15145000  1.0 -0.0817878467
C  C52  1  0.34855000  0.19695000  0.78965000  1.0 -0.0817878467
C  C53  1  0.78965000  0.34855000  0.19695000  1.0 -0.0817878467
C  C54  1  0.19695000  0.78965000  0.34855000  1.0 -0.0817878467
C  C55  1  0.69695000  0.84855000  0.28965000  1.0 -0.0817878467
C  C56  1  0.84855000  0.28965000  0.69695000  1.0 -0.0817878467
C  C57  1  0.28965000  0.69695000  0.84855000  1.0 -0.0817878467
C  C58  1  0.65145000  0.80305000  0.21035000  1.0 -0.0817878467
C  C59  1  0.21035000  0.65145000  0.80305000  1.0 -0.0817878467
C  C60  1  0.80305000  0.21035000  0.65145000  1.0 -0.0817878467
C  C61  1  0.26135000  0.17195000  0.75795000  1.0 0.0820583567
C  C62  1  0.17195000  0.75795000  0.26135000  1.0 0.0820583567
C  C63  1  0.75795000  0.26135000  0.17195000  1.0 0.0820583567
C  C64  1  0.32805000  0.23865000  0.74205000  1.0 0.0820583567
C  C65  1  0.74205000  0.32805000  0.23865000  1.0 0.0820583567
C  C66  1  0.23865000  0.74205000  0.32805000  1.0 0.0820583567
C  C67  1  0.73865000  0.82805000  0.24205000  1.0 0.0820583567
C  C68  1  0.82805000  0.24205000  0.73865000  1.0 0.0820583567
C  C69  1  0.24205000  0.73865000  0.82805000  1.0 0.0820583567
C  C70  1  0.67195000  0.76135000  0.25795000  1.0 0.0820583567
C  C71  1  0.25795000  0.67195000  0.76135000  1.0 0.0820583567
C  C72  1  0.76135000  0.25795000  0.67195000  1.0 0.0820583567
C  C73  1  0.23784000  0.12624000  0.83074000  1.0 -0.0697397395
C  C74  1  0.12624000  0.83074000  0.23784000  1.0 -0.0697397395
C  C75  1  0.83074000  0.23784000  0.12624000  1.0 -0.0697397395
C  C76  1  0.37376000  0.26216000  0.66926000  1.0 -0.0697397395
C  C77  1  0.66926000  0.37376000  0.26216000  1.0 -0.0697397395
C  C78  1  0.26216000  0.66926000  0.37376000  1.0 -0.0697397395
C  C79  1  0.76216000  0.87376000  0.16926000  1.0 -0.0697397395
C  C80  1  0.87376000  0.16926000  0.76216000  1.0 -0.0697397395
C  C81  1  0.16926000  0.76216000  0.87376000  1.0 -0.0697397395
C  C82  1  0.62624000  0.73784000  0.33074000  1.0 -0.0697397395
C  C83  1  0.33074000  0.62624000  0.73784000  1.0 -0.0697397395
C  C84  1  0.73784000  0.33074000  0.62624000  1.0 -0.0697397395
C  C85  1  0.25574000  0.06024000  0.85604000  1.0 0.0368787291
C  C86  1  0.06024000  0.85604000  0.25574000  1.0 0.0368787291
C  C87  1  0.85604000  0.25574000  0.06024000  1.0 0.0368787291
C  C88  1  0.43976000  0.24426000  0.64396000  1.0 0.0368787291
C  C89  1  0.64396000  0.43976000  0.24426000  1.0 0.0368787291
C  C90  1  0.24426000  0.64396000  0.43976000  1.0 0.0317645825
C  C91  1  0.74426000  0.93976000  0.14396000  1.0 0.0368787291
C  C92  1  0.93976000  0.14396000  0.74426000  1.0 0.0368787291
C  C93  1  0.14396000  0.74426000  0.93976000  1.0 0.0368787291
C  C94  1  0.56024000  0.75574000  0.35604000  1.0 0.0368787291
C  C95  1  0.35604000  0.56024000  0.75574000  1.0 0.0368787291
C  C96  1  0.75574000  0.35604000  0.56024000  1.0 0.0368787291
C  C97  1  0.29744000  0.03974000  0.80844000  1.0 0.0317645825
C  C98  1  0.03974000  0.80844000  0.29744000  1.0 0.0317645825
C  C99  1  0.80844000  0.29744000  0.03974000  1.0 0.0317645825
C  C100  1  0.46026000  0.20256000  0.69156000  1.0 0.0317645825
C  C101  1  0.69156000  0.46026000  0.20256000  1.0 0.0317645825
C  C102  1  0.20256000  0.69156000  0.46026000  1.0 0.0317645825
C  C103  1  0.70256000  0.96026000  0.19156000  1.0 0.0317645825
C  C104  1  0.96026000  0.19156000  0.70256000  1.0 0.0317645825
C  C105  1  0.19156000  0.70256000  0.96026000  1.0 0.0317645825
C  C106  1  0.53974000  0.79744000  0.30844000  1.0 0.0317645825
C  C107  1  0.30844000  0.53974000  0.79744000  1.0 0.0317645825
C  C108  1  0.79744000  0.30844000  0.53974000  1.0 0.0317645825
C  C109  1  0.35893000  0.88843000  0.81783000  1.0 0.2229936282
C  C110  1  0.88843000  0.81783000  0.35893000  1.0 0.2296985713
C  C111  1  0.81783000  0.35893000  0.88843000  1.0 0.2229936282
C  C112  1  0.61157000  0.14107000  0.68217000  1.0 0.2296985713
C  C113  1  0.68217000  0.61157000  0.14107000  1.0 0.2296985713
C  C114  1  0.14107000  0.68217000  0.61157000  1.0 0.2229936282
C  C115  1  0.64107000  0.11157000  0.18217000  1.0 0.2296985713
C  C116  1  0.11157000  0.18217000  0.64107000  1.0 0.2229936282
C  C117  1  0.18217000  0.64107000  0.11157000  1.0 0.2229936282
C  C118  1  0.38843000  0.85893000  0.31783000  1.0 0.2296985713
C  C119  1  0.31783000  0.38843000  0.85893000  1.0 0.2229936282
C  C120  1  0.85893000  0.31783000  0.38843000  1.0 0.2296985713
C  C121  1  0.33499000  0.95629000  0.79509000  1.0 -0.2386272907
C  C122  1  0.95629000  0.79509000  0.33499000  1.0 -0.2386272907
C  C123  1  0.79509000  0.33499000  0.95629000  1.0 -0.2336109675
C  C124  1  0.54371000  0.16501000  0.70491000  1.0 -0.2336109675
C  C125  1  0.70491000  0.54371000  0.16501000  1.0 -0.2386272907
C  C126  1  0.16501000  0.70491000  0.54371000  1.0 -0.2336109675
C  C127  1  0.66501000  0.04371000  0.20491000  1.0 -0.2336109675
C  C128  1  0.04371000  0.20491000  0.66501000  1.0 -0.2336109675
C  C129  1  0.20491000  0.66501000  0.04371000  1.0 -0.2336109675
C  C130  1  0.45629000  0.83499000  0.29509000  1.0 -0.2336109675
C  C131  1  0.29509000  0.45629000  0.83499000  1.0 -0.2336109675
C  C132  1  0.83499000  0.29509000  0.45629000  1.0 -0.2386272907
C  C133  1  0.31840000  0.96750000  0.83470000  1.0 0.1013784631
C  C134  1  0.96750000  0.83470000  0.31840000  1.0 0.1013784631
C  C135  1  0.83470000  0.31840000  0.96750000  1.0 0.1013784631
C  C136  1  0.53250000  0.18160000  0.66530000  1.0 0.1013784631
C  C137  1  0.66530000  0.53250000  0.18160000  1.0 0.1013784631
C  C138  1  0.18160000  0.66530000  0.53250000  1.0 0.1013784631
C  C139  1  0.68160000  0.03250000  0.16530000  1.0 0.1013784631
C  C140  1  0.03250000  0.16530000  0.68160000  1.0 0.1013784631
C  C141  1  0.16530000  0.68160000  0.03250000  1.0 0.1013784631
C  C142  1  0.46750000  0.81840000  0.33470000  1.0 0.1013784631
C  C143  1  0.33470000  0.46750000  0.81840000  1.0 0.1013784631
C  C144  1  0.81840000  0.33470000  0.46750000  1.0 0.1013784631
C  C145  1  0.32585000  0.91085000  0.89695000  1.0 -0.206756825
C  C146  1  0.91085000  0.89695000  0.32585000  1.0 -0.201592387
C  C147  1  0.89695000  0.32585000  0.91085000  1.0 -0.206756825
C  C148  1  0.58915000  0.17415000  0.60305000  1.0 -0.201592387
C  C149  1  0.60305000  0.58915000  0.17415000  1.0 -0.206756825
C  C150  1  0.17415000  0.60305000  0.58915000  1.0 -0.206756825
C  C151  1  0.67415000  0.08915000  0.10305000  1.0 -0.206756825
C  C152  1  0.08915000  0.10305000  0.67415000  1.0 -0.206756825
C  C153  1  0.10305000  0.67415000  0.08915000  1.0 -0.206756825
C  C154  1  0.41085000  0.82585000  0.39695000  1.0 -0.206756825
C  C155  1  0.39695000  0.41085000  0.82585000  1.0 -0.206756825
C  C156  1  0.82585000  0.39695000  0.41085000  1.0 -0.201592387
C  C157  1  0.34988000  0.84298000  0.91958000  1.0 0.212843972
C  C158  1  0.84298000  0.91958000  0.34988000  1.0 0.212843972
C  C159  1  0.91958000  0.34988000  0.84298000  1.0 0.212843972
C  C160  1  0.65702000  0.15012000  0.58042000  1.0 0.212843972
C  C161  1  0.58042000  0.65702000  0.15012000  1.0 0.212843972
C  C162  1  0.15012000  0.58042000  0.65702000  1.0 0.212843972
C  C163  1  0.65012000  0.15702000  0.08042000  1.0 0.2229936282
C  C164  1  0.15702000  0.08042000  0.65012000  1.0 0.212843972
C  C165  1  0.08042000  0.65012000  0.15702000  1.0 0.212843972
C  C166  1  0.34298000  0.84988000  0.41958000  1.0 0.212843972
C  C167  1  0.41958000  0.34298000  0.84988000  1.0 0.212843972
C  C168  1  0.84988000  0.41958000  0.34298000  1.0 0.212843972
C  C169  1  0.37107000  0.80617000  0.82807000  1.0 -0.0157607779
C  C170  1  0.80617000  0.82807000  0.37107000  1.0 -0.0100439748
C  C171  1  0.82807000  0.37107000  0.80617000  1.0 -0.0100439748
C  C172  1  0.69383000  0.12893000  0.67193000  1.0 -0.0157607779
C  C173  1  0.67193000  0.69383000  0.12893000  1.0 -0.0100439748
C  C174  1  0.12893000  0.67193000  0.69383000  1.0 -0.0100439748
C  C175  1  0.62893000  0.19383000  0.17193000  1.0 -0.0100439748
C  C176  1  0.19383000  0.17193000  0.62893000  1.0 -0.0100439748
C  C177  1  0.17193000  0.62893000  0.19383000  1.0 -0.0100439748
C  C178  1  0.30617000  0.87107000  0.32807000  1.0 -0.0100439748
C  C179  1  0.32807000  0.30617000  0.87107000  1.0 -0.0157607779
C  C180  1  0.87107000  0.32807000  0.30617000  1.0 -0.0100439748
C  C181  1  0.40569000  0.77299000  0.79639000  1.0 0.0317645825
C  C182  1  0.77299000  0.79639000  0.40569000  1.0 0.0368787291
C  C183  1  0.79639000  0.40569000  0.77299000  1.0 0.0317645825
C  C184  1  0.72701000  0.09431000  0.70361000  1.0 0.0317645825
C  C185  1  0.70361000  0.72701000  0.09431000  1.0 0.0317645825
C  C186  1  0.09431000  0.70361000  0.72701000  1.0 0.0317645825
C  C187  1  0.59431000  0.22701000  0.20361000  1.0 0.0317645825
C  C188  1  0.22701000  0.20361000  0.59431000  1.0 0.0317645825
C  C189  1  0.20361000  0.59431000  0.22701000  1.0 0.0317645825
C  C190  1  0.27299000  0.90569000  0.29639000  1.0 0.0317645825
C  C191  1  0.29639000  0.27299000  0.90569000  1.0 0.0368787291
C  C192  1  0.90569000  0.29639000  0.27299000  1.0 0.0317645825
C  C193  1  0.44321000  0.80111000  0.72241000  1.0 -0.0553528257
C  C194  1  0.80111000  0.72241000  0.44321000  1.0 -0.0553528257
C  C195  1  0.72241000  0.44321000  0.80111000  1.0 -0.0553528257
C  C196  1  0.69889000  0.05679000  0.77759000  1.0 -0.0553528257
C  C197  1  0.77759000  0.69889000  0.05679000  1.0 -0.0553528257
C  C198  1  0.05679000  0.77759000  0.69889000  1.0 -0.0553528257
C  C199  1  0.55679000  0.19889000  0.27759000  1.0 -0.0553528257
C  C200  1  0.19889000  0.27759000  0.55679000  1.0 -0.0553528257
C  C201  1  0.27759000  0.55679000  0.19889000  1.0 -0.0553528257
C  C202  1  0.30111000  0.94321000  0.22241000  1.0 -0.0553528257
C  C203  1  0.22241000  0.30111000  0.94321000  1.0 -0.0546429627
C  C204  1  0.94321000  0.22241000  0.30111000  1.0 -0.0546429627
C  C205  1  0.44611000  0.86231000  0.68021000  1.0 -0.0037637034
C  C206  1  0.86231000  0.68021000  0.44611000  1.0 -0.0100439748
C  C207  1  0.68021000  0.44611000  0.86231000  1.0 -0.0037637034
C  C208  1  0.63769000  0.05389000  0.81979000  1.0 -0.0037637034
C  C209  1  0.81979000  0.63769000  0.05389000  1.0 -0.0100439748
C  C210  1  0.05389000  0.81979000  0.63769000  1.0 -0.0100439748
C  C211  1  0.55389000  0.13769000  0.31979000  1.0 -0.0037637034
C  C212  1  0.13769000  0.31979000  0.55389000  1.0 -0.0100439748
C  C213  1  0.31979000  0.55389000  0.13769000  1.0 -0.0037637034
C  C214  1  0.36231000  0.94611000  0.18021000  1.0 -0.0037637034
C  C215  1  0.18021000  0.36231000  0.94611000  1.0 -0.0100439748
C  C216  1  0.94611000  0.18021000  0.36231000  1.0 -0.0100439748
C  C217  1  0.41149000  0.89549000  0.71189000  1.0 -0.030378002
C  C218  1  0.89549000  0.71189000  0.41149000  1.0 -0.0367547147
C  C219  1  0.71189000  0.41149000  0.89549000  1.0 -0.030378002
C  C220  1  0.60451000  0.08851000  0.78811000  1.0 -0.030378002
C  C221  1  0.78811000  0.60451000  0.08851000  1.0 -0.030378002
C  C222  1  0.08851000  0.78811000  0.60451000  1.0 -0.030378002
C  C223  1  0.58851000  0.10451000  0.28811000  1.0 -0.030378002
C  C224  1  0.10451000  0.28811000  0.58851000  1.0 -0.030378002
C  C225  1  0.28811000  0.58851000  0.10451000  1.0 -0.030378002
C  C226  1  0.39549000  0.91149000  0.21189000  1.0 -0.030378002
C  C227  1  0.21189000  0.39549000  0.91149000  1.0 -0.030378002
C  C228  1  0.91149000  0.21189000  0.39549000  1.0 -0.030378002
C  C229  1  0.37396000  0.86746000  0.78576000  1.0 0.064157512
C  C230  1  0.86746000  0.78576000  0.37396000  1.0 0.0698798545
C  C231  1  0.78576000  0.37396000  0.86746000  1.0 0.064157512
C  C232  1  0.63254000  0.12604000  0.71424000  1.0 0.0698798545
C  C233  1  0.71424000  0.63254000  0.12604000  1.0 0.064157512
C  C234  1  0.12604000  0.71424000  0.63254000  1.0 0.064157512
C  C235  1  0.62604000  0.13254000  0.21424000  1.0 0.0698798545
C  C236  1  0.13254000  0.21424000  0.62604000  1.0 0.0698798545
C  C237  1  0.21424000  0.62604000  0.13254000  1.0 0.0698798545
C  C238  1  0.36746000  0.87396000  0.28576000  1.0 0.0698798545
C  C239  1  0.28576000  0.36746000  0.87396000  1.0 0.0698798545
C  C240  1  0.87396000  0.28576000  0.36746000  1.0 0.064157512
C  C241  1  0.49006000  0.75826000  0.68976000  1.0 0.6593905872
C  C242  1  0.75826000  0.68976000  0.49006000  1.0 0.6593905872
C  C243  1  0.68976000  0.49006000  0.75826000  1.0 0.6593905872
C  C244  1  0.74174000  0.00994000  0.81024000  1.0 0.6593905872
C  C245  1  0.81024000  0.74174000  0.00994000  1.0 0.6593905872
C  C246  1  0.00994000  0.81024000  0.74174000  1.0 0.6593905872
C  C247  1  0.50994000  0.24174000  0.31024000  1.0 0.6593905872
C  C248  1  0.24174000  0.31024000  0.50994000  1.0 0.6593905872
C  C249  1  0.31024000  0.50994000  0.24174000  1.0 0.6593905872
C  C250  1  0.25826000  0.99006000  0.18976000  1.0 0.6593905872
C  C251  1  0.18976000  0.25826000  0.99006000  1.0 0.6593905872
C  C252  1  0.99006000  0.18976000  0.25826000  1.0 0.6593905872
C  C253  1  0.36297000  0.77717000  0.98307000  1.0 0.0698798545
C  C254  1  0.77717000  0.98307000  0.36297000  1.0 0.0698798545
C  C255  1  0.98307000  0.36297000  0.77717000  1.0 0.0698798545
C  C256  1  0.72283000  0.13703000  0.51693000  1.0 0.0698798545
C  C257  1  0.51693000  0.72283000  0.13703000  1.0 0.0698798545
C  C258  1  0.13703000  0.51693000  0.72283000  1.0 0.0698798545
C  C259  1  0.63703000  0.22283000  0.01693000  1.0 0.0698798545
C  C260  1  0.22283000  0.01693000  0.63703000  1.0 0.0698798545
C  C261  1  0.01693000  0.63703000  0.22283000  1.0 0.0698798545
C  C262  1  0.27717000  0.86297000  0.48307000  1.0 0.0698798545
C  C263  1  0.48307000  0.27717000  0.86297000  1.0 0.0698798545
C  C264  1  0.86297000  0.48307000  0.27717000  1.0 0.0698798545
C  C265  1  0.40230000  0.71120000  0.98970000  1.0 -0.030378002
C  C266  1  0.71120000  0.98970000  0.40230000  1.0 -0.030378002
C  C267  1  0.98970000  0.40230000  0.71120000  1.0 -0.030378002
C  C268  1  0.78880000  0.09770000  0.51030000  1.0 -0.030378002
C  C269  1  0.51030000  0.78880000  0.09770000  1.0 -0.030378002
C  C270  1  0.09770000  0.51030000  0.78880000  1.0 -0.030378002
C  C271  1  0.59770000  0.28880000  0.01030000  1.0 -0.030378002
C  C272  1  0.28880000  0.01030000  0.59770000  1.0 -0.030378002
C  C273  1  0.01030000  0.59770000  0.28880000  1.0 -0.030378002
C  C274  1  0.21120000  0.90230000  0.48970000  1.0 -0.030378002
C  C275  1  0.48970000  0.21120000  0.90230000  1.0 -0.030378002
C  C276  1  0.90230000  0.48970000  0.21120000  1.0 -0.030378002
C  C277  1  0.42035000  0.64885000  0.04555000  1.0 0.0317645825
C  C278  1  0.64885000  0.04555000  0.42035000  1.0 0.0244983533
C  C279  1  0.04555000  0.42035000  0.64885000  1.0 0.0244983533
C  C280  1  0.85115000  0.07965000  0.45445000  1.0 0.0244983533
C  C281  1  0.45445000  0.85115000  0.07965000  1.0 0.0244983533
C  C282  1  0.07965000  0.45445000  0.85115000  1.0 0.0244983533
C  C283  1  0.57965000  0.35115000  0.95445000  1.0 0.0317645825
C  C284  1  0.35115000  0.95445000  0.57965000  1.0 0.0244983533
C  C285  1  0.95445000  0.57965000  0.35115000  1.0 0.0317645825
C  C286  1  0.14885000  0.92035000  0.54555000  1.0 0.0244983533
C  C287  1  0.54555000  0.14885000  0.92035000  1.0 0.0317645825
C  C288  1  0.92035000  0.54555000  0.14885000  1.0 0.0244983533
C  C289  1  0.39905000  0.65245000  0.09475000  1.0 -0.030378002
C  C290  1  0.65245000  0.09475000  0.39905000  1.0 -0.030378002
C  C291  1  0.09475000  0.39905000  0.65245000  1.0 -0.030378002
C  C292  1  0.84755000  0.10095000  0.40525000  1.0 -0.030378002
C  C293  1  0.40525000  0.84755000  0.10095000  1.0 -0.030378002
C  C294  1  0.10095000  0.40525000  0.84755000  1.0 -0.030378002
C  C295  1  0.60095000  0.34755000  0.90525000  1.0 -0.030378002
C  C296  1  0.34755000  0.90525000  0.60095000  1.0 -0.030378002
C  C297  1  0.90525000  0.60095000  0.34755000  1.0 -0.030378002
C  C298  1  0.15245000  0.89905000  0.59475000  1.0 -0.030378002
C  C299  1  0.59475000  0.15245000  0.89905000  1.0 -0.030378002
C  C300  1  0.89905000  0.59475000  0.15245000  1.0 -0.030378002
C  C301  1  0.35961000  0.71851000  0.08811000  1.0 0.0368787291
C  C302  1  0.71851000  0.08811000  0.35961000  1.0 0.0368787291
C  C303  1  0.08811000  0.35961000  0.71851000  1.0 0.0368787291
C  C304  1  0.78149000  0.14039000  0.41189000  1.0 0.0368787291
C  C305  1  0.41189000  0.78149000  0.14039000  1.0 0.0317645825
C  C306  1  0.14039000  0.41189000  0.78149000  1.0 0.0368787291
C  C307  1  0.64039000  0.28149000  0.91189000  1.0 0.0317645825
C  C308  1  0.28149000  0.91189000  0.64039000  1.0 0.0368787291
C  C309  1  0.91189000  0.64039000  0.28149000  1.0 0.0368787291
C  C310  1  0.21851000  0.85961000  0.58811000  1.0 0.0317645825
C  C311  1  0.58811000  0.21851000  0.85961000  1.0 0.0368787291
C  C312  1  0.85961000  0.58811000  0.21851000  1.0 0.0368787291
C  C313  1  0.34157000  0.78087000  0.03227000  1.0 -0.030378002
C  C314  1  0.78087000  0.03227000  0.34157000  1.0 -0.030378002
C  C315  1  0.03227000  0.34157000  0.78087000  1.0 -0.030378002
C  C316  1  0.71913000  0.15843000  0.46773000  1.0 -0.030378002
C  C317  1  0.46773000  0.71913000  0.15843000  1.0 -0.030378002
C  C318  1  0.15843000  0.46773000  0.71913000  1.0 -0.030378002
C  C319  1  0.65843000  0.21913000  0.96773000  1.0 -0.030378002
C  C320  1  0.21913000  0.96773000  0.65843000  1.0 -0.030378002
C  C321  1  0.96773000  0.65843000  0.21913000  1.0 -0.030378002
C  C322  1  0.28087000  0.84157000  0.53227000  1.0 -0.030378002
C  C323  1  0.53227000  0.28087000  0.84157000  1.0 -0.030378002
C  C324  1  0.84157000  0.53227000  0.28087000  1.0 -0.030378002
N  N1  1  0.36637000  0.83177000  0.88007000  1.0 -0.3021433525
N  N2  1  0.83177000  0.88007000  0.36637000  1.0 -0.3065732517
N  N3  1  0.88007000  0.36637000  0.83177000  1.0 -0.3021433525
N  N4  1  0.66823000  0.13363000  0.61993000  1.0 -0.3021433525
N  N5  1  0.61993000  0.66823000  0.13363000  1.0 -0.3065732517
N  N6  1  0.13363000  0.61993000  0.66823000  1.0 -0.3021433525
N  N7  1  0.63363000  0.16823000  0.11993000  1.0 -0.3065732517
N  N8  1  0.16823000  0.11993000  0.63363000  1.0 -0.3021433525
N  N9  1  0.11993000  0.63363000  0.16823000  1.0 -0.3021433525
N  N10  1  0.33177000  0.86637000  0.38007000  1.0 -0.3021433525
N  N11  1  0.38007000  0.33177000  0.86637000  1.0 -0.3021433525
N  N12  1  0.86637000  0.38007000  0.33177000  1.0 -0.3065732517
O  O1  1  0.43593000  0.26933000  0.48713000  1.0 -0.9667377486
O  O2  1  0.26933000  0.48713000  0.43593000  1.0 -0.9641610729
O  O3  1  0.48713000  0.43593000  0.26933000  1.0 -0.9667377486
O  O4  1  0.23067000  0.06407000  0.01287000  1.0 -0.9667377486
O  O5  1  0.01287000  0.23067000  0.06407000  1.0 -0.9667377486
O  O6  1  0.06407000  0.01287000  0.23067000  1.0 -0.9667377486
O  O7  1  0.56407000  0.73067000  0.51287000  1.0 -0.9667377486
O  O8  1  0.73067000  0.51287000  0.56407000  1.0 -0.9667377486
O  O9  1  0.51287000  0.56407000  0.73067000  1.0 -0.9641610729
O  O10  1  0.76933000  0.93593000  0.98713000  1.0 -0.9667377486
O  O11  1  0.98713000  0.76933000  0.93593000  1.0 -0.9667377486
O  O12  1  0.93593000  0.98713000  0.76933000  1.0 -0.9641610729
O  O13  1  0.31774000  0.35514000  0.47574000  1.0 -1.0684063183
O  O14  1  0.35514000  0.47574000  0.31774000  1.0 -1.0684063183
O  O15  1  0.47574000  0.31774000  0.35514000  1.0 -1.0684063183
O  O16  1  0.14486000  0.18226000  0.02426000  1.0 -1.0684063183
O  O17  1  0.02426000  0.14486000  0.18226000  1.0 -1.0684063183
O  O18  1  0.18226000  0.02426000  0.14486000  1.0 -1.0684063183
O  O19  1  0.68226000  0.64486000  0.52426000  1.0 -1.0684063183
O  O20  1  0.64486000  0.52426000  0.68226000  1.0 -1.0684063183
O  O21  1  0.52426000  0.68226000  0.64486000  1.0 -1.0684063183
O  O22  1  0.85514000  0.81774000  0.97574000  1.0 -1.0684063183
O  O23  1  0.97574000  0.85514000  0.81774000  1.0 -1.0684063183
O  O24  1  0.81774000  0.97574000  0.85514000  1.0 -1.0684063183
O  O25  1  0.43082000  0.13052000  0.51672000  1.0 0.1013784631
O  O26  1  0.13052000  0.51672000  0.43082000  1.0 0.1106025368
O  O27  1  0.51672000  0.43082000  0.13052000  1.0 0.1013784631
O  O28  1  0.36948000  0.06918000  0.98328000  1.0 0.1013784631
O  O29  1  0.98328000  0.36948000  0.06918000  1.0 0.1013784631
O  O30  1  0.06918000  0.98328000  0.36948000  1.0 0.1013784631
O  O31  1  0.56918000  0.86948000  0.48328000  1.0 0.1013784631
O  O32  1  0.86948000  0.48328000  0.56918000  1.0 0.1013784631
O  O33  1  0.48328000  0.56918000  0.86948000  1.0 0.1013784631
O  O34  1  0.63052000  0.93082000  0.01672000  1.0 0.1106025368
O  O35  1  0.01672000  0.63052000  0.93082000  1.0 0.1013784631
O  O36  1  0.93082000  0.01672000  0.63052000  1.0 0.1153866552
O  O37  1  0.26651000  0.46651000  0.53191000  1.0 -0.201592387
O  O38  1  0.46651000  0.53191000  0.26651000  1.0 -0.206756825
O  O39  1  0.53191000  0.26651000  0.46651000  1.0 -0.206756825
O  O40  1  0.03349000  0.23349000  0.96809000  1.0 -0.201592387
O  O41  1  0.96809000  0.03349000  0.23349000  1.0 -0.206756825
O  O42  1  0.23349000  0.96809000  0.03349000  1.0 -0.206756825
O  O43  1  0.73349000  0.53349000  0.46809000  1.0 -0.201592387
O  O44  1  0.53349000  0.46809000  0.73349000  1.0 -0.206756825
O  O45  1  0.46809000  0.73349000  0.53349000  1.0 -0.201592387
O  O46  1  0.96651000  0.76651000  0.03191000  1.0 -0.206756825
O  O47  1  0.03191000  0.96651000  0.76651000  1.0 -0.206756825
O  O48  1  0.76651000  0.03191000  0.96651000  1.0 -0.206756825
O  O49  1  0.45547000  0.52597000  0.15857000  1.0 -0.5375309217
O  O50  1  0.52597000  0.15857000  0.45547000  1.0 -0.5453556194
O  O51  1  0.15857000  0.45547000  0.52597000  1.0 -0.5453556194
O  O52  1  0.97403000  0.04453000  0.34143000  1.0 -0.5453556194
O  O53  1  0.34143000  0.97403000  0.04453000  1.0 -0.5453556194
O  O54  1  0.04453000  0.34143000  0.97403000  1.0 -0.5453556194
O  O55  1  0.54453000  0.47403000  0.84143000  1.0 -0.5453556194
O  O56  1  0.47403000  0.84143000  0.54453000  1.0 -0.5453556194
O  O57  1  0.84143000  0.54453000  0.47403000  1.0 -0.5375309217
O  O58  1  0.02597000  0.95547000  0.65857000  1.0 -0.5453556194
O  O59  1  0.65857000  0.02597000  0.95547000  1.0 -0.5453556194
O  O60  1  0.95547000  0.65857000  0.02597000  1.0 -0.5375309217
O  O61  1  0.49287000  0.69487000  0.73747000  1.0 -0.576526577
O  O62  1  0.69487000  0.73747000  0.49287000  1.0 -0.576526577
O  O63  1  0.73747000  0.49287000  0.69487000  1.0 -0.576526577
O  O64  1  0.80513000  0.00713000  0.76253000  1.0 -0.576526577
O  O65  1  0.76253000  0.80513000  0.00713000  1.0 -0.576526577
O  O66  1  0.00713000  0.76253000  0.80513000  1.0 -0.576526577
O  O67  1  0.50713000  0.30513000  0.26253000  1.0 -0.576526577
O  O68  1  0.30513000  0.26253000  0.50713000  1.0 -0.576526577
O  O69  1  0.26253000  0.50713000  0.30513000  1.0 -0.576526577
O  O70  1  0.19487000  0.99287000  0.23747000  1.0 -0.576526577
O  O71  1  0.23747000  0.19487000  0.99287000  1.0 -0.576526577
O  O72  1  0.99287000  0.23747000  0.19487000  1.0 -0.576526577
O  O73  1  0.40785000  0.40785000  0.40785000  1.0 -1.0317540713
O  O74  1  0.09215000  0.09215000  0.09215000  1.0 -1.0317540713
O  O75  1  0.59215000  0.59215000  0.59215000  1.0 -1.0317540713
O  O76  1  0.90785000  0.90785000  0.90785000  1.0 -1.0317540713
O  O77  1  0.36507000  0.18647000  0.58757000  1.0 -0.5300427772
O  O78  1  0.18647000  0.58757000  0.36507000  1.0 -0.5300427772
O  O79  1  0.58757000  0.36507000  0.18647000  1.0 -0.5300427772
O  O80  1  0.31353000  0.13493000  0.91243000  1.0 -0.5300427772
O  O81  1  0.91243000  0.31353000  0.13493000  1.0 -0.5300427772
O  O82  1  0.13493000  0.91243000  0.31353000  1.0 -0.5300427772
O  O83  1  0.63493000  0.81353000  0.41243000  1.0 -0.5300427772
O  O84  1  0.81353000  0.41243000  0.63493000  1.0 -0.5300427772
O  O85  1  0.41243000  0.63493000  0.81353000  1.0 -0.5300427772
O  O86  1  0.68647000  0.86507000  0.08757000  1.0 -0.5300427772
O  O87  1  0.08757000  0.68647000  0.86507000  1.0 -0.5300427772
O  O88  1  0.86507000  0.08757000  0.68647000  1.0 -0.5300427772
O  O89  1  0.17350000  0.21040000  0.85850000  1.0 -0.505562634
O  O90  1  0.21040000  0.85850000  0.17350000  1.0 -0.4977599586
O  O91  1  0.85850000  0.17350000  0.21040000  1.0 -0.505562634
O  O92  1  0.28960000  0.32650000  0.64150000  1.0 -0.505562634
O  O93  1  0.64150000  0.28960000  0.32650000  1.0 -0.505562634
O  O94  1  0.32650000  0.64150000  0.28960000  1.0 -0.505562634
O  O95  1  0.82650000  0.78960000  0.14150000  1.0 -0.505562634
O  O96  1  0.78960000  0.14150000  0.82650000  1.0 -0.505562634
O  O97  1  0.14150000  0.82650000  0.78960000  1.0 -0.505562634
O  O98  1  0.71040000  0.67350000  0.35850000  1.0 -0.505562634
O  O99  1  0.35850000  0.71040000  0.67350000  1.0 -0.505562634
O  O100  1  0.67350000  0.35850000  0.71040000  1.0 -0.4977599586
O  O101  1  0.30944000  0.26024000  0.61584000  1.0 -0.5600704101
O  O102  1  0.26024000  0.61584000  0.30944000  1.0 -0.5600704101
O  O103  1  0.61584000  0.30944000  0.26024000  1.0 -0.5600704101
O  O104  1  0.23976000  0.19056000  0.88416000  1.0 -0.5600704101
O  O105  1  0.88416000  0.23976000  0.19056000  1.0 -0.5600704101
O  O106  1  0.19056000  0.88416000  0.23976000  1.0 -0.5600704101
O  O107  1  0.69056000  0.73976000  0.38416000  1.0 -0.5600704101
O  O108  1  0.73976000  0.38416000  0.69056000  1.0 -0.5600704101
O  O109  1  0.38416000  0.69056000  0.73976000  1.0 -0.5600704101
O  O110  1  0.76024000  0.80944000  0.11584000  1.0 -0.5600704101
O  O111  1  0.11584000  0.76024000  0.80944000  1.0 -0.5600704101
O  O112  1  0.80944000  0.11584000  0.76024000  1.0 -0.5600704101
O  O113  1  0.18308000  0.10198000  0.94618000  1.0 -0.4940395047
O  O114  1  0.10198000  0.94618000  0.18308000  1.0 -0.4940395047
O  O115  1  0.94618000  0.18308000  0.10198000  1.0 -0.4940395047
O  O116  1  0.39802000  0.31692000  0.55382000  1.0 -0.4977599586
O  O117  1  0.55382000  0.39802000  0.31692000  1.0 -0.4977599586
O  O118  1  0.31692000  0.55382000  0.39802000  1.0 -0.4977599586
O  O119  1  0.81692000  0.89802000  0.05382000  1.0 -0.4977599586
O  O120  1  0.89802000  0.05382000  0.81692000  1.0 -0.4940395047
O  O121  1  0.05382000  0.81692000  0.89802000  1.0 -0.4940395047
O  O122  1  0.60198000  0.68308000  0.44618000  1.0 -0.4977599586
O  O123  1  0.44618000  0.60198000  0.68308000  1.0 -0.4940395047
O  O124  1  0.68308000  0.44618000  0.60198000  1.0 -0.4940395047
O  O125  1  0.40728000  0.59098000  0.19248000  1.0 -0.5300427772
O  O126  1  0.59098000  0.19248000  0.40728000  1.0 -0.5300427772
O  O127  1  0.19248000  0.40728000  0.59098000  1.0 -0.5300427772
O  O128  1  0.90902000  0.09272000  0.30752000  1.0 -0.5300427772
O  O129  1  0.30752000  0.90902000  0.09272000  1.0 -0.5300427772
O  O130  1  0.09272000  0.30752000  0.90902000  1.0 -0.5300427772
O  O131  1  0.59272000  0.40902000  0.80752000  1.0 -0.5300427772
O  O132  1  0.40902000  0.80752000  0.59272000  1.0 -0.5300427772
O  O133  1  0.80752000  0.59272000  0.40902000  1.0 -0.5300427772
O  O134  1  0.09098000  0.90728000  0.69248000  1.0 -0.5300427772
O  O135  1  0.69248000  0.09098000  0.90728000  1.0 -0.5300427772
O  O136  1  0.90728000  0.69248000  0.09098000  1.0 -0.5300427772
O  O137  1  0.52358000  0.78308000  0.62218000  1.0 -0.5375309217
O  O138  1  0.78308000  0.62218000  0.52358000  1.0 -0.5375309217
O  O139  1  0.62218000  0.52358000  0.78308000  1.0 -0.5375309217
O  O140  1  0.71692000  0.97642000  0.87782000  1.0 -0.5375309217
O  O141  1  0.87782000  0.71692000  0.97642000  1.0 -0.5375309217
O  O142  1  0.97642000  0.87782000  0.71692000  1.0 -0.5375309217
O  O143  1  0.47642000  0.21692000  0.37782000  1.0 -0.5375309217
O  O144  1  0.21692000  0.37782000  0.47642000  1.0 -0.5375309217
O  O145  1  0.37782000  0.47642000  0.21692000  1.0 -0.5375309217
O  O146  1  0.28308000  0.02358000  0.12218000  1.0 -0.5375309217
O  O147  1  0.12218000  0.28308000  0.02358000  1.0 -0.5375309217
O  O148  1  0.02358000  0.12218000  0.28308000  1.0 -0.5375309217
O  O149  1  0.36420000  0.36420000  0.36420000  1.0 -0.9428007104
O  O150  1  0.13580000  0.13580000  0.13580000  1.0 -0.9428007104
O  O151  1  0.63580000  0.63580000  0.63580000  1.0 -0.9428007104
O  O152  1  0.86420000  0.86420000  0.86420000  1.0 -0.9428007104
