# DDEC6 charges by PACMAN v1.1 (https://github.com/mtap-research/PACMAN-charge/)
data_ZIKYEB01_FSR_pacman
_symmetry_space_group_name_H-M   'P 1'
_cell_length_a   38.01870000
_cell_length_b   38.01870000
_cell_length_c   38.01870000
_cell_angle_alpha   34.01720000
_cell_angle_beta   34.01720000
_cell_angle_gamma   34.01720000
_symmetry_Int_Tables_number   1
_chemical_formula_structural   Th6C81N3O38
_chemical_formula_sum   'Th24 C324 N12 O152'
_cell_volume   15331.15853055
_cell_formula_units_Z   4
loop_
 _symmetry_equiv_pos_site_id
 _symmetry_equiv_pos_as_xyz
  1  'x, y, z'
loop_
 _atom_site_type_symbol
 _atom_site_label
 _atom_site_symmetry_multiplicity
 _atom_site_fract_x
 _atom_site_fract_y
 _atom_site_fract_z
 _atom_site_occupancy
 _atom_site_charge
Th  Th1  1  0.26064000  0.41356000  0.45264000  1.0 2.3367399239
Th  Th2  1  0.41356000  0.45264000  0.26064000  1.0 2.3367399239
Th  Th3  1  0.45264000  0.26064000  0.41356000  1.0 2.3306341596
Th  Th4  1  0.08644000  0.23936000  0.04736000  1.0 2.3367399239
Th  Th5  1  0.04736000  0.08644000  0.23936000  1.0 2.3306341596
Th  Th6  1  0.23936000  0.04736000  0.08644000  1.0 2.3306341596
Th  Th7  1  0.73936000  0.58644000  0.54736000  1.0 2.3306341596
Th  Th8  1  0.58644000  0.54736000  0.73936000  1.0 2.3306341596
Th  Th9  1  0.54736000  0.73936000  0.58644000  1.0 2.3306341596
Th  Th10  1  0.91356000  0.76064000  0.95264000  1.0 2.3306341596
Th  Th11  1  0.95264000  0.91356000  0.76064000  1.0 2.3367399239
Th  Th12  1  0.76064000  0.95264000  0.91356000  1.0 2.3367399239
Th  Th13  1  0.36762000  0.32741000  0.52100000  1.0 2.3306341596
Th  Th14  1  0.32741000  0.52100000  0.36762000  1.0 2.3306341596
Th  Th15  1  0.52100000  0.36762000  0.32741000  1.0 2.3306341596
Th  Th16  1  0.17259000  0.13238000  0.97900000  1.0 2.3306341596
Th  Th17  1  0.97900000  0.17259000  0.13238000  1.0 2.3306341596
Th  Th18  1  0.13238000  0.97900000  0.17259000  1.0 2.3306341596
Th  Th19  1  0.63238000  0.67259000  0.47900000  1.0 2.3306341596
Th  Th20  1  0.67259000  0.47900000  0.63238000  1.0 2.3306341596
Th  Th21  1  0.47900000  0.63238000  0.67259000  1.0 2.3306341596
Th  Th22  1  0.82741000  0.86762000  0.02100000  1.0 2.3306341596
Th  Th23  1  0.02100000  0.82741000  0.86762000  1.0 2.3306341596
Th  Th24  1  0.86762000  0.02100000  0.82741000  1.0 2.3306341596
C  C1  1  0.19948000  0.34148000  0.62608000  1.0 0.6536288006
C  C2  1  0.34148000  0.62608000  0.19948000  1.0 0.6536288006
C  C3  1  0.62608000  0.19948000  0.34148000  1.0 0.6536288006
C  C4  1  0.15852000  0.30052000  0.87392000  1.0 0.6536288006
C  C5  1  0.87392000  0.15852000  0.30052000  1.0 0.6536288006
C  C6  1  0.30052000  0.87392000  0.15852000  1.0 0.6536288006
C  C7  1  0.80052000  0.65852000  0.37392000  1.0 0.6536288006
C  C8  1  0.65852000  0.37392000  0.80052000  1.0 0.6536288006
C  C9  1  0.37392000  0.80052000  0.65852000  1.0 0.6536288006
C  C10  1  0.84148000  0.69948000  0.12608000  1.0 0.6536288006
C  C11  1  0.12608000  0.84148000  0.69948000  1.0 0.6536288006
C  C12  1  0.69948000  0.12608000  0.84148000  1.0 0.6536288006
C  C13  1  0.14619000  0.32029000  0.70269000  1.0 -0.0782254907
C  C14  1  0.32029000  0.70269000  0.14619000  1.0 -0.0782254907
C  C15  1  0.70269000  0.14619000  0.32029000  1.0 -0.0782254907
C  C16  1  0.17971000  0.35381000  0.79731000  1.0 -0.0782254907
C  C17  1  0.79731000  0.17971000  0.35381000  1.0 -0.0782254907
C  C18  1  0.35381000  0.79731000  0.17971000  1.0 -0.0782254907
C  C19  1  0.85381000  0.67971000  0.29731000  1.0 -0.0782254907
C  C20  1  0.67971000  0.29731000  0.85381000  1.0 -0.0782254907
C  C21  1  0.29731000  0.85381000  0.67971000  1.0 -0.0782254907
C  C22  1  0.82029000  0.64619000  0.20269000  1.0 -0.0782254907
C  C23  1  0.20269000  0.82029000  0.64619000  1.0 -0.0782254907
C  C24  1  0.64619000  0.20269000  0.82029000  1.0 -0.0782254907
C  C25  1  0.12080000  0.25130000  0.82320000  1.0 -0.0736584693
C  C26  1  0.25130000  0.82320000  0.12080000  1.0 -0.0782254907
C  C27  1  0.82320000  0.12080000  0.25130000  1.0 -0.0736584693
C  C28  1  0.24870000  0.37920000  0.67680000  1.0 -0.0782254907
C  C29  1  0.67680000  0.24870000  0.37920000  1.0 -0.0736584693
C  C30  1  0.37920000  0.67680000  0.24870000  1.0 -0.0736584693
C  C31  1  0.87920000  0.74870000  0.17680000  1.0 -0.0736584693
C  C32  1  0.74870000  0.17680000  0.87920000  1.0 -0.0736584693
C  C33  1  0.17680000  0.87920000  0.74870000  1.0 -0.0736584693
C  C34  1  0.75130000  0.62080000  0.32320000  1.0 -0.0736584693
C  C35  1  0.32320000  0.75130000  0.62080000  1.0 -0.0736584693
C  C36  1  0.62080000  0.32320000  0.75130000  1.0 -0.0736584693
C  C37  1  0.16665000  0.27345000  0.75295000  1.0 0.0875996069
C  C38  1  0.27345000  0.75295000  0.16665000  1.0 0.0875996069
C  C39  1  0.75295000  0.16665000  0.27345000  1.0 0.0875996069
C  C40  1  0.22655000  0.33333333  0.74705000  1.0 0.0875996069
C  C41  1  0.74705000  0.22655000  0.33333333  1.0 0.0875996069
C  C42  1  0.33333333  0.74705000  0.22655000  1.0 0.0875996069
C  C43  1  0.83335000  0.72655000  0.24705000  1.0 0.0875996069
C  C44  1  0.72655000  0.24705000  0.83335000  1.0 0.0875996069
C  C45  1  0.24705000  0.83335000  0.72655000  1.0 0.0875996069
C  C46  1  0.77345000  0.66666667  0.25295000  1.0 0.0875996069
C  C47  1  0.25295000  0.77345000  0.66666667  1.0 0.0875996069
C  C48  1  0.66666667  0.25295000  0.77345000  1.0 0.0875996069
C  C49  1  0.05140000  0.27800000  0.84550000  1.0 0.0495070854
C  C50  1  0.27800000  0.84550000  0.05140000  1.0 0.0495070854
C  C51  1  0.84550000  0.05140000  0.27800000  1.0 0.0495070854
C  C52  1  0.22200000  0.44860000  0.65450000  1.0 0.0495070854
C  C53  1  0.65450000  0.22200000  0.44860000  1.0 0.0495070854
C  C54  1  0.44860000  0.65450000  0.22200000  1.0 0.0495070854
C  C55  1  0.94860000  0.72200000  0.15450000  1.0 0.0495070854
C  C56  1  0.72200000  0.15450000  0.94860000  1.0 0.0495070854
C  C57  1  0.15450000  0.94860000  0.72200000  1.0 0.0495070854
C  C58  1  0.77800000  0.55140000  0.34550000  1.0 0.0495070854
C  C59  1  0.34550000  0.77800000  0.55140000  1.0 0.0495070854
C  C60  1  0.55140000  0.34550000  0.77800000  1.0 0.0495070854
C  C61  1  0.93844000  0.37554000  0.78244000  1.0 -0.2552300549
C  C62  1  0.37554000  0.78244000  0.93844000  1.0 -0.2482919014
C  C63  1  0.78244000  0.93844000  0.37554000  1.0 -0.2413596141
C  C64  1  0.12446000  0.56156000  0.71756000  1.0 -0.2482919014
C  C65  1  0.71756000  0.12446000  0.56156000  1.0 -0.2482919014
C  C66  1  0.56156000  0.71756000  0.12446000  1.0 -0.2413596141
C  C67  1  0.06156000  0.62446000  0.21756000  1.0 -0.2413596141
C  C68  1  0.62446000  0.21756000  0.06156000  1.0 -0.2413596141
C  C69  1  0.21756000  0.06156000  0.62446000  1.0 -0.2413596141
C  C70  1  0.87554000  0.43844000  0.28244000  1.0 -0.2413596141
C  C71  1  0.28244000  0.87554000  0.43844000  1.0 -0.2413596141
C  C72  1  0.43844000  0.28244000  0.87554000  1.0 -0.2413596141
C  C73  1  0.86853000  0.40203000  0.80783000  1.0 0.2268659739
C  C74  1  0.40203000  0.80783000  0.86853000  1.0 0.2211618011
C  C75  1  0.80783000  0.86853000  0.40203000  1.0 0.2211618011
C  C76  1  0.09797000  0.63147000  0.69217000  1.0 0.2268659739
C  C77  1  0.69217000  0.09797000  0.63147000  1.0 0.2268659739
C  C78  1  0.63147000  0.69217000  0.09797000  1.0 0.2211618011
C  C79  1  0.13147000  0.59797000  0.19217000  1.0 0.2211618011
C  C80  1  0.59797000  0.19217000  0.13147000  1.0 0.2268659739
C  C81  1  0.19217000  0.13147000  0.59797000  1.0 0.2211618011
C  C82  1  0.90203000  0.36853000  0.30783000  1.0 0.2211618011
C  C83  1  0.30783000  0.90203000  0.36853000  1.0 0.2211618011
C  C84  1  0.36853000  0.30783000  0.90203000  1.0 0.2211618011
C  C85  1  0.03001000  0.32631000  0.79551000  1.0 0.0190217494
C  C86  1  0.32631000  0.79551000  0.03001000  1.0 0.0301159133
C  C87  1  0.79551000  0.03001000  0.32631000  1.0 0.0301159133
C  C88  1  0.17369000  0.46999000  0.70449000  1.0 0.0301159133
C  C89  1  0.70449000  0.17369000  0.46999000  1.0 0.0190217494
C  C90  1  0.46999000  0.70449000  0.17369000  1.0 0.0301159133
C  C91  1  0.96999000  0.67369000  0.20449000  1.0 0.0301159133
C  C92  1  0.67369000  0.20449000  0.96999000  1.0 0.0190217494
C  C93  1  0.20449000  0.96999000  0.67369000  1.0 0.0190217494
C  C94  1  0.82631000  0.53001000  0.29551000  1.0 0.0301159133
C  C95  1  0.29551000  0.82631000  0.53001000  1.0 0.0301159133
C  C96  1  0.53001000  0.29551000  0.82631000  1.0 0.0301159133
C  C97  1  0.07822000  0.34682000  0.72382000  1.0 0.0190217494
C  C98  1  0.34682000  0.72382000  0.07822000  1.0 0.0190217494
C  C99  1  0.72382000  0.07822000  0.34682000  1.0 0.0190217494
C  C100  1  0.15318000  0.42178000  0.77618000  1.0 0.0190217494
C  C101  1  0.77618000  0.15318000  0.42178000  1.0 0.0190217494
C  C102  1  0.42178000  0.77618000  0.15318000  1.0 0.0190217494
C  C103  1  0.92178000  0.65318000  0.27618000  1.0 0.0190217494
C  C104  1  0.65318000  0.27618000  0.92178000  1.0 0.0190217494
C  C105  1  0.27618000  0.92178000  0.65318000  1.0 0.0190217494
C  C106  1  0.84682000  0.57822000  0.22382000  1.0 0.0190217494
C  C107  1  0.22382000  0.84682000  0.57822000  1.0 0.0190217494
C  C108  1  0.57822000  0.22382000  0.84682000  1.0 0.0190217494
C  C109  1  0.95554000  0.35764000  0.81864000  1.0 0.1003281175
C  C110  1  0.35764000  0.81864000  0.95554000  1.0 0.1003281175
C  C111  1  0.81864000  0.95554000  0.35764000  1.0 0.1003281175
C  C112  1  0.14236000  0.54446000  0.68136000  1.0 0.0875996069
C  C113  1  0.68136000  0.14236000  0.54446000  1.0 0.1003281175
C  C114  1  0.54446000  0.68136000  0.14236000  1.0 0.1003281175
C  C115  1  0.04446000  0.64236000  0.18136000  1.0 0.1003281175
C  C116  1  0.64236000  0.18136000  0.04446000  1.0 0.1003281175
C  C117  1  0.18136000  0.04446000  0.64236000  1.0 0.1003281175
C  C118  1  0.85764000  0.45554000  0.31864000  1.0 0.1003281175
C  C119  1  0.31864000  0.85764000  0.45554000  1.0 0.1003281175
C  C120  1  0.45554000  0.31864000  0.85764000  1.0 0.1003281175
C  C121  1  0.90223000  0.36463000  0.87993000  1.0 -0.2206879435
C  C122  1  0.36463000  0.87993000  0.90223000  1.0 -0.2283267177
C  C123  1  0.87993000  0.90223000  0.36463000  1.0 -0.2206879435
C  C124  1  0.13537000  0.59777000  0.62007000  1.0 -0.2149165726
C  C125  1  0.62007000  0.13537000  0.59777000  1.0 -0.2283267177
C  C126  1  0.59777000  0.62007000  0.13537000  1.0 -0.2283267177
C  C127  1  0.09777000  0.63537000  0.12007000  1.0 -0.2283267177
C  C128  1  0.63537000  0.12007000  0.09777000  1.0 -0.2206879435
C  C129  1  0.12007000  0.09777000  0.63537000  1.0 -0.2206879435
C  C130  1  0.86463000  0.40223000  0.37993000  1.0 -0.2206879435
C  C131  1  0.37993000  0.86463000  0.40223000  1.0 -0.2206879435
C  C132  1  0.40223000  0.37993000  0.86463000  1.0 -0.2206879435
C  C133  1  0.83361000  0.39251000  0.90141000  1.0 0.2211618011
C  C134  1  0.39251000  0.90141000  0.83361000  1.0 0.2211618011
C  C135  1  0.90141000  0.83361000  0.39251000  1.0 0.2211618011
C  C136  1  0.10749000  0.66639000  0.59859000  1.0 0.2211618011
C  C137  1  0.59859000  0.10749000  0.66639000  1.0 0.2211618011
C  C138  1  0.66639000  0.59859000  0.10749000  1.0 0.2268659739
C  C139  1  0.16639000  0.60749000  0.09859000  1.0 0.2268659739
C  C140  1  0.60749000  0.09859000  0.16639000  1.0 0.2211618011
C  C141  1  0.09859000  0.16639000  0.60749000  1.0 0.2211618011
C  C142  1  0.89251000  0.33361000  0.40141000  1.0 0.2211618011
C  C143  1  0.40141000  0.89251000  0.33361000  1.0 0.2211618011
C  C144  1  0.33361000  0.40141000  0.89251000  1.0 0.2211618011
C  C145  1  0.14332000  0.20172000  0.87642000  1.0 0.5734233456
C  C146  1  0.20172000  0.87642000  0.14332000  1.0 0.5734233456
C  C147  1  0.87642000  0.14332000  0.20172000  1.0 0.5734233456
C  C148  1  0.29828000  0.35668000  0.62358000  1.0 0.5750965022
C  C149  1  0.62358000  0.29828000  0.35668000  1.0 0.5734233456
C  C150  1  0.35668000  0.62358000  0.29828000  1.0 0.5734233456
C  C151  1  0.85668000  0.79828000  0.12358000  1.0 0.5734233456
C  C152  1  0.79828000  0.12358000  0.85668000  1.0 0.5734233456
C  C153  1  0.12358000  0.85668000  0.79828000  1.0 0.5734233456
C  C154  1  0.70172000  0.64332000  0.37642000  1.0 0.5734233456
C  C155  1  0.37642000  0.70172000  0.64332000  1.0 0.5734233456
C  C156  1  0.64332000  0.37642000  0.70172000  1.0 0.5734233456
C  C157  1  0.87881000  0.43911000  0.70731000  1.0 -0.0209555967
C  C158  1  0.43911000  0.70731000  0.87881000  1.0 -0.0209555967
C  C159  1  0.70731000  0.87881000  0.43911000  1.0 -0.0209555967
C  C160  1  0.06089000  0.62119000  0.79269000  1.0 -0.0209555967
C  C161  1  0.79269000  0.06089000  0.62119000  1.0 -0.0209555967
C  C162  1  0.62119000  0.79269000  0.06089000  1.0 -0.0209555967
C  C163  1  0.12119000  0.56089000  0.29269000  1.0 -0.0209555967
C  C164  1  0.56089000  0.29269000  0.12119000  1.0 -0.0209555967
C  C165  1  0.29269000  0.12119000  0.56089000  1.0 -0.0209555967
C  C166  1  0.93911000  0.37881000  0.20731000  1.0 -0.0209555967
C  C167  1  0.20731000  0.93911000  0.37881000  1.0 -0.0209555967
C  C168  1  0.37881000  0.20731000  0.93911000  1.0 -0.0209555967
C  C169  1  0.84246000  0.42486000  0.77516000  1.0 0.0301159133
C  C170  1  0.42486000  0.77516000  0.84246000  1.0 0.0301159133
C  C171  1  0.77516000  0.84246000  0.42486000  1.0 0.0301159133
C  C172  1  0.07514000  0.65754000  0.72484000  1.0 0.0301159133
C  C173  1  0.72484000  0.07514000  0.65754000  1.0 0.0301159133
C  C174  1  0.65754000  0.72484000  0.07514000  1.0 0.0301159133
C  C175  1  0.15754000  0.57514000  0.22484000  1.0 0.0301159133
C  C176  1  0.57514000  0.22484000  0.15754000  1.0 0.0301159133
C  C177  1  0.22484000  0.15754000  0.57514000  1.0 0.0353450889
C  C178  1  0.92486000  0.34246000  0.27516000  1.0 0.0301159133
C  C179  1  0.27516000  0.92486000  0.34246000  1.0 0.0301159133
C  C180  1  0.34246000  0.27516000  0.92486000  1.0 0.0353450889
C  C181  1  0.70445000  0.43705000  0.97835000  1.0 -0.026002702
C  C182  1  0.43705000  0.97835000  0.70445000  1.0 -0.0209555967
C  C183  1  0.97835000  0.70445000  0.43705000  1.0 -0.0209555967
C  C184  1  0.06295000  0.79555000  0.52165000  1.0 -0.0209555967
C  C185  1  0.52165000  0.06295000  0.79555000  1.0 -0.0209555967
C  C186  1  0.79555000  0.52165000  0.06295000  1.0 -0.0209555967
C  C187  1  0.29555000  0.56295000  0.02165000  1.0 -0.0209555967
C  C188  1  0.56295000  0.02165000  0.29555000  1.0 -0.0209555967
C  C189  1  0.02165000  0.29555000  0.56295000  1.0 -0.0209555967
C  C190  1  0.93705000  0.20445000  0.47835000  1.0 -0.0209555967
C  C191  1  0.47835000  0.93705000  0.20445000  1.0 -0.0209555967
C  C192  1  0.20445000  0.47835000  0.93705000  1.0 -0.0209555967
C  C193  1  0.77201000  0.39901000  0.96761000  1.0 0.0495070854
C  C194  1  0.39901000  0.96761000  0.77201000  1.0 0.0495070854
C  C195  1  0.96761000  0.77201000  0.39901000  1.0 0.0495070854
C  C196  1  0.10099000  0.72799000  0.53239000  1.0 0.0495070854
C  C197  1  0.53239000  0.10099000  0.72799000  1.0 0.0495070854
C  C198  1  0.72799000  0.53239000  0.10099000  1.0 0.0495070854
C  C199  1  0.22799000  0.60099000  0.03239000  1.0 0.0495070854
C  C200  1  0.60099000  0.03239000  0.22799000  1.0 0.0495070854
C  C201  1  0.03239000  0.22799000  0.60099000  1.0 0.0495070854
C  C202  1  0.89901000  0.27201000  0.46761000  1.0 0.0495070854
C  C203  1  0.46761000  0.89901000  0.27201000  1.0 0.0495070854
C  C204  1  0.27201000  0.46761000  0.89901000  1.0 0.0495070854
C  C205  1  0.77990000  0.36100000  0.02410000  1.0 -0.0094604552
C  C206  1  0.36100000  0.02410000  0.77990000  1.0 -0.0094604552
C  C207  1  0.02410000  0.77990000  0.36100000  1.0 -0.0094604552
C  C208  1  0.13900000  0.72010000  0.47590000  1.0 -0.0094604552
C  C209  1  0.47590000  0.13900000  0.72010000  1.0 -0.0094604552
C  C210  1  0.72010000  0.47590000  0.13900000  1.0 -0.0094604552
C  C211  1  0.22010000  0.63900000  0.97590000  1.0 -0.0094604552
C  C212  1  0.63900000  0.97590000  0.22010000  1.0 -0.0094604552
C  C213  1  0.97590000  0.22010000  0.63900000  1.0 -0.0094604552
C  C214  1  0.86100000  0.27990000  0.52410000  1.0 -0.0094604552
C  C215  1  0.52410000  0.86100000  0.27990000  1.0 -0.0094604552
C  C216  1  0.27990000  0.52410000  0.86100000  1.0 -0.0094604552
C  C217  1  0.77740000  0.43130000  0.81530000  1.0 -0.0209555967
C  C218  1  0.43130000  0.81530000  0.77740000  1.0 -0.0094604552
C  C219  1  0.81530000  0.77740000  0.43130000  1.0 -0.0209555967
C  C220  1  0.06870000  0.72260000  0.68470000  1.0 -0.0209555967
C  C221  1  0.68470000  0.06870000  0.72260000  1.0 -0.0094604552
C  C222  1  0.72260000  0.68470000  0.06870000  1.0 -0.0209555967
C  C223  1  0.22260000  0.56870000  0.18470000  1.0 -0.0209555967
C  C224  1  0.56870000  0.18470000  0.22260000  1.0 -0.0209555967
C  C225  1  0.18470000  0.22260000  0.56870000  1.0 -0.0209555967
C  C226  1  0.93130000  0.27740000  0.31530000  1.0 -0.0209555967
C  C227  1  0.31530000  0.93130000  0.27740000  1.0 -0.0209555967
C  C228  1  0.27740000  0.31530000  0.93130000  1.0 -0.0209555967
C  C229  1  0.78195000  0.47115000  0.71945000  1.0 -0.0736584693
C  C230  1  0.47115000  0.71945000  0.78195000  1.0 -0.0736584693
C  C231  1  0.71945000  0.78195000  0.47115000  1.0 -0.0782254907
C  C232  1  0.02885000  0.71805000  0.78055000  1.0 -0.0782254907
C  C233  1  0.78055000  0.02885000  0.71805000  1.0 -0.0736584693
C  C234  1  0.71805000  0.78055000  0.02885000  1.0 -0.0782254907
C  C235  1  0.21805000  0.52885000  0.28055000  1.0 -0.0782254907
C  C236  1  0.52885000  0.28055000  0.21805000  1.0 -0.0782254907
C  C237  1  0.28055000  0.21805000  0.52885000  1.0 -0.0782254907
C  C238  1  0.97115000  0.28195000  0.21945000  1.0 -0.0736584693
C  C239  1  0.21945000  0.97115000  0.28195000  1.0 -0.0736584693
C  C240  1  0.28195000  0.21945000  0.97115000  1.0 -0.0736584693
C  C241  1  0.65186000  0.41596000  0.09106000  1.0 -0.0558277971
C  C242  1  0.41596000  0.09106000  0.65186000  1.0 -0.0558277971
C  C243  1  0.09106000  0.65186000  0.41596000  1.0 -0.0558277971
C  C244  1  0.08404000  0.84814000  0.40894000  1.0 -0.0558277971
C  C245  1  0.40894000  0.08404000  0.84814000  1.0 -0.0548638857
C  C246  1  0.84814000  0.40894000  0.08404000  1.0 -0.0558277971
C  C247  1  0.34814000  0.58404000  0.90894000  1.0 -0.0558277971
C  C248  1  0.58404000  0.90894000  0.34814000  1.0 -0.0558277971
C  C249  1  0.90894000  0.34814000  0.58404000  1.0 -0.0548638857
C  C250  1  0.91596000  0.15186000  0.59106000  1.0 -0.0558277971
C  C251  1  0.59106000  0.91596000  0.15186000  1.0 -0.0558277971
C  C252  1  0.15186000  0.59106000  0.91596000  1.0 -0.0558277971
C  C253  1  0.84891000  0.46371000  0.67781000  1.0 0.0495070854
C  C254  1  0.46371000  0.67781000  0.84891000  1.0 0.0495070854
C  C255  1  0.67781000  0.84891000  0.46371000  1.0 0.0495070854
C  C256  1  0.03629000  0.65109000  0.82219000  1.0 0.0495070854
C  C257  1  0.82219000  0.03629000  0.65109000  1.0 0.0495070854
C  C258  1  0.65109000  0.82219000  0.03629000  1.0 0.0495070854
C  C259  1  0.15109000  0.53629000  0.32219000  1.0 0.0495070854
C  C260  1  0.53629000  0.32219000  0.15109000  1.0 0.0495070854
C  C261  1  0.32219000  0.15109000  0.53629000  1.0 0.0495070854
C  C262  1  0.96371000  0.34891000  0.17781000  1.0 0.0495070854
C  C263  1  0.17781000  0.96371000  0.34891000  1.0 0.0495070854
C  C264  1  0.34891000  0.17781000  0.96371000  1.0 0.0495070854
C  C265  1  0.71880000  0.37600000  0.08280000  1.0 0.0774593959
C  C266  1  0.37600000  0.08280000  0.71880000  1.0 0.0774593959
C  C267  1  0.08280000  0.71880000  0.37600000  1.0 0.0741068764
C  C268  1  0.12400000  0.78120000  0.41720000  1.0 0.0774593959
C  C269  1  0.41720000  0.12400000  0.78120000  1.0 0.0741068764
C  C270  1  0.78120000  0.41720000  0.12400000  1.0 0.0774593959
C  C271  1  0.28120000  0.62400000  0.91720000  1.0 0.0741068764
C  C272  1  0.62400000  0.91720000  0.28120000  1.0 0.0741068764
C  C273  1  0.91720000  0.28120000  0.62400000  1.0 0.0774593959
C  C274  1  0.87600000  0.21880000  0.58280000  1.0 0.0774593959
C  C275  1  0.58280000  0.87600000  0.21880000  1.0 0.0741068764
C  C276  1  0.21880000  0.58280000  0.87600000  1.0 0.0741068764
C  C277  1  0.64517000  0.44497000  0.03997000  1.0 0.0190217494
C  C278  1  0.44497000  0.03997000  0.64517000  1.0 0.0190217494
C  C279  1  0.03997000  0.64517000  0.44497000  1.0 0.0190217494
C  C280  1  0.05503000  0.85483000  0.46003000  1.0 0.0190217494
C  C281  1  0.46003000  0.05503000  0.85483000  1.0 0.0190217494
C  C282  1  0.85483000  0.46003000  0.05503000  1.0 0.0139605107
C  C283  1  0.35483000  0.55503000  0.96003000  1.0 0.0139605107
C  C284  1  0.55503000  0.96003000  0.35483000  1.0 0.0139605107
C  C285  1  0.96003000  0.35483000  0.55503000  1.0 0.0190217494
C  C286  1  0.94497000  0.14517000  0.53997000  1.0 0.0190217494
C  C287  1  0.53997000  0.94497000  0.14517000  1.0 0.0139605107
C  C288  1  0.14517000  0.53997000  0.94497000  1.0 0.0139605107
C  C289  1  0.74760000  0.45470000  0.78660000  1.0 0.0301159133
C  C290  1  0.45470000  0.78660000  0.74760000  1.0 0.0190217494
C  C291  1  0.78660000  0.74760000  0.45470000  1.0 0.0301159133
C  C292  1  0.04530000  0.75240000  0.71340000  1.0 0.0301159133
C  C293  1  0.71340000  0.04530000  0.75240000  1.0 0.0301159133
C  C294  1  0.75240000  0.71340000  0.04530000  1.0 0.0301159133
C  C295  1  0.25240000  0.54530000  0.21340000  1.0 0.0301159133
C  C296  1  0.54530000  0.21340000  0.25240000  1.0 0.0301159133
C  C297  1  0.21340000  0.25240000  0.54530000  1.0 0.0301159133
C  C298  1  0.95470000  0.24760000  0.28660000  1.0 0.0301159133
C  C299  1  0.28660000  0.95470000  0.24760000  1.0 0.0301159133
C  C300  1  0.24760000  0.28660000  0.95470000  1.0 0.0301159133
C  C301  1  0.74667000  0.49977000  0.69077000  1.0 0.662899866
C  C302  1  0.49977000  0.69077000  0.74667000  1.0 0.662899866
C  C303  1  0.69077000  0.74667000  0.49977000  1.0 0.662899866
C  C304  1  0.00023000  0.75333000  0.80923000  1.0 0.662899866
C  C305  1  0.80923000  0.00023000  0.75333000  1.0 0.662899866
C  C306  1  0.75333000  0.80923000  0.00023000  1.0 0.662899866
C  C307  1  0.25333000  0.50023000  0.30923000  1.0 0.662899866
C  C308  1  0.50023000  0.30923000  0.25333000  1.0 0.662899866
C  C309  1  0.30923000  0.25333000  0.50023000  1.0 0.662899866
C  C310  1  0.99977000  0.24667000  0.19077000  1.0 0.662899866
C  C311  1  0.19077000  0.99977000  0.24667000  1.0 0.662899866
C  C312  1  0.24667000  0.19077000  0.99977000  1.0 0.662899866
C  C313  1  0.58742000  0.42242000  0.15762000  1.0 0.662899866
C  C314  1  0.42242000  0.15762000  0.58742000  1.0 0.665001645
C  C315  1  0.15762000  0.58742000  0.42242000  1.0 0.665001645
C  C316  1  0.07758000  0.91258000  0.34238000  1.0 0.662899866
C  C317  1  0.34238000  0.07758000  0.91258000  1.0 0.662899866
C  C318  1  0.91258000  0.34238000  0.07758000  1.0 0.662899866
C  C319  1  0.41258000  0.57758000  0.84238000  1.0 0.662899866
C  C320  1  0.57758000  0.84238000  0.41258000  1.0 0.662899866
C  C321  1  0.84238000  0.41258000  0.57758000  1.0 0.662899866
C  C322  1  0.92242000  0.08742000  0.65762000  1.0 0.662899866
C  C323  1  0.65762000  0.92242000  0.08742000  1.0 0.662899866
C  C324  1  0.08742000  0.65762000  0.92242000  1.0 0.665001645
N  N1  1  0.81703000  0.41013000  0.86653000  1.0 -0.3168644763
N  N2  1  0.41013000  0.86653000  0.81703000  1.0 -0.311659451
N  N3  1  0.86653000  0.81703000  0.41013000  1.0 -0.3168644763
N  N4  1  0.08987000  0.68297000  0.63347000  1.0 -0.3168644763
N  N5  1  0.63347000  0.08987000  0.68297000  1.0 -0.311659451
N  N6  1  0.68297000  0.63347000  0.08987000  1.0 -0.311659451
N  N7  1  0.18297000  0.58987000  0.13347000  1.0 -0.311659451
N  N8  1  0.58987000  0.13347000  0.18297000  1.0 -0.311659451
N  N9  1  0.13347000  0.18297000  0.58987000  1.0 -0.311659451
N  N10  1  0.91013000  0.31703000  0.36653000  1.0 -0.311659451
N  N11  1  0.36653000  0.91013000  0.31703000  1.0 -0.311659451
N  N12  1  0.31703000  0.36653000  0.91013000  1.0 -0.311659451
O  O1  1  0.27244000  0.44134000  0.48434000  1.0 -0.9516718299
O  O2  1  0.44134000  0.48434000  0.27244000  1.0 -0.96016464
O  O3  1  0.48434000  0.27244000  0.44134000  1.0 -0.96016464
O  O4  1  0.05866000  0.22756000  0.01566000  1.0 -0.9516718299
O  O5  1  0.01566000  0.05866000  0.22756000  1.0 -0.9516718299
O  O6  1  0.22756000  0.01566000  0.05866000  1.0 -0.9516718299
O  O7  1  0.72756000  0.55866000  0.51566000  1.0 -0.96016464
O  O8  1  0.55866000  0.51566000  0.72756000  1.0 -0.96016464
O  O9  1  0.51566000  0.72756000  0.55866000  1.0 -0.9516718299
O  O10  1  0.94134000  0.77244000  0.98434000  1.0 -0.9516718299
O  O11  1  0.98434000  0.94134000  0.77244000  1.0 -0.96016464
O  O12  1  0.77244000  0.98434000  0.94134000  1.0 -0.9516718299
O  O13  1  0.18398000  0.37718000  0.58158000  1.0 -0.5243230146
O  O14  1  0.37718000  0.58158000  0.18398000  1.0 -0.5243230146
O  O15  1  0.58158000  0.18398000  0.37718000  1.0 -0.5243230146
O  O16  1  0.12282000  0.31602000  0.91842000  1.0 -0.5243230146
O  O17  1  0.91842000  0.12282000  0.31602000  1.0 -0.5243230146
O  O18  1  0.31602000  0.91842000  0.12282000  1.0 -0.5243230146
O  O19  1  0.81602000  0.62282000  0.41842000  1.0 -0.5243230146
O  O20  1  0.62282000  0.41842000  0.81602000  1.0 -0.5243230146
O  O21  1  0.41842000  0.81602000  0.62282000  1.0 -0.5243230146
O  O22  1  0.87718000  0.68398000  0.08158000  1.0 -0.5243230146
O  O23  1  0.08158000  0.87718000  0.68398000  1.0 -0.5243230146
O  O24  1  0.68398000  0.08158000  0.87718000  1.0 -0.5243230146
O  O25  1  0.25607000  0.31997000  0.61377000  1.0 -0.5567595816
O  O26  1  0.31997000  0.61377000  0.25607000  1.0 -0.5567595816
O  O27  1  0.61377000  0.25607000  0.31997000  1.0 -0.554944799
O  O28  1  0.18003000  0.24393000  0.88623000  1.0 -0.5567595816
O  O29  1  0.88623000  0.18003000  0.24393000  1.0 -0.5567595816
O  O30  1  0.24393000  0.88623000  0.18003000  1.0 -0.5567595816
O  O31  1  0.74393000  0.68003000  0.38623000  1.0 -0.5567595816
O  O32  1  0.68003000  0.38623000  0.74393000  1.0 -0.5567595816
O  O33  1  0.38623000  0.74393000  0.68003000  1.0 -0.5567595816
O  O34  1  0.81997000  0.75607000  0.11377000  1.0 -0.5567595816
O  O35  1  0.11377000  0.81997000  0.75607000  1.0 -0.5567595816
O  O36  1  0.75607000  0.11377000  0.81997000  1.0 -0.5567595816
O  O37  1  0.59538000  0.39968000  0.20108000  1.0 -0.5349129892
O  O38  1  0.39968000  0.20108000  0.59538000  1.0 -0.5377984582
O  O39  1  0.20108000  0.59538000  0.39968000  1.0 -0.5377984582
O  O40  1  0.10032000  0.90462000  0.29892000  1.0 -0.5377984582
O  O41  1  0.29892000  0.10032000  0.90462000  1.0 -0.5377984582
O  O42  1  0.90462000  0.29892000  0.10032000  1.0 -0.5377984582
O  O43  1  0.40462000  0.60032000  0.79892000  1.0 -0.5377984582
O  O44  1  0.60032000  0.79892000  0.40462000  1.0 -0.5377984582
O  O45  1  0.79892000  0.40462000  0.60032000  1.0 -0.5349129892
O  O46  1  0.89968000  0.09538000  0.70108000  1.0 -0.5377984582
O  O47  1  0.70108000  0.89968000  0.09538000  1.0 -0.5377984582
O  O48  1  0.09538000  0.70108000  0.89968000  1.0 -0.5377984582
O  O49  1  0.77679000  0.52269000  0.62609000  1.0 -0.5243230146
O  O50  1  0.52269000  0.62609000  0.77679000  1.0 -0.5243230146
O  O51  1  0.62609000  0.77679000  0.52269000  1.0 -0.5243230146
O  O52  1  0.97731000  0.72321000  0.87391000  1.0 -0.5243230146
O  O53  1  0.87391000  0.97731000  0.72321000  1.0 -0.5243230146
O  O54  1  0.72321000  0.87391000  0.97731000  1.0 -0.5243230146
O  O55  1  0.22321000  0.47731000  0.37391000  1.0 -0.5243230146
O  O56  1  0.47731000  0.37391000  0.22321000  1.0 -0.5243230146
O  O57  1  0.37391000  0.22321000  0.47731000  1.0 -0.5243230146
O  O58  1  0.02269000  0.27679000  0.12609000  1.0 -0.5243230146
O  O59  1  0.12609000  0.02269000  0.27679000  1.0 -0.5243230146
O  O60  1  0.27679000  0.12609000  0.02269000  1.0 -0.5243230146
O  O61  1  0.53091000  0.45041000  0.16421000  1.0 -0.5377984582
O  O62  1  0.45041000  0.16421000  0.53091000  1.0 -0.5377984582
O  O63  1  0.16421000  0.53091000  0.45041000  1.0 -0.5377984582
O  O64  1  0.04959000  0.96909000  0.33579000  1.0 -0.5377984582
O  O65  1  0.33579000  0.04959000  0.96909000  1.0 -0.5377984582
O  O66  1  0.96909000  0.33579000  0.04959000  1.0 -0.5377984582
O  O67  1  0.46909000  0.54959000  0.83579000  1.0 -0.5377984582
O  O68  1  0.54959000  0.83579000  0.46909000  1.0 -0.5377984582
O  O69  1  0.83579000  0.46909000  0.54959000  1.0 -0.5377984582
O  O70  1  0.95041000  0.03091000  0.66421000  1.0 -0.5377984582
O  O71  1  0.66421000  0.95041000  0.03091000  1.0 -0.5377984582
O  O72  1  0.03091000  0.66421000  0.95041000  1.0 -0.5377984582
O  O73  1  0.35453000  0.32243000  0.47673000  1.0 -1.0547610975
O  O74  1  0.32243000  0.47673000  0.35453000  1.0 -1.0569026707
O  O75  1  0.47673000  0.35453000  0.32243000  1.0 -1.0569026707
O  O76  1  0.17757000  0.14547000  0.02327000  1.0 -1.0569026707
O  O77  1  0.02327000  0.17757000  0.14547000  1.0 -1.0569026707
O  O78  1  0.14547000  0.02327000  0.17757000  1.0 -1.0569026707
O  O79  1  0.64547000  0.67757000  0.52327000  1.0 -1.0569026707
O  O80  1  0.67757000  0.52327000  0.64547000  1.0 -1.0569026707
O  O81  1  0.52327000  0.64547000  0.67757000  1.0 -1.0569026707
O  O82  1  0.82243000  0.85453000  0.97673000  1.0 -1.0569026707
O  O83  1  0.97673000  0.82243000  0.85453000  1.0 -1.0569026707
O  O84  1  0.85453000  0.97673000  0.82243000  1.0 -1.0569026707
O  O85  1  0.40984000  0.40984000  0.40984000  1.0 -1.0260019756
O  O86  1  0.09016000  0.09016000  0.09016000  1.0 -1.0260019756
O  O87  1  0.59016000  0.59016000  0.59016000  1.0 -1.0247196413
O  O88  1  0.90984000  0.90984000  0.90984000  1.0 -1.0247196413
O  O89  1  0.68902000  0.49702000  0.73632000  1.0 -0.5567595816
O  O90  1  0.49702000  0.73632000  0.68902000  1.0 -0.5567595816
O  O91  1  0.73632000  0.68902000  0.49702000  1.0 -0.5567595816
O  O92  1  0.00298000  0.81098000  0.76368000  1.0 -0.554944799
O  O93  1  0.76368000  0.00298000  0.81098000  1.0 -0.554944799
O  O94  1  0.81098000  0.76368000  0.00298000  1.0 -0.5567595816
O  O95  1  0.31098000  0.50298000  0.26368000  1.0 -0.554944799
O  O96  1  0.50298000  0.26368000  0.31098000  1.0 -0.5567595816
O  O97  1  0.26368000  0.31098000  0.50298000  1.0 -0.554944799
O  O98  1  0.99702000  0.18902000  0.23632000  1.0 -0.5567595816
O  O99  1  0.23632000  0.99702000  0.18902000  1.0 -0.5567595816
O  O100  1  0.18902000  0.23632000  0.99702000  1.0 -0.5567595816
O  O101  1  0.20602000  0.17532000  0.85632000  1.0 -0.5033946557
O  O102  1  0.17532000  0.85632000  0.20602000  1.0 -0.5033946557
O  O103  1  0.85632000  0.20602000  0.17532000  1.0 -0.5061391599
O  O104  1  0.32468000  0.29398000  0.64368000  1.0 -0.5061391599
O  O105  1  0.64368000  0.32468000  0.29398000  1.0 -0.5061391599
O  O106  1  0.29398000  0.64368000  0.32468000  1.0 -0.5061391599
O  O107  1  0.79398000  0.82468000  0.14368000  1.0 -0.5033946557
O  O108  1  0.82468000  0.14368000  0.79398000  1.0 -0.5033946557
O  O109  1  0.14368000  0.79398000  0.82468000  1.0 -0.5033946557
O  O110  1  0.67532000  0.70602000  0.35632000  1.0 -0.5033946557
O  O111  1  0.35632000  0.67532000  0.70602000  1.0 -0.5033946557
O  O112  1  0.70602000  0.35632000  0.67532000  1.0 -0.5033946557
O  O113  1  0.09756000  0.18776000  0.94136000  1.0 -0.4943849627
O  O114  1  0.18776000  0.94136000  0.09756000  1.0 -0.4943849627
O  O115  1  0.94136000  0.09756000  0.18776000  1.0 -0.4943849627
O  O116  1  0.31224000  0.40244000  0.55864000  1.0 -0.4943849627
O  O117  1  0.55864000  0.31224000  0.40244000  1.0 -0.4943849627
O  O118  1  0.40244000  0.55864000  0.31224000  1.0 -0.4943849627
O  O119  1  0.90244000  0.81224000  0.05864000  1.0 -0.5033946557
O  O120  1  0.81224000  0.05864000  0.90244000  1.0 -0.4943849627
O  O121  1  0.05864000  0.90244000  0.81224000  1.0 -0.4943849627
O  O122  1  0.68776000  0.59756000  0.44136000  1.0 -0.4943849627
O  O123  1  0.44136000  0.68776000  0.59756000  1.0 -0.4943849627
O  O124  1  0.59756000  0.44136000  0.68776000  1.0 -0.4943849627
O  O125  1  0.36550000  0.36550000  0.36550000  1.0 -0.9516718299
O  O126  1  0.13450000  0.13450000  0.13450000  1.0 -0.9516718299
O  O127  1  0.63450000  0.63450000  0.63450000  1.0 -0.9516718299
O  O128  1  0.86550000  0.86550000  0.86550000  1.0 -0.9516718299
O  O129  1  0.13443000  0.43623000  0.50953000  1.0 0.0774593959
O  O130  1  0.43623000  0.50953000  0.13443000  1.0 0.0774593959
O  O131  1  0.50953000  0.13443000  0.43623000  1.0 0.0875996069
O  O132  1  0.06377000  0.36557000  0.99047000  1.0 0.0875996069
O  O133  1  0.99047000  0.06377000  0.36557000  1.0 0.1003281175
O  O134  1  0.36557000  0.99047000  0.06377000  1.0 0.0875996069
O  O135  1  0.86557000  0.56377000  0.49047000  1.0 0.0875996069
O  O136  1  0.56377000  0.49047000  0.86557000  1.0 0.0875996069
O  O137  1  0.49047000  0.86557000  0.56377000  1.0 0.1003281175
O  O138  1  0.93623000  0.63443000  0.00953000  1.0 0.0875996069
O  O139  1  0.00953000  0.93623000  0.63443000  1.0 0.0774593959
O  O140  1  0.63443000  0.00953000  0.93623000  1.0 0.0875996069
O  O141  1  0.46291000  0.27421000  0.53381000  1.0 -0.2413596141
O  O142  1  0.27421000  0.53381000  0.46291000  1.0 -0.2413596141
O  O143  1  0.53381000  0.46291000  0.27421000  1.0 -0.2283267177
O  O144  1  0.22579000  0.03709000  0.96619000  1.0 -0.2413596141
O  O145  1  0.96619000  0.22579000  0.03709000  1.0 -0.2413596141
O  O146  1  0.03709000  0.96619000  0.22579000  1.0 -0.2413596141
O  O147  1  0.53709000  0.72579000  0.46619000  1.0 -0.2482919014
O  O148  1  0.72579000  0.46619000  0.53709000  1.0 -0.2413596141
O  O149  1  0.46619000  0.53709000  0.72579000  1.0 -0.2413596141
O  O150  1  0.77421000  0.96291000  0.03381000  1.0 -0.2482919014
O  O151  1  0.03381000  0.77421000  0.96291000  1.0 -0.2413596141
O  O152  1  0.96291000  0.03381000  0.77421000  1.0 -0.2413596141
