# DDEC6 charges by PACMAN v1.1 (https://github.com/mtap-research/PACMAN-charge/)
data_ZILBIJ_ion_pacman
_symmetry_space_group_name_H-M   'P 1'
_cell_length_a   35.80230000
_cell_length_b   35.80230000
_cell_length_c   15.21430000
_cell_angle_alpha   90.00000000
_cell_angle_beta   90.00000000
_cell_angle_gamma   90.00000000
_symmetry_Int_Tables_number   1
_chemical_formula_structural   NaFeCu3Ni2Ag2H39C39(N3O10)2
_chemical_formula_sum   'Na8 Fe8 Cu24 Ni16 Ag16 H312 C312 N48 O160'
_cell_volume   19501.76102341
_cell_formula_units_Z   8
loop_
 _symmetry_equiv_pos_site_id
 _symmetry_equiv_pos_as_xyz
  1  'x, y, z'
loop_
 _atom_site_type_symbol
 _atom_site_label
 _atom_site_symmetry_multiplicity
 _atom_site_fract_x
 _atom_site_fract_y
 _atom_site_fract_z
 _atom_site_occupancy
 _atom_site_charge
Na  Na1  1  0.37810000  0.17830000  0.50000000  1.0 0.8447840456
Na  Na2  1  0.62190000  0.82170000  0.50000000  1.0 0.8447840456
Na  Na3  1  0.17830000  0.62190000  0.50000000  1.0 0.8455372496
Na  Na4  1  0.82170000  0.37810000  0.50000000  1.0 0.8447840456
Na  Na5  1  0.37810000  0.82170000  0.50000000  1.0 0.8455372496
Na  Na6  1  0.62190000  0.17830000  0.50000000  1.0 0.8447840456
Na  Na7  1  0.17830000  0.37810000  0.50000000  1.0 0.8447840456
Na  Na8  1  0.82170000  0.62190000  0.50000000  1.0 0.8447840456
Fe  Fe1  1  0.77720000  0.77720000  0.92810000  1.0 0.2626163619
Fe  Fe2  1  0.22280000  0.22280000  0.92810000  1.0 0.2626163619
Fe  Fe3  1  0.77720000  0.22280000  0.92810000  1.0 0.266229455
Fe  Fe4  1  0.22280000  0.77720000  0.92810000  1.0 0.2626163619
Fe  Fe5  1  0.77720000  0.22280000  0.07190000  1.0 0.2626163619
Fe  Fe6  1  0.22280000  0.77720000  0.07190000  1.0 0.2626163619
Fe  Fe7  1  0.77720000  0.77720000  0.07190000  1.0 0.2626163619
Fe  Fe8  1  0.22280000  0.22280000  0.07190000  1.0 0.2626163619
Cu  Cu1  1  0.83181000  0.50000000  0.77429000  1.0 0.5679874314
Cu  Cu2  1  0.16819000  0.50000000  0.77429000  1.0 0.5679874314
Cu  Cu3  1  0.50000000  0.16819000  0.77429000  1.0 0.5679874314
Cu  Cu4  1  0.50000000  0.83181000  0.77429000  1.0 0.5679874314
Cu  Cu5  1  0.83181000  0.50000000  0.22571000  1.0 0.5679874314
Cu  Cu6  1  0.16819000  0.50000000  0.22571000  1.0 0.5679874314
Cu  Cu7  1  0.50000000  0.83181000  0.22571000  1.0 0.5679874314
Cu  Cu8  1  0.50000000  0.16819000  0.22571000  1.0 0.5679874314
Cu  Cu9  1  0.73952000  0.73952000  0.73091000  1.0 0.7677241234
Cu  Cu10  1  0.26048000  0.26048000  0.73091000  1.0 0.7677241234
Cu  Cu11  1  0.73952000  0.26048000  0.73091000  1.0 0.7677241234
Cu  Cu12  1  0.26048000  0.73952000  0.73091000  1.0 0.7677241234
Cu  Cu13  1  0.73952000  0.26048000  0.26909000  1.0 0.7677241234
Cu  Cu14  1  0.26048000  0.73952000  0.26909000  1.0 0.7677241234
Cu  Cu15  1  0.73952000  0.73952000  0.26909000  1.0 0.7677241234
Cu  Cu16  1  0.26048000  0.26048000  0.26909000  1.0 0.7677241234
Cu  Cu17  1  0.00000000  0.65226000  0.76825000  1.0 0.7317562891
Cu  Cu18  1  0.00000000  0.34774000  0.76825000  1.0 0.7317562891
Cu  Cu19  1  0.65226000  0.00000000  0.76825000  1.0 0.7317562891
Cu  Cu20  1  0.34774000  0.00000000  0.76825000  1.0 0.7317562891
Cu  Cu21  1  0.00000000  0.34774000  0.23175000  1.0 0.7317562891
Cu  Cu22  1  0.00000000  0.65226000  0.23175000  1.0 0.7317562891
Cu  Cu23  1  0.65226000  0.00000000  0.23175000  1.0 0.7317562891
Cu  Cu24  1  0.34774000  0.00000000  0.23175000  1.0 0.7317562891
Ni  Ni1  1  0.85244000  0.64619000  0.74798000  1.0 0.8778472772
Ni  Ni2  1  0.14756000  0.35381000  0.74798000  1.0 0.8778472772
Ni  Ni3  1  0.64619000  0.14756000  0.74798000  1.0 0.8778472772
Ni  Ni4  1  0.35381000  0.85244000  0.74798000  1.0 0.8778472772
Ni  Ni5  1  0.85244000  0.35381000  0.25202000  1.0 0.8778472772
Ni  Ni6  1  0.14756000  0.64619000  0.25202000  1.0 0.8778472772
Ni  Ni7  1  0.64619000  0.85244000  0.25202000  1.0 0.8778472772
Ni  Ni8  1  0.35381000  0.14756000  0.25202000  1.0 0.8778472772
Ni  Ni9  1  0.14756000  0.35381000  0.25202000  1.0 0.8778472772
Ni  Ni10  1  0.85244000  0.64619000  0.25202000  1.0 0.8778472772
Ni  Ni11  1  0.35381000  0.85244000  0.25202000  1.0 0.8778472772
Ni  Ni12  1  0.64619000  0.14756000  0.25202000  1.0 0.8778472772
Ni  Ni13  1  0.14756000  0.64619000  0.74798000  1.0 0.8778472772
Ni  Ni14  1  0.85244000  0.35381000  0.74798000  1.0 0.8778472772
Ni  Ni15  1  0.35381000  0.14756000  0.74798000  1.0 0.8778472772
Ni  Ni16  1  0.64619000  0.85244000  0.74798000  1.0 0.8778472772
Ag  Ag1  1  0.85970000  0.65760000  0.00000000  1.0 0.5629410191
Ag  Ag2  1  0.14030000  0.34240000  0.00000000  1.0 0.5629410191
Ag  Ag3  1  0.65760000  0.14030000  0.00000000  1.0 0.5629410191
Ag  Ag4  1  0.34240000  0.85970000  0.00000000  1.0 0.5629410191
Ag  Ag5  1  0.85970000  0.34240000  0.00000000  1.0 0.5629410191
Ag  Ag6  1  0.14030000  0.65760000  0.00000000  1.0 0.5629410191
Ag  Ag7  1  0.65760000  0.85970000  0.00000000  1.0 0.5629410191
Ag  Ag8  1  0.34240000  0.14030000  0.00000000  1.0 0.5629410191
Ag  Ag9  1  0.80780000  0.71120000  0.00000000  1.0 0.1952772556
Ag  Ag10  1  0.19220000  0.28880000  0.00000000  1.0 0.1919270387
Ag  Ag11  1  0.71120000  0.19220000  0.00000000  1.0 0.1919270387
Ag  Ag12  1  0.28880000  0.80780000  0.00000000  1.0 0.1952772556
Ag  Ag13  1  0.80780000  0.28880000  0.00000000  1.0 0.1919270387
Ag  Ag14  1  0.19220000  0.71120000  0.00000000  1.0 0.1952772556
Ag  Ag15  1  0.71120000  0.80780000  0.00000000  1.0 0.1952772556
Ag  Ag16  1  0.28880000  0.19220000  0.00000000  1.0 0.1919270387
H  H1  1  0.71311000  0.55499000  0.00000000  1.0 0.1367315784
H  H2  1  0.28689000  0.44501000  0.00000000  1.0 0.1367315784
H  H3  1  0.55499000  0.28689000  0.00000000  1.0 0.1367315784
H  H4  1  0.44501000  0.71311000  0.00000000  1.0 0.1367315784
H  H5  1  0.71311000  0.44501000  0.00000000  1.0 0.1367315784
H  H6  1  0.28689000  0.55499000  0.00000000  1.0 0.1367315784
H  H7  1  0.55499000  0.71311000  0.00000000  1.0 0.1367315784
H  H8  1  0.44501000  0.28689000  0.00000000  1.0 0.1367315784
H  H9  1  0.71477000  0.56591000  0.83703000  1.0 0.1367315784
H  H10  1  0.28523000  0.43409000  0.83703000  1.0 0.1367315784
H  H11  1  0.56591000  0.28523000  0.83703000  1.0 0.1367315784
H  H12  1  0.43409000  0.71477000  0.83703000  1.0 0.1367315784
H  H13  1  0.71477000  0.43409000  0.16297000  1.0 0.1367315784
H  H14  1  0.28523000  0.56591000  0.16297000  1.0 0.1367315784
H  H15  1  0.56591000  0.71477000  0.16297000  1.0 0.1367315784
H  H16  1  0.43409000  0.28523000  0.16297000  1.0 0.1367315784
H  H17  1  0.28523000  0.43409000  0.16297000  1.0 0.1367315784
H  H18  1  0.71477000  0.56591000  0.16297000  1.0 0.1367315784
H  H19  1  0.43409000  0.71477000  0.16297000  1.0 0.1367315784
H  H20  1  0.56591000  0.28523000  0.16297000  1.0 0.1367315784
H  H21  1  0.28523000  0.56591000  0.83703000  1.0 0.1367315784
H  H22  1  0.71477000  0.43409000  0.83703000  1.0 0.1367315784
H  H23  1  0.43409000  0.28523000  0.83703000  1.0 0.1367315784
H  H24  1  0.56591000  0.71477000  0.83703000  1.0 0.1367315784
H  H25  1  0.75249000  0.55555000  0.78615000  1.0 0.1367315784
H  H26  1  0.24751000  0.44445000  0.78615000  1.0 0.1367315784
H  H27  1  0.55555000  0.24751000  0.78615000  1.0 0.1367315784
H  H28  1  0.44445000  0.75249000  0.78615000  1.0 0.1367315784
H  H29  1  0.75249000  0.44445000  0.21385000  1.0 0.1367315784
H  H30  1  0.24751000  0.55555000  0.21385000  1.0 0.1367315784
H  H31  1  0.55555000  0.75249000  0.21385000  1.0 0.1367315784
H  H32  1  0.44445000  0.24751000  0.21385000  1.0 0.1367315784
H  H33  1  0.24751000  0.44445000  0.21385000  1.0 0.1367315784
H  H34  1  0.75249000  0.55555000  0.21385000  1.0 0.1367315784
H  H35  1  0.44445000  0.75249000  0.21385000  1.0 0.1367315784
H  H36  1  0.55555000  0.24751000  0.21385000  1.0 0.1367315784
H  H37  1  0.24751000  0.55555000  0.78615000  1.0 0.1367315784
H  H38  1  0.75249000  0.44445000  0.78615000  1.0 0.1367315784
H  H39  1  0.44445000  0.24751000  0.78615000  1.0 0.1367315784
H  H40  1  0.55555000  0.75249000  0.78615000  1.0 0.1367315784
H  H41  1  0.72630000  0.52309000  0.82398000  1.0 0.1214126713
H  H42  1  0.27370000  0.47691000  0.82398000  1.0 0.1214126713
H  H43  1  0.52309000  0.27370000  0.82398000  1.0 0.1214126713
H  H44  1  0.47691000  0.72630000  0.82398000  1.0 0.1214126713
H  H45  1  0.72630000  0.47691000  0.17602000  1.0 0.1214126713
H  H46  1  0.27370000  0.52309000  0.17602000  1.0 0.1214126713
H  H47  1  0.52309000  0.72630000  0.17602000  1.0 0.1214126713
H  H48  1  0.47691000  0.27370000  0.17602000  1.0 0.1214126713
H  H49  1  0.27370000  0.47691000  0.17602000  1.0 0.1214126713
H  H50  1  0.72630000  0.52309000  0.17602000  1.0 0.1214126713
H  H51  1  0.47691000  0.72630000  0.17602000  1.0 0.1214126713
H  H52  1  0.52309000  0.27370000  0.17602000  1.0 0.1214126713
H  H53  1  0.27370000  0.52309000  0.82398000  1.0 0.1214126713
H  H54  1  0.72630000  0.47691000  0.82398000  1.0 0.1214126713
H  H55  1  0.47691000  0.27370000  0.82398000  1.0 0.1214126713
H  H56  1  0.52309000  0.72630000  0.82398000  1.0 0.1214126713
H  H57  1  0.69222000  0.61914000  0.50000000  1.0 0.1531001968
H  H58  1  0.30778000  0.38086000  0.50000000  1.0 0.1531001968
H  H59  1  0.61914000  0.30778000  0.50000000  1.0 0.1531001968
H  H60  1  0.38086000  0.69222000  0.50000000  1.0 0.1531001968
H  H61  1  0.69222000  0.38086000  0.50000000  1.0 0.1531001968
H  H62  1  0.30778000  0.61914000  0.50000000  1.0 0.1531001968
H  H63  1  0.61914000  0.69222000  0.50000000  1.0 0.1531001968
H  H64  1  0.38086000  0.30778000  0.50000000  1.0 0.1531001968
H  H65  1  0.71112000  0.61845000  0.68038000  1.0 0.1367315784
H  H66  1  0.28888000  0.38155000  0.68038000  1.0 0.1367315784
H  H67  1  0.61845000  0.28888000  0.68038000  1.0 0.1367315784
H  H68  1  0.38155000  0.71112000  0.68038000  1.0 0.1367315784
H  H69  1  0.71112000  0.38155000  0.31962000  1.0 0.1367315784
H  H70  1  0.28888000  0.61845000  0.31962000  1.0 0.1367315784
H  H71  1  0.61845000  0.71112000  0.31962000  1.0 0.1367315784
H  H72  1  0.38155000  0.28888000  0.31962000  1.0 0.1367315784
H  H73  1  0.28888000  0.38155000  0.31962000  1.0 0.1367315784
H  H74  1  0.71112000  0.61845000  0.31962000  1.0 0.1367315784
H  H75  1  0.38155000  0.71112000  0.31962000  1.0 0.1367315784
H  H76  1  0.61845000  0.28888000  0.31962000  1.0 0.1367315784
H  H77  1  0.28888000  0.61845000  0.68038000  1.0 0.1367315784
H  H78  1  0.71112000  0.38155000  0.68038000  1.0 0.1367315784
H  H79  1  0.38155000  0.28888000  0.68038000  1.0 0.1367315784
H  H80  1  0.61845000  0.71112000  0.68038000  1.0 0.1367315784
H  H81  1  0.71003000  0.66104000  0.71216000  1.0 0.1367315784
H  H82  1  0.28997000  0.33896000  0.71216000  1.0 0.1367315784
H  H83  1  0.66104000  0.28997000  0.71216000  1.0 0.1367315784
H  H84  1  0.33896000  0.71003000  0.71216000  1.0 0.1367315784
H  H85  1  0.71003000  0.33896000  0.28784000  1.0 0.1367315784
H  H86  1  0.28997000  0.66104000  0.28784000  1.0 0.1367315784
H  H87  1  0.66104000  0.71003000  0.28784000  1.0 0.1367315784
H  H88  1  0.33896000  0.28997000  0.28784000  1.0 0.1367315784
H  H89  1  0.28997000  0.33896000  0.28784000  1.0 0.1367315784
H  H90  1  0.71003000  0.66104000  0.28784000  1.0 0.1367315784
H  H91  1  0.33896000  0.71003000  0.28784000  1.0 0.1367315784
H  H92  1  0.66104000  0.28997000  0.28784000  1.0 0.1367315784
H  H93  1  0.28997000  0.66104000  0.71216000  1.0 0.1367315784
H  H94  1  0.71003000  0.33896000  0.71216000  1.0 0.1367315784
H  H95  1  0.33896000  0.28997000  0.71216000  1.0 0.1367315784
H  H96  1  0.66104000  0.71003000  0.71216000  1.0 0.1367315784
H  H97  1  0.67519000  0.64366000  0.66050000  1.0 0.0993064983
H  H98  1  0.32481000  0.35634000  0.66050000  1.0 0.0993064983
H  H99  1  0.64366000  0.32481000  0.66050000  1.0 0.0993064983
H  H100  1  0.35634000  0.67519000  0.66050000  1.0 0.0993064983
H  H101  1  0.67519000  0.35634000  0.33950000  1.0 0.0993064983
H  H102  1  0.32481000  0.64366000  0.33950000  1.0 0.0993064983
H  H103  1  0.64366000  0.67519000  0.33950000  1.0 0.0993064983
H  H104  1  0.35634000  0.32481000  0.33950000  1.0 0.0993064983
H  H105  1  0.32481000  0.35634000  0.33950000  1.0 0.0993064983
H  H106  1  0.67519000  0.64366000  0.33950000  1.0 0.0993064983
H  H107  1  0.35634000  0.67519000  0.33950000  1.0 0.0993064983
H  H108  1  0.64366000  0.32481000  0.33950000  1.0 0.0993064983
H  H109  1  0.32481000  0.64366000  0.66050000  1.0 0.0993064983
H  H110  1  0.67519000  0.35634000  0.66050000  1.0 0.0993064983
H  H111  1  0.35634000  0.32481000  0.66050000  1.0 0.0993064983
H  H112  1  0.64366000  0.67519000  0.66050000  1.0 0.0993064983
H  H113  1  0.94904000  0.53125000  0.00000000  1.0 0.1333829245
H  H114  1  0.05096000  0.46875000  0.00000000  1.0 0.1333829245
H  H115  1  0.53125000  0.05096000  0.00000000  1.0 0.1333829245
H  H116  1  0.46875000  0.94904000  0.00000000  1.0 0.1333829245
H  H117  1  0.94904000  0.46875000  0.00000000  1.0 0.1333829245
H  H118  1  0.05096000  0.53125000  0.00000000  1.0 0.1333829245
H  H119  1  0.53125000  0.94904000  0.00000000  1.0 0.1333829245
H  H120  1  0.46875000  0.05096000  0.00000000  1.0 0.1333829245
H  H121  1  0.92556000  0.55608000  0.80884000  1.0 0.1531001968
H  H122  1  0.07444000  0.44392000  0.80884000  1.0 0.1531001968
H  H123  1  0.55608000  0.07444000  0.80884000  1.0 0.1531001968
H  H124  1  0.44392000  0.92556000  0.80884000  1.0 0.1531001968
H  H125  1  0.92556000  0.44392000  0.19116000  1.0 0.1531001968
H  H126  1  0.07444000  0.55608000  0.19116000  1.0 0.1531001968
H  H127  1  0.55608000  0.92556000  0.19116000  1.0 0.1531001968
H  H128  1  0.44392000  0.07444000  0.19116000  1.0 0.1531001968
H  H129  1  0.07444000  0.44392000  0.19116000  1.0 0.1531001968
H  H130  1  0.92556000  0.55608000  0.19116000  1.0 0.1531001968
H  H131  1  0.44392000  0.92556000  0.19116000  1.0 0.1531001968
H  H132  1  0.55608000  0.07444000  0.19116000  1.0 0.1531001968
H  H133  1  0.07444000  0.55608000  0.80884000  1.0 0.1531001968
H  H134  1  0.92556000  0.44392000  0.80884000  1.0 0.1531001968
H  H135  1  0.44392000  0.07444000  0.80884000  1.0 0.1531001968
H  H136  1  0.55608000  0.92556000  0.80884000  1.0 0.1531001968
H  H137  1  0.96877000  0.56527000  0.79269000  1.0 0.1333829245
H  H138  1  0.03123000  0.43473000  0.79269000  1.0 0.1333829245
H  H139  1  0.56527000  0.03123000  0.79269000  1.0 0.1333829245
H  H140  1  0.43473000  0.96877000  0.79269000  1.0 0.1333829245
H  H141  1  0.96877000  0.43473000  0.20731000  1.0 0.1333829245
H  H142  1  0.03123000  0.56527000  0.20731000  1.0 0.1333829245
H  H143  1  0.56527000  0.96877000  0.20731000  1.0 0.1333829245
H  H144  1  0.43473000  0.03123000  0.20731000  1.0 0.1333829245
H  H145  1  0.03123000  0.43473000  0.20731000  1.0 0.1333829245
H  H146  1  0.96877000  0.56527000  0.20731000  1.0 0.1333829245
H  H147  1  0.43473000  0.96877000  0.20731000  1.0 0.1333829245
H  H148  1  0.56527000  0.03123000  0.20731000  1.0 0.1333829245
H  H149  1  0.03123000  0.56527000  0.79269000  1.0 0.1333829245
H  H150  1  0.96877000  0.43473000  0.79269000  1.0 0.1333829245
H  H151  1  0.43473000  0.03123000  0.79269000  1.0 0.1333829245
H  H152  1  0.56527000  0.96877000  0.79269000  1.0 0.1333829245
H  H153  1  0.95703000  0.52824000  0.84474000  1.0 0.1214126713
H  H154  1  0.04297000  0.47176000  0.84474000  1.0 0.1214126713
H  H155  1  0.52824000  0.04297000  0.84474000  1.0 0.1214126713
H  H156  1  0.47176000  0.95703000  0.84474000  1.0 0.1214126713
H  H157  1  0.95703000  0.47176000  0.15526000  1.0 0.1214126713
H  H158  1  0.04297000  0.52824000  0.15526000  1.0 0.1214126713
H  H159  1  0.52824000  0.95703000  0.15526000  1.0 0.1214126713
H  H160  1  0.47176000  0.04297000  0.15526000  1.0 0.1214126713
H  H161  1  0.04297000  0.47176000  0.15526000  1.0 0.1214126713
H  H162  1  0.95703000  0.52824000  0.15526000  1.0 0.1214126713
H  H163  1  0.47176000  0.95703000  0.15526000  1.0 0.1214126713
H  H164  1  0.52824000  0.04297000  0.15526000  1.0 0.1214126713
H  H165  1  0.04297000  0.52824000  0.84474000  1.0 0.1214126713
H  H166  1  0.95703000  0.47176000  0.84474000  1.0 0.1214126713
H  H167  1  0.47176000  0.04297000  0.84474000  1.0 0.1214126713
H  H168  1  0.52824000  0.95703000  0.84474000  1.0 0.1214126713
H  H169  1  0.86883000  0.54814000  0.06066000  1.0 0.0811549412
H  H170  1  0.13117000  0.45186000  0.06066000  1.0 0.0811549412
H  H171  1  0.54814000  0.13117000  0.06066000  1.0 0.0811549412
H  H172  1  0.45186000  0.86883000  0.06066000  1.0 0.0811549412
H  H173  1  0.86883000  0.45186000  0.93934000  1.0 0.0811549412
H  H174  1  0.13117000  0.54814000  0.93934000  1.0 0.0811549412
H  H175  1  0.54814000  0.86883000  0.93934000  1.0 0.0811549412
H  H176  1  0.45186000  0.13117000  0.93934000  1.0 0.0811549412
H  H177  1  0.13117000  0.45186000  0.93934000  1.0 0.0811549412
H  H178  1  0.86883000  0.54814000  0.93934000  1.0 0.0811549412
H  H179  1  0.45186000  0.86883000  0.93934000  1.0 0.0811549412
H  H180  1  0.54814000  0.13117000  0.93934000  1.0 0.0811549412
H  H181  1  0.13117000  0.54814000  0.06066000  1.0 0.0811549412
H  H182  1  0.86883000  0.45186000  0.06066000  1.0 0.0811549412
H  H183  1  0.45186000  0.13117000  0.06066000  1.0 0.0811549412
H  H184  1  0.54814000  0.86883000  0.06066000  1.0 0.0811549412
H  H185  1  0.86958000  0.56858000  0.96713000  1.0 0.0878523787
H  H186  1  0.13042000  0.43142000  0.96713000  1.0 0.0878523787
H  H187  1  0.56858000  0.13042000  0.96713000  1.0 0.0878523787
H  H188  1  0.43142000  0.86958000  0.96713000  1.0 0.0878523787
H  H189  1  0.86958000  0.43142000  0.03287000  1.0 0.0878523787
H  H190  1  0.13042000  0.56858000  0.03287000  1.0 0.0878523787
H  H191  1  0.56858000  0.86958000  0.03287000  1.0 0.0878523787
H  H192  1  0.43142000  0.13042000  0.03287000  1.0 0.0878523787
H  H193  1  0.13042000  0.43142000  0.03287000  1.0 0.0878523787
H  H194  1  0.86958000  0.56858000  0.03287000  1.0 0.0878523787
H  H195  1  0.43142000  0.86958000  0.03287000  1.0 0.0878523787
H  H196  1  0.56858000  0.13042000  0.03287000  1.0 0.0878523787
H  H197  1  0.13042000  0.56858000  0.96713000  1.0 0.0878523787
H  H198  1  0.86958000  0.43142000  0.96713000  1.0 0.0878523787
H  H199  1  0.43142000  0.13042000  0.96713000  1.0 0.0878523787
H  H200  1  0.56858000  0.86958000  0.96713000  1.0 0.0878523787
H  H201  1  0.86794000  0.52396000  0.97221000  1.0 0.0688883835
H  H202  1  0.13206000  0.47604000  0.97221000  1.0 0.0688883835
H  H203  1  0.52396000  0.13206000  0.97221000  1.0 0.0688883835
H  H204  1  0.47604000  0.86794000  0.97221000  1.0 0.0688883835
H  H205  1  0.86794000  0.47604000  0.02779000  1.0 0.0688883835
H  H206  1  0.13206000  0.52396000  0.02779000  1.0 0.0688883835
H  H207  1  0.52396000  0.86794000  0.02779000  1.0 0.0688883835
H  H208  1  0.47604000  0.13206000  0.02779000  1.0 0.0688883835
H  H209  1  0.13206000  0.47604000  0.02779000  1.0 0.0688883835
H  H210  1  0.86794000  0.52396000  0.02779000  1.0 0.0688883835
H  H211  1  0.47604000  0.86794000  0.02779000  1.0 0.0688883835
H  H212  1  0.52396000  0.13206000  0.02779000  1.0 0.0688883835
H  H213  1  0.13206000  0.52396000  0.97221000  1.0 0.0688883835
H  H214  1  0.86794000  0.47604000  0.97221000  1.0 0.0688883835
H  H215  1  0.47604000  0.13206000  0.97221000  1.0 0.0688883835
H  H216  1  0.52396000  0.86794000  0.97221000  1.0 0.0688883835
H  H217  1  0.93399000  0.68966000  0.98288000  1.0 0.0688883835
H  H218  1  0.06601000  0.31034000  0.98288000  1.0 0.0688883835
H  H219  1  0.68966000  0.06601000  0.98288000  1.0 0.0688883835
H  H220  1  0.31034000  0.93399000  0.98288000  1.0 0.0688883835
H  H221  1  0.93399000  0.31034000  0.01712000  1.0 0.0688883835
H  H222  1  0.06601000  0.68966000  0.01712000  1.0 0.0688883835
H  H223  1  0.68966000  0.93399000  0.01712000  1.0 0.0688883835
H  H224  1  0.31034000  0.06601000  0.01712000  1.0 0.0688883835
H  H225  1  0.06601000  0.31034000  0.01712000  1.0 0.0688883835
H  H226  1  0.93399000  0.68966000  0.01712000  1.0 0.0688883835
H  H227  1  0.31034000  0.93399000  0.01712000  1.0 0.0688883835
H  H228  1  0.68966000  0.06601000  0.01712000  1.0 0.0688883835
H  H229  1  0.06601000  0.68966000  0.98288000  1.0 0.0688883835
H  H230  1  0.93399000  0.31034000  0.98288000  1.0 0.0688883835
H  H231  1  0.31034000  0.06601000  0.98288000  1.0 0.0688883835
H  H232  1  0.68966000  0.93399000  0.98288000  1.0 0.0688883835
H  H233  1  0.96478000  0.68780000  0.05902000  1.0 0.062769996
H  H234  1  0.03522000  0.31220000  0.05902000  1.0 0.062769996
H  H235  1  0.68780000  0.03522000  0.05902000  1.0 0.062769996
H  H236  1  0.31220000  0.96478000  0.05902000  1.0 0.062769996
H  H237  1  0.96478000  0.31220000  0.94098000  1.0 0.062769996
H  H238  1  0.03522000  0.68780000  0.94098000  1.0 0.062769996
H  H239  1  0.68780000  0.96478000  0.94098000  1.0 0.062769996
H  H240  1  0.31220000  0.03522000  0.94098000  1.0 0.062769996
H  H241  1  0.03522000  0.31220000  0.94098000  1.0 0.062769996
H  H242  1  0.96478000  0.68780000  0.94098000  1.0 0.062769996
H  H243  1  0.31220000  0.96478000  0.94098000  1.0 0.062769996
H  H244  1  0.68780000  0.03522000  0.94098000  1.0 0.062769996
H  H245  1  0.03522000  0.68780000  0.05902000  1.0 0.062769996
H  H246  1  0.96478000  0.31220000  0.05902000  1.0 0.062769996
H  H247  1  0.31220000  0.03522000  0.05902000  1.0 0.062769996
H  H248  1  0.68780000  0.96478000  0.05902000  1.0 0.062769996
H  H249  1  0.97735000  0.68704000  0.95810000  1.0 0.0502994192
H  H250  1  0.02265000  0.31296000  0.95810000  1.0 0.0502994192
H  H251  1  0.68704000  0.02265000  0.95810000  1.0 0.0502994192
H  H252  1  0.31296000  0.97735000  0.95810000  1.0 0.0502994192
H  H253  1  0.97735000  0.31296000  0.04190000  1.0 0.0502994192
H  H254  1  0.02265000  0.68704000  0.04190000  1.0 0.0502994192
H  H255  1  0.68704000  0.97735000  0.04190000  1.0 0.0502994192
H  H256  1  0.31296000  0.02265000  0.04190000  1.0 0.0502994192
H  H257  1  0.02265000  0.31296000  0.04190000  1.0 0.0502994192
H  H258  1  0.97735000  0.68704000  0.04190000  1.0 0.0502994192
H  H259  1  0.31296000  0.97735000  0.04190000  1.0 0.0502994192
H  H260  1  0.68704000  0.02265000  0.04190000  1.0 0.0502994192
H  H261  1  0.02265000  0.68704000  0.95810000  1.0 0.0502994192
H  H262  1  0.97735000  0.31296000  0.95810000  1.0 0.0502994192
H  H263  1  0.31296000  0.02265000  0.95810000  1.0 0.0502994192
H  H264  1  0.68704000  0.97735000  0.95810000  1.0 0.0502994192
H  H265  1  0.80111000  0.72838000  0.43951000  1.0 0.0502994192
H  H266  1  0.19889000  0.27162000  0.43951000  1.0 0.0502994192
H  H267  1  0.72838000  0.19889000  0.43951000  1.0 0.0502994192
H  H268  1  0.27162000  0.80111000  0.43951000  1.0 0.0502994192
H  H269  1  0.80111000  0.27162000  0.56049000  1.0 0.0502994192
H  H270  1  0.19889000  0.72838000  0.56049000  1.0 0.0502994192
H  H271  1  0.72838000  0.80111000  0.56049000  1.0 0.0502994192
H  H272  1  0.27162000  0.19889000  0.56049000  1.0 0.0502994192
H  H273  1  0.19889000  0.27162000  0.56049000  1.0 0.0502994192
H  H274  1  0.80111000  0.72838000  0.56049000  1.0 0.0502994192
H  H275  1  0.27162000  0.80111000  0.56049000  1.0 0.0502994192
H  H276  1  0.72838000  0.19889000  0.56049000  1.0 0.0502994192
H  H277  1  0.19889000  0.72838000  0.43951000  1.0 0.0502994192
H  H278  1  0.80111000  0.27162000  0.43951000  1.0 0.0502994192
H  H279  1  0.27162000  0.19889000  0.43951000  1.0 0.0502994192
H  H280  1  0.72838000  0.80111000  0.43951000  1.0 0.0502994192
H  H281  1  0.81429000  0.71497000  0.53494000  1.0 0.062769996
H  H282  1  0.18571000  0.28503000  0.53494000  1.0 0.062769996
H  H283  1  0.71497000  0.18571000  0.53494000  1.0 0.062769996
H  H284  1  0.28503000  0.81429000  0.53494000  1.0 0.062769996
H  H285  1  0.81429000  0.28503000  0.46506000  1.0 0.062769996
H  H286  1  0.18571000  0.71497000  0.46506000  1.0 0.062769996
H  H287  1  0.71497000  0.81429000  0.46506000  1.0 0.062769996
H  H288  1  0.28503000  0.18571000  0.46506000  1.0 0.062769996
H  H289  1  0.18571000  0.28503000  0.46506000  1.0 0.062769996
H  H290  1  0.81429000  0.71497000  0.46506000  1.0 0.062769996
H  H291  1  0.28503000  0.81429000  0.46506000  1.0 0.062769996
H  H292  1  0.71497000  0.18571000  0.46506000  1.0 0.062769996
H  H293  1  0.18571000  0.71497000  0.53494000  1.0 0.062769996
H  H294  1  0.81429000  0.28503000  0.53494000  1.0 0.062769996
H  H295  1  0.28503000  0.18571000  0.53494000  1.0 0.062769996
H  H296  1  0.71497000  0.81429000  0.53494000  1.0 0.062769996
H  H297  1  0.78309000  0.74673000  0.52555000  1.0 0.062769996
H  H298  1  0.21691000  0.25327000  0.52555000  1.0 0.062769996
H  H299  1  0.74673000  0.21691000  0.52555000  1.0 0.062769996
H  H300  1  0.25327000  0.78309000  0.52555000  1.0 0.062769996
H  H301  1  0.78309000  0.25327000  0.47445000  1.0 0.062769996
H  H302  1  0.21691000  0.74673000  0.47445000  1.0 0.062769996
H  H303  1  0.74673000  0.78309000  0.47445000  1.0 0.062769996
H  H304  1  0.25327000  0.21691000  0.47445000  1.0 0.062769996
H  H305  1  0.21691000  0.25327000  0.47445000  1.0 0.062769996
H  H306  1  0.78309000  0.74673000  0.47445000  1.0 0.062769996
H  H307  1  0.25327000  0.78309000  0.47445000  1.0 0.062769996
H  H308  1  0.74673000  0.21691000  0.47445000  1.0 0.062769996
H  H309  1  0.21691000  0.74673000  0.52555000  1.0 0.062769996
H  H310  1  0.78309000  0.25327000  0.52555000  1.0 0.062769996
H  H311  1  0.25327000  0.21691000  0.52555000  1.0 0.062769996
H  H312  1  0.74673000  0.78309000  0.52555000  1.0 0.062769996
C  C1  1  0.85202000  0.56980000  0.72200000  1.0 0.4599934859
C  C2  1  0.14798000  0.43020000  0.72200000  1.0 0.4599934859
C  C3  1  0.56980000  0.14798000  0.72200000  1.0 0.4599934859
C  C4  1  0.43020000  0.85202000  0.72200000  1.0 0.4599934859
C  C5  1  0.85202000  0.43020000  0.27800000  1.0 0.4599934859
C  C6  1  0.14798000  0.56980000  0.27800000  1.0 0.4599934859
C  C7  1  0.56980000  0.85202000  0.27800000  1.0 0.4599934859
C  C8  1  0.43020000  0.14798000  0.27800000  1.0 0.4599934859
C  C9  1  0.14798000  0.43020000  0.27800000  1.0 0.4599934859
C  C10  1  0.85202000  0.56980000  0.27800000  1.0 0.4599934859
C  C11  1  0.43020000  0.85202000  0.27800000  1.0 0.4599934859
C  C12  1  0.56980000  0.14798000  0.27800000  1.0 0.4599934859
C  C13  1  0.14798000  0.56980000  0.72200000  1.0 0.4599934859
C  C14  1  0.85202000  0.43020000  0.72200000  1.0 0.4599934859
C  C15  1  0.43020000  0.14798000  0.72200000  1.0 0.4599934859
C  C16  1  0.56980000  0.85202000  0.72200000  1.0 0.4599934859
C  C17  1  0.82599000  0.57680000  0.80240000  1.0 0.3541845424
C  C18  1  0.17401000  0.42320000  0.80240000  1.0 0.3541845424
C  C19  1  0.57680000  0.17401000  0.80240000  1.0 0.3541845424
C  C20  1  0.42320000  0.82599000  0.80240000  1.0 0.3541845424
C  C21  1  0.82599000  0.42320000  0.19760000  1.0 0.3541845424
C  C22  1  0.17401000  0.57680000  0.19760000  1.0 0.3541845424
C  C23  1  0.57680000  0.82599000  0.19760000  1.0 0.3541845424
C  C24  1  0.42320000  0.17401000  0.19760000  1.0 0.3541845424
C  C25  1  0.17401000  0.42320000  0.19760000  1.0 0.3541845424
C  C26  1  0.82599000  0.57680000  0.19760000  1.0 0.3541845424
C  C27  1  0.42320000  0.82599000  0.19760000  1.0 0.3541845424
C  C28  1  0.57680000  0.17401000  0.19760000  1.0 0.3541845424
C  C29  1  0.17401000  0.57680000  0.80240000  1.0 0.3541845424
C  C30  1  0.82599000  0.42320000  0.80240000  1.0 0.3541845424
C  C31  1  0.42320000  0.17401000  0.80240000  1.0 0.3541845424
C  C32  1  0.57680000  0.82599000  0.80240000  1.0 0.3541845424
C  C33  1  0.80470000  0.70410000  0.77420000  1.0 0.4692719082
C  C34  1  0.19530000  0.29590000  0.77420000  1.0 0.4692719082
C  C35  1  0.70410000  0.19530000  0.77420000  1.0 0.4692719082
C  C36  1  0.29590000  0.80470000  0.77420000  1.0 0.4692719082
C  C37  1  0.80470000  0.29590000  0.22580000  1.0 0.4692719082
C  C38  1  0.19530000  0.70410000  0.22580000  1.0 0.4692719082
C  C39  1  0.70410000  0.80470000  0.22580000  1.0 0.4692719082
C  C40  1  0.29590000  0.19530000  0.22580000  1.0 0.4692719082
C  C41  1  0.19530000  0.29590000  0.22580000  1.0 0.4692719082
C  C42  1  0.80470000  0.70410000  0.22580000  1.0 0.4692719082
C  C43  1  0.29590000  0.80470000  0.22580000  1.0 0.4692719082
C  C44  1  0.70410000  0.19530000  0.22580000  1.0 0.4692719082
C  C45  1  0.19530000  0.70410000  0.77420000  1.0 0.4692719082
C  C46  1  0.80470000  0.29590000  0.77420000  1.0 0.4692719082
C  C47  1  0.29590000  0.19530000  0.77420000  1.0 0.4692719082
C  C48  1  0.70410000  0.80470000  0.77420000  1.0 0.4692719082
C  C49  1  0.79040000  0.68640000  0.69210000  1.0 0.329317805
C  C50  1  0.20960000  0.31360000  0.69210000  1.0 0.329317805
C  C51  1  0.68640000  0.20960000  0.69210000  1.0 0.329317805
C  C52  1  0.31360000  0.79040000  0.69210000  1.0 0.329317805
C  C53  1  0.79040000  0.31360000  0.30790000  1.0 0.329317805
C  C54  1  0.20960000  0.68640000  0.30790000  1.0 0.329317805
C  C55  1  0.68640000  0.79040000  0.30790000  1.0 0.329317805
C  C56  1  0.31360000  0.20960000  0.30790000  1.0 0.329317805
C  C57  1  0.20960000  0.31360000  0.30790000  1.0 0.329317805
C  C58  1  0.79040000  0.68640000  0.30790000  1.0 0.329317805
C  C59  1  0.31360000  0.79040000  0.30790000  1.0 0.329317805
C  C60  1  0.68640000  0.20960000  0.30790000  1.0 0.329317805
C  C61  1  0.20960000  0.68640000  0.69210000  1.0 0.329317805
C  C62  1  0.79040000  0.31360000  0.69210000  1.0 0.329317805
C  C63  1  0.31360000  0.20960000  0.69210000  1.0 0.329317805
C  C64  1  0.68640000  0.79040000  0.69210000  1.0 0.329317805
C  C65  1  0.92440000  0.64477000  0.80420000  1.0 0.3385687513
C  C66  1  0.07560000  0.35523000  0.80420000  1.0 0.3385687513
C  C67  1  0.64477000  0.07560000  0.80420000  1.0 0.3385687513
C  C68  1  0.35523000  0.92440000  0.80420000  1.0 0.3385687513
C  C69  1  0.92440000  0.35523000  0.19580000  1.0 0.3385687513
C  C70  1  0.07560000  0.64477000  0.19580000  1.0 0.3385687513
C  C71  1  0.64477000  0.92440000  0.19580000  1.0 0.3385687513
C  C72  1  0.35523000  0.07560000  0.19580000  1.0 0.3385687513
C  C73  1  0.07560000  0.35523000  0.19580000  1.0 0.3385687513
C  C74  1  0.92440000  0.64477000  0.19580000  1.0 0.3385687513
C  C75  1  0.35523000  0.92440000  0.19580000  1.0 0.3385687513
C  C76  1  0.64477000  0.07560000  0.19580000  1.0 0.3385687513
C  C77  1  0.07560000  0.64477000  0.80420000  1.0 0.3385687513
C  C78  1  0.92440000  0.35523000  0.80420000  1.0 0.3385687513
C  C79  1  0.35523000  0.07560000  0.80420000  1.0 0.3385687513
C  C80  1  0.64477000  0.92440000  0.80420000  1.0 0.3385687513
C  C81  1  0.92800000  0.66620000  0.71520000  1.0 0.4692719082
C  C82  1  0.07200000  0.33380000  0.71520000  1.0 0.4692719082
C  C83  1  0.66620000  0.07200000  0.71520000  1.0 0.4692719082
C  C84  1  0.33380000  0.92800000  0.71520000  1.0 0.4692719082
C  C85  1  0.92800000  0.33380000  0.28480000  1.0 0.4692719082
C  C86  1  0.07200000  0.66620000  0.28480000  1.0 0.4692719082
C  C87  1  0.66620000  0.92800000  0.28480000  1.0 0.4692719082
C  C88  1  0.33380000  0.07200000  0.28480000  1.0 0.4692719082
C  C89  1  0.07200000  0.33380000  0.28480000  1.0 0.4692719082
C  C90  1  0.92800000  0.66620000  0.28480000  1.0 0.4692719082
C  C91  1  0.33380000  0.92800000  0.28480000  1.0 0.4692719082
C  C92  1  0.66620000  0.07200000  0.28480000  1.0 0.4692719082
C  C93  1  0.07200000  0.66620000  0.71520000  1.0 0.4692719082
C  C94  1  0.92800000  0.33380000  0.71520000  1.0 0.4692719082
C  C95  1  0.33380000  0.07200000  0.71520000  1.0 0.4692719082
C  C96  1  0.66620000  0.92800000  0.71520000  1.0 0.4692719082
C  C97  1  0.79500000  0.54801000  0.92240000  1.0 0.0811549412
C  C98  1  0.20500000  0.45199000  0.92240000  1.0 0.0811549412
C  C99  1  0.54801000  0.20500000  0.92240000  1.0 0.0811549412
C  C100  1  0.45199000  0.79500000  0.92240000  1.0 0.0811549412
C  C101  1  0.79500000  0.45199000  0.07760000  1.0 0.0811549412
C  C102  1  0.20500000  0.54801000  0.07760000  1.0 0.0811549412
C  C103  1  0.54801000  0.79500000  0.07760000  1.0 0.0811549412
C  C104  1  0.45199000  0.20500000  0.07760000  1.0 0.0811549412
C  C105  1  0.20500000  0.45199000  0.07760000  1.0 0.0811549412
C  C106  1  0.79500000  0.54801000  0.07760000  1.0 0.0811549412
C  C107  1  0.45199000  0.79500000  0.07760000  1.0 0.0811549412
C  C108  1  0.54801000  0.20500000  0.07760000  1.0 0.0811549412
C  C109  1  0.20500000  0.54801000  0.92240000  1.0 0.0811549412
C  C110  1  0.79500000  0.45199000  0.92240000  1.0 0.0811549412
C  C111  1  0.45199000  0.20500000  0.92240000  1.0 0.0811549412
C  C112  1  0.54801000  0.79500000  0.92240000  1.0 0.0811549412
C  C113  1  0.81620000  0.54880000  0.00000000  1.0 -0.0171691045
C  C114  1  0.18380000  0.45120000  0.00000000  1.0 -0.0171691045
C  C115  1  0.54880000  0.18380000  0.00000000  1.0 -0.0171691045
C  C116  1  0.45120000  0.81620000  0.00000000  1.0 -0.0171691045
C  C117  1  0.81620000  0.45120000  0.00000000  1.0 -0.0171691045
C  C118  1  0.18380000  0.54880000  0.00000000  1.0 -0.0171691045
C  C119  1  0.54880000  0.81620000  0.00000000  1.0 -0.0171691045
C  C120  1  0.45120000  0.18380000  0.00000000  1.0 -0.0171691045
C  C121  1  0.75740000  0.54939000  0.92190000  1.0 0.0811549412
C  C122  1  0.24260000  0.45061000  0.92190000  1.0 0.0811549412
C  C123  1  0.54939000  0.24260000  0.92190000  1.0 0.0811549412
C  C124  1  0.45061000  0.75740000  0.92190000  1.0 0.0811549412
C  C125  1  0.75740000  0.45061000  0.07810000  1.0 0.0811549412
C  C126  1  0.24260000  0.54939000  0.07810000  1.0 0.0811549412
C  C127  1  0.54939000  0.75740000  0.07810000  1.0 0.0811549412
C  C128  1  0.45061000  0.24260000  0.07810000  1.0 0.0811549412
C  C129  1  0.24260000  0.45061000  0.07810000  1.0 0.0811549412
C  C130  1  0.75740000  0.54939000  0.07810000  1.0 0.0811549412
C  C131  1  0.45061000  0.75740000  0.07810000  1.0 0.0811549412
C  C132  1  0.54939000  0.24260000  0.07810000  1.0 0.0811549412
C  C133  1  0.24260000  0.54939000  0.92190000  1.0 0.0811549412
C  C134  1  0.75740000  0.45061000  0.92190000  1.0 0.0811549412
C  C135  1  0.45061000  0.24260000  0.92190000  1.0 0.0811549412
C  C136  1  0.54939000  0.75740000  0.92190000  1.0 0.0811549412
C  C137  1  0.73940000  0.55170000  0.00000000  1.0 -0.2505482942
C  C138  1  0.26060000  0.44830000  0.00000000  1.0 -0.2505482942
C  C139  1  0.55170000  0.26060000  0.00000000  1.0 -0.2505482942
C  C140  1  0.44830000  0.73940000  0.00000000  1.0 -0.2505482942
C  C141  1  0.73940000  0.44830000  0.00000000  1.0 -0.2505482942
C  C142  1  0.26060000  0.55170000  0.00000000  1.0 -0.2505482942
C  C143  1  0.55170000  0.73940000  0.00000000  1.0 -0.2505482942
C  C144  1  0.44830000  0.26060000  0.00000000  1.0 -0.2505482942
C  C145  1  0.73580000  0.54840000  0.83430000  1.0 -0.4024469847
C  C146  1  0.26420000  0.45160000  0.83430000  1.0 -0.4024469847
C  C147  1  0.54840000  0.26420000  0.83430000  1.0 -0.4024469847
C  C148  1  0.45160000  0.73580000  0.83430000  1.0 -0.4024469847
C  C149  1  0.73580000  0.45160000  0.16570000  1.0 -0.4024469847
C  C150  1  0.26420000  0.54840000  0.16570000  1.0 -0.4024469847
C  C151  1  0.54840000  0.73580000  0.16570000  1.0 -0.4024469847
C  C152  1  0.45160000  0.26420000  0.16570000  1.0 -0.4024469847
C  C153  1  0.26420000  0.45160000  0.16570000  1.0 -0.4024469847
C  C154  1  0.73580000  0.54840000  0.16570000  1.0 -0.4024469847
C  C155  1  0.45160000  0.73580000  0.16570000  1.0 -0.4024469847
C  C156  1  0.54840000  0.26420000  0.16570000  1.0 -0.4024469847
C  C157  1  0.26420000  0.54840000  0.83430000  1.0 -0.4024469847
C  C158  1  0.73580000  0.45160000  0.83430000  1.0 -0.4024469847
C  C159  1  0.45160000  0.26420000  0.83430000  1.0 -0.4024469847
C  C160  1  0.54840000  0.73580000  0.83430000  1.0 -0.4024469847
C  C161  1  0.85970000  0.54720000  0.00000000  1.0 -0.3200180935
C  C162  1  0.14030000  0.45280000  0.00000000  1.0 -0.3200180935
C  C163  1  0.54720000  0.14030000  0.00000000  1.0 -0.3200180935
C  C164  1  0.45280000  0.85970000  0.00000000  1.0 -0.3200180935
C  C165  1  0.85970000  0.45280000  0.00000000  1.0 -0.3200180935
C  C166  1  0.14030000  0.54720000  0.00000000  1.0 -0.3200180935
C  C167  1  0.54720000  0.85970000  0.00000000  1.0 -0.3200180935
C  C168  1  0.45280000  0.14030000  0.00000000  1.0 -0.3200180935
C  C169  1  0.74728000  0.68280000  0.57590000  1.0 0.0688883835
C  C170  1  0.25272000  0.31720000  0.57590000  1.0 0.0688883835
C  C171  1  0.68280000  0.25272000  0.57590000  1.0 0.0688883835
C  C172  1  0.31720000  0.74728000  0.57590000  1.0 0.0688883835
C  C173  1  0.74728000  0.31720000  0.42410000  1.0 0.0688883835
C  C174  1  0.25272000  0.68280000  0.42410000  1.0 0.0688883835
C  C175  1  0.68280000  0.74728000  0.42410000  1.0 0.0688883835
C  C176  1  0.31720000  0.25272000  0.42410000  1.0 0.0688883835
C  C177  1  0.25272000  0.31720000  0.42410000  1.0 0.0688883835
C  C178  1  0.74728000  0.68280000  0.42410000  1.0 0.0688883835
C  C179  1  0.31720000  0.74728000  0.42410000  1.0 0.0688883835
C  C180  1  0.68280000  0.25272000  0.42410000  1.0 0.0688883835
C  C181  1  0.25272000  0.68280000  0.57590000  1.0 0.0688883835
C  C182  1  0.74728000  0.31720000  0.57590000  1.0 0.0688883835
C  C183  1  0.31720000  0.25272000  0.57590000  1.0 0.0688883835
C  C184  1  0.68280000  0.74728000  0.57590000  1.0 0.0688883835
C  C185  1  0.76400000  0.69510000  0.50000000  1.0 -0.11698294
C  C186  1  0.23600000  0.30490000  0.50000000  1.0 -0.11698294
C  C187  1  0.69510000  0.23600000  0.50000000  1.0 -0.11698294
C  C188  1  0.30490000  0.76400000  0.50000000  1.0 -0.11698294
C  C189  1  0.76400000  0.30490000  0.50000000  1.0 -0.11698294
C  C190  1  0.23600000  0.69510000  0.50000000  1.0 -0.11698294
C  C191  1  0.69510000  0.76400000  0.50000000  1.0 -0.11698294
C  C192  1  0.30490000  0.23600000  0.50000000  1.0 -0.11698294
C  C193  1  0.71991000  0.65596000  0.57770000  1.0 0.0811549412
C  C194  1  0.28009000  0.34404000  0.57770000  1.0 0.0811549412
C  C195  1  0.65596000  0.28009000  0.57770000  1.0 0.0811549412
C  C196  1  0.34404000  0.71991000  0.57770000  1.0 0.0811549412
C  C197  1  0.71991000  0.34404000  0.42230000  1.0 0.0811549412
C  C198  1  0.28009000  0.65596000  0.42230000  1.0 0.0811549412
C  C199  1  0.65596000  0.71991000  0.42230000  1.0 0.0811549412
C  C200  1  0.34404000  0.28009000  0.42230000  1.0 0.0811549412
C  C201  1  0.28009000  0.34404000  0.42230000  1.0 0.0811549412
C  C202  1  0.71991000  0.65596000  0.42230000  1.0 0.0811549412
C  C203  1  0.34404000  0.71991000  0.42230000  1.0 0.0811549412
C  C204  1  0.65596000  0.28009000  0.42230000  1.0 0.0811549412
C  C205  1  0.28009000  0.65596000  0.57770000  1.0 0.0811549412
C  C206  1  0.71991000  0.34404000  0.57770000  1.0 0.0811549412
C  C207  1  0.34404000  0.28009000  0.57770000  1.0 0.0811549412
C  C208  1  0.65596000  0.71991000  0.57770000  1.0 0.0811549412
C  C209  1  0.70820000  0.64030000  0.50000000  1.0 -0.2313694855
C  C210  1  0.29180000  0.35970000  0.50000000  1.0 -0.2313694855
C  C211  1  0.64030000  0.29180000  0.50000000  1.0 -0.2313694855
C  C212  1  0.35970000  0.70820000  0.50000000  1.0 -0.2313694855
C  C213  1  0.70820000  0.35970000  0.50000000  1.0 -0.2313694855
C  C214  1  0.29180000  0.64030000  0.50000000  1.0 -0.2313694855
C  C215  1  0.64030000  0.70820000  0.50000000  1.0 -0.2313694855
C  C216  1  0.35970000  0.29180000  0.50000000  1.0 -0.2313694855
C  C217  1  0.70250000  0.64370000  0.66570000  1.0 -0.4102354305
C  C218  1  0.29750000  0.35630000  0.66570000  1.0 -0.4102354305
C  C219  1  0.64370000  0.29750000  0.66570000  1.0 -0.4102354305
C  C220  1  0.35630000  0.70250000  0.66570000  1.0 -0.4102354305
C  C221  1  0.70250000  0.35630000  0.33430000  1.0 -0.4102354305
C  C222  1  0.29750000  0.64370000  0.33430000  1.0 -0.4102354305
C  C223  1  0.64370000  0.70250000  0.33430000  1.0 -0.4102354305
C  C224  1  0.35630000  0.29750000  0.33430000  1.0 -0.4102354305
C  C225  1  0.29750000  0.35630000  0.33430000  1.0 -0.4102354305
C  C226  1  0.70250000  0.64370000  0.33430000  1.0 -0.4102354305
C  C227  1  0.35630000  0.70250000  0.33430000  1.0 -0.4102354305
C  C228  1  0.64370000  0.29750000  0.33430000  1.0 -0.4102354305
C  C229  1  0.29750000  0.64370000  0.66570000  1.0 -0.4102354305
C  C230  1  0.70250000  0.35630000  0.66570000  1.0 -0.4102354305
C  C231  1  0.35630000  0.29750000  0.66570000  1.0 -0.4102354305
C  C232  1  0.64370000  0.70250000  0.66570000  1.0 -0.4102354305
C  C233  1  0.79300000  0.72360000  0.50000000  1.0 -0.2186588602
C  C234  1  0.20700000  0.27640000  0.50000000  1.0 -0.2186588602
C  C235  1  0.72360000  0.20700000  0.50000000  1.0 -0.2186588602
C  C236  1  0.27640000  0.79300000  0.50000000  1.0 -0.2186588602
C  C237  1  0.79300000  0.27640000  0.50000000  1.0 -0.2186588602
C  C238  1  0.20700000  0.72360000  0.50000000  1.0 -0.2186588602
C  C239  1  0.72360000  0.79300000  0.50000000  1.0 -0.2186588602
C  C240  1  0.27640000  0.20700000  0.50000000  1.0 -0.2186588602
C  C241  1  0.95431000  0.61440000  0.92560000  1.0 0.0441590313
C  C242  1  0.04569000  0.38560000  0.92560000  1.0 0.0441590313
C  C243  1  0.61440000  0.04569000  0.92560000  1.0 0.0441590313
C  C244  1  0.38560000  0.95431000  0.92560000  1.0 0.0441590313
C  C245  1  0.95431000  0.38560000  0.07440000  1.0 0.0441590313
C  C246  1  0.04569000  0.61440000  0.07440000  1.0 0.0441590313
C  C247  1  0.61440000  0.95431000  0.07440000  1.0 0.0441590313
C  C248  1  0.38560000  0.04569000  0.07440000  1.0 0.0441590313
C  C249  1  0.04569000  0.38560000  0.07440000  1.0 0.0441590313
C  C250  1  0.95431000  0.61440000  0.07440000  1.0 0.0441590313
C  C251  1  0.38560000  0.95431000  0.07440000  1.0 0.0441590313
C  C252  1  0.61440000  0.04569000  0.07440000  1.0 0.0441590313
C  C253  1  0.04569000  0.61440000  0.92560000  1.0 0.0441590313
C  C254  1  0.95431000  0.38560000  0.92560000  1.0 0.0441590313
C  C255  1  0.38560000  0.04569000  0.92560000  1.0 0.0441590313
C  C256  1  0.61440000  0.95431000  0.92560000  1.0 0.0441590313
C  C257  1  0.95199000  0.57623000  0.92120000  1.0 0.0878523787
C  C258  1  0.04801000  0.42377000  0.92120000  1.0 0.0878523787
C  C259  1  0.57623000  0.04801000  0.92120000  1.0 0.0878523787
C  C260  1  0.42377000  0.95199000  0.92120000  1.0 0.0878523787
C  C261  1  0.95199000  0.42377000  0.07880000  1.0 0.0878523787
C  C262  1  0.04801000  0.57623000  0.07880000  1.0 0.0878523787
C  C263  1  0.57623000  0.95199000  0.07880000  1.0 0.0878523787
C  C264  1  0.42377000  0.04801000  0.07880000  1.0 0.0878523787
C  C265  1  0.04801000  0.42377000  0.07880000  1.0 0.0878523787
C  C266  1  0.95199000  0.57623000  0.07880000  1.0 0.0878523787
C  C267  1  0.42377000  0.95199000  0.07880000  1.0 0.0878523787
C  C268  1  0.57623000  0.04801000  0.07880000  1.0 0.0878523787
C  C269  1  0.04801000  0.57623000  0.92120000  1.0 0.0878523787
C  C270  1  0.95199000  0.42377000  0.92120000  1.0 0.0878523787
C  C271  1  0.42377000  0.04801000  0.92120000  1.0 0.0878523787
C  C272  1  0.57623000  0.95199000  0.92120000  1.0 0.0878523787
C  C273  1  0.95080000  0.55770000  0.00000000  1.0 -0.2313694855
C  C274  1  0.04920000  0.44230000  0.00000000  1.0 -0.2313694855
C  C275  1  0.55770000  0.04920000  0.00000000  1.0 -0.2313694855
C  C276  1  0.44230000  0.95080000  0.00000000  1.0 -0.2313694855
C  C277  1  0.95080000  0.44230000  0.00000000  1.0 -0.2313694855
C  C278  1  0.04920000  0.55770000  0.00000000  1.0 -0.2313694855
C  C279  1  0.55770000  0.95080000  0.00000000  1.0 -0.2313694855
C  C280  1  0.44230000  0.04920000  0.00000000  1.0 -0.2313694855
C  C281  1  0.95560000  0.63600000  0.00000000  1.0 -0.0139906387
C  C282  1  0.04440000  0.36400000  0.00000000  1.0 -0.0171691045
C  C283  1  0.63600000  0.04440000  0.00000000  1.0 -0.0139906387
C  C284  1  0.36400000  0.95560000  0.00000000  1.0 -0.0171691045
C  C285  1  0.95560000  0.36400000  0.00000000  1.0 -0.0171691045
C  C286  1  0.04440000  0.63600000  0.00000000  1.0 -0.0171691045
C  C287  1  0.63600000  0.95560000  0.00000000  1.0 -0.0139906387
C  C288  1  0.36400000  0.04440000  0.00000000  1.0 -0.0171691045
C  C289  1  0.95820000  0.67910000  0.00000000  1.0 -0.2505482942
C  C290  1  0.04180000  0.32090000  0.00000000  1.0 -0.2505482942
C  C291  1  0.67910000  0.04180000  0.00000000  1.0 -0.2505482942
C  C292  1  0.32090000  0.95820000  0.00000000  1.0 -0.2505482942
C  C293  1  0.95820000  0.32090000  0.00000000  1.0 -0.2505482942
C  C294  1  0.04180000  0.67910000  0.00000000  1.0 -0.2505482942
C  C295  1  0.67910000  0.95820000  0.00000000  1.0 -0.2505482942
C  C296  1  0.32090000  0.04180000  0.00000000  1.0 -0.2505482942
C  C297  1  0.95070000  0.55450000  0.83390000  1.0 -0.4299343344
C  C298  1  0.04930000  0.44550000  0.83390000  1.0 -0.4299343344
C  C299  1  0.55450000  0.04930000  0.83390000  1.0 -0.4299343344
C  C300  1  0.44550000  0.95070000  0.83390000  1.0 -0.4299343344
C  C301  1  0.95070000  0.44550000  0.16610000  1.0 -0.4299343344
C  C302  1  0.04930000  0.55450000  0.16610000  1.0 -0.4299343344
C  C303  1  0.55450000  0.95070000  0.16610000  1.0 -0.4299343344
C  C304  1  0.44550000  0.04930000  0.16610000  1.0 -0.4299343344
C  C305  1  0.04930000  0.44550000  0.16610000  1.0 -0.4299343344
C  C306  1  0.95070000  0.55450000  0.16610000  1.0 -0.4299343344
C  C307  1  0.44550000  0.95070000  0.16610000  1.0 -0.4299343344
C  C308  1  0.55450000  0.04930000  0.16610000  1.0 -0.4299343344
C  C309  1  0.04930000  0.55450000  0.83390000  1.0 -0.4299343344
C  C310  1  0.95070000  0.44550000  0.83390000  1.0 -0.4299343344
C  C311  1  0.44550000  0.04930000  0.83390000  1.0 -0.4299343344
C  C312  1  0.55450000  0.95070000  0.83390000  1.0 -0.4299343344
N  N1  1  0.81438000  0.54560000  0.84010000  1.0 -0.4399107198
N  N2  1  0.18562000  0.45440000  0.84010000  1.0 -0.4399107198
N  N3  1  0.54560000  0.18562000  0.84010000  1.0 -0.4399107198
N  N4  1  0.45440000  0.81438000  0.84010000  1.0 -0.4399107198
N  N5  1  0.81438000  0.45440000  0.15990000  1.0 -0.4399107198
N  N6  1  0.18562000  0.54560000  0.15990000  1.0 -0.4399107198
N  N7  1  0.54560000  0.81438000  0.15990000  1.0 -0.4399107198
N  N8  1  0.45440000  0.18562000  0.15990000  1.0 -0.4399107198
N  N9  1  0.18562000  0.45440000  0.15990000  1.0 -0.4399107198
N  N10  1  0.81438000  0.54560000  0.15990000  1.0 -0.4399107198
N  N11  1  0.45440000  0.81438000  0.15990000  1.0 -0.4399107198
N  N12  1  0.54560000  0.18562000  0.15990000  1.0 -0.4399107198
N  N13  1  0.18562000  0.54560000  0.84010000  1.0 -0.4399107198
N  N14  1  0.81438000  0.45440000  0.84010000  1.0 -0.4399107198
N  N15  1  0.45440000  0.18562000  0.84010000  1.0 -0.4399107198
N  N16  1  0.54560000  0.81438000  0.84010000  1.0 -0.4399107198
N  N17  1  0.75960000  0.69939000  0.65970000  1.0 -0.4212344236
N  N18  1  0.24040000  0.30061000  0.65970000  1.0 -0.4212344236
N  N19  1  0.69939000  0.24040000  0.65970000  1.0 -0.4212344236
N  N20  1  0.30061000  0.75960000  0.65970000  1.0 -0.4212344236
N  N21  1  0.75960000  0.30061000  0.34030000  1.0 -0.4212344236
N  N22  1  0.24040000  0.69939000  0.34030000  1.0 -0.4212344236
N  N23  1  0.69939000  0.75960000  0.34030000  1.0 -0.4212344236
N  N24  1  0.30061000  0.24040000  0.34030000  1.0 -0.4212344236
N  N25  1  0.24040000  0.30061000  0.34030000  1.0 -0.4212344236
N  N26  1  0.75960000  0.69939000  0.34030000  1.0 -0.4212344236
N  N27  1  0.30061000  0.75960000  0.34030000  1.0 -0.4212344236
N  N28  1  0.69939000  0.24040000  0.34030000  1.0 -0.4212344236
N  N29  1  0.24040000  0.69939000  0.65970000  1.0 -0.4212344236
N  N30  1  0.75960000  0.30061000  0.65970000  1.0 -0.4212344236
N  N31  1  0.30061000  0.24040000  0.65970000  1.0 -0.4212344236
N  N32  1  0.69939000  0.75960000  0.65970000  1.0 -0.4212344236
N  N33  1  0.95580000  0.63719000  0.84000000  1.0 -0.4212344236
N  N34  1  0.04420000  0.36281000  0.84000000  1.0 -0.4212344236
N  N35  1  0.63719000  0.04420000  0.84000000  1.0 -0.4212344236
N  N36  1  0.36281000  0.95580000  0.84000000  1.0 -0.4212344236
N  N37  1  0.95580000  0.36281000  0.16000000  1.0 -0.4212344236
N  N38  1  0.04420000  0.63719000  0.16000000  1.0 -0.4212344236
N  N39  1  0.63719000  0.95580000  0.16000000  1.0 -0.4212344236
N  N40  1  0.36281000  0.04420000  0.16000000  1.0 -0.4212344236
N  N41  1  0.04420000  0.36281000  0.16000000  1.0 -0.4212344236
N  N42  1  0.95580000  0.63719000  0.16000000  1.0 -0.4212344236
N  N43  1  0.36281000  0.95580000  0.16000000  1.0 -0.4212344236
N  N44  1  0.63719000  0.04420000  0.16000000  1.0 -0.4212344236
N  N45  1  0.04420000  0.63719000  0.84000000  1.0 -0.4212344236
N  N46  1  0.95580000  0.36281000  0.84000000  1.0 -0.4212344236
N  N47  1  0.36281000  0.04420000  0.84000000  1.0 -0.4212344236
N  N48  1  0.63719000  0.95580000  0.84000000  1.0 -0.4212344236
O  O1  1  0.81937000  0.60990000  0.82130000  1.0 -0.4399107198
O  O2  1  0.18063000  0.39010000  0.82130000  1.0 -0.4399107198
O  O3  1  0.60990000  0.18063000  0.82130000  1.0 -0.4399107198
O  O4  1  0.39010000  0.81937000  0.82130000  1.0 -0.4399107198
O  O5  1  0.81937000  0.39010000  0.17870000  1.0 -0.4399107198
O  O6  1  0.18063000  0.60990000  0.17870000  1.0 -0.4399107198
O  O7  1  0.60990000  0.81937000  0.17870000  1.0 -0.4399107198
O  O8  1  0.39010000  0.18063000  0.17870000  1.0 -0.4399107198
O  O9  1  0.18063000  0.39010000  0.17870000  1.0 -0.4399107198
O  O10  1  0.81937000  0.60990000  0.17870000  1.0 -0.4399107198
O  O11  1  0.39010000  0.81937000  0.17870000  1.0 -0.4399107198
O  O12  1  0.60990000  0.18063000  0.17870000  1.0 -0.4399107198
O  O13  1  0.18063000  0.60990000  0.82130000  1.0 -0.4399107198
O  O14  1  0.81937000  0.39010000  0.82130000  1.0 -0.4399107198
O  O15  1  0.39010000  0.18063000  0.82130000  1.0 -0.4399107198
O  O16  1  0.60990000  0.81937000  0.82130000  1.0 -0.4399107198
O  O17  1  0.86458000  0.59710000  0.68160000  1.0 -0.4771407675
O  O18  1  0.13542000  0.40290000  0.68160000  1.0 -0.4771407675
O  O19  1  0.59710000  0.13542000  0.68160000  1.0 -0.4771407675
O  O20  1  0.40290000  0.86458000  0.68160000  1.0 -0.4771407675
O  O21  1  0.86458000  0.40290000  0.31840000  1.0 -0.4771407675
O  O22  1  0.13542000  0.59710000  0.31840000  1.0 -0.4771407675
O  O23  1  0.59710000  0.86458000  0.31840000  1.0 -0.4771407675
O  O24  1  0.40290000  0.13542000  0.31840000  1.0 -0.4771407675
O  O25  1  0.13542000  0.40290000  0.31840000  1.0 -0.4771407675
O  O26  1  0.86458000  0.59710000  0.31840000  1.0 -0.4771407675
O  O27  1  0.40290000  0.86458000  0.31840000  1.0 -0.4771407675
O  O28  1  0.59710000  0.13542000  0.31840000  1.0 -0.4771407675
O  O29  1  0.13542000  0.59710000  0.68160000  1.0 -0.4771407675
O  O30  1  0.86458000  0.40290000  0.68160000  1.0 -0.4771407675
O  O31  1  0.40290000  0.13542000  0.68160000  1.0 -0.4771407675
O  O32  1  0.59710000  0.86458000  0.68160000  1.0 -0.4771407675
O  O33  1  0.85940000  0.53680000  0.70070000  1.0 -0.4299343344
O  O34  1  0.14060000  0.46320000  0.70070000  1.0 -0.4299343344
O  O35  1  0.53680000  0.14060000  0.70070000  1.0 -0.4299343344
O  O36  1  0.46320000  0.85940000  0.70070000  1.0 -0.4299343344
O  O37  1  0.85940000  0.46320000  0.29930000  1.0 -0.4299343344
O  O38  1  0.14060000  0.53680000  0.29930000  1.0 -0.4299343344
O  O39  1  0.53680000  0.85940000  0.29930000  1.0 -0.4299343344
O  O40  1  0.46320000  0.14060000  0.29930000  1.0 -0.4299343344
O  O41  1  0.14060000  0.46320000  0.29930000  1.0 -0.4299343344
O  O42  1  0.85940000  0.53680000  0.29930000  1.0 -0.4299343344
O  O43  1  0.46320000  0.85940000  0.29930000  1.0 -0.4299343344
O  O44  1  0.53680000  0.14060000  0.29930000  1.0 -0.4299343344
O  O45  1  0.14060000  0.53680000  0.70070000  1.0 -0.4299343344
O  O46  1  0.85940000  0.46320000  0.70070000  1.0 -0.4299343344
O  O47  1  0.46320000  0.14060000  0.70070000  1.0 -0.4299343344
O  O48  1  0.53680000  0.85940000  0.70070000  1.0 -0.4299343344
O  O49  1  0.81116000  0.65957000  0.66330000  1.0 -0.5006913369
O  O50  1  0.18884000  0.34043000  0.66330000  1.0 -0.5006913369
O  O51  1  0.65957000  0.18884000  0.66330000  1.0 -0.5006913369
O  O52  1  0.34043000  0.81116000  0.66330000  1.0 -0.5006913369
O  O53  1  0.81116000  0.34043000  0.33670000  1.0 -0.5006913369
O  O54  1  0.18884000  0.65957000  0.33670000  1.0 -0.5006913369
O  O55  1  0.65957000  0.81116000  0.33670000  1.0 -0.5006913369
O  O56  1  0.34043000  0.18884000  0.33670000  1.0 -0.5006913369
O  O57  1  0.18884000  0.34043000  0.33670000  1.0 -0.5006913369
O  O58  1  0.81116000  0.65957000  0.33670000  1.0 -0.5006913369
O  O59  1  0.34043000  0.81116000  0.33670000  1.0 -0.5006913369
O  O60  1  0.65957000  0.18884000  0.33670000  1.0 -0.5006913369
O  O61  1  0.18884000  0.65957000  0.66330000  1.0 -0.5006913369
O  O62  1  0.81116000  0.34043000  0.66330000  1.0 -0.5006913369
O  O63  1  0.34043000  0.18884000  0.66330000  1.0 -0.5006913369
O  O64  1  0.65957000  0.81116000  0.66330000  1.0 -0.5006913369
O  O65  1  0.83426000  0.69358000  0.81110000  1.0 -0.4771407675
O  O66  1  0.16574000  0.30642000  0.81110000  1.0 -0.4771407675
O  O67  1  0.69358000  0.16574000  0.81110000  1.0 -0.4771407675
O  O68  1  0.30642000  0.83426000  0.81110000  1.0 -0.4771407675
O  O69  1  0.83426000  0.30642000  0.18890000  1.0 -0.4771407675
O  O70  1  0.16574000  0.69358000  0.18890000  1.0 -0.4771407675
O  O71  1  0.69358000  0.83426000  0.18890000  1.0 -0.4771407675
O  O72  1  0.30642000  0.16574000  0.18890000  1.0 -0.4771407675
O  O73  1  0.16574000  0.30642000  0.18890000  1.0 -0.4771407675
O  O74  1  0.83426000  0.69358000  0.18890000  1.0 -0.4771407675
O  O75  1  0.30642000  0.83426000  0.18890000  1.0 -0.4771407675
O  O76  1  0.69358000  0.16574000  0.18890000  1.0 -0.4771407675
O  O77  1  0.16574000  0.69358000  0.81110000  1.0 -0.4771407675
O  O78  1  0.83426000  0.30642000  0.81110000  1.0 -0.4771407675
O  O79  1  0.30642000  0.16574000  0.81110000  1.0 -0.4771407675
O  O80  1  0.69358000  0.83426000  0.81110000  1.0 -0.4771407675
O  O81  1  0.78443000  0.73086000  0.80400000  1.0 -0.4399107198
O  O82  1  0.21557000  0.26914000  0.80400000  1.0 -0.4399107198
O  O83  1  0.73086000  0.21557000  0.80400000  1.0 -0.4399107198
O  O84  1  0.26914000  0.78443000  0.80400000  1.0 -0.4399107198
O  O85  1  0.78443000  0.26914000  0.19600000  1.0 -0.4399107198
O  O86  1  0.21557000  0.73086000  0.19600000  1.0 -0.4399107198
O  O87  1  0.73086000  0.78443000  0.19600000  1.0 -0.4399107198
O  O88  1  0.26914000  0.21557000  0.19600000  1.0 -0.4399107198
O  O89  1  0.21557000  0.26914000  0.19600000  1.0 -0.4399107198
O  O90  1  0.78443000  0.73086000  0.19600000  1.0 -0.4399107198
O  O91  1  0.26914000  0.78443000  0.19600000  1.0 -0.4399107198
O  O92  1  0.73086000  0.21557000  0.19600000  1.0 -0.4399107198
O  O93  1  0.21557000  0.73086000  0.80400000  1.0 -0.4399107198
O  O94  1  0.78443000  0.26914000  0.80400000  1.0 -0.4399107198
O  O95  1  0.26914000  0.21557000  0.80400000  1.0 -0.4399107198
O  O96  1  0.73086000  0.78443000  0.80400000  1.0 -0.4399107198
O  O97  1  0.89710000  0.67302000  0.68270000  1.0 -0.4723107474
O  O98  1  0.10290000  0.32698000  0.68270000  1.0 -0.4723107474
O  O99  1  0.67302000  0.10290000  0.68270000  1.0 -0.4723107474
O  O100  1  0.32698000  0.89710000  0.68270000  1.0 -0.4723107474
O  O101  1  0.89710000  0.32698000  0.31730000  1.0 -0.4723107474
O  O102  1  0.10290000  0.67302000  0.31730000  1.0 -0.4723107474
O  O103  1  0.67302000  0.89710000  0.31730000  1.0 -0.4723107474
O  O104  1  0.32698000  0.10290000  0.31730000  1.0 -0.4723107474
O  O105  1  0.10290000  0.32698000  0.31730000  1.0 -0.4723107474
O  O106  1  0.89710000  0.67302000  0.31730000  1.0 -0.4723107474
O  O107  1  0.32698000  0.89710000  0.31730000  1.0 -0.4723107474
O  O108  1  0.67302000  0.10290000  0.31730000  1.0 -0.4723107474
O  O109  1  0.10290000  0.67302000  0.68270000  1.0 -0.4723107474
O  O110  1  0.89710000  0.32698000  0.68270000  1.0 -0.4723107474
O  O111  1  0.32698000  0.10290000  0.68270000  1.0 -0.4723107474
O  O112  1  0.67302000  0.89710000  0.68270000  1.0 -0.4723107474
O  O113  1  0.89240000  0.63638000  0.83510000  1.0 -0.4771407675
O  O114  1  0.10760000  0.36362000  0.83510000  1.0 -0.4771407675
O  O115  1  0.63638000  0.10760000  0.83510000  1.0 -0.4771407675
O  O116  1  0.36362000  0.89240000  0.83510000  1.0 -0.4771407675
O  O117  1  0.89240000  0.36362000  0.16490000  1.0 -0.4771407675
O  O118  1  0.10760000  0.63638000  0.16490000  1.0 -0.4771407675
O  O119  1  0.63638000  0.89240000  0.16490000  1.0 -0.4771407675
O  O120  1  0.36362000  0.10760000  0.16490000  1.0 -0.4771407675
O  O121  1  0.10760000  0.36362000  0.16490000  1.0 -0.4771407675
O  O122  1  0.89240000  0.63638000  0.16490000  1.0 -0.4771407675
O  O123  1  0.36362000  0.89240000  0.16490000  1.0 -0.4771407675
O  O124  1  0.63638000  0.10760000  0.16490000  1.0 -0.4771407675
O  O125  1  0.10760000  0.63638000  0.83510000  1.0 -0.4771407675
O  O126  1  0.89240000  0.36362000  0.83510000  1.0 -0.4771407675
O  O127  1  0.36362000  0.10760000  0.83510000  1.0 -0.4771407675
O  O128  1  0.63638000  0.89240000  0.83510000  1.0 -0.4771407675
O  O129  1  0.96010000  0.67323000  0.69000000  1.0 -0.4491705255
O  O130  1  0.03990000  0.32677000  0.69000000  1.0 -0.4491705255
O  O131  1  0.67323000  0.03990000  0.69000000  1.0 -0.4491705255
O  O132  1  0.32677000  0.96010000  0.69000000  1.0 -0.4491705255
O  O133  1  0.96010000  0.32677000  0.31000000  1.0 -0.4491705255
O  O134  1  0.03990000  0.67323000  0.31000000  1.0 -0.4491705255
O  O135  1  0.67323000  0.96010000  0.31000000  1.0 -0.4491705255
O  O136  1  0.32677000  0.03990000  0.31000000  1.0 -0.4491705255
O  O137  1  0.03990000  0.32677000  0.31000000  1.0 -0.4491705255
O  O138  1  0.96010000  0.67323000  0.31000000  1.0 -0.4491705255
O  O139  1  0.32677000  0.96010000  0.31000000  1.0 -0.4491705255
O  O140  1  0.67323000  0.03990000  0.31000000  1.0 -0.4491705255
O  O141  1  0.03990000  0.67323000  0.69000000  1.0 -0.4491705255
O  O142  1  0.96010000  0.32677000  0.69000000  1.0 -0.4491705255
O  O143  1  0.32677000  0.03990000  0.69000000  1.0 -0.4491705255
O  O144  1  0.67323000  0.96010000  0.69000000  1.0 -0.4491705255
O  O145  1  0.70600000  0.70600000  0.84760000  1.0 -0.3045365172
O  O146  1  0.29400000  0.29400000  0.84760000  1.0 -0.3063929187
O  O147  1  0.70600000  0.29400000  0.84760000  1.0 -0.3045365172
O  O148  1  0.29400000  0.70600000  0.84760000  1.0 -0.3063929187
O  O149  1  0.70600000  0.29400000  0.15240000  1.0 -0.3045365172
O  O150  1  0.29400000  0.70600000  0.15240000  1.0 -0.3063929187
O  O151  1  0.70600000  0.70600000  0.15240000  1.0 -0.3045365172
O  O152  1  0.29400000  0.29400000  0.15240000  1.0 -0.3063929187
O  O153  1  0.00000000  0.60400000  0.65190000  1.0 -0.0485745626
O  O154  1  0.00000000  0.39600000  0.65190000  1.0 -0.0485745626
O  O155  1  0.60400000  0.00000000  0.65190000  1.0 -0.0485745626
O  O156  1  0.39600000  0.00000000  0.65190000  1.0 -0.0485745626
O  O157  1  0.00000000  0.39600000  0.34810000  1.0 -0.0485745626
O  O158  1  0.00000000  0.60400000  0.34810000  1.0 -0.0485745626
O  O159  1  0.60400000  0.00000000  0.34810000  1.0 -0.0485745626
O  O160  1  0.39600000  0.00000000  0.34810000  1.0 -0.0485745626
