# DDEC6 charges by PACMAN v1.1 (https://github.com/mtap-research/PACMAN-charge/)
data_ZINDAD_FSR_pacman
_symmetry_space_group_name_H-M   'P 1'
_cell_length_a   26.90750000
_cell_length_b   26.90750000
_cell_length_c   26.90750000
_cell_angle_alpha   120.12900000
_cell_angle_beta   120.12900000
_cell_angle_gamma   89.77670000
_symmetry_Int_Tables_number   1
_chemical_formula_structural   ZnH4C9N2O5
_chemical_formula_sum   'Zn24 H96 C216 N48 O120'
_cell_volume   13748.45464844
_cell_formula_units_Z   24
loop_
 _symmetry_equiv_pos_site_id
 _symmetry_equiv_pos_as_xyz
  1  'x, y, z'
loop_
 _atom_site_type_symbol
 _atom_site_label
 _atom_site_symmetry_multiplicity
 _atom_site_fract_x
 _atom_site_fract_y
 _atom_site_fract_z
 _atom_site_occupancy
 _atom_site_charge
Zn  Zn1  1  0.79040000  0.45035000  0.24075000  1.0 1.035510732
Zn  Zn2  1  0.20960000  0.54965000  0.75925000  1.0 1.0277766825
Zn  Zn3  1  0.45035000  0.20960000  0.65995000  1.0 1.0277766825
Zn  Zn4  1  0.54965000  0.79040000  0.34005000  1.0 1.0277766825
Zn  Zn5  1  0.52621000  0.47436000  0.28995000  1.0 1.0277766825
Zn  Zn6  1  0.18441000  0.23626000  0.71005000  1.0 1.0277766825
Zn  Zn7  1  0.47436000  0.18441000  0.94815000  1.0 1.0277766825
Zn  Zn8  1  0.23626000  0.52621000  0.05185000  1.0 1.0277766825
Zn  Zn9  1  0.47379000  0.52564000  0.71005000  1.0 1.0277766825
Zn  Zn10  1  0.81559000  0.76374000  0.28995000  1.0 1.0277766825
Zn  Zn11  1  0.52564000  0.81559000  0.05185000  1.0 1.0277766825
Zn  Zn12  1  0.76374000  0.47379000  0.94815000  1.0 1.0277766825
Zn  Zn13  1  0.89991000  0.43272000  0.33263000  1.0 0.9722286649
Zn  Zn14  1  0.10009000  0.56728000  0.66737000  1.0 0.9722286649
Zn  Zn15  1  0.43272000  0.10009000  0.53281000  1.0 0.9722286649
Zn  Zn16  1  0.56728000  0.89991000  0.46719000  1.0 0.9722286649
Zn  Zn17  1  0.53474000  0.46249000  0.39905000  1.0 0.9722286649
Zn  Zn18  1  0.06344000  0.13569000  0.60095000  1.0 0.9766741527
Zn  Zn19  1  0.46249000  0.06344000  0.92775000  1.0 0.9722286649
Zn  Zn20  1  0.13569000  0.53474000  0.07225000  1.0 0.9722286649
Zn  Zn21  1  0.46526000  0.53751000  0.60095000  1.0 0.9722286649
Zn  Zn22  1  0.93656000  0.86431000  0.39905000  1.0 0.9722286649
Zn  Zn23  1  0.53751000  0.93656000  0.07225000  1.0 0.9722286649
Zn  Zn24  1  0.86431000  0.46526000  0.92775000  1.0 0.9722286649
H  H1  1  0.06040000  0.42270000  0.15550000  1.0 0.3037198426
H  H2  1  0.26720000  0.90490000  0.84450000  1.0 0.3037198426
H  H3  1  0.42270000  0.26720000  0.36230000  1.0 0.3037198426
H  H4  1  0.90490000  0.06040000  0.63770000  1.0 0.3037198426
H  H5  1  0.93960000  0.57730000  0.84450000  1.0 0.3037198426
H  H6  1  0.73280000  0.09510000  0.15550000  1.0 0.3037198426
H  H7  1  0.57730000  0.73280000  0.63770000  1.0 0.3037198426
H  H8  1  0.09510000  0.93960000  0.36230000  1.0 0.3037198426
H  H9  1  0.28540000  0.46360000  0.35600000  1.0 0.3075740676
H  H10  1  0.10760000  0.92940000  0.64400000  1.0 0.3075740676
H  H11  1  0.46360000  0.10760000  0.17820000  1.0 0.3075740676
H  H12  1  0.92940000  0.28540000  0.82180000  1.0 0.3075740676
H  H13  1  0.71460000  0.53640000  0.64400000  1.0 0.3075740676
H  H14  1  0.89240000  0.07060000  0.35600000  1.0 0.3075740676
H  H15  1  0.53640000  0.89240000  0.82180000  1.0 0.3075740676
H  H16  1  0.07060000  0.71460000  0.17820000  1.0 0.3075740676
H  H17  1  0.11230000  0.48700000  0.40390000  1.0 0.3037198426
H  H18  1  0.08310000  0.70840000  0.59610000  1.0 0.3075740676
H  H19  1  0.48700000  0.08310000  0.37470000  1.0 0.3037198426
H  H20  1  0.70840000  0.11230000  0.62530000  1.0 0.3075740676
H  H21  1  0.88770000  0.51300000  0.59610000  1.0 0.3075740676
H  H22  1  0.91690000  0.29160000  0.40390000  1.0 0.3075740676
H  H23  1  0.51300000  0.91690000  0.62530000  1.0 0.3037198426
H  H24  1  0.29160000  0.88770000  0.37470000  1.0 0.3075740676
H  H25  1  0.99150000  0.42530000  0.23680000  1.0 0.1481078604
H  H26  1  0.18850000  0.75470000  0.76320000  1.0 0.1481078604
H  H27  1  0.42530000  0.18850000  0.43380000  1.0 0.1481078604
H  H28  1  0.75470000  0.99150000  0.56620000  1.0 0.1481078604
H  H29  1  0.00850000  0.57470000  0.76320000  1.0 0.1481078604
H  H30  1  0.81150000  0.24530000  0.23680000  1.0 0.1481078604
H  H31  1  0.57470000  0.81150000  0.56620000  1.0 0.1481078604
H  H32  1  0.24530000  0.00850000  0.43380000  1.0 0.1481078604
H  H33  1  0.83570000  0.43210000  0.10260000  1.0 0.1481078604
H  H34  1  0.32950000  0.73310000  0.89740000  1.0 0.1481078604
H  H35  1  0.43210000  0.32950000  0.59640000  1.0 0.1481078604
H  H36  1  0.73310000  0.83570000  0.40360000  1.0 0.1481078604
H  H37  1  0.16430000  0.56790000  0.89740000  1.0 0.1481078604
H  H38  1  0.67050000  0.26690000  0.10260000  1.0 0.1481078604
H  H39  1  0.56790000  0.67050000  0.40360000  1.0 0.1481078604
H  H40  1  0.26690000  0.16430000  0.59640000  1.0 0.1481078604
H  H41  1  0.97560000  0.43680000  0.08640000  1.0 0.1418568989
H  H42  1  0.35040000  0.88920000  0.91360000  1.0 0.1418568989
H  H43  1  0.43680000  0.35040000  0.46120000  1.0 0.1418568989
H  H44  1  0.88920000  0.97560000  0.53880000  1.0 0.1418568989
H  H45  1  0.02440000  0.56320000  0.91360000  1.0 0.1418568989
H  H46  1  0.64960000  0.11080000  0.08640000  1.0 0.1418568989
H  H47  1  0.56320000  0.64960000  0.53880000  1.0 0.1418568989
H  H48  1  0.11080000  0.02440000  0.46120000  1.0 0.1418568989
H  H49  1  0.20460000  0.47980000  0.21840000  1.0 0.1418568989
H  H50  1  0.26140000  0.98620000  0.78160000  1.0 0.1418568989
H  H51  1  0.47980000  0.26140000  0.27520000  1.0 0.1418568989
H  H52  1  0.98620000  0.20460000  0.72480000  1.0 0.1418568989
H  H53  1  0.79540000  0.52020000  0.78160000  1.0 0.1418568989
H  H54  1  0.73860000  0.01380000  0.21840000  1.0 0.1418568989
H  H55  1  0.52020000  0.73860000  0.72480000  1.0 0.1418568989
H  H56  1  0.01380000  0.79540000  0.27520000  1.0 0.1418568989
H  H57  1  0.33960000  0.48140000  0.19320000  1.0 0.1481078604
H  H58  1  0.28820000  0.14640000  0.80680000  1.0 0.1481078604
H  H59  1  0.48140000  0.28820000  0.14180000  1.0 0.1481078604
H  H60  1  0.14640000  0.33960000  0.85820000  1.0 0.1481078604
H  H61  1  0.66040000  0.51860000  0.80680000  1.0 0.1481078604
H  H62  1  0.71180000  0.85360000  0.19320000  1.0 0.1481078604
H  H63  1  0.51860000  0.71180000  0.85820000  1.0 0.1481078604
H  H64  1  0.85360000  0.66040000  0.14180000  1.0 0.1481078604
H  H65  1  0.35480000  0.45220000  0.33140000  1.0 0.1418568989
H  H66  1  0.12080000  0.02340000  0.66860000  1.0 0.1418568989
H  H67  1  0.45220000  0.12080000  0.09740000  1.0 0.1418568989
H  H68  1  0.02340000  0.35480000  0.90260000  1.0 0.1418568989
H  H69  1  0.64520000  0.54780000  0.66860000  1.0 0.1418568989
H  H70  1  0.87920000  0.97660000  0.33140000  1.0 0.1418568989
H  H71  1  0.54780000  0.87920000  0.90260000  1.0 0.1418568989
H  H72  1  0.97660000  0.64520000  0.09740000  1.0 0.1418568989
H  H73  1  0.26670000  0.49880000  0.47810000  1.0 0.1418568989
H  H74  1  0.02070000  0.78860000  0.52190000  1.0 0.1418568989
H  H75  1  0.49880000  0.02070000  0.23210000  1.0 0.1418568989
H  H76  1  0.78860000  0.26670000  0.76790000  1.0 0.1418568989
H  H77  1  0.73330000  0.50120000  0.52190000  1.0 0.1418568989
H  H78  1  0.97930000  0.21140000  0.47810000  1.0 0.1418568989
H  H79  1  0.50120000  0.97930000  0.76790000  1.0 0.1418568989
H  H80  1  0.21140000  0.73330000  0.23210000  1.0 0.1418568989
H  H81  1  0.29780000  0.53350000  0.65730000  1.0 0.1481078604
H  H82  1  0.87620000  0.64050000  0.34270000  1.0 0.1481078604
H  H83  1  0.53350000  0.87620000  0.23570000  1.0 0.1481078604
H  H84  1  0.64050000  0.29780000  0.76430000  1.0 0.1481078604
H  H85  1  0.70220000  0.46650000  0.34270000  1.0 0.1481078604
H  H86  1  0.12380000  0.35950000  0.65730000  1.0 0.1481078604
H  H87  1  0.46650000  0.12380000  0.76430000  1.0 0.1481078604
H  H88  1  0.35950000  0.70220000  0.23570000  1.0 0.1481078604
H  H89  1  0.13190000  0.50960000  0.50470000  1.0 0.1418568989
H  H90  1  0.00490000  0.62720000  0.49530000  1.0 0.1418568989
H  H91  1  0.50960000  0.00490000  0.37770000  1.0 0.1418568989
H  H92  1  0.62720000  0.13190000  0.62230000  1.0 0.1418568989
H  H93  1  0.86810000  0.49040000  0.49530000  1.0 0.1418568989
H  H94  1  0.99510000  0.37280000  0.50470000  1.0 0.1418568989
H  H95  1  0.49040000  0.99510000  0.62230000  1.0 0.1418568989
H  H96  1  0.37280000  0.86810000  0.37770000  1.0 0.1418568989
C  C1  1  0.10321000  0.44692000  0.24917000  1.0 0.53925974
C  C2  1  0.19775000  0.85404000  0.75083000  1.0 0.53925974
C  C3  1  0.44692000  0.19775000  0.34371000  1.0 0.53925974
C  C4  1  0.85404000  0.10321000  0.65629000  1.0 0.53925974
C  C5  1  0.89679000  0.55308000  0.75083000  1.0 0.53925974
C  C6  1  0.80225000  0.14596000  0.24917000  1.0 0.53925974
C  C7  1  0.55308000  0.80225000  0.65629000  1.0 0.53925974
C  C8  1  0.14596000  0.89679000  0.34371000  1.0 0.53925974
C  C9  1  0.20263000  0.45859000  0.31026000  1.0 0.53925974
C  C10  1  0.14833000  0.89237000  0.68974000  1.0 0.53925974
C  C11  1  0.45859000  0.14833000  0.25596000  1.0 0.53925974
C  C12  1  0.89237000  0.20263000  0.74404000  1.0 0.53925974
C  C13  1  0.79737000  0.54141000  0.68974000  1.0 0.53925974
C  C14  1  0.85167000  0.10763000  0.31026000  1.0 0.53925974
C  C15  1  0.54141000  0.85167000  0.74404000  1.0 0.53925974
C  C16  1  0.10763000  0.79737000  0.25596000  1.0 0.53925974
C  C17  1  0.15185000  0.47197000  0.35862000  1.0 0.53925974
C  C18  1  0.11335000  0.79323000  0.64138000  1.0 0.53925974
C  C19  1  0.47197000  0.11335000  0.32012000  1.0 0.53925974
C  C20  1  0.79323000  0.15185000  0.67988000  1.0 0.53925974
C  C21  1  0.84815000  0.52803000  0.64138000  1.0 0.53925974
C  C22  1  0.88665000  0.20677000  0.35862000  1.0 0.53925974
C  C23  1  0.52803000  0.88665000  0.67988000  1.0 0.53925974
C  C24  1  0.20677000  0.84815000  0.32012000  1.0 0.53925974
C  C25  1  0.99401000  0.43168000  0.16645000  1.0 0.2180493513
C  C26  1  0.26523000  0.82756000  0.83355000  1.0 0.2180493513
C  C27  1  0.43168000  0.26523000  0.43767000  1.0 0.2180493513
C  C28  1  0.82756000  0.99401000  0.56233000  1.0 0.2180493513
C  C29  1  0.00599000  0.56832000  0.83355000  1.0 0.2180493513
C  C30  1  0.73477000  0.17244000  0.16645000  1.0 0.2180493513
C  C31  1  0.56832000  0.73477000  0.56233000  1.0 0.2180493513
C  C32  1  0.17244000  0.00599000  0.43767000  1.0 0.2180493513
C  C33  1  0.96877000  0.42790000  0.19887000  1.0 -0.1618118843
C  C34  1  0.22903000  0.76990000  0.80113000  1.0 -0.1618118843
C  C35  1  0.42790000  0.22903000  0.45913000  1.0 -0.1618118843
C  C36  1  0.76990000  0.96877000  0.54087000  1.0 -0.1618118843
C  C37  1  0.03123000  0.57210000  0.80113000  1.0 -0.1618118843
C  C38  1  0.77097000  0.23010000  0.19887000  1.0 -0.1618118843
C  C39  1  0.57210000  0.77097000  0.54087000  1.0 -0.1618118843
C  C40  1  0.23010000  0.03123000  0.45913000  1.0 -0.1618118843
C  C41  1  0.91006000  0.42803000  0.17501000  1.0 -0.0173260639
C  C42  1  0.25302000  0.73505000  0.82499000  1.0 -0.0173260639
C  C43  1  0.42803000  0.25302000  0.51797000  1.0 -0.0173260639
C  C44  1  0.73505000  0.91006000  0.48203000  1.0 -0.0173260639
C  C45  1  0.08994000  0.57197000  0.82499000  1.0 -0.0173260639
C  C46  1  0.74698000  0.26495000  0.17501000  1.0 -0.0173260639
C  C47  1  0.57197000  0.74698000  0.48203000  1.0 -0.0173260639
C  C48  1  0.26495000  0.08994000  0.51797000  1.0 -0.0173260639
C  C49  1  0.87531000  0.43178000  0.11827000  1.0 -0.0909879945
C  C50  1  0.31351000  0.75704000  0.88173000  1.0 -0.0909879945
C  C51  1  0.43178000  0.31351000  0.55647000  1.0 -0.0909879945
C  C52  1  0.75704000  0.87531000  0.44353000  1.0 -0.0909879945
C  C53  1  0.12469000  0.56822000  0.88173000  1.0 -0.0909879945
C  C54  1  0.68649000  0.24296000  0.11827000  1.0 -0.0909879945
C  C55  1  0.56822000  0.68649000  0.44353000  1.0 -0.0909879945
C  C56  1  0.24296000  0.12469000  0.55647000  1.0 -0.0909879945
C  C57  1  0.90046000  0.43515000  0.08491000  1.0 -0.0173260639
C  C58  1  0.35024000  0.81555000  0.91509000  1.0 -0.0173260639
C  C59  1  0.43515000  0.35024000  0.53469000  1.0 -0.0173260639
C  C60  1  0.81555000  0.90046000  0.46531000  1.0 -0.0173260639
C  C61  1  0.09954000  0.56485000  0.91509000  1.0 -0.0173260639
C  C62  1  0.64976000  0.18445000  0.08491000  1.0 -0.0173260639
C  C63  1  0.56485000  0.64976000  0.46531000  1.0 -0.0173260639
C  C64  1  0.18445000  0.09954000  0.53469000  1.0 -0.0173260639
C  C65  1  0.95903000  0.43486000  0.10871000  1.0 -0.1801526489
C  C66  1  0.32615000  0.85032000  0.89129000  1.0 -0.1801526489
C  C67  1  0.43486000  0.32615000  0.47583000  1.0 -0.1801526489
C  C68  1  0.85032000  0.95903000  0.52417000  1.0 -0.188193566
C  C69  1  0.04097000  0.56514000  0.89129000  1.0 -0.1801526489
C  C70  1  0.67385000  0.14968000  0.10871000  1.0 -0.1801526489
C  C71  1  0.56514000  0.67385000  0.52417000  1.0 -0.188193566
C  C72  1  0.14968000  0.04097000  0.47583000  1.0 -0.1801526489
C  C73  1  0.88349000  0.42754000  0.21223000  1.0 0.5992195515
C  C74  1  0.21531000  0.67126000  0.78777000  1.0 0.5992195515
C  C75  1  0.42754000  0.21531000  0.54405000  1.0 0.5992195515
C  C76  1  0.67126000  0.88349000  0.45595000  1.0 0.5992195515
C  C77  1  0.11651000  0.57246000  0.78777000  1.0 0.5992195515
C  C78  1  0.78469000  0.32874000  0.21223000  1.0 0.5992195515
C  C79  1  0.57246000  0.78469000  0.45595000  1.0 0.5992195515
C  C80  1  0.32874000  0.11651000  0.54405000  1.0 0.5992195515
C  C81  1  0.86477000  0.44274000  0.02637000  1.0 0.5900002105
C  C82  1  0.41637000  0.83840000  0.97363000  1.0 0.5900002105
C  C83  1  0.44274000  0.41637000  0.57797000  1.0 0.5900002105
C  C84  1  0.83840000  0.86477000  0.42203000  1.0 0.5900002105
C  C85  1  0.13523000  0.55726000  0.97363000  1.0 0.5900002105
C  C86  1  0.58363000  0.16160000  0.02637000  1.0 0.5900002105
C  C87  1  0.55726000  0.58363000  0.42203000  1.0 0.5900002105
C  C88  1  0.16160000  0.13523000  0.57797000  1.0 0.5900002105
C  C89  1  0.27551000  0.46383000  0.28010000  1.0 0.2180493513
C  C90  1  0.18373000  0.99541000  0.71990000  1.0 0.2180493513
C  C91  1  0.46383000  0.18373000  0.18832000  1.0 0.2180493513
C  C92  1  0.99541000  0.27551000  0.81168000  1.0 0.2180493513
C  C93  1  0.72449000  0.53617000  0.71990000  1.0 0.2180493513
C  C94  1  0.81627000  0.00459000  0.28010000  1.0 0.2180493513
C  C95  1  0.53617000  0.81627000  0.81168000  1.0 0.2180493513
C  C96  1  0.00459000  0.72449000  0.18832000  1.0 0.2180493513
C  C97  1  0.24261000  0.47601000  0.23012000  1.0 -0.1801526489
C  C98  1  0.24589000  0.01249000  0.76988000  1.0 -0.1801526489
C  C99  1  0.47601000  0.24589000  0.23340000  1.0 -0.1801526489
C  C100  1  0.01249000  0.24261000  0.76660000  1.0 -0.1801526489
C  C101  1  0.75739000  0.52399000  0.76988000  1.0 -0.1801526489
C  C102  1  0.75411000  0.98751000  0.23012000  1.0 -0.1801526489
C  C103  1  0.52399000  0.75411000  0.76660000  1.0 -0.1801526489
C  C104  1  0.98751000  0.75739000  0.23340000  1.0 -0.1713011887
C  C105  1  0.26724000  0.48234000  0.19766000  1.0 -0.0108119844
C  C106  1  0.28468000  0.06958000  0.80234000  1.0 -0.0108119844
C  C107  1  0.48234000  0.28468000  0.21510000  1.0 -0.0108119844
C  C108  1  0.06958000  0.26724000  0.78490000  1.0 -0.0108119844
C  C109  1  0.73276000  0.51766000  0.80234000  1.0 -0.0108119844
C  C110  1  0.71532000  0.93042000  0.19766000  1.0 -0.0108119844
C  C111  1  0.51766000  0.71532000  0.78490000  1.0 -0.0108119844
C  C112  1  0.93042000  0.73276000  0.21510000  1.0 -0.0108119844
C  C113  1  0.32360000  0.47695000  0.21493000  1.0 -0.0909879945
C  C114  1  0.26202000  0.10867000  0.78507000  1.0 -0.0909879945
C  C115  1  0.47695000  0.26202000  0.15335000  1.0 -0.0909879945
C  C116  1  0.10867000  0.32360000  0.84665000  1.0 -0.0909879945
C  C117  1  0.67640000  0.52305000  0.78507000  1.0 -0.0909879945
C  C118  1  0.73798000  0.89133000  0.21493000  1.0 -0.0909879945
C  C119  1  0.52305000  0.73798000  0.84665000  1.0 -0.0909879945
C  C120  1  0.89133000  0.67640000  0.15335000  1.0 -0.0909879945
C  C121  1  0.35616000  0.46501000  0.26425000  1.0 -0.0173260639
C  C122  1  0.20076000  0.09191000  0.73575000  1.0 -0.0173260639
C  C123  1  0.46501000  0.20076000  0.10885000  1.0 -0.0173260639
C  C124  1  0.09191000  0.35616000  0.89115000  1.0 -0.0173260639
C  C125  1  0.64384000  0.53499000  0.73575000  1.0 -0.0173260639
C  C126  1  0.79924000  0.90809000  0.26425000  1.0 -0.0173260639
C  C127  1  0.53499000  0.79924000  0.89115000  1.0 -0.0173260639
C  C128  1  0.90809000  0.64384000  0.10885000  1.0 -0.0173260639
C  C129  1  0.33214000  0.45926000  0.29722000  1.0 -0.188193566
C  C130  1  0.16204000  0.03492000  0.70278000  1.0 -0.188193566
C  C131  1  0.45926000  0.16204000  0.12712000  1.0 -0.188193566
C  C132  1  0.03492000  0.33214000  0.87288000  1.0 -0.188193566
C  C133  1  0.66786000  0.54074000  0.70278000  1.0 -0.188193566
C  C134  1  0.83796000  0.96508000  0.29722000  1.0 -0.188193566
C  C135  1  0.54074000  0.83796000  0.87288000  1.0 -0.188193566
C  C136  1  0.96508000  0.66786000  0.12712000  1.0 -0.188193566
C  C137  1  0.23290000  0.49863000  0.14639000  1.0 0.5992195515
C  C138  1  0.35224000  0.08651000  0.85361000  1.0 0.5992195515
C  C139  1  0.49863000  0.35224000  0.26573000  1.0 0.5992195515
C  C140  1  0.08651000  0.23290000  0.73427000  1.0 0.5992195515
C  C141  1  0.76710000  0.50137000  0.85361000  1.0 0.5992195515
C  C142  1  0.64776000  0.91349000  0.14639000  1.0 0.5992195515
C  C143  1  0.50137000  0.64776000  0.73427000  1.0 0.5992195515
C  C144  1  0.91349000  0.76710000  0.26573000  1.0 0.5992195515
C  C145  1  0.41915000  0.46344000  0.28803000  1.0 0.5900002105
C  C146  1  0.17541000  0.13112000  0.71197000  1.0 0.5900002105
C  C147  1  0.46344000  0.17541000  0.04429000  1.0 0.5900002105
C  C148  1  0.13112000  0.41915000  0.95571000  1.0 0.5900002105
C  C149  1  0.58085000  0.53656000  0.71197000  1.0 0.5900002105
C  C150  1  0.82459000  0.86888000  0.28803000  1.0 0.5900002105
C  C151  1  0.53656000  0.82459000  0.95571000  1.0 0.5900002105
C  C152  1  0.86888000  0.58085000  0.04429000  1.0 0.5900002105
C  C153  1  0.19204000  0.50111000  0.48009000  1.0 0.2135571858
C  C154  1  0.02102000  0.71195000  0.51991000  1.0 0.2135571858
C  C155  1  0.50111000  0.02102000  0.30907000  1.0 0.2135571858
C  C156  1  0.71195000  0.19204000  0.69093000  1.0 0.2135571858
C  C157  1  0.80796000  0.49889000  0.51991000  1.0 0.2135571858
C  C158  1  0.97898000  0.28805000  0.48009000  1.0 0.2135571858
C  C159  1  0.49889000  0.97898000  0.69093000  1.0 0.2135571858
C  C160  1  0.28805000  0.80796000  0.30907000  1.0 0.2135571858
C  C161  1  0.25264000  0.50466000  0.50532000  1.0 -0.1713011887
C  C162  1  0.99934000  0.74732000  0.49468000  1.0 -0.1713011887
C  C163  1  0.50466000  0.99934000  0.25202000  1.0 -0.1713011887
C  C164  1  0.74732000  0.25264000  0.74798000  1.0 -0.1713011887
C  C165  1  0.74736000  0.49534000  0.49468000  1.0 -0.1713011887
C  C166  1  0.00066000  0.25268000  0.50532000  1.0 -0.1713011887
C  C167  1  0.49534000  0.00066000  0.74798000  1.0 -0.1713011887
C  C168  1  0.25268000  0.74736000  0.25202000  1.0 -0.1713011887
C  C169  1  0.29169000  0.51720000  0.57197000  1.0 -0.0173260639
C  C170  1  0.94523000  0.71972000  0.42803000  1.0 -0.0173260639
C  C171  1  0.51720000  0.94523000  0.22551000  1.0 -0.0173260639
C  C172  1  0.71972000  0.29169000  0.77449000  1.0 -0.0173260639
C  C173  1  0.70831000  0.48280000  0.42803000  1.0 -0.0173260639
C  C174  1  0.05477000  0.28028000  0.57197000  1.0 -0.0173260639
C  C175  1  0.48280000  0.05477000  0.77449000  1.0 -0.0173260639
C  C176  1  0.28028000  0.70831000  0.22551000  1.0 -0.0173260639
C  C177  1  0.27165000  0.52635000  0.61344000  1.0 -0.0909879945
C  C178  1  0.91291000  0.65821000  0.38656000  1.0 -0.0909879945
C  C179  1  0.52635000  0.91291000  0.25470000  1.0 -0.0909879945
C  C180  1  0.65821000  0.27165000  0.74530000  1.0 -0.0909879945
C  C181  1  0.72835000  0.47365000  0.38656000  1.0 -0.0909879945
C  C182  1  0.08709000  0.34179000  0.61344000  1.0 -0.0909879945
C  C183  1  0.47365000  0.08709000  0.74530000  1.0 -0.0909879945
C  C184  1  0.34179000  0.72835000  0.25470000  1.0 -0.0909879945
C  C185  1  0.21133000  0.52468000  0.58803000  1.0 -0.0173260639
C  C186  1  0.93665000  0.62330000  0.41197000  1.0 -0.0173260639
C  C187  1  0.52468000  0.93665000  0.31335000  1.0 -0.0173260639
C  C188  1  0.62330000  0.21133000  0.68665000  1.0 -0.0173260639
C  C189  1  0.78867000  0.47532000  0.41197000  1.0 -0.0173260639
C  C190  1  0.06335000  0.37670000  0.58803000  1.0 -0.0173260639
C  C191  1  0.47532000  0.06335000  0.68665000  1.0 -0.0173260639
C  C192  1  0.37670000  0.78867000  0.31335000  1.0 -0.0173260639
C  C193  1  0.17220000  0.51148000  0.52162000  1.0 -0.188193566
C  C194  1  0.98986000  0.65058000  0.47838000  1.0 -0.188193566
C  C195  1  0.51148000  0.98986000  0.33928000  1.0 -0.188193566
C  C196  1  0.65058000  0.17220000  0.66072000  1.0 -0.188193566
C  C197  1  0.82780000  0.48852000  0.47838000  1.0 -0.188193566
C  C198  1  0.01014000  0.34942000  0.52162000  1.0 -0.188193566
C  C199  1  0.48852000  0.01014000  0.66072000  1.0 -0.1801526489
C  C200  1  0.34942000  0.82780000  0.33928000  1.0 -0.1801526489
C  C201  1  0.35730000  0.52252000  0.60080000  1.0 0.5992195515
C  C202  1  0.92172000  0.75650000  0.39920000  1.0 0.5992195515
C  C203  1  0.52252000  0.92172000  0.16522000  1.0 0.5992195515
C  C204  1  0.75650000  0.35730000  0.83478000  1.0 0.5992195515
C  C205  1  0.64270000  0.47748000  0.39920000  1.0 0.5992195515
C  C206  1  0.07828000  0.24350000  0.60080000  1.0 0.5992195515
C  C207  1  0.47748000  0.07828000  0.83478000  1.0 0.5992195515
C  C208  1  0.24350000  0.64270000  0.16522000  1.0 0.5992195515
C  C209  1  0.19075000  0.53803000  0.63426000  1.0 0.5900002105
C  C210  1  0.90377000  0.55649000  0.36574000  1.0 0.5900002105
C  C211  1  0.53803000  0.90377000  0.34728000  1.0 0.5900002105
C  C212  1  0.55649000  0.19075000  0.65272000  1.0 0.5900002105
C  C213  1  0.80925000  0.46197000  0.36574000  1.0 0.5900002105
C  C214  1  0.09623000  0.44351000  0.63426000  1.0 0.5900002105
C  C215  1  0.46197000  0.09623000  0.65272000  1.0 0.5900002105
C  C216  1  0.44351000  0.80925000  0.34728000  1.0 0.5900002105
N  N1  1  0.09889000  0.45928000  0.30003000  1.0 -0.5108312921
N  N2  1  0.15925000  0.79886000  0.69997000  1.0 -0.5108312921
N  N3  1  0.45928000  0.15925000  0.36039000  1.0 -0.5108312921
N  N4  1  0.79886000  0.09889000  0.63961000  1.0 -0.5108312921
N  N5  1  0.90111000  0.54072000  0.69997000  1.0 -0.5108312921
N  N6  1  0.84075000  0.20114000  0.30003000  1.0 -0.5108312921
N  N7  1  0.54072000  0.84075000  0.63961000  1.0 -0.5108312921
N  N8  1  0.20114000  0.90111000  0.36039000  1.0 -0.5108312921
N  N9  1  0.15402000  0.44591000  0.25039000  1.0 -0.5180990882
N  N10  1  0.19552000  0.90363000  0.74961000  1.0 -0.5180990882
N  N11  1  0.44591000  0.19552000  0.29189000  1.0 -0.5180990882
N  N12  1  0.90363000  0.15402000  0.70811000  1.0 -0.5180990882
N  N13  1  0.84598000  0.55409000  0.74961000  1.0 -0.5180990882
N  N14  1  0.80448000  0.09637000  0.25039000  1.0 -0.5180990882
N  N15  1  0.55409000  0.80448000  0.70811000  1.0 -0.5180990882
N  N16  1  0.09637000  0.84598000  0.29189000  1.0 -0.5180990882
N  N17  1  0.20398000  0.47050000  0.36592000  1.0 -0.5108312921
N  N18  1  0.10458000  0.83806000  0.63408000  1.0 -0.5108312921
N  N19  1  0.47050000  0.10458000  0.26652000  1.0 -0.5108312921
N  N20  1  0.83806000  0.20398000  0.73348000  1.0 -0.5108312921
N  N21  1  0.79602000  0.52950000  0.63408000  1.0 -0.5108312921
N  N22  1  0.89542000  0.16194000  0.36592000  1.0 -0.5108312921
N  N23  1  0.52950000  0.89542000  0.73348000  1.0 -0.5108312921
N  N24  1  0.16194000  0.79602000  0.26652000  1.0 -0.5108312921
N  N25  1  0.05421000  0.43267000  0.18720000  1.0 -0.3295730792
N  N26  1  0.24547000  0.86701000  0.81280000  1.0 -0.3295730792
N  N27  1  0.43267000  0.24547000  0.37846000  1.0 -0.3295730792
N  N28  1  0.86701000  0.05421000  0.62154000  1.0 -0.3295730792
N  N29  1  0.94579000  0.56733000  0.81280000  1.0 -0.3295730792
N  N30  1  0.75453000  0.13299000  0.18720000  1.0 -0.3295730792
N  N31  1  0.56733000  0.75453000  0.62154000  1.0 -0.3295730792
N  N32  1  0.13299000  0.94579000  0.37846000  1.0 -0.3295730792
N  N33  1  0.25743000  0.46215000  0.31984000  1.0 -0.3295730792
N  N34  1  0.14231000  0.93759000  0.68016000  1.0 -0.3295730792
N  N35  1  0.46215000  0.14231000  0.20472000  1.0 -0.3295730792
N  N36  1  0.93759000  0.25743000  0.79528000  1.0 -0.3295730792
N  N37  1  0.74257000  0.53785000  0.68016000  1.0 -0.3295730792
N  N38  1  0.85769000  0.06241000  0.31984000  1.0 -0.3295730792
N  N39  1  0.53785000  0.85769000  0.79528000  1.0 -0.3295730792
N  N40  1  0.06241000  0.74257000  0.20472000  1.0 -0.3295730792
N  N41  1  0.14756000  0.48654000  0.41242000  1.0 -0.3295730792
N  N42  1  0.07412000  0.73514000  0.58758000  1.0 -0.3295730792
N  N43  1  0.48654000  0.07412000  0.33898000  1.0 -0.3295730792
N  N44  1  0.73514000  0.14756000  0.66102000  1.0 -0.3295730792
N  N45  1  0.85244000  0.51346000  0.58758000  1.0 -0.3295730792
N  N46  1  0.92588000  0.26486000  0.41242000  1.0 -0.3295730792
N  N47  1  0.51346000  0.92588000  0.66102000  1.0 -0.3295730792
N  N48  1  0.26486000  0.85244000  0.33898000  1.0 -0.3295730792
O  O1  1  0.91484000  0.42230000  0.26164000  1.0 -0.5180990882
O  O2  1  0.16066000  0.65320000  0.73836000  1.0 -0.5180990882
O  O3  1  0.42230000  0.16066000  0.50746000  1.0 -0.5180990882
O  O4  1  0.65320000  0.91484000  0.49254000  1.0 -0.5108312921
O  O5  1  0.08516000  0.57770000  0.73836000  1.0 -0.5180990882
O  O6  1  0.83934000  0.34680000  0.26164000  1.0 -0.5180990882
O  O7  1  0.57770000  0.83934000  0.49254000  1.0 -0.5108312921
O  O8  1  0.34680000  0.08516000  0.50746000  1.0 -0.5180990882
O  O9  1  0.97144000  0.41610000  0.38754000  1.0 -0.3012052642
O  O10  1  0.02856000  0.58390000  0.61246000  1.0 -0.3067893701
O  O11  1  0.41610000  0.02856000  0.44466000  1.0 -0.3012052642
O  O12  1  0.58390000  0.97144000  0.55534000  1.0 -0.3067893701
O  O13  1  0.83261000  0.43471000  0.19300000  1.0 -0.5108312921
O  O14  1  0.24171000  0.63961000  0.80700000  1.0 -0.5108312921
O  O15  1  0.43471000  0.24171000  0.60210000  1.0 -0.5108312921
O  O16  1  0.63961000  0.83261000  0.39790000  1.0 -0.5108312921
O  O17  1  0.16739000  0.56529000  0.80700000  1.0 -0.5108312921
O  O18  1  0.75829000  0.36039000  0.19300000  1.0 -0.5180990882
O  O19  1  0.56529000  0.75829000  0.39790000  1.0 -0.5108312921
O  O20  1  0.36039000  0.16739000  0.60210000  1.0 -0.5108312921
O  O21  1  0.71864000  0.46320000  0.18184000  1.0 -0.3901409971
O  O22  1  0.28136000  0.53680000  0.81816000  1.0 -0.3685054796
O  O23  1  0.46320000  0.28136000  0.74456000  1.0 -0.3685054796
O  O24  1  0.53680000  0.71864000  0.25544000  1.0 -0.3843671846
O  O25  1  0.52665000  0.47333000  0.21610000  1.0 -0.3012052642
O  O26  1  0.25723000  0.31055000  0.78390000  1.0 -0.2832102405
O  O27  1  0.47333000  0.25723000  0.94668000  1.0 -0.2832102405
O  O28  1  0.31055000  0.52665000  0.05332000  1.0 -0.2832102405
O  O29  1  0.47335000  0.52667000  0.78390000  1.0 -0.2832102405
O  O30  1  0.74277000  0.68945000  0.21610000  1.0 -0.2832102405
O  O31  1  0.52667000  0.74277000  0.05332000  1.0 -0.3012052642
O  O32  1  0.68945000  0.47335000  0.94668000  1.0 -0.285859214
O  O33  1  0.81356000  0.44610000  0.00962000  1.0 -0.5108312921
O  O34  1  0.43648000  0.80394000  0.99038000  1.0 -0.5108312921
O  O35  1  0.44610000  0.43648000  0.63254000  1.0 -0.5108312921
O  O36  1  0.80394000  0.81356000  0.36746000  1.0 -0.5108312921
O  O37  1  0.18644000  0.55390000  0.99038000  1.0 -0.5108312921
O  O38  1  0.56352000  0.19606000  0.00962000  1.0 -0.5108312921
O  O39  1  0.55390000  0.56352000  0.36746000  1.0 -0.5108312921
O  O40  1  0.19606000  0.18644000  0.63254000  1.0 -0.5108312921
O  O41  1  0.52769000  0.46302000  0.46967000  1.0 -0.1713011887
O  O42  1  0.99335000  0.05802000  0.53033000  1.0 -0.1713011887
O  O43  1  0.46302000  0.99335000  0.93533000  1.0 -0.1713011887
O  O44  1  0.05802000  0.52769000  0.06467000  1.0 -0.1801526489
O  O45  1  0.47231000  0.53698000  0.53033000  1.0 -0.1713011887
O  O46  1  0.00665000  0.94198000  0.46967000  1.0 -0.1713011887
O  O47  1  0.53698000  0.00665000  0.06467000  1.0 -0.1713011887
O  O48  1  0.94198000  0.47231000  0.93533000  1.0 -0.1713011887
O  O49  1  0.88952000  0.44467000  0.99853000  1.0 -0.5293623391
O  O50  1  0.44614000  0.89099000  0.00147000  1.0 -0.5293623391
O  O51  1  0.44467000  0.44614000  0.55515000  1.0 -0.5293623391
O  O52  1  0.89099000  0.88952000  0.44485000  1.0 -0.5293623391
O  O53  1  0.11048000  0.55533000  0.00147000  1.0 -0.5293623391
O  O54  1  0.55386000  0.10901000  0.99853000  1.0 -0.5293623391
O  O55  1  0.55533000  0.55386000  0.44485000  1.0 -0.5293623391
O  O56  1  0.10901000  0.11048000  0.55515000  1.0 -0.5293623391
O  O57  1  0.18571000  0.51145000  0.13900000  1.0 -0.5397152992
O  O58  1  0.37245000  0.04671000  0.86100000  1.0 -0.5397152992
O  O59  1  0.51145000  0.37245000  0.32574000  1.0 -0.5397152992
O  O60  1  0.04671000  0.18571000  0.67426000  1.0 -0.5397152992
O  O61  1  0.81429000  0.48855000  0.86100000  1.0 -0.5397152992
O  O62  1  0.62755000  0.95329000  0.13900000  1.0 -0.5397152992
O  O63  1  0.48855000  0.62755000  0.67426000  1.0 -0.5397152992
O  O64  1  0.95329000  0.81429000  0.32574000  1.0 -0.5397152992
O  O65  1  0.25530000  0.49930000  0.11552000  1.0 -0.5180990882
O  O66  1  0.38378000  0.13978000  0.88448000  1.0 -0.5293623391
O  O67  1  0.49930000  0.38378000  0.24400000  1.0 -0.5180990882
O  O68  1  0.13978000  0.25530000  0.75600000  1.0 -0.5180990882
O  O69  1  0.74470000  0.50070000  0.88448000  1.0 -0.5293623391
O  O70  1  0.61622000  0.86022000  0.11552000  1.0 -0.5180990882
O  O71  1  0.50070000  0.61622000  0.75600000  1.0 -0.5180990882
O  O72  1  0.86022000  0.74470000  0.24400000  1.0 -0.5293623391
O  O73  1  0.44020000  0.47174000  0.25936000  1.0 -0.5180990882
O  O74  1  0.21238000  0.18084000  0.74064000  1.0 -0.5180990882
O  O75  1  0.47174000  0.21238000  0.03154000  1.0 -0.5180990882
O  O76  1  0.18084000  0.44020000  0.96846000  1.0 -0.5180990882
O  O77  1  0.55980000  0.52826000  0.74064000  1.0 -0.5180990882
O  O78  1  0.78762000  0.81916000  0.25936000  1.0 -0.5180990882
O  O79  1  0.52826000  0.78762000  0.96846000  1.0 -0.5180990882
O  O80  1  0.81916000  0.55980000  0.03154000  1.0 -0.5108312921
O  O81  1  0.44727000  0.45460000  0.33505000  1.0 -0.545880975
O  O82  1  0.11955000  0.11222000  0.66495000  1.0 -0.545880975
O  O83  1  0.45460000  0.11955000  0.00733000  1.0 -0.545880975
O  O84  1  0.11222000  0.44727000  0.99267000  1.0 -0.545880975
O  O85  1  0.55273000  0.54540000  0.66495000  1.0 -0.545880975
O  O86  1  0.88045000  0.88778000  0.33505000  1.0 -0.545880975
O  O87  1  0.54540000  0.88045000  0.99267000  1.0 -0.545880975
O  O88  1  0.88778000  0.55273000  0.00733000  1.0 -0.545880975
O  O89  1  0.37732000  0.52677000  0.56949000  1.0 -0.5397152992
O  O90  1  0.95728000  0.80783000  0.43051000  1.0 -0.5397152992
O  O91  1  0.52677000  0.95728000  0.14945000  1.0 -0.5397152992
O  O92  1  0.80783000  0.37732000  0.85055000  1.0 -0.5397152992
O  O93  1  0.62268000  0.47323000  0.43051000  1.0 -0.5397152992
O  O94  1  0.04272000  0.19217000  0.56949000  1.0 -0.5397152992
O  O95  1  0.47323000  0.04272000  0.85055000  1.0 -0.5397152992
O  O96  1  0.19217000  0.62268000  0.14945000  1.0 -0.5397152992
O  O97  1  0.38719000  0.52370000  0.65487000  1.0 -0.5108312921
O  O98  1  0.86883000  0.73232000  0.34513000  1.0 -0.5180990882
O  O99  1  0.52370000  0.86883000  0.13651000  1.0 -0.5108312921
O  O100  1  0.73232000  0.38719000  0.86349000  1.0 -0.5108312921
O  O101  1  0.61281000  0.47630000  0.34513000  1.0 -0.5180990882
O  O102  1  0.13117000  0.26768000  0.65487000  1.0 -0.5108312921
O  O103  1  0.47630000  0.13117000  0.86349000  1.0 -0.5180990882
O  O104  1  0.26768000  0.61281000  0.13651000  1.0 -0.5108312921
O  O105  1  0.22313000  0.53782000  0.68659000  1.0 -0.5108312921
O  O106  1  0.85123000  0.53654000  0.31341000  1.0 -0.5108312921
O  O107  1  0.53782000  0.85123000  0.31469000  1.0 -0.5108312921
O  O108  1  0.53654000  0.22313000  0.68531000  1.0 -0.5108312921
O  O109  1  0.77687000  0.46218000  0.31341000  1.0 -0.5108312921
O  O110  1  0.14877000  0.46346000  0.68659000  1.0 -0.5108312921
O  O111  1  0.46218000  0.14877000  0.68531000  1.0 -0.5108312921
O  O112  1  0.46346000  0.77687000  0.31469000  1.0 -0.5108312921
O  O113  1  0.14181000  0.54921000  0.61698000  1.0 -0.5293623391
O  O114  1  0.93223000  0.52483000  0.38302000  1.0 -0.5293623391
O  O115  1  0.54921000  0.93223000  0.40740000  1.0 -0.5293623391
O  O116  1  0.52483000  0.14181000  0.59260000  1.0 -0.5293623391
O  O117  1  0.85819000  0.45079000  0.38302000  1.0 -0.5293623391
O  O118  1  0.06777000  0.47517000  0.61698000  1.0 -0.5293623391
O  O119  1  0.45079000  0.06777000  0.59260000  1.0 -0.5293623391
O  O120  1  0.47517000  0.85819000  0.40740000  1.0 -0.5293623391
