# DDEC6 charges by PACMAN v1.1 (https://github.com/mtap-research/PACMAN-charge/)
data_ZINMUI_FSR_pacman
_symmetry_space_group_name_H-M   'P 1'
_cell_length_a   34.74280000
_cell_length_b   34.74280000
_cell_length_c   34.74280000
_cell_angle_alpha   127.55900000
_cell_angle_beta   127.55900000
_cell_angle_gamma   77.34130000
_symmetry_Int_Tables_number   1
_chemical_formula_structural   Ca2Cd3H65C87NO29
_chemical_formula_sum   'Ca16 Cd24 H520 C696 N8 O232'
_cell_volume   25566.48261187
_cell_formula_units_Z   8
loop_
 _symmetry_equiv_pos_site_id
 _symmetry_equiv_pos_as_xyz
  1  'x, y, z'
loop_
 _atom_site_type_symbol
 _atom_site_label
 _atom_site_symmetry_multiplicity
 _atom_site_fract_x
 _atom_site_fract_y
 _atom_site_fract_z
 _atom_site_occupancy
 _atom_site_charge
Ca  Ca1  1  0.06117000  0.79484000  0.76469000  1.0 1.4125371601
Ca  Ca2  1  0.03015000  0.29648000  0.23531000  1.0 1.4125371601
Ca  Ca3  1  0.54484000  0.28015000  0.23367000  1.0 1.4125371601
Ca  Ca4  1  0.04648000  0.31117000  0.76633000  1.0 1.4125371601
Ca  Ca5  1  0.68883000  0.45516000  0.73531000  1.0 1.4125371601
Ca  Ca6  1  0.71985000  0.95352000  0.26469000  1.0 1.4125371601
Ca  Ca7  1  0.20516000  0.96985000  0.26633000  1.0 1.4125371601
Ca  Ca8  1  0.70352000  0.93883000  0.73367000  1.0 1.4125371601
Ca  Ca9  1  0.08998000  0.58998000  0.50000000  1.0 0.8560175722
Ca  Ca10  1  0.33998000  0.33998000  0.00000000  1.0 0.8527228659
Ca  Ca11  1  0.66002000  0.66002000  0.00000000  1.0 0.8560175722
Ca  Ca12  1  0.41002000  0.91002000  0.50000000  1.0 0.8527228659
Ca  Ca13  1  0.37500000  0.62500000  0.75000000  1.0 1.4125371601
Ca  Ca14  1  0.87500000  0.62500000  0.25000000  1.0 1.4125371601
Ca  Ca15  1  0.37500000  0.12500000  0.75000000  1.0 1.4125371601
Ca  Ca16  1  0.37500000  0.62500000  0.25000000  1.0 1.4125371601
Cd  Cd1  1  0.07531000  0.68995000  0.65360000  1.0 0.9775468236
Cd  Cd2  1  0.25392000  0.63901000  0.66085000  1.0 0.9912933385
Cd  Cd3  1  0.76719000  0.09684000  0.38161000  1.0 0.9912933385
Cd  Cd4  1  0.03635000  0.42171000  0.34640000  1.0 0.9775468236
Cd  Cd5  1  0.97816000  0.59307000  0.33915000  1.0 0.9912933385
Cd  Cd6  1  0.71523000  0.38558000  0.61839000  1.0 0.9912933385
Cd  Cd7  1  0.43995000  0.28635000  0.11464000  1.0 0.9775468236
Cd  Cd8  1  0.38901000  0.22816000  0.88509000  1.0 0.9912933385
Cd  Cd9  1  0.84684000  0.96523000  0.82965000  1.0 0.9912933385
Cd  Cd10  1  0.17171000  0.32531000  0.88536000  1.0 0.9775468236
Cd  Cd11  1  0.34307000  0.50392000  0.11491000  1.0 0.9912933385
Cd  Cd12  1  0.13558000  0.01719000  0.17035000  1.0 0.9912933385
Cd  Cd13  1  0.67469000  0.56005000  0.84640000  1.0 0.9775468236
Cd  Cd14  1  0.49608000  0.61099000  0.83915000  1.0 0.9912933385
Cd  Cd15  1  0.98281000  0.15316000  0.11839000  1.0 0.9912933385
Cd  Cd16  1  0.71365000  0.82829000  0.15360000  1.0 0.9775468236
Cd  Cd17  1  0.77184000  0.65693000  0.16085000  1.0 0.9912933385
Cd  Cd18  1  0.03477000  0.86442000  0.88161000  1.0 0.9912933385
Cd  Cd19  1  0.31005000  0.96365000  0.38536000  1.0 0.9775468236
Cd  Cd20  1  0.36099000  0.02184000  0.61491000  1.0 0.9912933385
Cd  Cd21  1  0.90316000  0.28477000  0.67035000  1.0 0.9912933385
Cd  Cd22  1  0.57829000  0.92469000  0.61464000  1.0 0.9775468236
Cd  Cd23  1  0.40693000  0.74608000  0.38509000  1.0 0.9912933385
Cd  Cd24  1  0.61442000  0.23281000  0.32965000  1.0 0.9912933385
H  H1  1  0.04780000  0.88550000  0.80970000  1.0 0.363000003
H  H2  1  0.06310000  0.88810000  0.78100000  1.0 0.37183362
H  H3  1  0.00770000  0.59180000  0.55410000  1.0 0.3168352925
H  H4  1  0.98650000  0.61550000  0.58100000  1.0 0.3168352925
H  H5  1  0.14714000  0.61907000  0.76087000  1.0 0.1191322193
H  H6  1  0.16952000  0.60838000  0.83140000  1.0 0.1114550852
H  H7  1  0.12884000  0.73537000  0.91447000  1.0 0.1114550852
H  H8  1  0.10297000  0.74389000  0.84008000  1.0 0.1289529632
H  H9  1  0.21455000  0.49115000  0.97820000  1.0 0.1191322193
H  H10  1  0.22341000  0.57200000  0.01113000  1.0 0.1114550852
H  H11  1  0.10376000  0.52440000  0.83892000  1.0 0.1191322193
H  H12  1  0.09478000  0.44352000  0.80642000  1.0 0.1191322193
H  H13  1  0.29047000  0.78775000  0.23256000  1.0 0.1191322193
H  H14  1  0.26123000  0.71584000  0.13369000  1.0 0.1114550852
H  H15  1  0.16421000  0.78350000  0.06181000  1.0 0.1191322193
H  H16  1  0.19395000  0.85497000  0.16028000  1.0 0.1191322193
H  H17  1  0.14920000  0.58746000  0.86666000  1.0 0.1114550852
H  H18  1  0.19852000  0.64591000  0.03685000  1.0 0.1114550852
H  H19  1  0.18049000  0.73664000  0.99341000  1.0 0.1114550852
H  H20  1  0.43579000  0.75563000  0.82380000  1.0 0.1114550852
H  H21  1  0.48603000  0.83227000  0.88598000  1.0 0.1114550852
H  H22  1  0.36461000  0.88398000  0.81811000  1.0 0.1191322193
H  H23  1  0.31365000  0.80546000  0.75153000  1.0 0.1191322193
H  H24  1  0.63408000  0.09459000  0.21379000  1.0 0.1289529632
H  H25  1  0.56990000  0.06932000  0.11468000  1.0 0.1191322193
H  H26  1  0.60850000  0.93772000  0.04442000  1.0 0.1191322193
H  H27  1  0.67397000  0.96412000  0.14385000  1.0 0.1289529632
H  H28  1  0.39856000  0.03584000  0.80072000  1.0 0.1191322193
H  H29  1  0.42722000  0.98243000  0.82617000  1.0 0.1191322193
H  H30  1  0.48706000  0.09867000  0.00385000  1.0 0.1191322193
H  H31  1  0.45680000  0.15197000  0.97755000  1.0 0.1191322193
H  H32  1  0.51952000  0.91101000  0.97067000  1.0 0.1114550852
H  H33  1  0.54114000  0.04909000  0.02093000  1.0 0.1114550852
H  H34  1  0.41849000  0.94050000  0.85087000  1.0 0.1114550852
H  H35  1  0.35989000  0.53051000  0.62970000  1.0 0.1191322193
H  H36  1  0.38440000  0.46476000  0.57622000  1.0 0.1114550852
H  H37  1  0.25694000  0.43341000  0.41529000  1.0 0.1191322193
H  H38  1  0.23571000  0.50258000  0.47129000  1.0 0.1289529632
H  H39  1  0.16507000  0.20286000  0.22081000  1.0 0.1114550852
H  H40  1  0.22439000  0.27489000  0.28924000  1.0 0.1114550852
H  H41  1  0.32837000  0.22261000  0.37632000  1.0 0.1191322193
H  H42  1  0.26881000  0.14792000  0.30767000  1.0 0.1191322193
H  H43  1  0.53776000  0.30474000  0.46062000  1.0 0.1289529632
H  H44  1  0.45315000  0.29622000  0.41497000  1.0 0.1191322193
H  H45  1  0.48553000  0.42215000  0.57596000  1.0 0.1114550852
H  H46  1  0.56854000  0.43174000  0.62034000  1.0 0.1191322193
H  H47  1  0.26926000  0.34814000  0.39010000  1.0 0.1114550852
H  H48  1  0.38143000  0.27896000  0.39887000  1.0 0.1114550852
H  H49  1  0.41168000  0.43019000  0.51529000  1.0 0.1114550852
H  H50  1  0.17276000  0.66514000  0.67330000  1.0 0.1191322193
H  H51  1  0.10427000  0.41892000  0.50743000  1.0 0.1191322193
H  H52  1  0.15497000  0.43195000  0.52176000  1.0 0.1352590894
H  H53  1  0.15442000  0.40846000  0.54928000  1.0 0.1191322193
H  H54  1  0.13773000  0.50582000  0.58364000  1.0 0.0974479536
H  H55  1  0.13719000  0.48261000  0.61082000  1.0 0.0875343369
H  H56  1  0.23672000  0.53041000  0.77791000  1.0 0.1289529632
H  H57  1  0.22153000  0.57214000  0.76783000  1.0 0.1191322193
H  H58  1  0.18184000  0.52017000  0.71993000  1.0 0.1289529632
H  H59  1  0.27249000  0.52845000  0.73522000  1.0 0.0974479536
H  H60  1  0.23279000  0.47646000  0.68731000  1.0 0.0974479536
H  H61  1  0.26672000  0.55307000  0.68453000  1.0 0.0974479536
H  H62  1  0.75290000  0.20090000  0.45000000  1.0 0.3297893551
H  H63  1  0.78900000  0.19000000  0.44300000  1.0 0.3472126735
H  H64  1  0.69730000  0.09980000  0.39850000  1.0 0.3297893551
H  H65  1  0.67400000  0.10170000  0.35230000  1.0 0.3472126735
H  H66  1  0.07580000  0.23810000  0.19030000  1.0 0.363000003
H  H67  1  0.10710000  0.28210000  0.21900000  1.0 0.37183362
H  H68  1  0.03770000  0.45360000  0.44590000  1.0 0.3168352925
H  H69  1  0.03450000  0.40550000  0.41900000  1.0 0.3144060647
H  H70  1  0.85820000  0.38627000  0.23913000  1.0 0.1191322193
H  H71  1  0.77698000  0.33812000  0.16860000  1.0 0.1114550852
H  H72  1  0.82090000  0.21437000  0.08553000  1.0 0.1114550852
H  H73  1  0.90381000  0.26289000  0.15992000  1.0 0.1289529632
H  H74  1  0.51295000  0.23635000  0.02180000  1.0 0.1289529632
H  H75  1  0.56087000  0.21228000  0.98887000  1.0 0.1114550852
H  H76  1  0.68548000  0.26484000  0.16108000  1.0 0.1114550852
H  H77  1  0.63710000  0.28836000  0.19358000  1.0 0.1191322193
H  H78  1  0.55519000  0.05791000  0.76744000  1.0 0.1191322193
H  H79  1  0.58215000  0.12754000  0.86631000  1.0 0.1114550852
H  H80  1  0.72169000  0.10240000  0.93819000  1.0 0.1191322193
H  H81  1  0.69469000  0.03367000  0.83972000  1.0 0.1191322193
H  H82  1  0.72080000  0.28254000  0.13334000  1.0 0.1114550852
H  H83  1  0.60906000  0.16167000  0.96315000  1.0 0.1114550852
H  H84  1  0.74323000  0.18708000  0.00659000  1.0 0.1114550852
H  H85  1  0.93183000  0.61199000  0.17620000  1.0 0.1114550852
H  H86  1  0.94629000  0.60005000  0.11402000  1.0 0.1114550852
H  H87  1  0.06587000  0.54650000  0.18189000  1.0 0.1191322193
H  H88  1  0.05393000  0.56212000  0.24847000  1.0 0.1191322193
H  H89  1  0.88080000  0.42029000  0.78621000  1.0 0.1289529632
H  H90  1  0.95464000  0.45522000  0.88532000  1.0 0.1191322193
H  H91  1  0.89330000  0.56408000  0.95558000  1.0 0.1114550852
H  H92  1  0.82027000  0.53012000  0.85615000  1.0 0.1191322193
H  H93  1  0.23512000  0.59784000  0.19928000  1.0 0.1191322193
H  H94  1  0.15626000  0.60105000  0.17383000  1.0 0.1191322193
H  H95  1  0.09482000  0.48321000  0.99615000  1.0 0.1191322193
H  H96  1  0.17442000  0.47925000  0.02245000  1.0 0.1191322193
H  H97  1  0.94034000  0.54885000  0.02933000  1.0 0.1114550852
H  H98  1  0.02816000  0.52021000  0.97907000  1.0 0.1114550852
H  H99  1  0.08963000  0.56762000  0.14913000  1.0 0.1114550852
H  H100  1  0.90081000  0.73019000  0.37030000  1.0 0.1191322193
H  H101  1  0.88854000  0.80818000  0.42378000  1.0 0.1114550852
H  H102  1  0.01812000  0.84165000  0.58471000  1.0 0.1191322193
H  H103  1  0.03129000  0.76442000  0.52871000  1.0 0.1289529632
H  H104  1  0.98205000  0.94426000  0.77919000  1.0 0.1114550852
H  H105  1  0.98565000  0.93515000  0.71076000  1.0 0.1114550852
H  H106  1  0.84629000  0.95205000  0.62368000  1.0 0.1191322193
H  H107  1  0.84025000  0.96114000  0.69233000  1.0 0.1191322193
H  H108  1  0.84412000  0.07714000  0.53938000  1.0 0.1289529632
H  H109  1  0.88125000  0.03818000  0.58503000  1.0 0.1191322193
H  H110  1  0.84619000  0.90957000  0.42404000  1.0 0.1114550852
H  H111  1  0.81140000  0.94820000  0.37966000  1.0 0.1191322193
H  H112  1  0.95804000  0.87916000  0.60990000  1.0 0.1114550852
H  H113  1  0.88009000  0.98256000  0.60113000  1.0 0.1114550852
H  H114  1  0.91490000  0.89639000  0.48471000  1.0 0.1114550852
H  H115  1  0.99184000  0.49946000  0.32670000  1.0 0.1191322193
H  H116  1  0.91149000  0.59684000  0.49257000  1.0 0.1191322193
H  H117  1  0.91019000  0.63321000  0.47824000  1.0 0.1352590894
H  H118  1  0.85918000  0.60514000  0.45072000  1.0 0.1191322193
H  H119  1  0.92219000  0.55410000  0.41636000  1.0 0.0974479536
H  H120  1  0.87179000  0.52637000  0.38918000  1.0 0.0974479536
H  H121  1  0.75250000  0.45881000  0.22209000  1.0 0.1289529632
H  H122  1  0.80431000  0.45370000  0.23217000  1.0 0.1191322193
H  H123  1  0.80024000  0.46191000  0.28007000  1.0 0.1289529632
H  H124  1  0.79323000  0.53727000  0.26478000  1.0 0.0974479536
H  H125  1  0.78915000  0.54548000  0.31269000  1.0 0.0974479536
H  H126  1  0.86854000  0.58219000  0.31547000  1.0 0.0974479536
H  H127  1  0.75090000  0.30290000  0.55000000  1.0 0.3297893551
H  H128  1  0.74700000  0.34600000  0.55700000  1.0 0.3472126735
H  H129  1  0.70130000  0.29880000  0.60150000  1.0 0.3297893551
H  H130  1  0.74940000  0.32170000  0.64770000  1.0 0.3472126735
H  H131  1  0.63550000  0.32580000  0.33770000  1.0 0.363000003
H  H132  1  0.63810000  0.35710000  0.32500000  1.0 0.37183362
H  H133  1  0.34180000  0.28770000  0.08410000  1.0 0.3168352925
H  H134  1  0.36550000  0.28450000  0.12900000  1.0 0.3144060647
H  H135  1  0.36907000  0.10820000  0.97193000  1.0 0.1191322193
H  H136  1  0.35838000  0.02698000  0.93886000  1.0 0.1114550852
H  H137  1  0.48537000  0.07090000  0.10653000  1.0 0.1114550852
H  H138  1  0.49389000  0.15381000  0.14092000  1.0 0.1289529632
H  H139  1  0.24115000  0.76295000  0.77660000  1.0 0.1191322193
H  H140  1  0.32200000  0.81087000  0.84859000  1.0 0.1114550852
H  H141  1  0.27440000  0.93548000  0.92064000  1.0 0.1191322193
H  H142  1  0.19352000  0.88710000  0.84874000  1.0 0.1191322193
H  H143  1  0.53775000  0.80519000  0.99728000  1.0 0.1191322193
H  H144  1  0.46584000  0.83215000  0.95461000  1.0 0.1114550852
H  H145  1  0.53350000  0.97169000  0.11929000  1.0 0.1191322193
H  H146  1  0.60497000  0.94469000  0.16102000  1.0 0.1191322193
H  H147  1  0.33746000  0.97080000  0.93826000  1.0 0.1114550852
H  H148  1  0.39591000  0.85906000  0.94739000  1.0 0.1114550852
H  H149  1  0.48664000  0.99323000  0.05615000  1.0 0.1114550852
H  H150  1  0.50563000  0.18183000  0.81984000  1.0 0.1114550852
H  H151  1  0.58227000  0.19629000  0.84624000  1.0 0.1114550852
H  H152  1  0.63398000  0.31587000  0.01937000  1.0 0.1191322193
H  H153  1  0.55546000  0.30393000  0.99181000  1.0 0.1191322193
H  H154  1  0.84459000  0.13080000  0.96051000  1.0 0.1289529632
H  H155  1  0.81932000  0.20464000  0.99942000  1.0 0.1191322193
H  H156  1  0.68772000  0.14330000  0.82922000  1.0 0.1114550852
H  H157  1  0.71412000  0.07027000  0.79015000  1.0 0.1191322193
H  H158  1  0.78584000  0.48512000  0.13728000  1.0 0.1191322193
H  H159  1  0.73243000  0.40626000  0.05521000  1.0 0.1191322193
H  H160  1  0.84867000  0.34482000  0.11161000  1.0 0.1191322193
H  H161  1  0.90197000  0.42442000  0.19517000  1.0 0.1191322193
H  H162  1  0.66101000  0.19034000  0.89149000  1.0 0.1114550852
H  H163  1  0.79909000  0.27816000  0.00795000  1.0 0.1114550852
H  H164  1  0.69050000  0.33963000  0.02201000  1.0 0.1114550852
H  H165  1  0.28051000  0.15081000  0.67062000  1.0 0.1191322193
H  H166  1  0.21476000  0.13854000  0.58036000  1.0 0.1114550852
H  H167  1  0.18341000  0.26812000  0.67647000  1.0 0.1191322193
H  H168  1  0.25258000  0.28129000  0.76687000  1.0 0.1289529632
H  H169  1  0.95286000  0.23205000  0.53779000  1.0 0.1114550852
H  H170  1  0.02489000  0.23565000  0.55050000  1.0 0.1114550852
H  H171  1  0.97261000  0.09629000  0.39424000  1.0 0.1191322193
H  H172  1  0.89792000  0.09025000  0.37911000  1.0 0.1191322193
H  H173  1  0.05474000  0.09412000  0.26698000  1.0 0.1289529632
H  H174  1  0.04622000  0.13125000  0.34307000  1.0 0.1191322193
H  H175  1  0.17215000  0.09619000  0.43662000  1.0 0.1114550852
H  H176  1  0.18174000  0.06140000  0.36320000  1.0 0.1191322193
H  H177  1  0.09814000  0.20804000  0.57888000  1.0 0.1114550852
H  H178  1  0.02896000  0.13009000  0.39753000  1.0 0.1114550852
H  H179  1  0.18019000  0.16490000  0.51851000  1.0 0.1114550852
H  H180  1  0.41514000  0.24184000  0.99238000  1.0 0.1191322193
H  H181  1  0.16892000  0.16149000  0.81465000  1.0 0.1191322193
H  H182  1  0.18195000  0.16019000  0.77698000  1.0 0.1352590894
H  H183  1  0.15846000  0.10918000  0.75404000  1.0 0.1191322193
H  H184  1  0.25582000  0.17219000  0.86809000  1.0 0.0974479536
H  H185  1  0.23261000  0.12179000  0.84542000  1.0 0.0875343369
H  H186  1  0.28041000  0.00250000  0.79369000  1.0 0.1289529632
H  H187  1  0.32214000  0.05431000  0.85061000  1.0 0.1191322193
H  H188  1  0.27017000  0.05024000  0.83833000  1.0 0.1289529632
H  H189  1  0.27845000  0.04323000  0.75596000  1.0 0.0974479536
H  H190  1  0.22646000  0.03915000  0.74367000  1.0 0.0974479536
H  H191  1  0.30307000  0.11854000  0.78635000  1.0 0.0974479536
H  H192  1  0.95090000  0.00090000  0.94800000  1.0 0.3297893551
H  H193  1  0.94000000  0.99700000  0.90100000  1.0 0.3472126735
H  H194  1  0.84980000  0.95130000  0.90250000  1.0 0.3297893551
H  H195  1  0.85170000  0.99940000  0.92770000  1.0 0.3472126735
H  H196  1  0.98810000  0.29780000  0.66230000  1.0 0.363000003
H  H197  1  0.03210000  0.31310000  0.67500000  1.0 0.37183362
H  H198  1  0.20360000  0.25770000  0.91590000  1.0 0.3168352925
H  H199  1  0.15550000  0.23650000  0.87100000  1.0 0.3168352925
H  H200  1  0.13627000  0.39714000  0.02807000  1.0 0.1191322193
H  H201  1  0.08812000  0.41952000  0.06114000  1.0 0.1114550852
H  H202  1  0.96437000  0.37884000  0.89347000  1.0 0.1114550852
H  H203  1  0.01289000  0.35297000  0.85908000  1.0 0.1289529632
H  H204  1  0.98635000  0.46455000  0.22340000  1.0 0.1191322193
H  H205  1  0.96228000  0.47341000  0.15141000  1.0 0.1114550852
H  H206  1  0.01484000  0.35376000  0.07936000  1.0 0.1191322193
H  H207  1  0.03836000  0.34478000  0.15126000  1.0 0.1191322193
H  H208  1  0.80791000  0.54047000  0.00272000  1.0 0.1191322193
H  H209  1  0.87754000  0.51123000  0.04539000  1.0 0.1114550852
H  H210  1  0.85240000  0.41421000  0.88071000  1.0 0.1191322193
H  H211  1  0.78367000  0.44395000  0.83898000  1.0 0.1191322193
H  H212  1  0.03254000  0.39920000  0.06174000  1.0 0.1114550852
H  H213  1  0.91167000  0.44852000  0.05261000  1.0 0.1114550852
H  H214  1  0.93708000  0.43049000  0.94385000  1.0 0.1114550852
H  H215  1  0.36199000  0.68579000  0.18016000  1.0 0.1114550852
H  H216  1  0.35005000  0.73603000  0.15376000  1.0 0.1114550852
H  H217  1  0.29650000  0.61461000  0.98063000  1.0 0.1191322193
H  H218  1  0.31212000  0.56365000  0.00819000  1.0 0.1191322193
H  H219  1  0.17029000  0.88408000  0.03949000  1.0 0.1289529632
H  H220  1  0.20522000  0.81990000  0.00058000  1.0 0.1191322193
H  H221  1  0.31408000  0.85850000  0.17078000  1.0 0.1191322193
H  H222  1  0.28012000  0.92397000  0.20985000  1.0 0.1289529632
H  H223  1  0.34784000  0.64856000  0.86272000  1.0 0.1191322193
H  H224  1  0.35105000  0.67722000  0.94479000  1.0 0.1191322193
H  H225  1  0.23321000  0.73706000  0.88839000  1.0 0.1191322193
H  H226  1  0.22925000  0.70680000  0.80483000  1.0 0.1191322193
H  H227  1  0.29885000  0.76952000  0.10851000  1.0 0.1114550852
H  H228  1  0.27021000  0.79114000  0.99205000  1.0 0.1114550852
H  H229  1  0.31762000  0.66849000  0.97799000  1.0 0.1114550852
H  H230  1  0.48019000  0.60989000  0.32938000  1.0 0.1191322193
H  H231  1  0.55818000  0.63440000  0.41964000  1.0 0.1114550852
H  H232  1  0.59165000  0.50694000  0.32353000  1.0 0.1191322193
H  H233  1  0.51442000  0.48571000  0.23313000  1.0 0.1289529632
H  H234  1  0.69426000  0.41507000  0.46221000  1.0 0.1114550852
H  H235  1  0.68515000  0.47439000  0.44950000  1.0 0.1114550852
H  H236  1  0.70205000  0.57837000  0.60576000  1.0 0.1191322193
H  H237  1  0.71114000  0.51881000  0.62089000  1.0 0.1191322193
H  H238  1  0.82714000  0.78776000  0.73302000  1.0 0.1289529632
H  H239  1  0.78818000  0.70315000  0.65693000  1.0 0.1191322193
H  H240  1  0.65957000  0.73553000  0.56338000  1.0 0.1114550852
H  H241  1  0.69820000  0.81854000  0.63680000  1.0 0.1191322193
H  H242  1  0.62916000  0.51926000  0.42112000  1.0 0.1114550852
H  H243  1  0.73256000  0.63143000  0.60247000  1.0 0.1114550852
H  H244  1  0.64639000  0.66168000  0.48149000  1.0 0.1114550852
H  H245  1  0.24946000  0.42276000  0.00762000  1.0 0.1191322193
H  H246  1  0.34684000  0.35427000  0.18535000  1.0 0.1191322193
H  H247  1  0.38321000  0.40497000  0.22302000  1.0 0.1352590894
H  H248  1  0.35514000  0.40442000  0.24596000  1.0 0.1191322193
H  H249  1  0.30410000  0.38773000  0.13190000  1.0 0.0974479536
H  H250  1  0.27637000  0.38719000  0.15458000  1.0 0.0974479536
H  H251  1  0.20881000  0.48672000  0.20631000  1.0 0.1289529632
H  H252  1  0.20370000  0.47153000  0.14939000  1.0 0.1191322193
H  H253  1  0.21191000  0.43184000  0.16167000  1.0 0.1289529632
H  H254  1  0.28727000  0.52249000  0.24404000  1.0 0.0974479536
H  H255  1  0.29548000  0.48279000  0.25633000  1.0 0.0974479536
H  H256  1  0.33219000  0.51672000  0.21365000  1.0 0.0974479536
H  H257  1  0.05290000  0.00290000  0.05200000  1.0 0.3297893551
H  H258  1  0.09600000  0.03900000  0.09900000  1.0 0.3472126735
H  H259  1  0.04880000  0.94730000  0.09750000  1.0 0.3297893551
H  H260  1  0.07170000  0.92400000  0.07230000  1.0 0.3472126735
H  H261  1  0.70220000  0.36450000  0.69030000  1.0 0.363000003
H  H262  1  0.68690000  0.36190000  0.71900000  1.0 0.37183362
H  H263  1  0.74230000  0.65820000  0.94590000  1.0 0.3168352925
H  H264  1  0.76350000  0.63450000  0.91900000  1.0 0.3168352925
H  H265  1  0.60286000  0.63093000  0.73913000  1.0 0.1191322193
H  H266  1  0.58048000  0.64162000  0.66860000  1.0 0.1114550852
H  H267  1  0.62116000  0.51463000  0.58553000  1.0 0.1114550852
H  H268  1  0.64703000  0.50611000  0.65992000  1.0 0.1289529632
H  H269  1  0.53545000  0.75885000  0.52180000  1.0 0.1289529632
H  H270  1  0.52659000  0.67800000  0.48887000  1.0 0.1114550852
H  H271  1  0.64624000  0.72560000  0.66108000  1.0 0.1191322193
H  H272  1  0.65522000  0.80648000  0.69358000  1.0 0.1191322193
H  H273  1  0.45953000  0.46225000  0.26744000  1.0 0.1191322193
H  H274  1  0.48877000  0.53416000  0.36631000  1.0 0.1114550852
H  H275  1  0.58579000  0.46650000  0.43819000  1.0 0.1191322193
H  H276  1  0.55605000  0.39503000  0.33972000  1.0 0.1191322193
H  H277  1  0.60080000  0.66254000  0.63334000  1.0 0.1114550852
H  H278  1  0.55148000  0.60409000  0.46315000  1.0 0.1114550852
H  H279  1  0.56951000  0.51336000  0.50659000  1.0 0.1114550852
H  H280  1  0.31421000  0.49437000  0.67620000  1.0 0.1114550852
H  H281  1  0.26397000  0.41773000  0.61402000  1.0 0.1114550852
H  H282  1  0.38539000  0.36602000  0.68189000  1.0 0.1191322193
H  H283  1  0.43635000  0.44454000  0.74847000  1.0 0.1191322193
H  H284  1  0.11592000  0.15541000  0.28621000  1.0 0.1289529632
H  H285  1  0.18010000  0.18068000  0.38532000  1.0 0.1191322193
H  H286  1  0.14150000  0.31228000  0.45558000  1.0 0.1191322193
H  H287  1  0.07603000  0.28588000  0.35615000  1.0 0.1289529632
H  H288  1  0.35144000  0.21416000  0.69928000  1.0 0.1191322193
H  H289  1  0.32278000  0.26757000  0.67383000  1.0 0.1191322193
H  H290  1  0.26294000  0.15133000  0.49615000  1.0 0.1191322193
H  H291  1  0.29320000  0.09803000  0.52245000  1.0 0.1191322193
H  H292  1  0.23048000  0.33899000  0.52933000  1.0 0.1114550852
H  H293  1  0.20886000  0.20091000  0.47907000  1.0 0.1114550852
H  H294  1  0.33151000  0.30950000  0.64913000  1.0 0.1114550852
H  H295  1  0.39011000  0.71949000  0.87030000  1.0 0.1191322193
H  H296  1  0.36560000  0.78524000  0.92378000  1.0 0.1114550852
H  H297  1  0.49306000  0.81659000  0.08471000  1.0 0.1191322193
H  H298  1  0.51429000  0.74742000  0.02871000  1.0 0.1289529632
H  H299  1  0.58493000  0.04714000  0.27919000  1.0 0.1114550852
H  H300  1  0.52561000  0.97511000  0.21076000  1.0 0.1114550852
H  H301  1  0.42163000  0.02739000  0.12368000  1.0 0.1191322193
H  H302  1  0.48119000  0.10208000  0.19233000  1.0 0.1191322193
H  H303  1  0.21224000  0.94526000  0.03938000  1.0 0.1289529632
H  H304  1  0.29685000  0.95378000  0.08503000  1.0 0.1191322193
H  H305  1  0.26447000  0.82785000  0.92404000  1.0 0.1114550852
H  H306  1  0.18146000  0.81826000  0.87966000  1.0 0.1191322193
H  H307  1  0.48074000  0.90186000  0.10990000  1.0 0.1114550852
H  H308  1  0.36857000  0.97104000  0.10113000  1.0 0.1114550852
H  H309  1  0.33832000  0.81981000  0.98471000  1.0 0.1114550852
H  H310  1  0.57724000  0.58486000  0.82670000  1.0 0.1191322193
H  H311  1  0.64573000  0.83108000  0.99257000  1.0 0.1191322193
H  H312  1  0.59503000  0.81805000  0.97824000  1.0 0.1289529632
H  H313  1  0.59558000  0.84154000  0.95072000  1.0 0.1191322193
H  H314  1  0.61227000  0.74418000  0.91636000  1.0 0.0974479536
H  H315  1  0.61281000  0.76739000  0.88918000  1.0 0.0875343369
H  H316  1  0.51328000  0.71959000  0.72209000  1.0 0.1289529632
H  H317  1  0.52847000  0.67786000  0.73217000  1.0 0.1191322193
H  H318  1  0.56816000  0.72983000  0.78007000  1.0 0.1289529632
H  H319  1  0.47751000  0.72155000  0.76478000  1.0 0.0974479536
H  H320  1  0.51721000  0.77354000  0.81269000  1.0 0.0974479536
H  H321  1  0.48328000  0.69693000  0.81547000  1.0 0.0974479536
H  H322  1  0.99710000  0.04910000  0.05000000  1.0 0.3359856432
H  H323  1  0.96100000  0.06000000  0.05700000  1.0 0.3472126735
H  H324  1  0.05270000  0.15020000  0.10150000  1.0 0.3297893551
H  H325  1  0.07600000  0.14830000  0.14770000  1.0 0.3472126735
H  H326  1  0.67420000  0.01190000  0.30970000  1.0 0.363000003
H  H327  1  0.64290000  0.96790000  0.28100000  1.0 0.37183362
H  H328  1  0.71230000  0.79640000  0.05410000  1.0 0.3168352925
H  H329  1  0.71550000  0.84450000  0.08100000  1.0 0.3168352925
H  H330  1  0.89180000  0.86373000  0.26087000  1.0 0.1191322193
H  H331  1  0.97302000  0.91188000  0.33140000  1.0 0.1114550852
H  H332  1  0.92910000  0.03563000  0.41447000  1.0 0.1114550852
H  H333  1  0.84619000  0.98711000  0.34008000  1.0 0.1289529632
H  H334  1  0.23705000  0.01365000  0.47820000  1.0 0.1191322193
H  H335  1  0.18913000  0.03772000  0.51113000  1.0 0.1114550852
H  H336  1  0.06452000  0.98516000  0.33892000  1.0 0.1191322193
H  H337  1  0.11290000  0.96164000  0.30642000  1.0 0.1191322193
H  H338  1  0.19481000  0.19209000  0.73256000  1.0 0.1191322193
H  H339  1  0.16785000  0.12246000  0.63369000  1.0 0.1114550852
H  H340  1  0.02831000  0.14760000  0.56181000  1.0 0.1191322193
H  H341  1  0.05531000  0.21633000  0.66028000  1.0 0.1191322193
H  H342  1  0.02920000  0.96746000  0.36666000  1.0 0.1114550852
H  H343  1  0.14094000  0.08833000  0.53685000  1.0 0.1114550852
H  H344  1  0.00677000  0.06292000  0.49341000  1.0 0.1114550852
H  H345  1  0.81817000  0.63801000  0.32380000  1.0 0.1114550852
H  H346  1  0.80371000  0.64995000  0.38598000  1.0 0.1114550852
H  H347  1  0.68413000  0.70350000  0.31811000  1.0 0.1191322193
H  H348  1  0.69607000  0.68788000  0.25153000  1.0 0.1191322193
H  H349  1  0.86920000  0.82971000  0.71379000  1.0 0.1289529632
H  H350  1  0.79536000  0.79478000  0.61468000  1.0 0.1191322193
H  H351  1  0.85670000  0.68592000  0.54442000  1.0 0.1114550852
H  H352  1  0.92973000  0.71988000  0.64385000  1.0 0.1289529632
H  H353  1  0.51488000  0.65216000  0.30072000  1.0 0.1191322193
H  H354  1  0.59374000  0.64895000  0.32617000  1.0 0.1191322193
H  H355  1  0.65518000  0.76679000  0.50385000  1.0 0.1191322193
H  H356  1  0.57558000  0.77075000  0.47755000  1.0 0.1191322193
H  H357  1  0.80966000  0.70115000  0.47067000  1.0 0.1114550852
H  H358  1  0.72184000  0.72979000  0.52093000  1.0 0.1114550852
H  H359  1  0.66037000  0.68238000  0.35087000  1.0 0.1114550852
H  H360  1  0.84919000  0.51981000  0.12970000  1.0 0.1191322193
H  H361  1  0.86146000  0.44182000  0.07622000  1.0 0.1114550852
H  H362  1  0.73188000  0.40835000  0.91529000  1.0 0.1191322193
H  H363  1  0.71871000  0.48558000  0.97129000  1.0 0.1289529632
H  H364  1  0.76795000  0.30574000  0.72081000  1.0 0.1114550852
H  H365  1  0.76435000  0.31485000  0.78924000  1.0 0.1114550852
H  H366  1  0.90371000  0.29795000  0.87632000  1.0 0.1191322193
H  H367  1  0.90975000  0.28886000  0.80767000  1.0 0.1191322193
H  H368  1  0.90588000  0.17286000  0.96062000  1.0 0.1289529632
H  H369  1  0.86875000  0.21182000  0.91497000  1.0 0.1191322193
H  H370  1  0.90381000  0.34043000  0.07596000  1.0 0.1114550852
H  H371  1  0.93860000  0.30180000  0.12034000  1.0 0.1191322193
H  H372  1  0.79196000  0.37084000  0.89010000  1.0 0.1114550852
H  H373  1  0.86991000  0.26744000  0.89887000  1.0 0.1114550852
H  H374  1  0.83510000  0.35361000  0.01529000  1.0 0.1114550852
H  H375  1  0.75816000  0.75054000  0.17330000  1.0 0.1191322193
H  H376  1  0.83851000  0.65316000  0.00743000  1.0 0.1191322193
H  H377  1  0.83981000  0.61679000  0.02176000  1.0 0.1352590894
H  H378  1  0.89082000  0.64486000  0.04928000  1.0 0.1191322193
H  H379  1  0.82781000  0.69590000  0.08364000  1.0 0.0974479536
H  H380  1  0.87821000  0.72363000  0.11082000  1.0 0.0974479536
H  H381  1  0.99750000  0.79119000  0.27791000  1.0 0.1289529632
H  H382  1  0.94569000  0.79630000  0.26783000  1.0 0.1191322193
H  H383  1  0.94976000  0.78809000  0.21993000  1.0 0.1289529632
H  H384  1  0.95677000  0.71273000  0.23522000  1.0 0.0974479536
H  H385  1  0.96085000  0.70452000  0.18731000  1.0 0.0974479536
H  H386  1  0.88146000  0.66781000  0.18453000  1.0 0.0974479536
H  H387  1  0.99910000  0.94710000  0.95000000  1.0 0.3359856432
H  H388  1  0.00300000  0.90400000  0.94300000  1.0 0.3472126735
H  H389  1  0.04870000  0.95120000  0.89850000  1.0 0.3297893551
H  H390  1  0.00060000  0.92830000  0.85230000  1.0 0.3472126735
H  H391  1  0.11450000  0.92420000  0.16230000  1.0 0.363000003
H  H392  1  0.11190000  0.89290000  0.17500000  1.0 0.37183362
H  H393  1  0.40820000  0.96230000  0.41590000  1.0 0.3168352925
H  H394  1  0.38450000  0.96550000  0.37100000  1.0 0.3168352925
H  H395  1  0.38093000  0.14180000  0.52807000  1.0 0.1191322193
H  H396  1  0.39162000  0.22302000  0.56114000  1.0 0.1114550852
H  H397  1  0.26463000  0.17910000  0.39347000  1.0 0.1114550852
H  H398  1  0.25611000  0.09619000  0.35908000  1.0 0.1289529632
H  H399  1  0.50885000  0.48705000  0.72340000  1.0 0.1289529632
H  H400  1  0.42800000  0.43913000  0.65141000  1.0 0.1114550852
H  H401  1  0.47560000  0.31452000  0.57936000  1.0 0.1191322193
H  H402  1  0.55648000  0.36290000  0.65126000  1.0 0.1191322193
H  H403  1  0.21225000  0.44481000  0.50272000  1.0 0.1191322193
H  H404  1  0.28416000  0.41785000  0.54539000  1.0 0.1114550852
H  H405  1  0.21650000  0.27831000  0.38071000  1.0 0.1191322193
H  H406  1  0.14503000  0.30531000  0.33898000  1.0 0.1191322193
H  H407  1  0.41254000  0.27920000  0.56174000  1.0 0.1114550852
H  H408  1  0.35409000  0.39094000  0.55261000  1.0 0.1114550852
H  H409  1  0.26336000  0.25677000  0.44385000  1.0 0.1114550852
H  H410  1  0.24437000  0.06817000  0.68016000  1.0 0.1114550852
H  H411  1  0.16773000  0.05371000  0.65376000  1.0 0.1114550852
H  H412  1  0.11602000  0.93413000  0.48063000  1.0 0.1191322193
H  H413  1  0.19454000  0.94607000  0.50819000  1.0 0.1191322193
H  H414  1  0.90541000  0.11920000  0.53949000  1.0 0.1289529632
H  H415  1  0.93068000  0.04536000  0.50058000  1.0 0.1191322193
H  H416  1  0.06228000  0.10670000  0.67078000  1.0 0.1191322193
H  H417  1  0.03588000  0.17973000  0.70985000  1.0 0.1191322193
H  H418  1  0.96416000  0.76488000  0.36272000  1.0 0.1191322193
H  H419  1  0.01757000  0.84374000  0.44479000  1.0 0.1191322193
H  H420  1  0.90133000  0.90518000  0.38839000  1.0 0.1191322193
H  H421  1  0.84803000  0.82558000  0.30483000  1.0 0.1191322193
H  H422  1  0.08899000  0.05966000  0.60851000  1.0 0.1114550852
H  H423  1  0.95091000  0.97184000  0.49205000  1.0 0.1114550852
H  H424  1  0.05950000  0.91037000  0.47799000  1.0 0.1114550852
H  H425  1  0.46949000  0.09919000  0.82938000  1.0 0.1191322193
H  H426  1  0.53524000  0.11146000  0.91964000  1.0 0.1114550852
H  H427  1  0.56659000  0.98188000  0.82353000  1.0 0.1191322193
H  H428  1  0.49742000  0.96871000  0.73313000  1.0 0.1289529632
H  H429  1  0.79714000  0.01795000  0.96221000  1.0 0.1114550852
H  H430  1  0.72511000  0.01435000  0.94950000  1.0 0.1114550852
H  H431  1  0.77739000  0.15371000  0.10576000  1.0 0.1191322193
H  H432  1  0.85208000  0.15975000  0.12089000  1.0 0.1191322193
H  H433  1  0.69526000  0.15588000  0.23302000  1.0 0.1289529632
H  H434  1  0.70378000  0.11875000  0.15693000  1.0 0.1191322193
H  H435  1  0.57785000  0.15381000  0.06338000  1.0 0.1114550852
H  H436  1  0.56826000  0.18860000  0.13680000  1.0 0.1191322193
H  H437  1  0.65186000  0.04196000  0.92112000  1.0 0.1114550852
H  H438  1  0.72104000  0.11991000  0.10247000  1.0 0.1114550852
H  H439  1  0.56981000  0.08510000  0.98149000  1.0 0.1114550852
H  H440  1  0.33486000  0.00816000  0.50762000  1.0 0.1191322193
H  H441  1  0.58108000  0.08851000  0.68535000  1.0 0.1191322193
H  H442  1  0.56805000  0.08981000  0.72302000  1.0 0.1289529632
H  H443  1  0.59154000  0.14082000  0.74596000  1.0 0.1191322193
H  H444  1  0.49418000  0.07781000  0.63191000  1.0 0.0974479536
H  H445  1  0.51739000  0.12821000  0.65458000  1.0 0.0974479536
H  H446  1  0.46959000  0.24750000  0.70631000  1.0 0.1289529632
H  H447  1  0.42786000  0.19569000  0.64939000  1.0 0.1191322193
H  H448  1  0.47983000  0.19976000  0.66167000  1.0 0.1289529632
H  H449  1  0.47155000  0.20677000  0.74404000  1.0 0.0974479536
H  H450  1  0.52354000  0.21085000  0.75633000  1.0 0.0974479536
H  H451  1  0.44693000  0.13146000  0.71365000  1.0 0.0974479536
H  H452  1  0.79910000  0.24910000  0.55200000  1.0 0.3297893551
H  H453  1  0.81000000  0.25300000  0.59900000  1.0 0.3472126735
H  H454  1  0.90020000  0.29870000  0.59750000  1.0 0.3297893551
H  H455  1  0.89830000  0.25060000  0.57230000  1.0 0.3472126735
H  H456  1  0.76190000  0.95220000  0.83770000  1.0 0.363000003
H  H457  1  0.71790000  0.93690000  0.82500000  1.0 0.37183362
H  H458  1  0.54640000  0.99230000  0.58410000  1.0 0.3168352925
H  H459  1  0.59450000  0.01350000  0.62900000  1.0 0.3168352925
H  H460  1  0.61373000  0.85286000  0.47193000  1.0 0.1191322193
H  H461  1  0.66188000  0.83048000  0.43886000  1.0 0.1114550852
H  H462  1  0.78563000  0.87116000  0.60653000  1.0 0.1114550852
H  H463  1  0.73711000  0.89703000  0.64092000  1.0 0.1289529632
H  H464  1  0.76365000  0.78545000  0.27660000  1.0 0.1289529632
H  H465  1  0.78772000  0.77659000  0.34859000  1.0 0.1114550852
H  H466  1  0.73516000  0.89624000  0.42064000  1.0 0.1191322193
H  H467  1  0.71164000  0.90522000  0.34874000  1.0 0.1191322193
H  H468  1  0.94209000  0.70953000  0.49728000  1.0 0.1191322193
H  H469  1  0.87246000  0.73877000  0.45461000  1.0 0.1114550852
H  H470  1  0.89760000  0.83579000  0.61929000  1.0 0.1191322193
H  H471  1  0.96633000  0.80605000  0.66102000  1.0 0.1191322193
H  H472  1  0.71746000  0.85080000  0.43826000  1.0 0.1114550852
H  H473  1  0.83833000  0.80148000  0.44739000  1.0 0.1114550852
H  H474  1  0.81292000  0.81951000  0.55615000  1.0 0.1114550852
H  H475  1  0.38801000  0.56421000  0.31984000  1.0 0.1114550852
H  H476  1  0.39995000  0.51397000  0.34624000  1.0 0.1114550852
H  H477  1  0.45350000  0.63539000  0.51937000  1.0 0.1191322193
H  H478  1  0.43788000  0.68635000  0.49181000  1.0 0.1191322193
H  H479  1  0.57971000  0.36592000  0.46051000  1.0 0.1289529632
H  H480  1  0.54478000  0.43010000  0.49942000  1.0 0.1191322193
H  H481  1  0.43592000  0.39150000  0.32922000  1.0 0.1114550852
H  H482  1  0.46988000  0.32603000  0.29015000  1.0 0.1191322193
H  H483  1  0.40216000  0.60144000  0.63728000  1.0 0.1191322193
H  H484  1  0.39895000  0.57278000  0.55521000  1.0 0.1191322193
H  H485  1  0.51679000  0.51294000  0.61161000  1.0 0.1191322193
H  H486  1  0.52075000  0.54320000  0.69517000  1.0 0.1191322193
H  H487  1  0.45115000  0.48048000  0.39149000  1.0 0.1114550852
H  H488  1  0.47979000  0.45886000  0.50795000  1.0 0.1114550852
H  H489  1  0.43238000  0.58151000  0.52201000  1.0 0.1114550852
H  H490  1  0.26981000  0.64011000  0.17062000  1.0 0.1191322193
H  H491  1  0.19182000  0.61560000  0.08036000  1.0 0.1114550852
H  H492  1  0.15835000  0.74306000  0.17647000  1.0 0.1191322193
H  H493  1  0.23558000  0.76429000  0.26687000  1.0 0.1289529632
H  H494  1  0.05574000  0.83493000  0.03779000  1.0 0.1114550852
H  H495  1  0.06485000  0.77561000  0.05050000  1.0 0.1114550852
H  H496  1  0.04795000  0.67163000  0.89424000  1.0 0.1191322193
H  H497  1  0.03886000  0.73119000  0.87911000  1.0 0.1191322193
H  H498  1  0.92286000  0.46224000  0.76698000  1.0 0.1289529632
H  H499  1  0.96182000  0.54685000  0.84307000  1.0 0.1191322193
H  H500  1  0.09043000  0.51447000  0.93662000  1.0 0.1114550852
H  H501  1  0.05180000  0.43146000  0.86320000  1.0 0.1191322193
H  H502  1  0.12084000  0.73074000  0.07888000  1.0 0.1114550852
H  H503  1  0.01744000  0.61857000  0.89753000  1.0 0.1114550852
H  H504  1  0.10361000  0.58832000  0.01851000  1.0 0.1114550852
H  H505  1  0.50054000  0.82724000  0.49238000  1.0 0.1191322193
H  H506  1  0.40316000  0.89573000  0.31465000  1.0 0.1191322193
H  H507  1  0.36679000  0.84503000  0.27698000  1.0 0.1352590894
H  H508  1  0.39486000  0.84558000  0.25404000  1.0 0.1191322193
H  H509  1  0.44590000  0.86227000  0.36810000  1.0 0.0974479536
H  H510  1  0.47363000  0.86281000  0.34542000  1.0 0.0974479536
H  H511  1  0.54119000  0.76328000  0.29369000  1.0 0.1289529632
H  H512  1  0.54630000  0.77847000  0.35061000  1.0 0.1191322193
H  H513  1  0.53809000  0.81816000  0.33833000  1.0 0.1289529632
H  H514  1  0.46273000  0.72751000  0.25596000  1.0 0.0974479536
H  H515  1  0.45452000  0.76721000  0.24367000  1.0 0.0974479536
H  H516  1  0.41781000  0.73328000  0.28635000  1.0 0.0974479536
H  H517  1  0.69710000  0.24710000  0.44800000  1.0 0.3297893551
H  H518  1  0.65400000  0.21100000  0.40100000  1.0 0.3472126735
H  H519  1  0.70120000  0.30270000  0.40250000  1.0 0.3297893551
H  H520  1  0.67830000  0.32600000  0.42770000  1.0 0.3472126735
C  C1  1  0.10500000  0.68654000  0.74486000  1.0 0.5796875631
C  C2  1  0.12144000  0.68269000  0.79315000  1.0 -0.0304742709
C  C3  1  0.14256000  0.64206000  0.79130000  1.0 -0.0991630292
C  C4  1  0.15631000  0.63601000  0.83350000  1.0 -0.1506672962
C  C5  1  0.15078000  0.67068000  0.87966000  1.0 0.0799828808
C  C6  1  0.13174000  0.71122000  0.88268000  1.0 -0.1506672962
C  C7  1  0.11667000  0.71648000  0.83841000  1.0 -0.0918871605
C  C8  1  0.14373000  0.40671000  0.86638000  1.0 0.5982017493
C  C9  1  0.15260000  0.45939000  0.88899000  1.0 -0.0304742709
C  C10  1  0.19176000  0.49814000  0.95008000  1.0 -0.0991630292
C  C11  1  0.19729000  0.54590000  0.96937000  1.0 -0.1431297303
C  C12  1  0.16457000  0.55694000  0.92789000  1.0 0.0712298447
C  C13  1  0.12648000  0.51788000  0.86760000  1.0 -0.1431297303
C  C14  1  0.12078000  0.46978000  0.84820000  1.0 -0.0991630292
C  C15  1  0.26495000  0.87456000  0.26895000  1.0 0.5796875631
C  C16  1  0.24492000  0.82825000  0.20573000  1.0 -0.0378046596
C  C17  1  0.26502000  0.78680000  0.19782000  1.0 -0.0991630292
C  C18  1  0.24780000  0.74418000  0.13912000  1.0 -0.1506672962
C  C19  1  0.21076000  0.74290000  0.08808000  1.0 0.0799828808
C  C20  1  0.19017000  0.78450000  0.09645000  1.0 -0.1506672962
C  C21  1  0.20756000  0.82670000  0.15478000  1.0 -0.0991630292
C  C22  1  0.16459000  0.66327000  0.92376000  1.0 0.0799828808
C  C23  1  0.16014000  0.61562000  0.90688000  1.0 -0.1991235533
C  C24  1  0.17124000  0.60796000  0.94748000  1.0 0.0875343369
C  C25  1  0.18915000  0.65032000  0.00799000  1.0 -0.1991235533
C  C26  1  0.19310000  0.69829000  0.02541000  1.0 0.0799828808
C  C27  1  0.17951000  0.70403000  0.98234000  1.0 -0.1900372559
C  C28  1  0.33616000  0.72278000  0.74282000  1.0 0.5982017493
C  C29  1  0.36802000  0.77276000  0.78114000  1.0 -0.0378046596
C  C30  1  0.42114000  0.78174000  0.82240000  1.0 -0.1162034266
C  C31  1  0.45077000  0.82727000  0.85950000  1.0 -0.1506672962
C  C32  1  0.43128000  0.86737000  0.86031000  1.0 0.0799828808
C  C33  1  0.37928000  0.85778000  0.81910000  1.0 -0.1506672962
C  C34  1  0.34874000  0.81104000  0.77990000  1.0 -0.0991630292
C  C35  1  0.70200000  0.04815000  0.25245000  1.0 0.6072603067
C  C36  1  0.66045000  0.03055000  0.18730000  1.0 -0.0220449415
C  C37  1  0.62887000  0.06276000  0.17911000  1.0 -0.0918871605
C  C38  1  0.59053000  0.04739000  0.12034000  1.0 -0.1431297303
C  C39  1  0.58152000  0.00022000  0.06910000  1.0 0.0712298447
C  C40  1  0.61351000  0.96971000  0.07880000  1.0 -0.1506672962
C  C41  1  0.65254000  0.98549000  0.13805000  1.0 -0.0991630292
C  C42  1  0.40796000  0.13376000  0.86966000  1.0 0.5796875631
C  C43  1  0.42548000  0.09921000  0.88649000  1.0 -0.0378046596
C  C44  1  0.41662000  0.04874000  0.84216000  1.0 -0.0991630292
C  C45  1  0.43361000  0.01701000  0.85728000  1.0 -0.1556705252
C  C46  1  0.46048000  0.03502000  0.91842000  1.0 0.0799828808
C  C47  1  0.46888000  0.08557000  0.96231000  1.0 -0.1556705252
C  C48  1  0.45127000  0.11750000  0.94687000  1.0 -0.0991630292
C  C49  1  0.46402000  0.91772000  0.90450000  1.0 0.0799828808
C  C50  1  0.50848000  0.93389000  0.96159000  1.0 -0.1900372559
C  C51  1  0.53747000  0.98288000  0.00599000  1.0 0.0875343369
C  C52  1  0.52161000  0.01570000  0.99131000  1.0 -0.1991235533
C  C53  1  0.47796000  0.00031000  0.93443000  1.0 0.0799828808
C  C54  1  0.44850000  0.95118000  0.89012000  1.0 -0.2134027208
C  C55  1  0.28028000  0.56559000  0.59187000  1.0 0.5874047106
C  C56  1  0.29497000  0.52249000  0.55562000  1.0 -0.0304742709
C  C57  1  0.33926000  0.51098000  0.58616000  1.0 -0.0991630292
C  C58  1  0.35363000  0.47185000  0.55440000  1.0 -0.1506672962
C  C59  1  0.32347000  0.44169000  0.48954000  1.0 0.0799828808
C  C60  1  0.27848000  0.45340000  0.45894000  1.0 -0.1506672962
C  C61  1  0.26553000  0.49399000  0.49228000  1.0 -0.0837809431
C  C62  1  0.17121000  0.12111000  0.21510000  1.0 0.5718308737
C  C63  1  0.21050000  0.16905000  0.25875000  1.0 -0.0220449415
C  C64  1  0.19808000  0.20668000  0.25280000  1.0 -0.0991630292
C  C65  1  0.23359000  0.24901000  0.29322000  1.0 -0.1506672962
C  C66  1  0.28255000  0.25677000  0.34002000  1.0 0.0712298447
C  C67  1  0.29499000  0.21859000  0.34480000  1.0 -0.1556705252
C  C68  1  0.25964000  0.17414000  0.30430000  1.0 -0.0991630292
C  C69  1  0.61660000  0.37651000  0.57471000  1.0 0.5796875631
C  C70  1  0.56240000  0.36965000  0.54525000  1.0 -0.0378046596
C  C71  1  0.52710000  0.32911000  0.48393000  1.0 -0.0918871605
C  C72  1  0.47671000  0.32413000  0.45682000  1.0 -0.1506672962
C  C73  1  0.45956000  0.35930000  0.48962000  1.0 0.0799828808
C  C74  1  0.49585000  0.39864000  0.55181000  1.0 -0.1431297303
C  C75  1  0.54508000  0.40403000  0.57831000  1.0 -0.0991630292
C  C76  1  0.33844000  0.39606000  0.45796000  1.0 0.0799828808
C  C77  1  0.30386000  0.34982000  0.40886000  1.0 -0.1900372559
C  C78  1  0.32005000  0.30599000  0.38722000  1.0 0.0875343369
C  C79  1  0.37054000  0.30893000  0.41359000  1.0 -0.1991235533
C  C80  1  0.40561000  0.35499000  0.46126000  1.0 0.0799828808
C  C81  1  0.38849000  0.39845000  0.48288000  1.0 -0.1900372559
C  C82  1  0.15222000  0.64962000  0.63060000  1.0 0.5017768567
C  C83  1  0.14080000  0.43110000  0.53850000  1.0 -0.4043690251
C  C84  1  0.15470000  0.48570000  0.59820000  1.0 -0.0518909629
C  C85  1  0.21730000  0.53610000  0.74700000  1.0 -0.3904737706
C  C86  1  0.23640000  0.51270000  0.70750000  1.0 -0.0622738997
C  C87  1  0.23120000  0.54460000  0.65720000  1.0 0.2831287508
C  C88  1  0.94168000  0.36014000  0.25514000  1.0 0.5796875631
C  C89  1  0.88954000  0.32829000  0.20685000  1.0 -0.0304742709
C  C90  1  0.85076000  0.35126000  0.20870000  1.0 -0.0991630292
C  C91  1  0.80251000  0.32281000  0.16650000  1.0 -0.1506672962
C  C92  1  0.79102000  0.27112000  0.12034000  1.0 0.0799828808
C  C93  1  0.82854000  0.24906000  0.11732000  1.0 -0.1506672962
C  C94  1  0.87807000  0.27826000  0.16159000  1.0 -0.0918871605
C  C95  1  0.54033000  0.27735000  0.13362000  1.0 0.5982017493
C  C96  1  0.57040000  0.26361000  0.11101000  1.0 -0.0304742709
C  C97  1  0.54806000  0.24168000  0.04992000  1.0 -0.0991630292
C  C98  1  0.57653000  0.22792000  0.03063000  1.0 -0.1431297303
C  C99  1  0.62905000  0.23668000  0.07211000  1.0 0.0712298447
C  C100  1  0.65028000  0.25888000  0.13240000  1.0 -0.1431297303
C  C101  1  0.62158000  0.27258000  0.15180000  1.0 -0.0991630292
C  C102  1  0.60561000  0.99600000  0.73105000  1.0 0.5796875631
C  C103  1  0.62252000  0.03919000  0.79427000  1.0 -0.0378046596
C  C104  1  0.58898000  0.06720000  0.80218000  1.0 -0.0991630292
C  C105  1  0.60506000  0.10868000  0.86088000  1.0 -0.1556705252
C  C106  1  0.65482000  0.12268000  0.91192000  1.0 0.0799828808
C  C107  1  0.68805000  0.09372000  0.90355000  1.0 -0.1506672962
C  C108  1  0.67192000  0.05278000  0.84522000  1.0 -0.0991630292
C  C109  1  0.73951000  0.24083000  0.07624000  1.0 0.0799828808
C  C110  1  0.70874000  0.25326000  0.09312000  1.0 -0.1991235533
C  C111  1  0.66048000  0.22376000  0.05252000  1.0 0.0875343369
C  C112  1  0.64233000  0.18116000  0.99201000  1.0 -0.1900372559
C  C113  1  0.67288000  0.16769000  0.97459000  1.0 0.0799828808
C  C114  1  0.72169000  0.19717000  0.01766000  1.0 -0.1900372559
C  C115  1  0.97996000  0.59334000  0.25718000  1.0 0.5982017493
C  C116  1  0.99162000  0.58688000  0.21886000  1.0 -0.0378046596
C  C117  1  0.95934000  0.59874000  0.17760000  1.0 -0.1162034266
C  C118  1  0.96777000  0.59127000  0.14050000  1.0 -0.1506672962
C  C119  1  0.00706000  0.57097000  0.13969000  1.0 0.0799828808
C  C120  1  0.03868000  0.56018000  0.18090000  1.0 -0.1506672962
C  C121  1  0.03114000  0.56884000  0.22010000  1.0 -0.0991630292
C  C122  1  0.79570000  0.44955000  0.74755000  1.0 0.6072603067
C  C123  1  0.84325000  0.47315000  0.81270000  1.0 -0.0220449415
C  C124  1  0.88365000  0.44976000  0.82089000  1.0 -0.0918871605
C  C125  1  0.92705000  0.47019000  0.87966000  1.0 -0.1431297303
C  C126  1  0.93112000  0.51242000  0.93090000  1.0 0.0712298447
C  C127  1  0.89091000  0.53471000  0.92120000  1.0 -0.1506672962
C  C128  1  0.84744000  0.51449000  0.86195000  1.0 -0.0991630292
C  C129  1  0.26410000  0.53830000  0.13034000  1.0 0.5796875631
C  C130  1  0.21272000  0.53899000  0.11351000  1.0 -0.0378046596
C  C131  1  0.20658000  0.57446000  0.15784000  1.0 -0.0991630292
C  C132  1  0.15973000  0.57633000  0.14272000  1.0 -0.1556705252
C  C133  1  0.11660000  0.54206000  0.08158000  1.0 0.0799828808
C  C134  1  0.12326000  0.50657000  0.03769000  1.0 -0.1506672962
C  C135  1  0.17063000  0.50440000  0.05313000  1.0 -0.0991630292
C  C136  1  0.01322000  0.55952000  0.09550000  1.0 0.0799828808
C  C137  1  0.97230000  0.54689000  0.03841000  1.0 -0.1900372559
C  C138  1  0.97689000  0.53148000  0.99401000  1.0 0.0875343369
C  C139  1  0.02439000  0.53030000  0.00869000  1.0 -0.1991235533
C  C140  1  0.06588000  0.54353000  0.06557000  1.0 0.0799828808
C  C141  1  0.06106000  0.55838000  0.10988000  1.0 -0.2134027208
C  C142  1  0.97372000  0.68841000  0.40813000  1.0 0.5874047106
C  C143  1  0.96687000  0.73935000  0.44438000  1.0 -0.0304742709
C  C144  1  0.92482000  0.75310000  0.41384000  1.0 -0.0991630292
C  C145  1  0.91745000  0.79923000  0.44560000  1.0 -0.1506672962
C  C146  1  0.95215000  0.83393000  0.51046000  1.0 0.0799828808
C  C147  1  0.99446000  0.81954000  0.54106000  1.0 -0.1506672962
C  C148  1  0.00171000  0.77325000  0.50772000  1.0 -0.0837809431
C  C149  1  0.90601000  0.95611000  0.78490000  1.0 0.5718308737
C  C150  1  0.91030000  0.95175000  0.74125000  1.0 -0.0220449415
C  C151  1  0.95388000  0.94528000  0.74720000  1.0 -0.0991630292
C  C152  1  0.95579000  0.94037000  0.70678000  1.0 -0.1506672962
C  C153  1  0.91675000  0.94253000  0.65998000  1.0 0.0712298447
C  C154  1  0.87379000  0.95019000  0.65520000  1.0 -0.1556705252
C  C155  1  0.86984000  0.95534000  0.69570000  1.0 -0.0991630292
C  C156  1  0.80180000  0.04189000  0.42529000  1.0 0.5796875631
C  C157  1  0.82440000  0.01715000  0.45475000  1.0 -0.0378046596
C  C158  1  0.84518000  0.04317000  0.51607000  1.0 -0.0918871605
C  C159  1  0.86731000  0.01989000  0.54318000  1.0 -0.1506672962
C  C160  1  0.86968000  0.96994000  0.51038000  1.0 0.0799828808
C  C161  1  0.84683000  0.94404000  0.44819000  1.0 -0.1431297303
C  C162  1  0.82572000  0.96677000  0.42169000  1.0 -0.0991630292
C  C163  1  0.93810000  0.88048000  0.54204000  1.0 0.0799828808
C  C164  1  0.94096000  0.89500000  0.59114000  1.0 -0.1900372559
C  C165  1  0.91877000  0.93283000  0.61278000  1.0 0.0875343369
C  C166  1  0.89534000  0.95695000  0.58641000  1.0 -0.1991235533
C  C167  1  0.89373000  0.94435000  0.53874000  1.0 0.0799828808
C  C168  1  0.91557000  0.90561000  0.51712000  1.0 -0.1900372559
C  C169  1  0.01902000  0.52162000  0.36940000  1.0 0.5017768567
C  C170  1  0.89260000  0.60230000  0.46150000  1.0 -0.4043690251
C  C171  1  0.88750000  0.55650000  0.40180000  1.0 -0.0518909629
C  C172  1  0.78910000  0.47030000  0.25300000  1.0 -0.3904737706
C  C173  1  0.80520000  0.52890000  0.29250000  1.0 -0.0622738997
C  C174  1  0.88740000  0.57400000  0.34280000  1.0 0.2831287508
C  C175  1  0.43654000  0.19168000  0.08154000  1.0 0.5796875631
C  C176  1  0.43269000  0.13954000  0.06125000  1.0 -0.0304742709
C  C177  1  0.39206000  0.10076000  0.99950000  1.0 -0.0991630292
C  C178  1  0.38601000  0.05251000  0.97970000  1.0 -0.1506672962
C  C179  1  0.42068000  0.04102000  0.01990000  1.0 0.0799828808
C  C180  1  0.46122000  0.07854000  0.07948000  1.0 -0.1506672962
C  C181  1  0.46648000  0.12807000  0.09981000  1.0 -0.0918871605
C  C182  1  0.15671000  0.79033000  0.76298000  1.0 0.5982017493
C  C183  1  0.20939000  0.82040000  0.80679000  1.0 -0.0304742709
C  C184  1  0.24814000  0.79806000  0.80638000  1.0 -0.0991630292
C  C185  1  0.29590000  0.82653000  0.84861000  1.0 -0.1431297303
C  C186  1  0.30694000  0.87905000  0.89237000  1.0 0.0712298447
C  C187  1  0.26788000  0.90028000  0.89140000  1.0 -0.1431297303
C  C188  1  0.21978000  0.87158000  0.84900000  1.0 -0.0991630292
C  C189  1  0.62456000  0.85561000  0.10961000  1.0 0.5796875631
C  C190  1  0.57825000  0.87252000  0.08333000  1.0 -0.0378046596
C  C191  1  0.53680000  0.83898000  0.02178000  1.0 -0.0991630292
C  C192  1  0.49418000  0.85506000  0.99638000  1.0 -0.1506672962
C  C193  1  0.49290000  0.90482000  0.03214000  1.0 0.0799828808
C  C194  1  0.53450000  0.93805000  0.09433000  1.0 -0.1506672962
C  C195  1  0.57670000  0.92192000  0.11914000  1.0 -0.0991630292
C  C196  1  0.41327000  0.98951000  0.99868000  1.0 0.0799828808
C  C197  1  0.36562000  0.95874000  0.95548000  1.0 -0.1991235533
C  C198  1  0.35796000  0.91048000  0.93672000  1.0 0.0875343369
C  C199  1  0.40032000  0.89233000  0.96117000  1.0 -0.1900372559
C  C200  1  0.44829000  0.92288000  0.00519000  1.0 0.0799828808
C  C201  1  0.45403000  0.97169000  0.02452000  1.0 -0.1900372559
C  C202  1  0.47278000  0.22996000  0.88662000  1.0 0.5982017493
C  C203  1  0.52276000  0.24162000  0.90474000  1.0 -0.0378046596
C  C204  1  0.53174000  0.20934000  0.86060000  1.0 -0.1148758332
C  C205  1  0.57727000  0.21777000  0.87650000  1.0 -0.1506672962
C  C206  1  0.61737000  0.25706000  0.93609000  1.0 0.0799828808
C  C207  1  0.60778000  0.28868000  0.97850000  1.0 -0.1506672962
C  C208  1  0.56104000  0.28114000  0.96230000  1.0 -0.0991630292
C  C209  1  0.79815000  0.04570000  0.84615000  1.0 0.6072603067
C  C210  1  0.78055000  0.09325000  0.87010000  1.0 -0.0220449415
C  C211  1  0.81276000  0.13365000  0.93389000  1.0 -0.0918871605
C  C212  1  0.79739000  0.17705000  0.95686000  1.0 -0.1431297303
C  C213  1  0.75022000  0.18112000  0.91870000  1.0 0.0712298447
C  C214  1  0.71971000  0.14091000  0.85620000  1.0 -0.1506672962
C  C215  1  0.73549000  0.09744000  0.83295000  1.0 -0.0991630292
C  C216  1  0.88376000  0.51410000  0.22580000  1.0 0.5796875631
C  C217  1  0.84921000  0.46272000  0.17373000  1.0 -0.0378046596
C  C218  1  0.79874000  0.45658000  0.13212000  1.0 -0.0991630292
C  C219  1  0.76701000  0.40973000  0.08340000  1.0 -0.1556705252
C  C220  1  0.78502000  0.36660000  0.07454000  1.0 0.0799828808
C  C221  1  0.83557000  0.37326000  0.11669000  1.0 -0.1506672962
C  C222  1  0.86750000  0.42063000  0.16623000  1.0 -0.0991630292
C  C223  1  0.66772000  0.26322000  0.95370000  1.0 0.0799828808
C  C224  1  0.68389000  0.22230000  0.92541000  1.0 -0.1900372559
C  C225  1  0.73288000  0.22689000  0.94541000  1.0 0.0875343369
C  C226  1  0.76570000  0.27439000  0.99409000  1.0 -0.1991235533
C  C227  1  0.75031000  0.31588000  0.02235000  1.0 0.0799828808
C  C228  1  0.70118000  0.31106000  0.00268000  1.0 -0.2134027208
C  C229  1  0.31559000  0.22372000  0.78531000  1.0 0.5874047106
C  C230  1  0.27249000  0.21687000  0.72752000  1.0 -0.0304742709
C  C231  1  0.26098000  0.17482000  0.67172000  1.0 -0.0991630292
C  C232  1  0.22185000  0.16745000  0.61822000  1.0 -0.1506672962
C  C233  1  0.19169000  0.20215000  0.61822000  1.0 0.0799828808
C  C234  1  0.20340000  0.24446000  0.67492000  1.0 -0.1506672962
C  C235  1  0.24399000  0.25171000  0.72846000  1.0 -0.0837809431
C  C236  1  0.87111000  0.15601000  0.44990000  1.0 0.5718308737
C  C237  1  0.91905000  0.16030000  0.45855000  1.0 -0.0220449415
C  C238  1  0.95668000  0.20388000  0.50860000  1.0 -0.0991630292
C  C239  1  0.99901000  0.20579000  0.51542000  1.0 -0.1506672962
C  C240  1  0.00677000  0.16675000  0.47422000  1.0 0.0712298447
C  C241  1  0.96859000  0.12379000  0.42360000  1.0 -0.1506672962
C  C242  1  0.92414000  0.11984000  0.41450000  1.0 -0.0991630292
C  C243  1  0.12651000  0.05180000  0.25991000  1.0 0.5796875631
C  C244  1  0.11965000  0.07440000  0.30725000  1.0 -0.0378046596
C  C245  1  0.07911000  0.09518000  0.30201000  1.0 -0.0918871605
C  C246  1  0.07413000  0.11731000  0.34742000  1.0 -0.1506672962
C  C247  1  0.10930000  0.11968000  0.39974000  1.0 0.0799828808
C  C248  1  0.14864000  0.09683000  0.40279000  1.0 -0.1431297303
C  C249  1  0.15403000  0.07572000  0.35895000  1.0 -0.0991630292
C  C250  1  0.14606000  0.18810000  0.55762000  1.0 0.0799828808
C  C251  1  0.09982000  0.19096000  0.54596000  1.0 -0.1900372559
C  C252  1  0.05599000  0.16877000  0.48594000  1.0 0.0875343369
C  C253  1  0.05893000  0.14534000  0.43839000  1.0 -0.1991235533
C  C254  1  0.10499000  0.14373000  0.44938000  1.0 0.0799828808
C  C255  1  0.14845000  0.16557000  0.50996000  1.0 -0.1900372559
C  C256  1  0.39962000  0.26902000  0.99740000  1.0 0.5017768567
C  C257  1  0.18110000  0.14260000  0.79030000  1.0 -0.4043690251
C  C258  1  0.23570000  0.13750000  0.83100000  1.0 -0.0518909629
C  C259  1  0.28610000  0.03910000  0.81880000  1.0 -0.3904737706
C  C260  1  0.26270000  0.05520000  0.77630000  1.0 -0.0622738997
C  C261  1  0.29460000  0.13740000  0.81340000  1.0 0.2831287508
C  C262  1  0.11014000  0.35500000  0.91846000  1.0 0.5796875631
C  C263  1  0.07829000  0.37144000  0.93875000  1.0 -0.0304742709
C  C264  1  0.10126000  0.39256000  0.00050000  1.0 -0.0991630292
C  C265  1  0.07281000  0.40631000  0.02030000  1.0 -0.1506672962
C  C266  1  0.02112000  0.40078000  0.98010000  1.0 0.0799828808
C  C267  1  0.99906000  0.38174000  0.92052000  1.0 -0.1506672962
C  C268  1  0.02826000  0.36667000  0.90019000  1.0 -0.0918871605
C  C269  1  0.02735000  0.39373000  0.23702000  1.0 0.5982017493
C  C270  1  0.01361000  0.40260000  0.19321000  1.0 -0.0304742709
C  C271  1  0.99168000  0.44176000  0.19362000  1.0 -0.0991630292
C  C272  1  0.97792000  0.44729000  0.15139000  1.0 -0.1431297303
C  C273  1  0.98668000  0.41457000  0.10763000  1.0 0.0712298447
C  C274  1  0.00888000  0.37648000  0.10860000  1.0 -0.1431297303
C  C275  1  0.02258000  0.37078000  0.15100000  1.0 -0.0991630292
C  C276  1  0.74600000  0.51495000  0.89039000  1.0 0.5796875631
C  C277  1  0.78919000  0.49492000  0.91667000  1.0 -0.0378046596
C  C278  1  0.81720000  0.51502000  0.97822000  1.0 -0.0991630292
C  C279  1  0.85868000  0.49780000  0.00362000  1.0 -0.1506672962
C  C280  1  0.87268000  0.46076000  0.96786000  1.0 0.0799828808
C  C281  1  0.84372000  0.44017000  0.90567000  1.0 -0.1506672962
C  C282  1  0.80278000  0.45756000  0.88086000  1.0 -0.0991630292
C  C283  1  0.99083000  0.41459000  0.00132000  1.0 0.0799828808
C  C284  1  0.00326000  0.41014000  0.04452000  1.0 -0.1991235533
C  C285  1  0.97376000  0.42124000  0.06328000  1.0 0.0875343369
C  C286  1  0.93116000  0.43915000  0.03883000  1.0 -0.1991235533
C  C287  1  0.91769000  0.44310000  0.99481000  1.0 0.0799828808
C  C288  1  0.94717000  0.42951000  0.97548000  1.0 -0.1900372559
C  C289  1  0.34334000  0.58616000  0.11338000  1.0 0.5982017493
C  C290  1  0.33688000  0.61802000  0.09526000  1.0 -0.0378046596
C  C291  1  0.34874000  0.67114000  0.13940000  1.0 -0.1162034266
C  C292  1  0.34127000  0.70077000  0.12350000  1.0 -0.1506672962
C  C293  1  0.32097000  0.68128000  0.06391000  1.0 0.0799828808
C  C294  1  0.31018000  0.62928000  0.02150000  1.0 -0.1506672962
C  C295  1  0.31884000  0.59874000  0.03770000  1.0 -0.0991630292
C  C296  1  0.19955000  0.95200000  0.15385000  1.0 0.6072603067
C  C297  1  0.22315000  0.91045000  0.12990000  1.0 -0.0220449415
C  C298  1  0.19976000  0.87887000  0.06611000  1.0 -0.0918871605
C  C299  1  0.22019000  0.84053000  0.04314000  1.0 -0.1431297303
C  C300  1  0.26242000  0.83152000  0.08130000  1.0 0.0712298447
C  C301  1  0.28471000  0.86351000  0.14380000  1.0 -0.1506672962
C  C302  1  0.26449000  0.90254000  0.16705000  1.0 -0.0991630292
C  C303  1  0.28830000  0.65796000  0.77420000  1.0 0.5796875631
C  C304  1  0.28899000  0.67548000  0.82627000  1.0 -0.0378046596
C  C305  1  0.32446000  0.66666667  0.86788000  1.0 -0.0991630292
C  C306  1  0.32633000  0.68361000  0.91660000  1.0 -0.1556705252
C  C307  1  0.29206000  0.71048000  0.92546000  1.0 0.0799828808
C  C308  1  0.25657000  0.71888000  0.88331000  1.0 -0.1506672962
C  C309  1  0.25440000  0.70127000  0.83377000  1.0 -0.0991630292
C  C310  1  0.30952000  0.71402000  0.04630000  1.0 0.0799828808
C  C311  1  0.29689000  0.75848000  0.07459000  1.0 -0.1900372559
C  C312  1  0.28148000  0.78747000  0.05459000  1.0 0.0875343369
C  C313  1  0.28030000  0.77161000  0.00591000  1.0 -0.1991235533
C  C314  1  0.29353000  0.72796000  0.97765000  1.0 0.0799828808
C  C315  1  0.30838000  0.69850000  0.99732000  1.0 -0.2134027208
C  C316  1  0.43841000  0.53028000  0.21469000  1.0 0.5874047106
C  C317  1  0.48935000  0.54497000  0.27248000  1.0 -0.0304742709
C  C318  1  0.50310000  0.58926000  0.32828000  1.0 -0.0991630292
C  C319  1  0.54923000  0.60363000  0.38178000  1.0 -0.1506672962
C  C320  1  0.58393000  0.57347000  0.38178000  1.0 0.0799828808
C  C321  1  0.56954000  0.52848000  0.32508000  1.0 -0.1506672962
C  C322  1  0.52325000  0.51553000  0.27154000  1.0 -0.0837809431
C  C323  1  0.70611000  0.42121000  0.55010000  1.0 0.5718308737
C  C324  1  0.70175000  0.46050000  0.54145000  1.0 -0.0220449415
C  C325  1  0.69528000  0.44808000  0.49140000  1.0 -0.0991630292
C  C326  1  0.69037000  0.48359000  0.48458000  1.0 -0.1506672962
C  C327  1  0.69253000  0.53255000  0.52578000  1.0 0.0712298447
C  C328  1  0.70019000  0.54499000  0.57640000  1.0 -0.1506672962
C  C329  1  0.70534000  0.50964000  0.58550000  1.0 -0.0991630292
C  C330  1  0.79189000  0.86660000  0.74009000  1.0 0.5796875631
C  C331  1  0.76715000  0.81240000  0.69275000  1.0 -0.0378046596
C  C332  1  0.79317000  0.77710000  0.69799000  1.0 -0.0918871605
C  C333  1  0.76989000  0.72671000  0.65258000  1.0 -0.1506672962
C  C334  1  0.71994000  0.70956000  0.60026000  1.0 0.0799828808
C  C335  1  0.69404000  0.74585000  0.59721000  1.0 -0.1431297303
C  C336  1  0.71677000  0.79508000  0.64105000  1.0 -0.0991630292
C  C337  1  0.63048000  0.58844000  0.44238000  1.0 0.0799828808
C  C338  1  0.64500000  0.55386000  0.45404000  1.0 -0.1900372559
C  C339  1  0.68283000  0.57005000  0.51406000  1.0 0.0875343369
C  C340  1  0.70695000  0.62054000  0.56161000  1.0 -0.1991235533
C  C341  1  0.69435000  0.65561000  0.55062000  1.0 0.0799828808
C  C342  1  0.65561000  0.63849000  0.49004000  1.0 -0.1900372559
C  C343  1  0.27162000  0.40222000  0.00260000  1.0 0.5017768567
C  C344  1  0.35230000  0.39080000  0.20970000  1.0 -0.4043690251
C  C345  1  0.30650000  0.40470000  0.16900000  1.0 -0.0518909629
C  C346  1  0.22030000  0.46730000  0.18120000  1.0 -0.3904737706
C  C347  1  0.27890000  0.48640000  0.22370000  1.0 -0.0622738997
C  C348  1  0.32400000  0.48120000  0.18660000  1.0 0.2831287508
C  C349  1  0.64500000  0.56346000  0.75514000  1.0 0.5796875631
C  C350  1  0.62856000  0.56731000  0.70685000  1.0 -0.0304742709
C  C351  1  0.60744000  0.60794000  0.70870000  1.0 -0.0991630292
C  C352  1  0.59369000  0.61399000  0.66650000  1.0 -0.1506672962
C  C353  1  0.59922000  0.57932000  0.62034000  1.0 0.0799828808
C  C354  1  0.61826000  0.53878000  0.61732000  1.0 -0.1506672962
C  C355  1  0.63333000  0.53352000  0.66159000  1.0 -0.0918871605
C  C356  1  0.60627000  0.84329000  0.63362000  1.0 0.5982017493
C  C357  1  0.59740000  0.79061000  0.61101000  1.0 -0.0304742709
C  C358  1  0.55824000  0.75186000  0.54992000  1.0 -0.0991630292
C  C359  1  0.55271000  0.70410000  0.53063000  1.0 -0.1431297303
C  C360  1  0.58543000  0.69306000  0.57211000  1.0 0.0712298447
C  C361  1  0.62352000  0.73212000  0.63240000  1.0 -0.1431297303
C  C362  1  0.62922000  0.78022000  0.65180000  1.0 -0.0991630292
C  C363  1  0.48505000  0.37544000  0.23105000  1.0 0.5796875631
C  C364  1  0.50508000  0.42175000  0.29427000  1.0 -0.0378046596
C  C365  1  0.48498000  0.46320000  0.30218000  1.0 -0.0991630292
C  C366  1  0.50220000  0.50582000  0.36088000  1.0 -0.1506672962
C  C367  1  0.53924000  0.50710000  0.41192000  1.0 0.0799828808
C  C368  1  0.55983000  0.46550000  0.40355000  1.0 -0.1506672962
C  C369  1  0.54244000  0.42330000  0.34522000  1.0 -0.0991630292
C  C370  1  0.58541000  0.58673000  0.57624000  1.0 0.0799828808
C  C371  1  0.58986000  0.63438000  0.59312000  1.0 -0.1991235533
C  C372  1  0.57876000  0.64204000  0.55252000  1.0 0.0875343369
C  C373  1  0.56085000  0.59968000  0.49201000  1.0 -0.1900372559
C  C374  1  0.55690000  0.55171000  0.47459000  1.0 0.0799828808
C  C375  1  0.57049000  0.54597000  0.51766000  1.0 -0.1900372559
C  C376  1  0.41384000  0.52722000  0.75718000  1.0 0.5982017493
C  C377  1  0.38198000  0.47724000  0.71886000  1.0 -0.0378046596
C  C378  1  0.32886000  0.46826000  0.67760000  1.0 -0.1162034266
C  C379  1  0.29923000  0.42273000  0.64050000  1.0 -0.1506672962
C  C380  1  0.31872000  0.38263000  0.63969000  1.0 0.0799828808
C  C381  1  0.37072000  0.39222000  0.68090000  1.0 -0.1506672962
C  C382  1  0.40126000  0.43896000  0.72010000  1.0 -0.0991630292
C  C383  1  0.04800000  0.20185000  0.24755000  1.0 0.6072603067
C  C384  1  0.08955000  0.21945000  0.31270000  1.0 -0.0220449415
C  C385  1  0.12113000  0.18724000  0.32089000  1.0 -0.0918871605
C  C386  1  0.15947000  0.20261000  0.37966000  1.0 -0.1431297303
C  C387  1  0.16848000  0.24978000  0.43090000  1.0 0.0712298447
C  C388  1  0.13649000  0.28029000  0.42120000  1.0 -0.1506672962
C  C389  1  0.09746000  0.26451000  0.36195000  1.0 -0.0991630292
C  C390  1  0.34204000  0.11624000  0.63034000  1.0 0.5796875631
C  C391  1  0.32452000  0.15079000  0.61351000  1.0 -0.0378046596
C  C392  1  0.33338000  0.20126000  0.65784000  1.0 -0.0991630292
C  C393  1  0.31639000  0.23299000  0.64272000  1.0 -0.1556705252
C  C394  1  0.28952000  0.21498000  0.58158000  1.0 0.0799828808
C  C395  1  0.28112000  0.16443000  0.53769000  1.0 -0.1506672962
C  C396  1  0.29873000  0.13250000  0.55313000  1.0 -0.0991630292
C  C397  1  0.28598000  0.33228000  0.59550000  1.0 0.0799828808
C  C398  1  0.24152000  0.31611000  0.53841000  1.0 -0.1900372559
C  C399  1  0.21253000  0.26712000  0.49401000  1.0 0.0875343369
C  C400  1  0.22839000  0.23430000  0.50869000  1.0 -0.1900372559
C  C401  1  0.27204000  0.24969000  0.56557000  1.0 0.0799828808
C  C402  1  0.30150000  0.29882000  0.60988000  1.0 -0.2134027208
C  C403  1  0.46972000  0.68441000  0.90813000  1.0 0.5874047106
C  C404  1  0.45503000  0.72751000  0.94438000  1.0 -0.0304742709
C  C405  1  0.41074000  0.73902000  0.91384000  1.0 -0.0991630292
C  C406  1  0.39637000  0.77815000  0.94560000  1.0 -0.1506672962
C  C407  1  0.42653000  0.80831000  0.01046000  1.0 0.0799828808
C  C408  1  0.47152000  0.79660000  0.04106000  1.0 -0.1506672962
C  C409  1  0.48447000  0.75601000  0.00772000  1.0 -0.0837809431
C  C410  1  0.57879000  0.12889000  0.28490000  1.0 0.5718308737
C  C411  1  0.53950000  0.08095000  0.24125000  1.0 -0.0220449415
C  C412  1  0.55192000  0.04332000  0.24720000  1.0 -0.0991630292
C  C413  1  0.51641000  0.00099000  0.20678000  1.0 -0.1506672962
C  C414  1  0.46745000  0.99323000  0.15998000  1.0 0.0712298447
C  C415  1  0.45501000  0.03141000  0.15520000  1.0 -0.1556705252
C  C416  1  0.49036000  0.07586000  0.19570000  1.0 -0.0991630292
C  C417  1  0.13340000  0.87349000  0.92529000  1.0 0.5796875631
C  C418  1  0.18760000  0.88035000  0.95475000  1.0 -0.0378046596
C  C419  1  0.22290000  0.92089000  0.01607000  1.0 -0.0918871605
C  C420  1  0.27329000  0.92587000  0.04318000  1.0 -0.1506672962
C  C421  1  0.29044000  0.89070000  0.01038000  1.0 0.0799828808
C  C422  1  0.25415000  0.85136000  0.94819000  1.0 -0.1431297303
C  C423  1  0.20492000  0.84597000  0.92169000  1.0 -0.0991630292
C  C424  1  0.41156000  0.85394000  0.04204000  1.0 0.0799828808
C  C425  1  0.44614000  0.90018000  0.09114000  1.0 -0.1900372559
C  C426  1  0.42995000  0.94401000  0.11278000  1.0 0.0875343369
C  C427  1  0.37946000  0.94107000  0.08641000  1.0 -0.1991235533
C  C428  1  0.34439000  0.89501000  0.03874000  1.0 0.0799828808
C  C429  1  0.36151000  0.85155000  0.01712000  1.0 -0.1900372559
C  C430  1  0.59778000  0.60038000  0.86940000  1.0 0.5017768567
C  C431  1  0.60920000  0.81890000  0.96150000  1.0 -0.4043690251
C  C432  1  0.59530000  0.76430000  0.90180000  1.0 -0.0518909629
C  C433  1  0.53270000  0.71390000  0.75300000  1.0 -0.3904737706
C  C434  1  0.51360000  0.73730000  0.79250000  1.0 -0.0622738997
C  C435  1  0.51880000  0.70540000  0.84280000  1.0 0.2831287508
C  C436  1  0.80832000  0.88986000  0.24486000  1.0 0.5796875631
C  C437  1  0.86046000  0.92171000  0.29315000  1.0 -0.0304742709
C  C438  1  0.89924000  0.89874000  0.29130000  1.0 -0.0991630292
C  C439  1  0.94749000  0.92719000  0.33350000  1.0 -0.1506672962
C  C440  1  0.95898000  0.97888000  0.37966000  1.0 0.0799828808
C  C441  1  0.92146000  0.00094000  0.38268000  1.0 -0.1506672962
C  C442  1  0.87193000  0.97174000  0.33841000  1.0 -0.0918871605
C  C443  1  0.20967000  0.97265000  0.36638000  1.0 0.5982017493
C  C444  1  0.17960000  0.98639000  0.38899000  1.0 -0.0304742709
C  C445  1  0.20194000  0.00832000  0.45008000  1.0 -0.0991630292
C  C446  1  0.17347000  0.02208000  0.46937000  1.0 -0.1431297303
C  C447  1  0.12095000  0.01332000  0.42789000  1.0 0.0712298447
C  C448  1  0.09972000  0.99112000  0.36760000  1.0 -0.1431297303
C  C449  1  0.12842000  0.97742000  0.34820000  1.0 -0.0991630292
C  C450  1  0.14439000  0.25400000  0.76895000  1.0 0.5796875631
C  C451  1  0.12748000  0.21081000  0.70573000  1.0 -0.0378046596
C  C452  1  0.16102000  0.18280000  0.69782000  1.0 -0.0991630292
C  C453  1  0.14494000  0.14132000  0.63912000  1.0 -0.1506672962
C  C454  1  0.09518000  0.12732000  0.58808000  1.0 0.0799828808
C  C455  1  0.06195000  0.15628000  0.59645000  1.0 -0.1506672962
C  C456  1  0.07808000  0.19722000  0.65478000  1.0 -0.0991630292
C  C457  1  0.01049000  0.00917000  0.42376000  1.0 0.0799828808
C  C458  1  0.04126000  0.99674000  0.40688000  1.0 -0.1991235533
C  C459  1  0.08952000  0.02624000  0.44748000  1.0 0.0875343369
C  C460  1  0.10767000  0.06884000  0.50799000  1.0 -0.1900372559
C  C461  1  0.07712000  0.08231000  0.52541000  1.0 0.0799828808
C  C462  1  0.02831000  0.05283000  0.48234000  1.0 -0.1900372559
C  C463  1  0.77004000  0.65666000  0.24282000  1.0 0.5982017493
C  C464  1  0.75838000  0.66312000  0.28114000  1.0 -0.0378046596
C  C465  1  0.79066000  0.65126000  0.32240000  1.0 -0.1162034266
C  C466  1  0.78223000  0.65873000  0.35950000  1.0 -0.1506672962
C  C467  1  0.74294000  0.67903000  0.36031000  1.0 0.0799828808
C  C468  1  0.71132000  0.68982000  0.31910000  1.0 -0.1506672962
C  C469  1  0.71886000  0.68116000  0.27990000  1.0 -0.0991630292
C  C470  1  0.95430000  0.80045000  0.75245000  1.0 0.6072603067
C  C471  1  0.90675000  0.77685000  0.68730000  1.0 -0.0220449415
C  C472  1  0.86635000  0.80024000  0.67911000  1.0 -0.0918871605
C  C473  1  0.82295000  0.77981000  0.62034000  1.0 -0.1431297303
C  C474  1  0.81888000  0.73758000  0.56910000  1.0 0.0712298447
C  C475  1  0.85909000  0.71529000  0.57880000  1.0 -0.1506672962
C  C476  1  0.90256000  0.73551000  0.63805000  1.0 -0.0991630292
C  C477  1  0.48590000  0.71170000  0.36966000  1.0 0.5796875631
C  C478  1  0.53728000  0.71101000  0.38649000  1.0 -0.0378046596
C  C479  1  0.54342000  0.67554000  0.34216000  1.0 -0.0991630292
C  C480  1  0.59027000  0.67367000  0.35728000  1.0 -0.1556705252
C  C481  1  0.63340000  0.70794000  0.41842000  1.0 0.0799828808
C  C482  1  0.62674000  0.74343000  0.46231000  1.0 -0.1506672962
C  C483  1  0.57937000  0.74560000  0.44687000  1.0 -0.0991630292
C  C484  1  0.73678000  0.69048000  0.40450000  1.0 0.0799828808
C  C485  1  0.77770000  0.70311000  0.46159000  1.0 -0.1900372559
C  C486  1  0.77311000  0.71852000  0.50599000  1.0 0.0875343369
C  C487  1  0.72561000  0.71970000  0.49131000  1.0 -0.1991235533
C  C488  1  0.68412000  0.70647000  0.43443000  1.0 0.0799828808
C  C489  1  0.68894000  0.69162000  0.39012000  1.0 -0.2134027208
C  C490  1  0.77628000  0.56159000  0.09187000  1.0 0.5874047106
C  C491  1  0.78313000  0.51065000  0.05562000  1.0 -0.0304742709
C  C492  1  0.82518000  0.49690000  0.08616000  1.0 -0.0991630292
C  C493  1  0.83255000  0.45077000  0.05440000  1.0 -0.1506672962
C  C494  1  0.79785000  0.41607000  0.98954000  1.0 0.0799828808
C  C495  1  0.75554000  0.43046000  0.95894000  1.0 -0.1506672962
C  C496  1  0.74829000  0.47675000  0.99228000  1.0 -0.0837809431
C  C497  1  0.84399000  0.29389000  0.71510000  1.0 0.5718308737
C  C498  1  0.83970000  0.29825000  0.75875000  1.0 -0.0220449415
C  C499  1  0.79612000  0.30472000  0.75280000  1.0 -0.0991630292
C  C500  1  0.79421000  0.30963000  0.79322000  1.0 -0.1506672962
C  C501  1  0.83325000  0.30747000  0.84002000  1.0 0.0712298447
C  C502  1  0.87621000  0.29981000  0.84480000  1.0 -0.1506672962
C  C503  1  0.88016000  0.29466000  0.80430000  1.0 -0.0991630292
C  C504  1  0.94820000  0.20811000  0.07471000  1.0 0.5796875631
C  C505  1  0.92560000  0.23285000  0.04525000  1.0 -0.0378046596
C  C506  1  0.90482000  0.20683000  0.98393000  1.0 -0.0918871605
C  C507  1  0.88269000  0.23011000  0.95682000  1.0 -0.1506672962
C  C508  1  0.88032000  0.28006000  0.98962000  1.0 0.0799828808
C  C509  1  0.90317000  0.30596000  0.05181000  1.0 -0.1431297303
C  C510  1  0.92428000  0.28323000  0.07831000  1.0 -0.0991630292
C  C511  1  0.81190000  0.36952000  0.95796000  1.0 0.0799828808
C  C512  1  0.80904000  0.35500000  0.90886000  1.0 -0.1900372559
C  C513  1  0.83123000  0.31717000  0.88722000  1.0 0.0875343369
C  C514  1  0.85466000  0.29305000  0.91359000  1.0 -0.1991235533
C  C515  1  0.85627000  0.30565000  0.96126000  1.0 0.0799828808
C  C516  1  0.83443000  0.34439000  0.98288000  1.0 -0.1900372559
C  C517  1  0.73098000  0.72838000  0.13060000  1.0 0.5017768567
C  C518  1  0.85740000  0.64770000  0.03850000  1.0 -0.4043690251
C  C519  1  0.86250000  0.69350000  0.09820000  1.0 -0.0518909629
C  C520  1  0.96090000  0.77970000  0.24700000  1.0 -0.3904737706
C  C521  1  0.94480000  0.72110000  0.20750000  1.0 -0.0622738997
C  C522  1  0.86260000  0.67600000  0.15720000  1.0 0.2831287508
C  C523  1  0.31346000  0.05832000  0.41846000  1.0 0.5796875631
C  C524  1  0.31731000  0.11046000  0.43875000  1.0 -0.0304742709
C  C525  1  0.35794000  0.14924000  0.50050000  1.0 -0.0991630292
C  C526  1  0.36399000  0.19749000  0.52030000  1.0 -0.1506672962
C  C527  1  0.32932000  0.20898000  0.48010000  1.0 0.0799828808
C  C528  1  0.28878000  0.17146000  0.42052000  1.0 -0.1506672962
C  C529  1  0.28352000  0.12193000  0.40019000  1.0 -0.0918871605
C  C530  1  0.59329000  0.45967000  0.73702000  1.0 0.5982017493
C  C531  1  0.54061000  0.42960000  0.69321000  1.0 -0.0304742709
C  C532  1  0.50186000  0.45194000  0.69362000  1.0 -0.0991630292
C  C533  1  0.45410000  0.42347000  0.65139000  1.0 -0.1431297303
C  C534  1  0.44306000  0.37095000  0.60763000  1.0 0.0712298447
C  C535  1  0.48212000  0.34972000  0.60860000  1.0 -0.1431297303
C  C536  1  0.53022000  0.37842000  0.65100000  1.0 -0.0991630292
C  C537  1  0.12544000  0.39439000  0.39039000  1.0 0.5796875631
C  C538  1  0.17175000  0.37748000  0.41667000  1.0 -0.0378046596
C  C539  1  0.21320000  0.41102000  0.47822000  1.0 -0.0991630292
C  C540  1  0.25582000  0.39494000  0.50362000  1.0 -0.1506672962
C  C541  1  0.25710000  0.34518000  0.46786000  1.0 0.0799828808
C  C542  1  0.21550000  0.31195000  0.40567000  1.0 -0.1506672962
C  C543  1  0.17330000  0.32808000  0.38086000  1.0 -0.0991630292
C  C544  1  0.33673000  0.26049000  0.50132000  1.0 0.0799828808
C  C545  1  0.38438000  0.29126000  0.54452000  1.0 -0.1991235533
C  C546  1  0.39204000  0.33952000  0.56328000  1.0 0.0875343369
C  C547  1  0.34968000  0.35767000  0.53883000  1.0 -0.1900372559
C  C548  1  0.30171000  0.32712000  0.49481000  1.0 0.0799828808
C  C549  1  0.29597000  0.27831000  0.47548000  1.0 -0.1900372559
C  C550  1  0.27722000  0.02004000  0.61338000  1.0 0.5982017493
C  C551  1  0.22724000  0.00838000  0.59526000  1.0 -0.0378046596
C  C552  1  0.21826000  0.04066000  0.63940000  1.0 -0.1148758332
C  C553  1  0.17273000  0.03223000  0.62350000  1.0 -0.1506672962
C  C554  1  0.13263000  0.99294000  0.56391000  1.0 0.0799828808
C  C555  1  0.14222000  0.96132000  0.52150000  1.0 -0.1506672962
C  C556  1  0.18896000  0.96886000  0.53770000  1.0 -0.0991630292
C  C557  1  0.95185000  0.20430000  0.65385000  1.0 0.6072603067
C  C558  1  0.96945000  0.15675000  0.62990000  1.0 -0.0220449415
C  C559  1  0.93724000  0.11635000  0.56611000  1.0 -0.0918871605
C  C560  1  0.95261000  0.07295000  0.54314000  1.0 -0.1431297303
C  C561  1  0.99978000  0.06888000  0.58130000  1.0 0.0712298447
C  C562  1  0.03029000  0.10909000  0.64380000  1.0 -0.1506672962
C  C563  1  0.01451000  0.15256000  0.66705000  1.0 -0.0991630292
C  C564  1  0.86624000  0.73590000  0.27420000  1.0 0.5796875631
C  C565  1  0.90079000  0.78728000  0.32627000  1.0 -0.0378046596
C  C566  1  0.95126000  0.79342000  0.36788000  1.0 -0.0991630292
C  C567  1  0.98299000  0.84027000  0.41660000  1.0 -0.1556705252
C  C568  1  0.96498000  0.88340000  0.42546000  1.0 0.0799828808
C  C569  1  0.91443000  0.87674000  0.38331000  1.0 -0.1556705252
C  C570  1  0.88250000  0.82937000  0.33377000  1.0 -0.0991630292
C  C571  1  0.08228000  0.98678000  0.54630000  1.0 0.0799828808
C  C572  1  0.06611000  0.02770000  0.57459000  1.0 -0.1900372559
C  C573  1  0.01712000  0.02311000  0.55459000  1.0 0.0875343369
C  C574  1  0.98430000  0.97561000  0.50591000  1.0 -0.1900372559
C  C575  1  0.99969000  0.93412000  0.47765000  1.0 0.0799828808
C  C576  1  0.04882000  0.93894000  0.49732000  1.0 -0.2134027208
C  C577  1  0.43441000  0.02628000  0.71469000  1.0 0.5874047106
C  C578  1  0.47751000  0.03313000  0.77248000  1.0 -0.0304742709
C  C579  1  0.48902000  0.07518000  0.82828000  1.0 -0.0991630292
C  C580  1  0.52815000  0.08255000  0.88178000  1.0 -0.1506672962
C  C581  1  0.55831000  0.04785000  0.88178000  1.0 0.0799828808
C  C582  1  0.54660000  0.00554000  0.82508000  1.0 -0.1506672962
C  C583  1  0.50601000  0.99829000  0.77154000  1.0 -0.0837809431
C  C584  1  0.87889000  0.09399000  0.05010000  1.0 0.5718308737
C  C585  1  0.83095000  0.08970000  0.04145000  1.0 -0.0220449415
C  C586  1  0.79332000  0.04612000  0.99140000  1.0 -0.0991630292
C  C587  1  0.75099000  0.04421000  0.98458000  1.0 -0.1506672962
C  C588  1  0.74323000  0.08325000  0.02578000  1.0 0.0712298447
C  C589  1  0.78141000  0.12621000  0.07640000  1.0 -0.1556705252
C  C590  1  0.82586000  0.13016000  0.08550000  1.0 -0.0991630292
C  C591  1  0.62349000  0.19820000  0.24009000  1.0 0.5796875631
C  C592  1  0.63035000  0.17560000  0.19275000  1.0 -0.0378046596
C  C593  1  0.67089000  0.15482000  0.19799000  1.0 -0.0918871605
C  C594  1  0.67587000  0.13269000  0.15258000  1.0 -0.1506672962
C  C595  1  0.64070000  0.13032000  0.10026000  1.0 0.0799828808
C  C596  1  0.60136000  0.15317000  0.09721000  1.0 -0.1431297303
C  C597  1  0.59597000  0.17428000  0.14105000  1.0 -0.0991630292
C  C598  1  0.60394000  0.06190000  0.94238000  1.0 0.0799828808
C  C599  1  0.65018000  0.05904000  0.95404000  1.0 -0.1900372559
C  C600  1  0.69401000  0.08123000  0.01406000  1.0 0.0875343369
C  C601  1  0.69107000  0.10466000  0.06161000  1.0 -0.1991235533
C  C602  1  0.64501000  0.10627000  0.05062000  1.0 0.0799828808
C  C603  1  0.60155000  0.08443000  0.99004000  1.0 -0.1900372559
C  C604  1  0.35038000  0.98098000  0.50260000  1.0 0.5017768567
C  C605  1  0.56890000  0.10740000  0.70970000  1.0 -0.4043690251
C  C606  1  0.51430000  0.11250000  0.66900000  1.0 -0.0518909629
C  C607  1  0.46390000  0.21090000  0.68120000  1.0 -0.3904737706
C  C608  1  0.48730000  0.19480000  0.72370000  1.0 -0.0622738997
C  C609  1  0.45540000  0.11260000  0.68660000  1.0 0.2831287508
C  C610  1  0.63986000  0.89500000  0.58154000  1.0 0.5796875631
C  C611  1  0.67171000  0.87856000  0.56125000  1.0 -0.0304742709
C  C612  1  0.64874000  0.85744000  0.49950000  1.0 -0.0991630292
C  C613  1  0.67719000  0.84369000  0.47970000  1.0 -0.1506672962
C  C614  1  0.72888000  0.84922000  0.51990000  1.0 0.0799828808
C  C615  1  0.75094000  0.86826000  0.57948000  1.0 -0.1506672962
C  C616  1  0.72174000  0.88333000  0.59981000  1.0 -0.0918871605
C  C617  1  0.72265000  0.85627000  0.26298000  1.0 0.5982017493
C  C618  1  0.73639000  0.84740000  0.30679000  1.0 -0.0304742709
C  C619  1  0.75832000  0.80824000  0.30638000  1.0 -0.0991630292
C  C620  1  0.77208000  0.80271000  0.34861000  1.0 -0.1431297303
C  C621  1  0.76332000  0.83543000  0.39237000  1.0 0.0712298447
C  C622  1  0.74112000  0.87352000  0.39140000  1.0 -0.1431297303
C  C623  1  0.72742000  0.87922000  0.34900000  1.0 -0.0991630292
C  C624  1  0.00400000  0.73505000  0.60961000  1.0 0.5796875631
C  C625  1  0.96081000  0.75508000  0.58333000  1.0 -0.0378046596
C  C626  1  0.93280000  0.73498000  0.52178000  1.0 -0.0991630292
C  C627  1  0.89132000  0.75220000  0.49638000  1.0 -0.1506672962
C  C628  1  0.87732000  0.78924000  0.53214000  1.0 0.0799828808
C  C629  1  0.90628000  0.80983000  0.59433000  1.0 -0.1506672962
C  C630  1  0.94722000  0.79244000  0.61914000  1.0 -0.0991630292
C  C631  1  0.75917000  0.83541000  0.49868000  1.0 0.0799828808
C  C632  1  0.74674000  0.83986000  0.45548000  1.0 -0.1991235533
C  C633  1  0.77624000  0.82876000  0.43672000  1.0 0.0875343369
C  C634  1  0.81884000  0.81085000  0.46117000  1.0 -0.1900372559
C  C635  1  0.83231000  0.80690000  0.50519000  1.0 0.0799828808
C  C636  1  0.80283000  0.82049000  0.52452000  1.0 -0.1900372559
C  C637  1  0.40666000  0.66384000  0.38662000  1.0 0.5982017493
C  C638  1  0.41312000  0.63198000  0.40474000  1.0 -0.0378046596
C  C639  1  0.40126000  0.57886000  0.36060000  1.0 -0.1162034266
C  C640  1  0.40873000  0.54923000  0.37650000  1.0 -0.1506672962
C  C641  1  0.42903000  0.56872000  0.43609000  1.0 0.0799828808
C  C642  1  0.43982000  0.62072000  0.47850000  1.0 -0.1506672962
C  C643  1  0.43116000  0.65126000  0.46230000  1.0 -0.0991630292
C  C644  1  0.55045000  0.29800000  0.34615000  1.0 0.6072603067
C  C645  1  0.52685000  0.33955000  0.37010000  1.0 -0.0220449415
C  C646  1  0.55024000  0.37113000  0.43389000  1.0 -0.0918871605
C  C647  1  0.52981000  0.40947000  0.45686000  1.0 -0.1431297303
C  C648  1  0.48758000  0.41848000  0.41870000  1.0 0.0712298447
C  C649  1  0.46529000  0.38649000  0.35620000  1.0 -0.1506672962
C  C650  1  0.48551000  0.34746000  0.33295000  1.0 -0.0991630292
C  C651  1  0.46170000  0.59204000  0.72580000  1.0 0.5796875631
C  C652  1  0.46101000  0.57452000  0.67373000  1.0 -0.0378046596
C  C653  1  0.42554000  0.58338000  0.63212000  1.0 -0.0991630292
C  C654  1  0.42367000  0.56639000  0.58340000  1.0 -0.1556705252
C  C655  1  0.45794000  0.53952000  0.57454000  1.0 0.0799828808
C  C656  1  0.49343000  0.53112000  0.61669000  1.0 -0.1506672962
C  C657  1  0.49560000  0.54873000  0.66623000  1.0 -0.0991630292
C  C658  1  0.44048000  0.53598000  0.45370000  1.0 0.0799828808
C  C659  1  0.45311000  0.49152000  0.42541000  1.0 -0.1900372559
C  C660  1  0.46852000  0.46253000  0.44541000  1.0 0.0875343369
C  C661  1  0.46970000  0.47839000  0.49409000  1.0 -0.1991235533
C  C662  1  0.45647000  0.52204000  0.52235000  1.0 0.0799828808
C  C663  1  0.44162000  0.55150000  0.50268000  1.0 -0.2134027208
C  C664  1  0.31159000  0.71972000  0.28531000  1.0 0.5874047106
C  C665  1  0.26065000  0.70503000  0.22752000  1.0 -0.0304742709
C  C666  1  0.24690000  0.66074000  0.17172000  1.0 -0.0991630292
C  C667  1  0.20077000  0.64637000  0.11822000  1.0 -0.1506672962
C  C668  1  0.16607000  0.67653000  0.11822000  1.0 0.0799828808
C  C669  1  0.18046000  0.72152000  0.17492000  1.0 -0.1506672962
C  C670  1  0.22675000  0.73447000  0.22846000  1.0 -0.0837809431
C  C671  1  0.04389000  0.82879000  0.94990000  1.0 0.5718308737
C  C672  1  0.04825000  0.78950000  0.95855000  1.0 -0.0220449415
C  C673  1  0.05472000  0.80192000  0.00860000  1.0 -0.0991630292
C  C674  1  0.05963000  0.76641000  0.01542000  1.0 -0.1506672962
C  C675  1  0.05747000  0.71745000  0.97422000  1.0 0.0712298447
C  C676  1  0.04981000  0.70501000  0.92360000  1.0 -0.1556705252
C  C677  1  0.04466000  0.74036000  0.91450000  1.0 -0.0991630292
C  C678  1  0.95811000  0.38340000  0.75991000  1.0 0.5796875631
C  C679  1  0.98285000  0.43760000  0.80725000  1.0 -0.0378046596
C  C680  1  0.95683000  0.47290000  0.80201000  1.0 -0.0918871605
C  C681  1  0.98011000  0.52329000  0.84742000  1.0 -0.1506672962
C  C682  1  0.03006000  0.54044000  0.89974000  1.0 0.0799828808
C  C683  1  0.05596000  0.50415000  0.90279000  1.0 -0.1431297303
C  C684  1  0.03323000  0.45492000  0.85895000  1.0 -0.0991630292
C  C685  1  0.11952000  0.66156000  0.05762000  1.0 0.0799828808
C  C686  1  0.10500000  0.69614000  0.04596000  1.0 -0.1900372559
C  C687  1  0.06717000  0.67995000  0.98594000  1.0 0.0875343369
C  C688  1  0.04305000  0.62946000  0.93839000  1.0 -0.1991235533
C  C689  1  0.05565000  0.59439000  0.94938000  1.0 0.0799828808
C  C690  1  0.09439000  0.61151000  0.00996000  1.0 -0.1900372559
C  C691  1  0.47838000  0.84778000  0.49740000  1.0 0.5017768567
C  C692  1  0.39770000  0.85920000  0.29030000  1.0 -0.4043690251
C  C693  1  0.44350000  0.84530000  0.33100000  1.0 -0.0518909629
C  C694  1  0.52970000  0.78270000  0.31880000  1.0 -0.3904737706
C  C695  1  0.47110000  0.76360000  0.27630000  1.0 -0.0622738997
C  C696  1  0.42600000  0.76880000  0.31340000  1.0 0.2831287508
N  N1  1  0.20850000  0.52020000  0.65990000  1.0 -0.0067114055
N  N2  1  0.86030000  0.54860000  0.34010000  1.0 -0.0033445399
N  N3  1  0.27020000  0.11030000  0.81170000  1.0 -0.0067114055
N  N4  1  0.29860000  0.45850000  0.18830000  1.0 -0.0067114055
N  N5  1  0.54150000  0.72980000  0.84010000  1.0 -0.0067114055
N  N6  1  0.88970000  0.70140000  0.15990000  1.0 -0.0033445399
N  N7  1  0.47980000  0.13970000  0.68830000  1.0 -0.0067114055
N  N8  1  0.45140000  0.79150000  0.31170000  1.0 -0.0067114055
O  O1  1  0.11203000  0.65761000  0.70730000  1.0 -0.5066365885
O  O2  1  0.08291000  0.72170000  0.74625000  1.0 -0.6599888304
O  O3  1  0.17931000  0.39654000  0.90087000  1.0 -0.5606795499
O  O4  1  0.10385000  0.37736000  0.81689000  1.0 -0.6037642236
O  O5  1  0.29297000  0.87436000  0.31399000  1.0 -0.5066365885
O  O6  1  0.25583000  0.91508000  0.27613000  1.0 -0.6406657571
O  O7  1  0.28973000  0.71289000  0.70014000  1.0 -0.5291145319
O  O8  1  0.35643000  0.69351000  0.75496000  1.0 -0.6506848993
O  O9  1  0.71541000  0.09355000  0.29748000  1.0 -0.5210525082
O  O10  1  0.72104000  0.01500000  0.25908000  1.0 -0.6706945772
O  O11  1  0.42014000  0.17990000  0.91306000  1.0 -0.5606795499
O  O12  1  0.38297000  0.11493000  0.81428000  1.0 -0.6406657571
O  O13  1  0.30638000  0.58639000  0.64819000  1.0 -0.6233000333
O  O14  1  0.24426000  0.58091000  0.56719000  1.0 -0.480189676
O  O15  1  0.18543000  0.08886000  0.22345000  1.0 -0.5547070081
O  O16  1  0.12685000  0.11748000  0.17417000  1.0 -0.5719558249
O  O17  1  0.64821000  0.41117000  0.63056000  1.0 -0.6329697097
O  O18  1  0.63046000  0.34637000  0.54189000  1.0 -0.5210525082
O  O19  1  0.10579000  0.64077000  0.60014000  1.0 -0.4874006963
O  O20  1  0.17251000  0.63840000  0.60617000  1.0 -0.480189676
O  O21  1  0.04861000  0.87101000  0.78084000  1.0 -0.7505410785
O  O22  1  0.00767000  0.62187000  0.57960000  1.0 -0.6329697097
O  O23  1  0.01310000  0.61280000  0.48550000  1.0 0.0018852868
O  O24  1  0.06700000  0.66700000  0.52280000  1.0 -0.1308288664
O  O25  1  0.21040000  0.55820000  0.62120000  1.0 -0.4874006963
O  O26  1  0.77384000  0.18142000  0.44998000  1.0 -0.6706945772
O  O27  1  0.69262000  0.08547000  0.36533000  1.0 -0.6506848993
O  O28  1  0.00970000  0.56850000  0.47160000  1.0 -0.1308288664
O  O29  1  0.10260000  0.66380000  0.51340000  1.0 -0.0715146145
O  O30  1  0.95031000  0.40473000  0.29270000  1.0 -0.5066365885
O  O31  1  0.97545000  0.33666000  0.25375000  1.0 -0.6599888304
O  O32  1  0.49567000  0.27844000  0.09913000  1.0 -0.5606795499
O  O33  1  0.56047000  0.28696000  0.18311000  1.0 -0.6037642236
O  O34  1  0.56037000  0.97898000  0.68601000  1.0 -0.5066365885
O  O35  1  0.63895000  0.97970000  0.72387000  1.0 -0.6406657571
O  O36  1  0.01275000  0.58959000  0.29986000  1.0 -0.5291145319
O  O37  1  0.93855000  0.60147000  0.24504000  1.0 -0.6506848993
O  O38  1  0.79607000  0.41793000  0.70252000  1.0 -0.5210525082
O  O39  1  0.75592000  0.46196000  0.74092000  1.0 -0.6706945772
O  O40  1  0.26684000  0.50708000  0.08694000  1.0 -0.5606795499
O  O41  1  0.30065000  0.56869000  0.18572000  1.0 -0.6406657571
O  O42  1  0.93820000  0.65819000  0.35181000  1.0 -0.6233000333
O  O43  1  0.01372000  0.67707000  0.43281000  1.0 -0.480189676
O  O44  1  0.86541000  0.96198000  0.77655000  1.0 -0.5547070081
O  O45  1  0.94331000  0.95268000  0.82583000  1.0 -0.5719558249
O  O46  1  0.78061000  0.01765000  0.36944000  1.0 -0.6329697097
O  O47  1  0.80448000  0.08857000  0.45811000  1.0 -0.5210525082
O  O48  1  0.04063000  0.50565000  0.39986000  1.0 -0.4874006963
O  O49  1  0.03223000  0.56634000  0.39383000  1.0 -0.480189676
O  O50  1  0.09017000  0.26777000  0.21916000  1.0 -0.7505410785
O  O51  1  0.04227000  0.42807000  0.42040000  1.0 -0.6329697097
O  O52  1  0.12730000  0.52760000  0.51450000  1.0 0.0018852868
O  O53  1  0.14420000  0.54420000  0.47720000  1.0 -0.1308288664
O  O54  1  0.93700000  0.58920000  0.37880000  1.0 -0.4874006963
O  O55  1  0.73144000  0.32386000  0.55002000  1.0 -0.6706945772
O  O56  1  0.72014000  0.32729000  0.63467000  1.0 -0.6506848993
O  O57  1  0.09690000  0.53810000  0.52840000  1.0 -0.1308288664
O  O58  1  0.15040000  0.58920000  0.48660000  1.0 -0.0715146145
O  O59  1  0.40761000  0.20031000  0.04558000  1.0 -0.5066365885
O  O60  1  0.47170000  0.22545000  0.13879000  1.0 -0.6599888304
O  O61  1  0.14654000  0.74567000  0.71723000  1.0 -0.5606795499
O  O62  1  0.12736000  0.81047000  0.77351000  1.0 -0.6037642236
O  O63  1  0.62436000  0.81037000  0.08139000  1.0 -0.5066365885
O  O64  1  0.66508000  0.88895000  0.15925000  1.0 -0.6406657571
O  O65  1  0.46289000  0.26275000  0.92316000  1.0 -0.5291145319
O  O66  1  0.44351000  0.18855000  0.83708000  1.0 -0.6506848993
O  O67  1  0.84355000  0.04607000  0.87814000  1.0 -0.5210525082
O  O68  1  0.76500000  0.00592000  0.79396000  1.0 -0.6706945772
O  O69  1  0.92990000  0.51684000  0.25976000  1.0 -0.5606795499
O  O70  1  0.86493000  0.55065000  0.23196000  1.0 -0.6406657571
O  O71  1  0.33639000  0.18820000  0.78001000  1.0 -0.6233000333
O  O72  1  0.33091000  0.26372000  0.83665000  1.0 -0.480189676
O  O73  1  0.83886000  0.11541000  0.40343000  1.0 -0.5547070081
O  O74  1  0.86748000  0.19331000  0.49063000  1.0 -0.5719558249
O  O75  1  0.16117000  0.03061000  0.26296000  1.0 -0.6329697097
O  O76  1  0.09637000  0.05448000  0.21591000  1.0 -0.5210525082
O  O77  1  0.39077000  0.29063000  0.03498000  1.0 -0.4874006963
O  O78  1  0.38840000  0.28223000  0.96589000  1.0 -0.480189676
O  O79  1  0.62101000  0.34017000  0.32240000  1.0 -0.7505410785
O  O80  1  0.37187000  0.29227000  0.11420000  1.0 -0.6329697097
O  O81  1  0.36280000  0.37730000  0.09970000  1.0 0.0018852868
O  O82  1  0.41700000  0.39420000  0.10000000  1.0 -0.1308288664
O  O83  1  0.30820000  0.18700000  0.84780000  1.0 -0.4874006963
O  O84  1  0.93142000  0.98144000  0.90758000  1.0 -0.6706945772
O  O85  1  0.83547000  0.97014000  0.89285000  1.0 -0.6506848993
O  O86  1  0.31850000  0.34690000  0.05880000  1.0 -0.1308288664
O  O87  1  0.41380000  0.40040000  0.06120000  1.0 -0.0715146145
O  O88  1  0.15473000  0.36203000  0.95442000  1.0 -0.5066365885
O  O89  1  0.08666000  0.33291000  0.86121000  1.0 -0.6599888304
O  O90  1  0.02844000  0.42931000  0.28277000  1.0 -0.5606795499
O  O91  1  0.03696000  0.35385000  0.22649000  1.0 -0.6037642236
O  O92  1  0.72898000  0.54297000  0.91861000  1.0 -0.5066365885
O  O93  1  0.72970000  0.50583000  0.84075000  1.0 -0.6406657571
O  O94  1  0.33959000  0.53973000  0.07684000  1.0 -0.5291145319
O  O95  1  0.35147000  0.60643000  0.16292000  1.0 -0.6506848993
O  O96  1  0.16793000  0.96541000  0.12186000  1.0 -0.5210525082
O  O97  1  0.21196000  0.97104000  0.20604000  1.0 -0.6706945772
O  O98  1  0.25708000  0.67014000  0.74024000  1.0 -0.5606795499
O  O99  1  0.31869000  0.63297000  0.76804000  1.0 -0.6406657571
O  O100  1  0.40819000  0.55638000  0.21999000  1.0 -0.6233000333
O  O101  1  0.42707000  0.49426000  0.16335000  1.0 -0.480189676
O  O102  1  0.71198000  0.43543000  0.59657000  1.0 -0.5547070081
O  O103  1  0.70268000  0.37685000  0.50937000  1.0 -0.5719558249
O  O104  1  0.76765000  0.89821000  0.73704000  1.0 -0.6329697097
O  O105  1  0.83857000  0.88046000  0.78409000  1.0 -0.5210525082
O  O106  1  0.25565000  0.35579000  0.96502000  1.0 -0.4874006963
O  O107  1  0.31634000  0.42251000  0.03411000  1.0 -0.480189676
O  O108  1  0.01777000  0.29861000  0.67760000  1.0 -0.7505410785
O  O109  1  0.17807000  0.25767000  0.88580000  1.0 -0.6329697097
O  O110  1  0.27760000  0.26310000  0.90030000  1.0 0.0018852868
O  O111  1  0.29420000  0.31700000  0.90000000  1.0 -0.1308288664
O  O112  1  0.33920000  0.46040000  0.15220000  1.0 -0.4874006963
O  O113  1  0.07386000  0.02384000  0.09242000  1.0 -0.6706945772
O  O114  1  0.07729000  0.94262000  0.10715000  1.0 -0.6506848993
O  O115  1  0.28810000  0.25970000  0.94120000  1.0 -0.1308288664
O  O116  1  0.33920000  0.35260000  0.93880000  1.0 -0.0715146145
O  O117  1  0.63797000  0.59239000  0.79270000  1.0 -0.5066365885
O  O118  1  0.66709000  0.52830000  0.75375000  1.0 -0.6599888304
O  O119  1  0.57069000  0.85346000  0.59913000  1.0 -0.5606795499
O  O120  1  0.64615000  0.87264000  0.68311000  1.0 -0.6037642236
O  O121  1  0.45703000  0.37564000  0.18601000  1.0 -0.5066365885
O  O122  1  0.49417000  0.33492000  0.22387000  1.0 -0.6406657571
O  O123  1  0.46027000  0.53711000  0.79986000  1.0 -0.5291145319
O  O124  1  0.39357000  0.55649000  0.74504000  1.0 -0.6506848993
O  O125  1  0.03459000  0.15645000  0.20252000  1.0 -0.5210525082
O  O126  1  0.02896000  0.23500000  0.24092000  1.0 -0.6706945772
O  O127  1  0.32986000  0.07010000  0.58694000  1.0 -0.5606795499
O  O128  1  0.36703000  0.13507000  0.68572000  1.0 -0.6406657571
O  O129  1  0.44362000  0.66361000  0.85181000  1.0 -0.6233000333
O  O130  1  0.50574000  0.66909000  0.93281000  1.0 -0.480189676
O  O131  1  0.56457000  0.16114000  0.27655000  1.0 -0.5547070081
O  O132  1  0.62315000  0.13252000  0.32583000  1.0 -0.5719558249
O  O133  1  0.10179000  0.83883000  0.86944000  1.0 -0.6329697097
O  O134  1  0.11954000  0.90363000  0.95811000  1.0 -0.5210525082
O  O135  1  0.64421000  0.60923000  0.89986000  1.0 -0.4874006963
O  O136  1  0.57749000  0.61160000  0.89383000  1.0 -0.480189676
O  O137  1  0.70139000  0.37899000  0.71916000  1.0 -0.7505410785
O  O138  1  0.74233000  0.62813000  0.92040000  1.0 -0.6329697097
O  O139  1  0.73690000  0.63720000  0.01450000  1.0 0.0018852868
O  O140  1  0.68300000  0.58300000  0.97720000  1.0 -0.1308288664
O  O141  1  0.53960000  0.69180000  0.87880000  1.0 -0.4874006963
O  O142  1  0.97616000  0.06858000  0.05002000  1.0 -0.6706945772
O  O143  1  0.05738000  0.16453000  0.13467000  1.0 -0.6506848993
O  O144  1  0.74030000  0.68150000  0.02840000  1.0 -0.1308288664
O  O145  1  0.64740000  0.58620000  0.98660000  1.0 -0.0715146145
O  O146  1  0.79969000  0.84527000  0.20730000  1.0 -0.5066365885
O  O147  1  0.77455000  0.91334000  0.24625000  1.0 -0.6599888304
O  O148  1  0.25433000  0.97156000  0.40087000  1.0 -0.5606795499
O  O149  1  0.18953000  0.96304000  0.31689000  1.0 -0.6037642236
O  O150  1  0.18963000  0.27102000  0.81399000  1.0 -0.5066365885
O  O151  1  0.11105000  0.27030000  0.77613000  1.0 -0.6406657571
O  O152  1  0.73725000  0.66041000  0.20014000  1.0 -0.5291145319
O  O153  1  0.81145000  0.64853000  0.25496000  1.0 -0.6506848993
O  O154  1  0.95393000  0.83207000  0.79748000  1.0 -0.5210525082
O  O155  1  0.99408000  0.78804000  0.75908000  1.0 -0.6706945772
O  O156  1  0.48316000  0.74292000  0.41306000  1.0 -0.5606795499
O  O157  1  0.44935000  0.68131000  0.31428000  1.0 -0.6406657571
O  O158  1  0.81180000  0.59181000  0.14819000  1.0 -0.6233000333
O  O159  1  0.73628000  0.57293000  0.06719000  1.0 -0.480189676
O  O160  1  0.88459000  0.28802000  0.72345000  1.0 -0.5547070081
O  O161  1  0.80669000  0.29732000  0.67417000  1.0 -0.5719558249
O  O162  1  0.96939000  0.23235000  0.13056000  1.0 -0.6329697097
O  O163  1  0.94552000  0.16143000  0.04189000  1.0 -0.5210525082
O  O164  1  0.70937000  0.74435000  0.10014000  1.0 -0.4874006963
O  O165  1  0.71777000  0.68366000  0.10617000  1.0 -0.480189676
O  O166  1  0.65983000  0.98223000  0.28084000  1.0 -0.7505410785
O  O167  1  0.70773000  0.82193000  0.07960000  1.0 -0.6329697097
O  O168  1  0.62270000  0.72240000  0.98550000  1.0 0.0061059383
O  O169  1  0.60580000  0.70580000  0.02280000  1.0 -0.1308288664
O  O170  1  0.81300000  0.66080000  0.12120000  1.0 -0.4874006963
O  O171  1  0.01856000  0.92614000  0.94998000  1.0 -0.6706945772
O  O172  1  0.02986000  0.92271000  0.86533000  1.0 -0.6506848993
O  O173  1  0.65310000  0.71190000  0.97160000  1.0 -0.1308288664
O  O174  1  0.59960000  0.66080000  0.01340000  1.0 -0.0715146145
O  O175  1  0.34239000  0.04969000  0.45442000  1.0 -0.5066365885
O  O176  1  0.27830000  0.02455000  0.36121000  1.0 -0.6599888304
O  O177  1  0.60346000  0.50433000  0.78277000  1.0 -0.5606795499
O  O178  1  0.62264000  0.43953000  0.72649000  1.0 -0.6037642236
O  O179  1  0.12564000  0.43963000  0.41861000  1.0 -0.5066365885
O  O180  1  0.08492000  0.36105000  0.34075000  1.0 -0.6406657571
O  O181  1  0.28711000  0.98725000  0.57684000  1.0 -0.5291145319
O  O182  1  0.30649000  0.06145000  0.66292000  1.0 -0.6506848993
O  O183  1  0.90645000  0.20393000  0.62186000  1.0 -0.5210525082
O  O184  1  0.98500000  0.24408000  0.70604000  1.0 -0.6706945772
O  O185  1  0.82010000  0.73316000  0.24024000  1.0 -0.5606795499
O  O186  1  0.88507000  0.69935000  0.26804000  1.0 -0.6406657571
O  O187  1  0.41361000  0.06180000  0.71999000  1.0 -0.6233000333
O  O188  1  0.41909000  0.98628000  0.66335000  1.0 -0.480189676
O  O189  1  0.91114000  0.13459000  0.09657000  1.0 -0.5547070081
O  O190  1  0.88252000  0.05669000  0.00937000  1.0 -0.5719558249
O  O191  1  0.58883000  0.21939000  0.23704000  1.0 -0.6329697097
O  O192  1  0.65363000  0.19552000  0.28409000  1.0 -0.5210525082
O  O193  1  0.35923000  0.95937000  0.46502000  1.0 -0.4874006963
O  O194  1  0.36160000  0.96777000  0.53411000  1.0 -0.480189676
O  O195  1  0.12899000  0.90983000  0.17760000  1.0 -0.7505410785
O  O196  1  0.37813000  0.95773000  0.38580000  1.0 -0.6329697097
O  O197  1  0.38720000  0.87270000  0.40030000  1.0 -0.0033445399
O  O198  1  0.33300000  0.85580000  0.40000000  1.0 -0.1308288664
O  O199  1  0.44180000  0.06300000  0.65220000  1.0 -0.4874006963
O  O200  1  0.81858000  0.26856000  0.59242000  1.0 -0.6706945772
O  O201  1  0.91453000  0.27986000  0.60715000  1.0 -0.6506848993
O  O202  1  0.43150000  0.90310000  0.44120000  1.0 -0.1162034266
O  O203  1  0.33620000  0.84960000  0.43880000  1.0 -0.0715146145
O  O204  1  0.59527000  0.88797000  0.54558000  1.0 -0.5066365885
O  O205  1  0.66334000  0.91709000  0.63879000  1.0 -0.6599888304
O  O206  1  0.72156000  0.82069000  0.21723000  1.0 -0.5606795499
O  O207  1  0.71304000  0.89615000  0.27351000  1.0 -0.6037642236
O  O208  1  0.02102000  0.70703000  0.58139000  1.0 -0.5066365885
O  O209  1  0.02030000  0.74417000  0.65925000  1.0 -0.6406657571
O  O210  1  0.41041000  0.71027000  0.42316000  1.0 -0.5291145319
O  O211  1  0.39853000  0.64357000  0.33708000  1.0 -0.6506848993
O  O212  1  0.58207000  0.28459000  0.37814000  1.0 -0.5210525082
O  O213  1  0.53804000  0.27896000  0.29396000  1.0 -0.6706945772
O  O214  1  0.49292000  0.57986000  0.75976000  1.0 -0.5606795499
O  O215  1  0.43131000  0.61703000  0.73196000  1.0 -0.6406657571
O  O216  1  0.34181000  0.69362000  0.28001000  1.0 -0.6233000333
O  O217  1  0.32293000  0.75574000  0.33665000  1.0 -0.480189676
O  O218  1  0.03802000  0.81457000  0.90343000  1.0 -0.5547070081
O  O219  1  0.04732000  0.87315000  0.99063000  1.0 -0.5719558249
O  O220  1  0.98235000  0.35179000  0.76296000  1.0 -0.6329697097
O  O221  1  0.91143000  0.36954000  0.71591000  1.0 -0.5210525082
O  O222  1  0.49435000  0.89421000  0.53498000  1.0 -0.4874006963
O  O223  1  0.43366000  0.82749000  0.46589000  1.0 -0.480189676
O  O224  1  0.73223000  0.95139000  0.82240000  1.0 -0.7505410785
O  O225  1  0.57193000  0.99233000  0.61420000  1.0 -0.6329697097
O  O226  1  0.47240000  0.98690000  0.59970000  1.0 0.0061059383
O  O227  1  0.45580000  0.93300000  0.60000000  1.0 -0.1308288664
O  O228  1  0.41080000  0.78960000  0.34780000  1.0 -0.4874006963
O  O229  1  0.67614000  0.22616000  0.40758000  1.0 -0.6706945772
O  O230  1  0.67271000  0.30738000  0.39285000  1.0 -0.6506848993
O  O231  1  0.46190000  0.99030000  0.55880000  1.0 -0.1308288664
O  O232  1  0.41080000  0.89740000  0.56120000  1.0 -0.0715146145
