# DDEC6 charges by PACMAN v1.1 (https://github.com/mtap-research/PACMAN-charge/)
data_ZINSIB_ASR_pacman
_symmetry_space_group_name_H-M   'P 1'
_cell_length_a   14.08270000
_cell_length_b   14.08270000
_cell_length_c   8.08090000
_cell_angle_alpha   83.29550000
_cell_angle_beta   96.70450000
_cell_angle_gamma   60.62720000
_symmetry_Int_Tables_number   1
_chemical_formula_structural   CuH6C14N2(ClO2)2
_chemical_formula_sum   'Cu2 H12 C28 N4 Cl4 O8'
_cell_volume   1358.72624737
_cell_formula_units_Z   2
loop_
 _symmetry_equiv_pos_site_id
 _symmetry_equiv_pos_as_xyz
  1  'x, y, z'
loop_
 _atom_site_type_symbol
 _atom_site_label
 _atom_site_symmetry_multiplicity
 _atom_site_fract_x
 _atom_site_fract_y
 _atom_site_fract_z
 _atom_site_occupancy
 _atom_site_charge
Cu  Cu1  1  0.07961000  0.92039000  0.12678000  1.0 0.8385736635
Cu  Cu2  1  0.92039000  0.07961000  0.87322000  1.0 0.8385736635
H  H1  1  0.97640000  0.16680000  0.46240000  1.0 0.1302472642
H  H2  1  0.97540000  0.29500000  0.61880000  1.0 0.1302472642
H  H3  1  0.02260000  0.45300000  0.21360000  1.0 0.1228996804
H  H4  1  0.16680000  0.97640000  0.53760000  1.0 0.1302472642
H  H5  1  0.29500000  0.97540000  0.38120000  1.0 0.1302472642
H  H6  1  0.45300000  0.02260000  0.78640000  1.0 0.1228996804
H  H7  1  0.02360000  0.83320000  0.53760000  1.0 0.1302472642
H  H8  1  0.02460000  0.70500000  0.38120000  1.0 0.1302472642
H  H9  1  0.97740000  0.54700000  0.78640000  1.0 0.1228996804
H  H10  1  0.83320000  0.02360000  0.46240000  1.0 0.1302472642
H  H11  1  0.70500000  0.02460000  0.61880000  1.0 0.1302472642
H  H12  1  0.54700000  0.97740000  0.21360000  1.0 0.1228996804
C  C1  1  0.00054000  0.14574000  0.14930000  1.0 0.5859811893
C  C2  1  0.00130000  0.23170000  0.24370000  1.0 -0.0699455523
C  C3  1  0.01290000  0.31810000  0.17260000  1.0 0.1302472642
C  C4  1  0.98610000  0.22490000  0.41170000  1.0 -0.0858319858
C  C5  1  0.99810000  0.38570000  0.43080000  1.0 0.1675377926
C  C6  1  0.98510000  0.30090000  0.50440000  1.0 -0.1422148952
C  C7  1  0.01280000  0.39480000  0.26400000  1.0 -0.2092588031
C  C8  1  0.14574000  0.00054000  0.85070000  1.0 0.5859811893
C  C9  1  0.23170000  0.00130000  0.75630000  1.0 -0.0699455523
C  C10  1  0.31810000  0.01290000  0.82740000  1.0 0.1302472642
C  C11  1  0.22490000  0.98610000  0.58830000  1.0 -0.0858319858
C  C12  1  0.38570000  0.99810000  0.56920000  1.0 0.1675377926
C  C13  1  0.30090000  0.98510000  0.49560000  1.0 -0.1422148952
C  C14  1  0.39480000  0.01280000  0.73600000  1.0 -0.2092588031
C  C15  1  0.99946000  0.85426000  0.85070000  1.0 0.5859811893
C  C16  1  0.99870000  0.76830000  0.75630000  1.0 -0.0699455523
C  C17  1  0.98710000  0.68190000  0.82740000  1.0 0.1302472642
C  C18  1  0.01390000  0.77510000  0.58830000  1.0 -0.0858319858
C  C19  1  0.00190000  0.61430000  0.56920000  1.0 0.1675377926
C  C20  1  0.01490000  0.69910000  0.49560000  1.0 -0.1422148952
C  C21  1  0.98720000  0.60520000  0.73600000  1.0 -0.2092588031
C  C22  1  0.85426000  0.99946000  0.14930000  1.0 0.5859811893
C  C23  1  0.76830000  0.99870000  0.24370000  1.0 -0.0699455523
C  C24  1  0.68190000  0.98710000  0.17260000  1.0 0.1302472642
C  C25  1  0.77510000  0.01390000  0.41170000  1.0 -0.0858319858
C  C26  1  0.61430000  0.00190000  0.43080000  1.0 0.1675377926
C  C27  1  0.69910000  0.01490000  0.50440000  1.0 -0.1422148952
C  C28  1  0.60520000  0.98720000  0.26400000  1.0 -0.2092588031
N  N1  1  0.99560000  0.46140000  0.53690000  1.0 -0.1041510133
N  N2  1  0.46140000  0.99560000  0.46310000  1.0 -0.1041510133
N  N3  1  0.00440000  0.53860000  0.46310000  1.0 -0.1041510133
N  N4  1  0.53860000  0.00440000  0.53690000  1.0 -0.1041510133
Cl  Cl1  1  0.03438000  0.32998000  0.96620000  1.0 -0.0699455523
Cl  Cl2  1  0.32998000  0.03438000  0.03380000  1.0 -0.0699455523
Cl  Cl3  1  0.96562000  0.67002000  0.03380000  1.0 -0.0699455523
Cl  Cl4  1  0.67002000  0.96562000  0.96620000  1.0 -0.0699455523
O  O1  1  0.06650000  0.04670000  0.22180000  1.0 -0.513157011
O  O2  1  0.93350000  0.18050000  0.01060000  1.0 -0.4919424737
O  O3  1  0.04670000  0.06650000  0.77820000  1.0 -0.513157011
O  O4  1  0.18050000  0.93350000  0.98940000  1.0 -0.4919424737
O  O5  1  0.93350000  0.95330000  0.77820000  1.0 -0.513157011
O  O6  1  0.06650000  0.81950000  0.98940000  1.0 -0.4919424737
O  O7  1  0.95330000  0.93350000  0.22180000  1.0 -0.513157011
O  O8  1  0.81950000  0.06650000  0.01060000  1.0 -0.4919424737
