# DDEC6 charges by PACMAN v1.1 (https://github.com/mtap-research/PACMAN-charge/)
data_ZIQQOI_ASR_pacman
_symmetry_space_group_name_H-M   'P 1'
_cell_length_a   30.07940000
_cell_length_b   30.07940000
_cell_length_c   30.07940000
_cell_angle_alpha   92.62220000
_cell_angle_beta   92.62220000
_cell_angle_gamma   155.29900000
_symmetry_Int_Tables_number   1
_chemical_formula_structural   Li4Si2H63C47N5O13
_chemical_formula_sum   'Li32 Si16 H504 C376 N40 O104'
_cell_volume   11109.46384409
_cell_formula_units_Z   8
loop_
 _symmetry_equiv_pos_site_id
 _symmetry_equiv_pos_as_xyz
  1  'x, y, z'
loop_
 _atom_site_type_symbol
 _atom_site_label
 _atom_site_symmetry_multiplicity
 _atom_site_fract_x
 _atom_site_fract_y
 _atom_site_fract_z
 _atom_site_occupancy
 _atom_site_charge
Li  Li1  1  0.68828000  0.83182000  0.65510000  1.0 0.7692534925
Li  Li2  1  0.65880000  0.88106000  0.71826000  1.0 0.7853137703
Li  Li3  1  0.82105000  0.09989000  0.73074000  1.0 0.7784105392
Li  Li4  1  0.02347000  0.28514000  0.78741000  1.0 0.7300084309
Li  Li5  1  0.17672000  0.03318000  0.34490000  1.0 0.7692534925
Li  Li6  1  0.16280000  0.94054000  0.28174000  1.0 0.7853137703
Li  Li7  1  0.36915000  0.09031000  0.26926000  1.0 0.7784105392
Li  Li8  1  0.49773000  0.23606000  0.21259000  1.0 0.7300084309
Li  Li9  1  0.08182000  0.92672000  0.64354000  1.0 0.7692534925
Li  Li10  1  0.13106000  0.91280000  0.72226000  1.0 0.7853137703
Li  Li11  1  0.34989000  0.11915000  0.77884000  1.0 0.7784105392
Li  Li12  1  0.53514000  0.24773000  0.76167000  1.0 0.7300084309
Li  Li13  1  0.28318000  0.43828000  0.35646000  1.0 0.7692534925
Li  Li14  1  0.19054000  0.40880000  0.27774000  1.0 0.7853137703
Li  Li15  1  0.34031000  0.57105000  0.22116000  1.0 0.7784105392
Li  Li16  1  0.48606000  0.77347000  0.23833000  1.0 0.7300084309
Li  Li17  1  0.56172000  0.91818000  0.84490000  1.0 0.7692534925
Li  Li18  1  0.59120000  0.86894000  0.78174000  1.0 0.7853137703
Li  Li19  1  0.42895000  0.65011000  0.76926000  1.0 0.7784105392
Li  Li20  1  0.22653000  0.46486000  0.71259000  1.0 0.7300084309
Li  Li21  1  0.07328000  0.71682000  0.15510000  1.0 0.7692534925
Li  Li22  1  0.08720000  0.80946000  0.21826000  1.0 0.7853137703
Li  Li23  1  0.88085000  0.65969000  0.23074000  1.0 0.7784105392
Li  Li24  1  0.75227000  0.51394000  0.28741000  1.0 0.7300084309
Li  Li25  1  0.16818000  0.82328000  0.85646000  1.0 0.7692534925
Li  Li26  1  0.11894000  0.83720000  0.77774000  1.0 0.7853137703
Li  Li27  1  0.90011000  0.63085000  0.72116000  1.0 0.7784105392
Li  Li28  1  0.71486000  0.50227000  0.73833000  1.0 0.7300084309
Li  Li29  1  0.96682000  0.31172000  0.14354000  1.0 0.7692534925
Li  Li30  1  0.05946000  0.34120000  0.22226000  1.0 0.7853137703
Li  Li31  1  0.90969000  0.17895000  0.27884000  1.0 0.7784105392
Li  Li32  1  0.76394000  0.97653000  0.26167000  1.0 0.7300084309
Si  Si1  1  0.77618000  0.14743000  0.50371000  1.0 0.882337779
Si  Si2  1  0.95216000  0.08436000  0.99004000  1.0 0.8695663215
Si  Si3  1  0.64372000  0.27247000  0.49629000  1.0 0.882337779
Si  Si4  1  0.09432000  0.96212000  0.00996000  1.0 0.8695663215
Si  Si5  1  0.39743000  0.39372000  0.87125000  1.0 0.882337779
Si  Si6  1  0.33436000  0.84432000  0.63220000  1.0 0.8695663215
Si  Si7  1  0.52247000  0.52618000  0.12875000  1.0 0.882337779
Si  Si8  1  0.21212000  0.70216000  0.36780000  1.0 0.8695663215
Si  Si9  1  0.47382000  0.60257000  0.99629000  1.0 0.882337779
Si  Si10  1  0.29784000  0.66564000  0.50996000  1.0 0.8695663215
Si  Si11  1  0.60628000  0.47753000  0.00371000  1.0 0.882337779
Si  Si12  1  0.15568000  0.78788000  0.49004000  1.0 0.8695663215
Si  Si13  1  0.85257000  0.35628000  0.62875000  1.0 0.882337779
Si  Si14  1  0.91564000  0.90568000  0.86780000  1.0 0.8695663215
Si  Si15  1  0.72753000  0.22382000  0.37125000  1.0 0.882337779
Si  Si16  1  0.03788000  0.04784000  0.13220000  1.0 0.8695663215
H  H1  1  0.71150000  0.99280000  0.49870000  1.0 0.1029349678
H  H2  1  0.69130000  0.92220000  0.55070000  1.0 0.108269975
H  H3  1  0.77580000  0.09100000  0.65300000  1.0 0.1029349678
H  H4  1  0.79120000  0.15810000  0.60150000  1.0 0.108269975
H  H5  1  0.90180000  0.21360000  0.44560000  1.0 0.115134746
H  H6  1  0.86860000  0.14940000  0.37320000  1.0 0.108269975
H  H7  1  0.55480000  0.90230000  0.35390000  1.0 0.1029349678
H  H8  1  0.58710000  0.96390000  0.42700000  1.0 0.108269975
H  H9  1  0.60790000  0.03240000  0.50010000  1.0 0.1695193519
H  H10  1  0.69590000  0.14540000  0.48770000  1.0 0.1695193519
H  H11  1  0.69910000  0.13800000  0.53970000  1.0 0.1695193519
H  H12  1  0.93270000  0.33180000  0.49870000  1.0 0.1695193519
H  H13  1  0.96880000  0.31680000  0.51740000  1.0 0.1601474771
H  H14  1  0.93550000  0.32450000  0.55080000  1.0 0.1601474771
H  H15  1  0.06130000  0.23340000  0.93050000  1.0 0.1029349678
H  H16  1  0.01230000  0.22220000  0.86130000  1.0 0.1029349678
H  H17  1  0.70410000  0.89690000  0.84860000  1.0 0.108269975
H  H18  1  0.75240000  0.90960000  0.91920000  1.0 0.108269975
H  H19  1  0.15880000  0.28760000  0.05620000  1.0 0.1029349678
H  H20  1  0.22370000  0.39770000  0.11600000  1.0 0.108269975
H  H21  1  0.95200000  0.22220000  0.08120000  1.0 0.0892599348
H  H22  1  0.88940000  0.11480000  0.02100000  1.0 0.1029349678
H  H23  1  0.79470000  0.89550000  0.98320000  1.0 0.1601474771
H  H24  1  0.77520000  0.92510000  0.00670000  1.0 0.1601474771
H  H25  1  0.84700000  0.95360000  0.03580000  1.0 0.1695193519
H  H26  1  0.11910000  0.20340000  0.98010000  1.0 0.1695193519
H  H27  1  0.02260000  0.07990000  0.96590000  1.0 0.1695193519
H  H28  1  0.07460000  0.13800000  0.01860000  1.0 0.1695193519
H  H29  1  0.96340000  0.02660000  0.65920000  1.0 0.0800310768
H  H30  1  0.02340000  0.18200000  0.75200000  1.0 0.0703764426
H  H31  1  0.90620000  0.05240000  0.74580000  1.0 0.057823695
H  H32  1  0.93080000  0.10710000  0.70830000  1.0 0.108269975
H  H33  1  0.14740000  0.25480000  0.74540000  1.0 0.0703764426
H  H34  1  0.15040000  0.23580000  0.69620000  1.0 0.0322984798
H  H35  1  0.11800000  0.17650000  0.73410000  1.0 0.0892599348
H  H36  1  0.88600000  0.22810000  0.79490000  1.0 0.0703764426
H  H37  1  0.96410000  0.39810000  0.88820000  1.0 0.0510582145
H  H38  1  0.06550000  0.46560000  0.87370000  1.0 0.0800310768
H  H39  1  0.99580000  0.37770000  0.90430000  1.0 0.057823695
H  H40  1  0.82280000  0.27330000  0.84490000  1.0 0.0203668328
H  H41  1  0.75860000  0.16860000  0.83300000  1.0 0.0892599348
H  H42  1  0.80190000  0.23280000  0.79430000  1.0 0.0703764426
H  H43  1  0.93920000  0.99520000  0.66460000  1.0 0.0800310768
H  H44  1  0.99050000  0.13310000  0.76800000  1.0 0.0703764426
H  H45  1  0.86560000  0.00690000  0.74790000  1.0 0.0800310768
H  H46  1  0.93000000  0.09590000  0.71990000  1.0 0.0892599348
H  H47  1  0.10040000  0.18530000  0.76830000  1.0 0.057823695
H  H48  1  0.12280000  0.18720000  0.72040000  1.0 0.0892599348
H  H49  1  0.05730000  0.09760000  0.74830000  1.0 0.0400881556
H  H50  1  0.84760000  0.18510000  0.81710000  1.0 0.057823695
H  H51  1  0.97540000  0.42220000  0.82020000  1.0 0.057823695
H  H52  1  0.03880000  0.44050000  0.79930000  1.0 0.0322984798
H  H53  1  0.04730000  0.45350000  0.85320000  1.0 0.0510582145
H  H54  1  0.80960000  0.26540000  0.80960000  1.0 0.0703764426
H  H55  1  0.76210000  0.18360000  0.83490000  1.0 0.0703764426
H  H56  1  0.75690000  0.17360000  0.78130000  1.0 0.0703764426
H  H57  1  0.87410000  0.20260000  0.83190000  1.0 0.0703764426
H  H58  1  0.83220000  0.27010000  0.88590000  1.0 0.0203668328
H  H59  1  0.81540000  0.20410000  0.89730000  1.0 0.0800310768
H  H60  1  0.75780000  0.16950000  0.84890000  1.0 0.0703764426
H  H61  1  0.97930000  0.42070000  0.87700000  1.0 0.0510582145
H  H62  1  0.01970000  0.43800000  0.83290000  1.0 0.0322984798
H  H63  1  0.06930000  0.46440000  0.88190000  1.0 0.0800310768
H  H64  1  0.49410000  0.21280000  0.50130000  1.0 0.1029349678
H  H65  1  0.37150000  0.14060000  0.44930000  1.0 0.1029349678
H  H66  1  0.43800000  0.12280000  0.34700000  1.0 0.1029349678
H  H67  1  0.55660000  0.18970000  0.39850000  1.0 0.108269975
H  H68  1  0.76800000  0.45620000  0.55440000  1.0 0.115134746
H  H69  1  0.77620000  0.49540000  0.62680000  1.0 0.108269975
H  H70  1  0.54840000  0.20090000  0.64610000  1.0 0.1029349678
H  H71  1  0.53690000  0.16010000  0.57300000  1.0 0.108269975
H  H72  1  0.53230000  0.10780000  0.49990000  1.0 0.1695193519
H  H73  1  0.65770000  0.20820000  0.51230000  1.0 0.1695193519
H  H74  1  0.59830000  0.15940000  0.46030000  1.0 0.1695193519
H  H75  1  0.83310000  0.43400000  0.50130000  1.0 0.1695193519
H  H76  1  0.79940000  0.45140000  0.48260000  1.0 0.1601474771
H  H77  1  0.77370000  0.38470000  0.44920000  1.0 0.1601474771
H  H78  1  0.30290000  0.13080000  0.06950000  1.0 0.1029349678
H  H79  1  0.36090000  0.15100000  0.13870000  1.0 0.1029349678
H  H80  1  0.04830000  0.85550000  0.15140000  1.0 0.108269975
H  H81  1  0.99040000  0.83320000  0.08080000  1.0 0.108269975
H  H82  1  0.23140000  0.10260000  0.94380000  1.0 0.1029349678
H  H83  1  0.28170000  0.10770000  0.88400000  1.0 0.108269975
H  H84  1  0.14100000  0.87080000  0.91880000  1.0 0.0892599348
H  H85  1  0.09380000  0.86840000  0.97900000  1.0 0.1029349678
H  H86  1  0.91230000  0.81150000  0.01680000  1.0 0.1601474771
H  H87  1  0.91840000  0.76850000  0.99330000  1.0 0.1601474771
H  H88  1  0.91780000  0.81120000  0.96420000  1.0 0.1695193519
H  H89  1  0.22330000  0.13900000  0.01990000  1.0 0.1695193519
H  H90  1  0.11400000  0.05670000  0.03410000  1.0 0.1695193519
H  H91  1  0.11940000  0.05600000  0.98140000  1.0 0.1695193519
H  H92  1  0.36740000  0.30420000  0.34080000  1.0 0.0800310768
H  H93  1  0.43000000  0.27140000  0.24800000  1.0 0.0703764426
H  H94  1  0.30660000  0.16040000  0.25420000  1.0 0.057823695
H  H95  1  0.39880000  0.22250000  0.29170000  1.0 0.108269975
H  H96  1  0.50940000  0.40200000  0.25460000  1.0 0.0703764426
H  H97  1  0.53960000  0.45420000  0.30380000  1.0 0.0322984798
H  H98  1  0.44240000  0.38390000  0.26590000  1.0 0.0892599348
H  H99  1  0.43320000  0.09110000  0.20510000  1.0 0.0703764426
H  H100  1  0.50990000  0.07590000  0.11180000  1.0 0.0510582145
H  H101  1  0.59190000  0.19180000  0.12630000  1.0 0.0703764426
H  H102  1  0.47340000  0.09150000  0.09570000  1.0 0.057823695
H  H103  1  0.42840000  0.97790000  0.15510000  1.0 0.0203668328
H  H104  1  0.33560000  0.92560000  0.16700000  1.0 0.0800310768
H  H105  1  0.43850000  0.00760000  0.20570000  1.0 0.0703764426
H  H106  1  0.33060000  0.27460000  0.33540000  1.0 0.0800310768
H  H107  1  0.36510000  0.22250000  0.23200000  1.0 0.0703764426
H  H108  1  0.25900000  0.11770000  0.25210000  1.0 0.0800310768
H  H109  1  0.37600000  0.21010000  0.28010000  1.0 0.0892599348
H  H110  1  0.41700000  0.33210000  0.23170000  1.0 0.057823695
H  H111  1  0.46680000  0.40240000  0.27960000  1.0 0.0892599348
H  H112  1  0.34930000  0.30900000  0.25170000  1.0 0.0400881556
H  H113  1  0.36800000  0.03050000  0.18290000  1.0 0.057823695
H  H114  1  0.60200000  0.15520000  0.17980000  1.0 0.057823695
H  H115  1  0.64120000  0.23950000  0.20070000  1.0 0.0322984798
H  H116  1  0.60030000  0.19410000  0.14680000  1.0 0.0510582145
H  H117  1  0.45580000  0.00000000  0.19040000  1.0 0.0703764426
H  H118  1  0.34870000  0.92720000  0.16510000  1.0 0.0703764426
H  H119  1  0.39230000  0.97560000  0.21870000  1.0 0.0703764426
H  H120  1  0.37070000  0.04220000  0.16810000  1.0 0.0703764426
H  H121  1  0.38420000  0.94630000  0.11410000  1.0 0.0203668328
H  H122  1  0.30680000  0.91810000  0.10270000  1.0 0.0800310768
H  H123  1  0.32060000  0.90890000  0.15110000  1.0 0.0703764426
H  H124  1  0.54370000  0.10230000  0.12300000  1.0 0.0400881556
H  H125  1  0.60510000  0.18680000  0.16710000  1.0 0.0322984798
H  H126  1  0.58250000  0.18740000  0.11810000  1.0 0.0800310768
H  H127  1  0.24280000  0.24410000  0.78130000  1.0 0.1029349678
H  H128  1  0.17220000  0.12150000  0.73090000  1.0 0.1029349678
H  H129  1  0.34100000  0.18800000  0.81520000  1.0 0.1029349678
H  H130  1  0.40810000  0.30660000  0.86690000  1.0 0.108269975
H  H131  1  0.46360000  0.51800000  0.81180000  1.0 0.115134746
H  H132  1  0.39940000  0.52620000  0.78080000  1.0 0.108269975
H  H133  1  0.15230000  0.29840000  0.84750000  1.0 0.1029349678
H  H134  1  0.21390000  0.28690000  0.87680000  1.0 0.108269975
H  H135  1  0.28240000  0.28230000  0.92450000  1.0 0.1695193519
H  H136  1  0.39540000  0.40770000  0.94950000  1.0 0.1695193519
H  H137  1  0.38800000  0.34830000  0.93890000  1.0 0.1695193519
H  H138  1  0.58180000  0.58310000  0.89910000  1.0 0.1695193519
H  H139  1  0.56680000  0.54940000  0.84800000  1.0 0.1601474771
H  H140  1  0.57450000  0.52370000  0.88900000  1.0 0.1601474771
H  H141  1  0.48340000  0.05290000  0.67210000  1.0 0.1029349678
H  H142  1  0.47220000  0.11090000  0.70990000  1.0 0.1029349678
H  H143  1  0.14690000  0.79830000  0.69280000  1.0 0.108269975
H  H144  1  0.15960000  0.74040000  0.65720000  1.0 0.108269975
H  H145  1  0.53760000  0.98140000  0.62880000  1.0 0.1029349678
H  H146  1  0.64770000  0.03170000  0.67400000  1.0 0.108269975
H  H147  1  0.47220000  0.89100000  0.77020000  1.0 0.0892599348
H  H148  1  0.36480000  0.84380000  0.72540000  1.0 0.1029349678
H  H149  1  0.14550000  0.66230000  0.60080000  1.0 0.1601474771
H  H150  1  0.17510000  0.66840000  0.64990000  1.0 0.1601474771
H  H151  1  0.20360000  0.66780000  0.60660000  1.0 0.1695193519
H  H152  1  0.45340000  0.97330000  0.58430000  1.0 0.1695193519
H  H153  1  0.32990000  0.86400000  0.55730000  1.0 0.1695193519
H  H154  1  0.38800000  0.86940000  0.56340000  1.0 0.1695193519
H  H155  1  0.27660000  0.11740000  0.56320000  1.0 0.0800310768
H  H156  1  0.43200000  0.18000000  0.65860000  1.0 0.0703764426
H  H157  1  0.30240000  0.05660000  0.64620000  1.0 0.057823695
H  H158  1  0.35710000  0.14880000  0.67630000  1.0 0.108269975
H  H159  1  0.50480000  0.25940000  0.60740000  1.0 0.0703764426
H  H160  1  0.48580000  0.28960000  0.58540000  1.0 0.0322984798
H  H161  1  0.42650000  0.19240000  0.55850000  1.0 0.0892599348
H  H162  1  0.47810000  0.18320000  0.84210000  1.0 0.0703764426
H  H163  1  0.64810000  0.25990000  0.93400000  1.0 0.0510582145
H  H164  1  0.71560000  0.34190000  0.90010000  1.0 0.0800310768
H  H165  1  0.62770000  0.22340000  0.88190000  1.0 0.057823695
H  H166  1  0.52330000  0.17840000  0.95050000  1.0 0.0203668328
H  H167  1  0.41860000  0.08560000  0.91000000  1.0 0.0892599348
H  H168  1  0.48280000  0.18850000  0.93090000  1.0 0.0703764426
H  H169  1  0.24520000  0.08060000  0.55600000  1.0 0.0800310768
H  H170  1  0.38310000  0.11510000  0.64260000  1.0 0.0703764426
H  H171  1  0.25690000  0.00900000  0.64130000  1.0 0.0800310768
H  H172  1  0.34590000  0.12600000  0.66590000  1.0 0.0892599348
H  H173  1  0.43530000  0.16700000  0.58490000  1.0 0.057823695
H  H174  1  0.43720000  0.21680000  0.56440000  1.0 0.0892599348
H  H175  1  0.34760000  0.09930000  0.54030000  1.0 0.0400881556
H  H176  1  0.43510000  0.11800000  0.83750000  1.0 0.057823695
H  H177  1  0.67220000  0.35200000  0.94680000  1.0 0.057823695
H  H178  1  0.69050000  0.39120000  0.90170000  1.0 0.0322984798
H  H179  1  0.70350000  0.35030000  0.90620000  1.0 0.0510582145
H  H180  1  0.51540000  0.20580000  0.95580000  1.0 0.0703764426
H  H181  1  0.43360000  0.09870000  0.92150000  1.0 0.0703764426
H  H182  1  0.42360000  0.14230000  0.91670000  1.0 0.0703764426
H  H183  1  0.45260000  0.12070000  0.82850000  1.0 0.0703764426
H  H184  1  0.52010000  0.13420000  0.93790000  1.0 0.0203668328
H  H185  1  0.45410000  0.05680000  0.88870000  1.0 0.0800310768
H  H186  1  0.41950000  0.07060000  0.91170000  1.0 0.0703764426
H  H187  1  0.67070000  0.29370000  0.94140000  1.0 0.0510582145
H  H188  1  0.68800000  0.35510000  0.91830000  1.0 0.0322984798
H  H189  1  0.71440000  0.33250000  0.89510000  1.0 0.0800310768
H  H190  1  0.46280000  0.46150000  0.21870000  1.0 0.1029349678
H  H191  1  0.39060000  0.44130000  0.26910000  1.0 0.108269975
H  H192  1  0.37280000  0.52580000  0.18480000  1.0 0.1029349678
H  H193  1  0.43970000  0.54120000  0.13310000  1.0 0.108269975
H  H194  1  0.70620000  0.65180000  0.18820000  1.0 0.115134746
H  H195  1  0.74540000  0.61860000  0.21920000  1.0 0.108269975
H  H196  1  0.45090000  0.30480000  0.15250000  1.0 0.1029349678
H  H197  1  0.41010000  0.33710000  0.12320000  1.0 0.108269975
H  H198  1  0.35780000  0.35790000  0.07550000  1.0 0.1695193519
H  H199  1  0.45820000  0.44590000  0.05050000  1.0 0.1695193519
H  H200  1  0.40940000  0.44910000  0.06110000  1.0 0.1695193519
H  H201  1  0.68400000  0.68270000  0.10090000  1.0 0.1695193519
H  H202  1  0.70140000  0.71880000  0.15200000  1.0 0.1601474771
H  H203  1  0.63470000  0.68550000  0.11100000  1.0 0.1601474771
H  H204  1  0.38080000  0.81130000  0.32790000  1.0 0.1029349678
H  H205  1  0.40100000  0.76230000  0.29010000  1.0 0.1029349678
H  H206  1  0.10550000  0.45410000  0.30720000  1.0 0.108269975
H  H207  1  0.08320000  0.50240000  0.34280000  1.0 0.108269975
H  H208  1  0.35260000  0.90880000  0.37120000  1.0 0.1029349678
H  H209  1  0.35770000  0.97370000  0.32600000  1.0 0.108269975
H  H210  1  0.12080000  0.70200000  0.22980000  1.0 0.0892599348
H  H211  1  0.11840000  0.63940000  0.27460000  1.0 0.1029349678
H  H212  1  0.06150000  0.54470000  0.39920000  1.0 0.1601474771
H  H213  1  0.01850000  0.52520000  0.35010000  1.0 0.1601474771
H  H214  1  0.06120000  0.59700000  0.39340000  1.0 0.1695193519
H  H215  1  0.38900000  0.86910000  0.41570000  1.0 0.1695193519
H  H216  1  0.30670000  0.77260000  0.44270000  1.0 0.1695193519
H  H217  1  0.30600000  0.82460000  0.43660000  1.0 0.1695193519
H  H218  1  0.55420000  0.71340000  0.43680000  1.0 0.0800310768
H  H219  1  0.52140000  0.77340000  0.34140000  1.0 0.0703764426
H  H220  1  0.41040000  0.65620000  0.35380000  1.0 0.057823695
H  H221  1  0.47250000  0.68080000  0.32370000  1.0 0.108269975
H  H222  1  0.65200000  0.89740000  0.39260000  1.0 0.0703764426
H  H223  1  0.70420000  0.90040000  0.41460000  1.0 0.0322984798
H  H224  1  0.63390000  0.86800000  0.44150000  1.0 0.0892599348
H  H225  1  0.34110000  0.63600000  0.15790000  1.0 0.0703764426
H  H226  1  0.32590000  0.71410000  0.06600000  1.0 0.0510582145
H  H227  1  0.44180000  0.81550000  0.09990000  1.0 0.0703764426
H  H228  1  0.34150000  0.74580000  0.11810000  1.0 0.057823695
H  H229  1  0.22790000  0.57280000  0.04950000  1.0 0.0203668328
H  H230  1  0.17560000  0.50860000  0.09000000  1.0 0.0892599348
H  H231  1  0.25760000  0.55190000  0.06910000  1.0 0.0703764426
H  H232  1  0.52460000  0.68920000  0.44400000  1.0 0.0800310768
H  H233  1  0.47250000  0.74050000  0.35740000  1.0 0.0703764426
H  H234  1  0.36770000  0.61560000  0.35870000  1.0 0.0800310768
H  H235  1  0.46010000  0.68000000  0.33410000  1.0 0.0892599348
H  H236  1  0.58210000  0.85040000  0.41510000  1.0 0.057823695
H  H237  1  0.65240000  0.87280000  0.43560000  1.0 0.0892599348
H  H238  1  0.55900000  0.80730000  0.45970000  1.0 0.0400881556
H  H239  1  0.28050000  0.59760000  0.16250000  1.0 0.057823695
H  H240  1  0.40520000  0.72540000  0.05320000  1.0 0.057823695
H  H241  1  0.48950000  0.78880000  0.09830000  1.0 0.0322984798
H  H242  1  0.44410000  0.79730000  0.09380000  1.0 0.0510582145
H  H243  1  0.25000000  0.55960000  0.04420000  1.0 0.0703764426
H  H244  1  0.17720000  0.51210000  0.07850000  1.0 0.0703764426
H  H245  1  0.22560000  0.50690000  0.08330000  1.0 0.0703764426
H  H246  1  0.29220000  0.62410000  0.17150000  1.0 0.0703764426
H  H247  1  0.19630000  0.58220000  0.06210000  1.0 0.0203668328
H  H248  1  0.16810000  0.56540000  0.11130000  1.0 0.0800310768
H  H249  1  0.15890000  0.50780000  0.08830000  1.0 0.0703764426
H  H250  1  0.35230000  0.72930000  0.05860000  1.0 0.0400881556
H  H251  1  0.43680000  0.76970000  0.08170000  1.0 0.0322984798
H  H252  1  0.43740000  0.81930000  0.10490000  1.0 0.0800310768
H  H253  1  0.53850000  0.75720000  0.00130000  1.0 0.1029349678
H  H254  1  0.55870000  0.82780000  0.94930000  1.0 0.108269975
H  H255  1  0.47420000  0.65900000  0.84700000  1.0 0.1029349678
H  H256  1  0.45880000  0.59190000  0.89850000  1.0 0.108269975
H  H257  1  0.34820000  0.53640000  0.05440000  1.0 0.115134746
H  H258  1  0.38140000  0.60060000  0.12680000  1.0 0.108269975
H  H259  1  0.69520000  0.84770000  0.14610000  1.0 0.1029349678
H  H260  1  0.66290000  0.78610000  0.07300000  1.0 0.108269975
H  H261  1  0.64210000  0.71760000  0.99990000  1.0 0.1695193519
H  H262  1  0.55410000  0.60460000  0.01230000  1.0 0.1695193519
H  H263  1  0.55090000  0.61200000  0.96030000  1.0 0.1695193519
H  H264  1  0.31730000  0.41820000  0.00130000  1.0 0.1695193519
H  H265  1  0.28120000  0.43320000  0.98260000  1.0 0.1601474771
H  H266  1  0.31450000  0.42550000  0.94920000  1.0 0.1601474771
H  H267  1  0.18870000  0.51660000  0.56950000  1.0 0.1029349678
H  H268  1  0.23770000  0.52780000  0.63870000  1.0 0.1029349678
H  H269  1  0.54590000  0.85310000  0.65140000  1.0 0.108269975
H  H270  1  0.49760000  0.84040000  0.58080000  1.0 0.108269975
H  H271  1  0.09120000  0.46240000  0.44380000  1.0 0.1029349678
H  H272  1  0.02630000  0.35230000  0.38400000  1.0 0.108269975
H  H273  1  0.29800000  0.52780000  0.41880000  1.0 0.0892599348
H  H274  1  0.36060000  0.63520000  0.47900000  1.0 0.1029349678
H  H275  1  0.45530000  0.85450000  0.51680000  1.0 0.1601474771
H  H276  1  0.47480000  0.82490000  0.49330000  1.0 0.1601474771
H  H277  1  0.40300000  0.79640000  0.46420000  1.0 0.1695193519
H  H278  1  0.13090000  0.54660000  0.51990000  1.0 0.1695193519
H  H279  1  0.22740000  0.67010000  0.53410000  1.0 0.1695193519
H  H280  1  0.17540000  0.61200000  0.48140000  1.0 0.1695193519
H  H281  1  0.28660000  0.72340000  0.84080000  1.0 0.0800310768
H  H282  1  0.22660000  0.56800000  0.74800000  1.0 0.0703764426
H  H283  1  0.34380000  0.69760000  0.75420000  1.0 0.057823695
H  H284  1  0.31920000  0.64290000  0.79170000  1.0 0.108269975
H  H285  1  0.10260000  0.49520000  0.75460000  1.0 0.0703764426
H  H286  1  0.09960000  0.51420000  0.80380000  1.0 0.0322984798
H  H287  1  0.13200000  0.57350000  0.76590000  1.0 0.0892599348
H  H288  1  0.36400000  0.52190000  0.70510000  1.0 0.0703764426
H  H289  1  0.28590000  0.35190000  0.61180000  1.0 0.0510582145
H  H290  1  0.18450000  0.28440000  0.62630000  1.0 0.0800310768
H  H291  1  0.25420000  0.37230000  0.59570000  1.0 0.057823695
H  H292  1  0.42720000  0.47670000  0.65510000  1.0 0.0203668328
H  H293  1  0.49140000  0.58140000  0.66700000  1.0 0.0892599348
H  H294  1  0.44810000  0.51720000  0.70570000  1.0 0.0703764426
H  H295  1  0.31080000  0.75480000  0.83540000  1.0 0.0800310768
H  H296  1  0.25950000  0.61690000  0.73200000  1.0 0.0703764426
H  H297  1  0.38440000  0.74310000  0.75210000  1.0 0.0800310768
H  H298  1  0.32000000  0.65410000  0.78010000  1.0 0.0892599348
H  H299  1  0.14960000  0.56470000  0.73170000  1.0 0.057823695
H  H300  1  0.12720000  0.56280000  0.77960000  1.0 0.0892599348
H  H301  1  0.19270000  0.65240000  0.75170000  1.0 0.0400881556
H  H302  1  0.40240000  0.56490000  0.68290000  1.0 0.057823695
H  H303  1  0.27460000  0.32780000  0.67980000  1.0 0.057823695
H  H304  1  0.21120000  0.30950000  0.70070000  1.0 0.0322984798
H  H305  1  0.20270000  0.29650000  0.64680000  1.0 0.0510582145
H  H306  1  0.44040000  0.48460000  0.69040000  1.0 0.0703764426
H  H307  1  0.48790000  0.56640000  0.66510000  1.0 0.0703764426
H  H308  1  0.49310000  0.57640000  0.71870000  1.0 0.0703764426
H  H309  1  0.37590000  0.54740000  0.66810000  1.0 0.0703764426
H  H310  1  0.41780000  0.47990000  0.61410000  1.0 0.0203668328
H  H311  1  0.43460000  0.54590000  0.60270000  1.0 0.0800310768
H  H312  1  0.49220000  0.58050000  0.65110000  1.0 0.0703764426
H  H313  1  0.27070000  0.32930000  0.62300000  1.0 0.0400881556
H  H314  1  0.23030000  0.31200000  0.66710000  1.0 0.0322984798
H  H315  1  0.18070000  0.28560000  0.61810000  1.0 0.0800310768
H  H316  1  0.75590000  0.53720000  0.99870000  1.0 0.1029349678
H  H317  1  0.87850000  0.60940000  0.05070000  1.0 0.108269975
H  H318  1  0.81200000  0.62720000  0.15300000  1.0 0.1029349678
H  H319  1  0.69340000  0.56030000  0.10150000  1.0 0.108269975
H  H320  1  0.48200000  0.29380000  0.94560000  1.0 0.115134746
H  H321  1  0.47380000  0.25460000  0.87320000  1.0 0.108269975
H  H322  1  0.70160000  0.54910000  0.85390000  1.0 0.1029349678
H  H323  1  0.71310000  0.58990000  0.92700000  1.0 0.108269975
H  H324  1  0.71770000  0.64220000  0.00010000  1.0 0.1695193519
H  H325  1  0.59230000  0.54180000  0.98770000  1.0 0.1695193519
H  H326  1  0.65170000  0.59060000  0.03970000  1.0 0.1695193519
H  H327  1  0.41690000  0.31600000  0.99870000  1.0 0.1695193519
H  H328  1  0.45060000  0.29860000  0.01740000  1.0 0.1601474771
H  H329  1  0.47630000  0.36530000  0.05080000  1.0 0.1601474771
H  H330  1  0.94710000  0.61920000  0.43050000  1.0 0.1029349678
H  H331  1  0.88910000  0.59900000  0.36130000  1.0 0.1029349678
H  H332  1  0.20170000  0.89450000  0.34860000  1.0 0.108269975
H  H333  1  0.25960000  0.91680000  0.41920000  1.0 0.108269975
H  H334  1  0.01860000  0.64740000  0.55620000  1.0 0.1029349678
H  H335  1  0.96830000  0.64230000  0.61600000  1.0 0.108269975
H  H336  1  0.10900000  0.87920000  0.58120000  1.0 0.0892599348
H  H337  1  0.15620000  0.88160000  0.52100000  1.0 0.1029349678
H  H338  1  0.33770000  0.93850000  0.48320000  1.0 0.1601474771
H  H339  1  0.33160000  0.98150000  0.50670000  1.0 0.1601474771
H  H340  1  0.33220000  0.93880000  0.53580000  1.0 0.1695193519
H  H341  1  0.02670000  0.61100000  0.48010000  1.0 0.1695193519
H  H342  1  0.13600000  0.69330000  0.46590000  1.0 0.1695193519
H  H343  1  0.13060000  0.69400000  0.51860000  1.0 0.1695193519
H  H344  1  0.88260000  0.44580000  0.15920000  1.0 0.0800310768
H  H345  1  0.82000000  0.47860000  0.25200000  1.0 0.0703764426
H  H346  1  0.94340000  0.58960000  0.24580000  1.0 0.057823695
H  H347  1  0.85120000  0.52750000  0.20830000  1.0 0.108269975
H  H348  1  0.74060000  0.34800000  0.24540000  1.0 0.0703764426
H  H349  1  0.71040000  0.29580000  0.19620000  1.0 0.0322984798
H  H350  1  0.80760000  0.36610000  0.23410000  1.0 0.0892599348
H  H351  1  0.81680000  0.65890000  0.29490000  1.0 0.0703764426
H  H352  1  0.74010000  0.67410000  0.38820000  1.0 0.0510582145
H  H353  1  0.65810000  0.55820000  0.37370000  1.0 0.0703764426
H  H354  1  0.77660000  0.65850000  0.40430000  1.0 0.057823695
H  H355  1  0.82160000  0.77210000  0.34490000  1.0 0.0203668328
H  H356  1  0.91440000  0.82440000  0.33300000  1.0 0.0892599348
H  H357  1  0.81150000  0.74240000  0.29430000  1.0 0.0703764426
H  H358  1  0.91940000  0.47540000  0.16460000  1.0 0.0800310768
H  H359  1  0.88490000  0.52750000  0.26800000  1.0 0.0703764426
H  H360  1  0.99100000  0.63230000  0.24790000  1.0 0.0800310768
H  H361  1  0.87400000  0.53990000  0.21990000  1.0 0.0892599348
H  H362  1  0.83300000  0.41790000  0.26830000  1.0 0.057823695
H  H363  1  0.78320000  0.34760000  0.22040000  1.0 0.0892599348
H  H364  1  0.90070000  0.44100000  0.24830000  1.0 0.0400881556
H  H365  1  0.88200000  0.71950000  0.31710000  1.0 0.057823695
H  H366  1  0.64800000  0.59480000  0.32020000  1.0 0.057823695
H  H367  1  0.60880000  0.51050000  0.29930000  1.0 0.0322984798
H  H368  1  0.64970000  0.55590000  0.35320000  1.0 0.0510582145
H  H369  1  0.79420000  0.75000000  0.30960000  1.0 0.0703764426
H  H370  1  0.90130000  0.82280000  0.33490000  1.0 0.0703764426
H  H371  1  0.85770000  0.77440000  0.28130000  1.0 0.0703764426
H  H372  1  0.87930000  0.70780000  0.33190000  1.0 0.0703764426
H  H373  1  0.86580000  0.80370000  0.38590000  1.0 0.0203668328
H  H374  1  0.94320000  0.83190000  0.39730000  1.0 0.0800310768
H  H375  1  0.92940000  0.84110000  0.34890000  1.0 0.0703764426
H  H376  1  0.70630000  0.64770000  0.37700000  1.0 0.0400881556
H  H377  1  0.64490000  0.56320000  0.33290000  1.0 0.0322984798
H  H378  1  0.66750000  0.56260000  0.38190000  1.0 0.0800310768
H  H379  1  0.00720000  0.50590000  0.71870000  1.0 0.1029349678
H  H380  1  0.07780000  0.62850000  0.76910000  1.0 0.1029349678
H  H381  1  0.90900000  0.56200000  0.68480000  1.0 0.1029349678
H  H382  1  0.84190000  0.44340000  0.63310000  1.0 0.108269975
H  H383  1  0.78640000  0.23200000  0.68820000  1.0 0.115134746
H  H384  1  0.85060000  0.22380000  0.71920000  1.0 0.108269975
H  H385  1  0.09770000  0.45160000  0.65250000  1.0 0.1029349678
H  H386  1  0.03610000  0.46310000  0.62320000  1.0 0.108269975
H  H387  1  0.96760000  0.46770000  0.57550000  1.0 0.1695193519
H  H388  1  0.85460000  0.34230000  0.55050000  1.0 0.1695193519
H  H389  1  0.86200000  0.40170000  0.56110000  1.0 0.1695193519
H  H390  1  0.66820000  0.16690000  0.60090000  1.0 0.1695193519
H  H391  1  0.68320000  0.20060000  0.65200000  1.0 0.1601474771
H  H392  1  0.67550000  0.22630000  0.61100000  1.0 0.1601474771
H  H393  1  0.76660000  0.69710000  0.82790000  1.0 0.1029349678
H  H394  1  0.77780000  0.63910000  0.79010000  1.0 0.1029349678
H  H395  1  0.10310000  0.95170000  0.80720000  1.0 0.108269975
H  H396  1  0.09040000  0.00960000  0.84280000  1.0 0.108269975
H  H397  1  0.71240000  0.76860000  0.87120000  1.0 0.1029349678
H  H398  1  0.60230000  0.71830000  0.82600000  1.0 0.108269975
H  H399  1  0.77780000  0.85900000  0.72980000  1.0 0.0892599348
H  H400  1  0.88520000  0.90620000  0.77460000  1.0 0.1029349678
H  H401  1  0.10450000  0.08770000  0.89920000  1.0 0.1601474771
H  H402  1  0.07490000  0.08160000  0.85010000  1.0 0.1601474771
H  H403  1  0.04640000  0.08220000  0.89340000  1.0 0.1695193519
H  H404  1  0.79660000  0.77670000  0.91570000  1.0 0.1695193519
H  H405  1  0.92010000  0.88600000  0.94270000  1.0 0.1695193519
H  H406  1  0.86200000  0.88060000  0.93660000  1.0 0.1695193519
H  H407  1  0.97340000  0.63260000  0.93680000  1.0 0.0800310768
H  H408  1  0.81800000  0.57000000  0.84140000  1.0 0.0703764426
H  H409  1  0.94760000  0.69340000  0.85380000  1.0 0.057823695
H  H410  1  0.89290000  0.60120000  0.82370000  1.0 0.108269975
H  H411  1  0.74520000  0.49060000  0.89260000  1.0 0.0703764426
H  H412  1  0.76420000  0.46040000  0.91460000  1.0 0.0322984798
H  H413  1  0.82350000  0.55760000  0.94150000  1.0 0.0892599348
H  H414  1  0.77190000  0.56680000  0.65790000  1.0 0.0703764426
H  H415  1  0.60190000  0.49010000  0.56600000  1.0 0.0510582145
H  H416  1  0.53440000  0.40810000  0.59990000  1.0 0.0800310768
H  H417  1  0.62230000  0.52660000  0.61810000  1.0 0.057823695
H  H418  1  0.72670000  0.57160000  0.54950000  1.0 0.0203668328
H  H419  1  0.83140000  0.66440000  0.59000000  1.0 0.0892599348
H  H420  1  0.76720000  0.56150000  0.56910000  1.0 0.0703764426
H  H421  1  0.00480000  0.66940000  0.94400000  1.0 0.0800310768
H  H422  1  0.86690000  0.63490000  0.85740000  1.0 0.0703764426
H  H423  1  0.99310000  0.74100000  0.85870000  1.0 0.0800310768
H  H424  1  0.90410000  0.62400000  0.83410000  1.0 0.0892599348
H  H425  1  0.81470000  0.58300000  0.91510000  1.0 0.057823695
H  H426  1  0.81280000  0.53320000  0.93560000  1.0 0.0892599348
H  H427  1  0.90240000  0.65070000  0.95970000  1.0 0.0400881556
H  H428  1  0.81490000  0.63200000  0.66250000  1.0 0.057823695
H  H429  1  0.57780000  0.39800000  0.55320000  1.0 0.057823695
H  H430  1  0.55950000  0.35880000  0.59830000  1.0 0.0322984798
H  H431  1  0.54650000  0.39970000  0.59380000  1.0 0.0510582145
H  H432  1  0.73460000  0.54420000  0.54420000  1.0 0.0703764426
H  H433  1  0.81640000  0.65130000  0.57850000  1.0 0.0703764426
H  H434  1  0.82640000  0.60770000  0.58330000  1.0 0.0703764426
H  H435  1  0.79740000  0.62930000  0.67150000  1.0 0.0703764426
H  H436  1  0.72990000  0.61580000  0.56210000  1.0 0.0203668328
H  H437  1  0.79590000  0.69320000  0.61130000  1.0 0.0800310768
H  H438  1  0.83050000  0.67940000  0.58830000  1.0 0.0703764426
H  H439  1  0.57930000  0.45630000  0.55860000  1.0 0.0400881556
H  H440  1  0.56200000  0.39490000  0.58170000  1.0 0.0322984798
H  H441  1  0.53560000  0.41750000  0.60490000  1.0 0.0800310768
H  H442  1  0.78720000  0.28850000  0.28130000  1.0 0.1029349678
H  H443  1  0.85940000  0.30870000  0.23090000  1.0 0.1029349678
H  H444  1  0.87720000  0.22420000  0.31520000  1.0 0.1029349678
H  H445  1  0.81030000  0.20880000  0.36690000  1.0 0.108269975
H  H446  1  0.54380000  0.09820000  0.31180000  1.0 0.115134746
H  H447  1  0.50460000  0.13140000  0.28080000  1.0 0.108269975
H  H448  1  0.79910000  0.44520000  0.34750000  1.0 0.1029349678
H  H449  1  0.83990000  0.41290000  0.37680000  1.0 0.108269975
H  H450  1  0.89220000  0.39210000  0.42450000  1.0 0.1695193519
H  H451  1  0.79180000  0.30410000  0.44950000  1.0 0.1695193519
H  H452  1  0.84060000  0.30090000  0.43890000  1.0 0.1695193519
H  H453  1  0.56600000  0.06730000  0.39910000  1.0 0.1695193519
H  H454  1  0.54860000  0.03120000  0.34800000  1.0 0.1601474771
H  H455  1  0.61530000  0.06450000  0.38900000  1.0 0.1601474771
H  H456  1  0.86920000  0.93870000  0.17210000  1.0 0.1029349678
H  H457  1  0.84900000  0.98770000  0.20990000  1.0 0.1029349678
H  H458  1  0.14450000  0.29590000  0.19280000  1.0 0.108269975
H  H459  1  0.16680000  0.24760000  0.15720000  1.0 0.108269975
H  H460  1  0.89740000  0.84120000  0.12880000  1.0 0.1029349678
H  H461  1  0.89230000  0.77630000  0.17400000  1.0 0.108269975
H  H462  1  0.12920000  0.04800000  0.27020000  1.0 0.0892599348
H  H463  1  0.13160000  0.11060000  0.22540000  1.0 0.1029349678
H  H464  1  0.18850000  0.20530000  0.10080000  1.0 0.1601474771
H  H465  1  0.23150000  0.22480000  0.14990000  1.0 0.1601474771
H  H466  1  0.18880000  0.15300000  0.10660000  1.0 0.1695193519
H  H467  1  0.86100000  0.88090000  0.08430000  1.0 0.1695193519
H  H468  1  0.94330000  0.97740000  0.05730000  1.0 0.1695193519
H  H469  1  0.94400000  0.92540000  0.06340000  1.0 0.1695193519
H  H470  1  0.69580000  0.03660000  0.06320000  1.0 0.0800310768
H  H471  1  0.72860000  0.97660000  0.15860000  1.0 0.0703764426
H  H472  1  0.83960000  0.09380000  0.14620000  1.0 0.057823695
H  H473  1  0.77750000  0.06920000  0.17630000  1.0 0.108269975
H  H474  1  0.59800000  0.85260000  0.10740000  1.0 0.0703764426
H  H475  1  0.54580000  0.84960000  0.08540000  1.0 0.0322984798
H  H476  1  0.61610000  0.88200000  0.05850000  1.0 0.0892599348
H  H477  1  0.90890000  0.11400000  0.34210000  1.0 0.0703764426
H  H478  1  0.92410000  0.03590000  0.43400000  1.0 0.0510582145
H  H479  1  0.80820000  0.93450000  0.40010000  1.0 0.0703764426
H  H480  1  0.90850000  0.00420000  0.38190000  1.0 0.057823695
H  H481  1  0.02210000  0.17720000  0.45050000  1.0 0.0203668328
H  H482  1  0.07440000  0.24140000  0.41000000  1.0 0.0892599348
H  H483  1  0.99240000  0.19810000  0.43090000  1.0 0.0703764426
H  H484  1  0.72540000  0.06080000  0.05600000  1.0 0.0800310768
H  H485  1  0.77750000  0.00950000  0.14260000  1.0 0.0703764426
H  H486  1  0.88230000  0.13440000  0.14130000  1.0 0.0800310768
H  H487  1  0.78990000  0.07000000  0.16590000  1.0 0.0892599348
H  H488  1  0.66790000  0.89960000  0.08490000  1.0 0.057823695
H  H489  1  0.59760000  0.87720000  0.06440000  1.0 0.0892599348
H  H490  1  0.69100000  0.94270000  0.04030000  1.0 0.0400881556
H  H491  1  0.96950000  0.15240000  0.33750000  1.0 0.057823695
H  H492  1  0.84480000  0.02460000  0.44680000  1.0 0.057823695
H  H493  1  0.76050000  0.96120000  0.40170000  1.0 0.0322984798
H  H494  1  0.80590000  0.95270000  0.40620000  1.0 0.0510582145
H  H495  1  0.00000000  0.19040000  0.45580000  1.0 0.0703764426
H  H496  1  0.07280000  0.23790000  0.42150000  1.0 0.0703764426
H  H497  1  0.02440000  0.24310000  0.41670000  1.0 0.0703764426
H  H498  1  0.95780000  0.12590000  0.32850000  1.0 0.0703764426
H  H499  1  0.05370000  0.16780000  0.43790000  1.0 0.0203668328
H  H500  1  0.08190000  0.18460000  0.38870000  1.0 0.0800310768
H  H501  1  0.09110000  0.24220000  0.41170000  1.0 0.0703764426
H  H502  1  0.89770000  0.02070000  0.44140000  1.0 0.0400881556
H  H503  1  0.81320000  0.98030000  0.41830000  1.0 0.0322984798
H  H504  1  0.81260000  0.93070000  0.39510000  1.0 0.0800310768
C  C1  1  0.75472000  0.08473000  0.54385000  1.0 -0.2207071183
C  C2  1  0.72467000  0.01340000  0.53007000  1.0 -0.1303774602
C  C3  1  0.71368000  0.97197000  0.56125000  1.0 -0.1206154874
C  C4  1  0.73464000  0.00189000  0.60693000  1.0 -0.020341928
C  C5  1  0.76282000  0.07098000  0.62140000  1.0 -0.1206154874
C  C6  1  0.77226000  0.11116000  0.59062000  1.0 -0.0807376707
C  C7  1  0.72497000  0.95882000  0.64119000  1.0 0.607079141
C  C8  1  0.74829000  0.09630000  0.44439000  1.0 -0.2285092509
C  C9  1  0.83064000  0.14974000  0.42718000  1.0 -0.1508086943
C  C10  1  0.81133000  0.11207000  0.38380000  1.0 -0.2579388524
C  C11  1  0.70855000  0.01999000  0.35574000  1.0 -0.0316948596
C  C12  1  0.62576000  0.96574000  0.37250000  1.0 -0.1508086943
C  C13  1  0.64525000  0.00291000  0.41616000  1.0 -0.0807376707
C  C14  1  0.68653000  0.97909000  0.30822000  1.0 0.5027106331
C  C15  1  0.68370000  0.11147000  0.50837000  1.0 -0.8058768584
C  C16  1  0.92035000  0.29795000  0.51950000  1.0 -0.7904746084
C  C17  1  0.91198000  0.07273000  0.93291000  1.0 -0.2285092509
C  C18  1  0.98800000  0.16465000  0.91425000  1.0 -0.0973645624
C  C19  1  0.95951000  0.15828000  0.87279000  1.0 -0.1598588611
C  C20  1  0.85310000  0.05784000  0.84800000  1.0 -0.0096557477
C  C21  1  0.77683000  0.96579000  0.86542000  1.0 -0.1206154874
C  C22  1  0.80609000  0.97358000  0.90747000  1.0 -0.0807376707
C  C23  1  0.81954000  0.04811000  0.80245000  1.0 0.5585543515
C  C24  1  0.01292000  0.18381000  0.03373000  1.0 -0.2062329351
C  C25  1  0.11468000  0.27198000  0.06166000  1.0 -0.0807376707
C  C26  1  0.15380000  0.33813000  0.09733000  1.0 -0.1508086943
C  C27  1  0.09237000  0.31842000  0.10599000  1.0 -0.0096557477
C  C28  1  0.99447000  0.23539000  0.07686000  1.0 -0.2207071183
C  C29  1  0.95666000  0.17046000  0.04112000  1.0 -0.1206154874
C  C30  1  0.13229000  0.38594000  0.14703000  1.0 0.5135078133
C  C31  1  0.82746000  0.94853000  0.00579000  1.0 -0.8042205571
C  C32  1  0.05422000  0.13204000  0.98846000  1.0 -0.8058768584
C  C33  1  0.93120000  0.02200000  0.67200000  1.0 0.2106884011
C  C34  1  0.96180000  0.11290000  0.72990000  1.0 -0.1206154874
C  C35  1  0.11300000  0.20160000  0.72160000  1.0 -0.1925723067
C  C36  1  0.94000000  0.28950000  0.81930000  1.0 0.1499181522
C  C37  1  0.99250000  0.39510000  0.87960000  1.0 -0.1206154874
C  C38  1  0.81740000  0.24040000  0.82660000  1.0 -0.0906414947
C  C39  1  0.90990000  0.99420000  0.67690000  1.0 0.2509948911
C  C40  1  0.93590000  0.07630000  0.74020000  1.0 -0.1065004457
C  C41  1  0.07060000  0.14020000  0.74040000  1.0 -0.1598588611
C  C42  1  0.91370000  0.26170000  0.82200000  1.0 0.1291124059
C  C43  1  0.99930000  0.41300000  0.82330000  1.0 -0.1598588611
C  C44  1  0.80000000  0.22430000  0.81050000  1.0 -0.1662926822
C  C45  1  0.93130000  0.27580000  0.83490000  1.0 0.1392563937
C  C46  1  0.82300000  0.23100000  0.87320000  1.0 -0.2707895449
C  C47  1  0.00360000  0.41600000  0.86220000  1.0 -0.1065004457
C  C48  1  0.54088000  0.21087000  0.45615000  1.0 -0.2207071183
C  C49  1  0.48333000  0.19460000  0.46993000  1.0 -0.1303774602
C  C50  1  0.41072000  0.15243000  0.43875000  1.0 -0.1206154874
C  C51  1  0.39496000  0.12771000  0.39307000  1.0 -0.020341928
C  C52  1  0.44958000  0.14142000  0.37860000  1.0 -0.1206154874
C  C53  1  0.52054000  0.18164000  0.40938000  1.0 -0.0807376707
C  C54  1  0.31763000  0.08378000  0.35881000  1.0 0.607079141
C  C55  1  0.65191000  0.30390000  0.55561000  1.0 -0.2285092509
C  C56  1  0.72256000  0.40346000  0.57282000  1.0 -0.1508086943
C  C57  1  0.72827000  0.42753000  0.61620000  1.0 -0.2579388524
C  C58  1  0.66425000  0.35281000  0.64426000  1.0 -0.0316948596
C  C59  1  0.59324000  0.25326000  0.62750000  1.0 -0.1508086943
C  C60  1  0.58675000  0.22909000  0.58384000  1.0 -0.0807376707
C  C61  1  0.67087000  0.37831000  0.69178000  1.0 0.5027106331
C  C62  1  0.60310000  0.17533000  0.49163000  1.0 -0.8058768584
C  C63  1  0.77845000  0.40085000  0.48050000  1.0 -0.7904746084
C  C64  1  0.13982000  0.97907000  0.06709000  1.0 -0.2285092509
C  C65  1  0.25040000  0.07375000  0.08575000  1.0 -0.0973645624
C  C66  1  0.28549000  0.08672000  0.12721000  1.0 -0.1598588611
C  C67  1  0.20984000  0.00510000  0.15200000  1.0 -0.0096557477
C  C68  1  0.10037000  0.91141000  0.13458000  1.0 -0.1206154874
C  C69  1  0.06611000  0.89862000  0.09253000  1.0 -0.0807376707
C  C70  1  0.24566000  0.01709000  0.19755000  1.0 0.5585543515
C  C71  1  0.15008000  0.97919000  0.96627000  1.0 -0.2062329351
C  C72  1  0.21032000  0.05302000  0.93834000  1.0 -0.0807376707
C  C73  1  0.24080000  0.05647000  0.90267000  1.0 -0.1508086943
C  C74  1  0.21243000  0.98638000  0.89401000  1.0 -0.0096557477
C  C75  1  0.15853000  0.91761000  0.92314000  1.0 -0.2207071183
C  C76  1  0.12934000  0.91554000  0.95888000  1.0 -0.1206154874
C  C77  1  0.23891000  0.98526000  0.85297000  1.0 0.5135078133
C  C78  1  0.94274000  0.82167000  0.99421000  1.0 -0.8042205571
C  C79  1  0.14358000  0.06576000  0.01154000  1.0 -0.8058768584
C  C80  1  0.35000000  0.25920000  0.32800000  1.0 0.2106884011
C  C81  1  0.38300000  0.23190000  0.27010000  1.0 -0.1206154874
C  C82  1  0.48000000  0.39140000  0.27840000  1.0 -0.1925723067
C  C83  1  0.47020000  0.12070000  0.18070000  1.0 0.1499181522
C  C84  1  0.51550000  0.11290000  0.12040000  1.0 -0.1206154874
C  C85  1  0.41380000  0.99080000  0.17340000  1.0 -0.0906414947
C  C86  1  0.31730000  0.23300000  0.32310000  1.0 0.2509948911
C  C87  1  0.33610000  0.19570000  0.25980000  1.0 -0.1065004457
C  C88  1  0.39980000  0.33020000  0.25960000  1.0 -0.1598588611
C  C89  1  0.43970000  0.09170000  0.17800000  1.0 0.1291124059
C  C90  1  0.58970000  0.17600000  0.17670000  1.0 -0.1598588611
C  C91  1  0.41380000  0.98950000  0.18950000  1.0 -0.1662926822
C  C92  1  0.44090000  0.09640000  0.16510000  1.0 0.1392563937
C  C93  1  0.35780000  0.94980000  0.12680000  1.0 -0.2707895449
C  C94  1  0.55380000  0.14140000  0.13780000  1.0 -0.1065004457
C  C95  1  0.33473000  0.29088000  0.83001000  1.0 -0.2207071183
C  C96  1  0.26340000  0.23333000  0.78873000  1.0 -0.1303774602
C  C97  1  0.22197000  0.16072000  0.75829000  1.0 -0.1206154874
C  C98  1  0.25189000  0.14496000  0.76725000  1.0 -0.020341928
C  C99  1  0.32098000  0.19958000  0.80816000  1.0 -0.1206154874
C  C100  1  0.36116000  0.27054000  0.83890000  1.0 -0.0807376707
C  C101  1  0.20882000  0.06763000  0.73385000  1.0 0.607079141
C  C102  1  0.34630000  0.40191000  0.84801000  1.0 -0.2285092509
C  C103  1  0.39974000  0.47256000  0.81910000  1.0 -0.1508086943
C  C104  1  0.36207000  0.47827000  0.80074000  1.0 -0.2579388524
C  C105  1  0.26999000  0.41425000  0.81144000  1.0 -0.0316948596
C  C106  1  0.21574000  0.34324000  0.83998000  1.0 -0.1508086943
C  C107  1  0.25291000  0.33675000  0.85766000  1.0 -0.0807376707
C  C108  1  0.22909000  0.42087000  0.79256000  1.0 0.5027106331
C  C109  1  0.36147000  0.35310000  0.92777000  1.0 -0.8058768584
C  C110  1  0.54795000  0.52845000  0.87760000  1.0 -0.7904746084
C  C111  1  0.32273000  0.88982000  0.66075000  1.0 -0.2285092509
C  C112  1  0.41465000  0.00040000  0.67665000  1.0 -0.0973645624
C  C113  1  0.40828000  0.03549000  0.69877000  1.0 -0.1598588611
C  C114  1  0.30784000  0.95984000  0.70474000  1.0 -0.0096557477
C  C115  1  0.21579000  0.85037000  0.68896000  1.0 -0.1206154874
C  C116  1  0.22358000  0.81611000  0.66749000  1.0 -0.0807376707
C  C117  1  0.29811000  0.99566000  0.72857000  1.0 0.5585543515
C  C118  1  0.43381000  0.90008000  0.67089000  1.0 -0.2062329351
C  C119  1  0.52198000  0.96032000  0.65730000  1.0 -0.0807376707
C  C120  1  0.58813000  0.99080000  0.68433000  1.0 -0.1508086943
C  C121  1  0.56842000  0.96243000  0.72605000  1.0 -0.0096557477
C  C122  1  0.48539000  0.90853000  0.74092000  1.0 -0.2207071183
C  C123  1  0.42046000  0.87934000  0.71380000  1.0 -0.1206154874
C  C124  1  0.63594000  0.98891000  0.75365000  1.0 0.5135078133
C  C125  1  0.19853000  0.69274000  0.62107000  1.0 -0.8042205571
C  C126  1  0.38204000  0.89358000  0.57782000  1.0 -0.8058768584
C  C127  1  0.27200000  0.10000000  0.59080000  1.0 0.2106884011
C  C128  1  0.36290000  0.13300000  0.65110000  1.0 -0.1206154874
C  C129  1  0.45160000  0.23000000  0.58860000  1.0 -0.1925723067
C  C130  1  0.53950000  0.22020000  0.84950000  1.0 0.1499181522
C  C131  1  0.64510000  0.26550000  0.90260000  1.0 -0.1206154874
C  C132  1  0.49040000  0.16380000  0.92300000  1.0 -0.0906414947
C  C133  1  0.24420000  0.06730000  0.58430000  1.0 0.2509948911
C  C134  1  0.32630000  0.08610000  0.64040000  1.0 -0.1065004457
C  C135  1  0.39020000  0.14980000  0.56960000  1.0 -0.1598588611
C  C136  1  0.51170000  0.18970000  0.84800000  1.0 0.1291124059
C  C137  1  0.66300000  0.33970000  0.91370000  1.0 -0.1598588611
C  C138  1  0.47430000  0.16380000  0.92430000  1.0 -0.1662926822
C  C139  1  0.52580000  0.19090000  0.84450000  1.0 0.1392563937
C  C140  1  0.48100000  0.10780000  0.90800000  1.0 -0.2707895449
C  C141  1  0.66600000  0.30380000  0.91240000  1.0 -0.1065004457
C  C142  1  0.46087000  0.50472000  0.16999000  1.0 -0.2207071183
C  C143  1  0.44460000  0.47467000  0.21127000  1.0 -0.1303774602
C  C144  1  0.40243000  0.46368000  0.24171000  1.0 -0.1206154874
C  C145  1  0.37771000  0.48464000  0.23275000  1.0 -0.020341928
C  C146  1  0.39142000  0.51282000  0.19184000  1.0 -0.1206154874
C  C147  1  0.43164000  0.52226000  0.16110000  1.0 -0.0807376707
C  C148  1  0.33378000  0.47497000  0.26615000  1.0 0.607079141
C  C149  1  0.55390000  0.49829000  0.15199000  1.0 -0.2285092509
C  C150  1  0.65346000  0.58064000  0.18090000  1.0 -0.1508086943
C  C151  1  0.67753000  0.56133000  0.19926000  1.0 -0.2579388524
C  C152  1  0.60281000  0.45855000  0.18856000  1.0 -0.0316948596
C  C153  1  0.50326000  0.37576000  0.16002000  1.0 -0.1508086943
C  C154  1  0.47909000  0.39525000  0.14234000  1.0 -0.0807376707
C  C155  1  0.62831000  0.43653000  0.20744000  1.0 0.5027106331
C  C156  1  0.42533000  0.43370000  0.07223000  1.0 -0.8058768584
C  C157  1  0.65085000  0.67035000  0.12240000  1.0 -0.7904746084
C  C158  1  0.22907000  0.66198000  0.33925000  1.0 -0.2285092509
C  C159  1  0.32375000  0.73800000  0.32335000  1.0 -0.0973645624
C  C160  1  0.33672000  0.70951000  0.30123000  1.0 -0.1598588611
C  C161  1  0.25510000  0.60310000  0.29526000  1.0 -0.0096557477
C  C162  1  0.16141000  0.52683000  0.31104000  1.0 -0.1206154874
C  C163  1  0.14862000  0.55609000  0.33251000  1.0 -0.0807376707
C  C164  1  0.26709000  0.56954000  0.27143000  1.0 0.5585543515
C  C165  1  0.22919000  0.76292000  0.32911000  1.0 -0.2062329351
C  C166  1  0.30302000  0.86468000  0.34270000  1.0 -0.0807376707
C  C167  1  0.30647000  0.90380000  0.31567000  1.0 -0.1508086943
C  C168  1  0.23638000  0.84237000  0.27395000  1.0 -0.004561154
C  C169  1  0.16761000  0.74447000  0.25908000  1.0 -0.2207071183
C  C170  1  0.16554000  0.70666000  0.28620000  1.0 -0.1206154874
C  C171  1  0.23526000  0.88229000  0.24635000  1.0 0.5135078133
C  C172  1  0.07167000  0.57746000  0.37893000  1.0 -0.8042205571
C  C173  1  0.31576000  0.80422000  0.42218000  1.0 -0.8058768584
C  C174  1  0.50920000  0.68120000  0.40920000  1.0 0.2106884011
C  C175  1  0.48190000  0.71180000  0.34890000  1.0 -0.1206154874
C  C176  1  0.64140000  0.86300000  0.41140000  1.0 -0.1925723067
C  C177  1  0.37070000  0.69000000  0.15050000  1.0 0.1499181522
C  C178  1  0.36290000  0.74250000  0.09740000  1.0 -0.1206154874
C  C179  1  0.24080000  0.56740000  0.07700000  1.0 -0.0906414947
C  C180  1  0.48300000  0.65990000  0.41570000  1.0 0.2509948911
C  C181  1  0.44570000  0.68590000  0.35960000  1.0 -0.1065004457
C  C182  1  0.58020000  0.82060000  0.43040000  1.0 -0.1598588611
C  C183  1  0.34170000  0.66370000  0.15200000  1.0 0.1291124059
C  C184  1  0.42600000  0.74930000  0.08630000  1.0 -0.1598588611
C  C185  1  0.23950000  0.55000000  0.07570000  1.0 -0.1662926822
C  C186  1  0.34640000  0.68130000  0.15550000  1.0 0.1392563937
C  C187  1  0.19980000  0.57300000  0.09200000  1.0 -0.2707895449
C  C188  1  0.39140000  0.75360000  0.08760000  1.0 -0.1065004457
C  C189  1  0.49528000  0.66527000  0.95615000  1.0 -0.2207071183
C  C190  1  0.52533000  0.73660000  0.96993000  1.0 -0.1303774602
C  C191  1  0.53632000  0.77803000  0.93875000  1.0 -0.1206154874
C  C192  1  0.51536000  0.74811000  0.89307000  1.0 -0.020341928
C  C193  1  0.48718000  0.67902000  0.87860000  1.0 -0.1206154874
C  C194  1  0.47774000  0.63884000  0.90938000  1.0 -0.0807376707
C  C195  1  0.52503000  0.79118000  0.85881000  1.0 0.607079141
C  C196  1  0.50171000  0.65370000  0.05561000  1.0 -0.2285092509
C  C197  1  0.41936000  0.60026000  0.07282000  1.0 -0.1508086943
C  C198  1  0.43867000  0.63793000  0.11620000  1.0 -0.2579388524
C  C199  1  0.54145000  0.73001000  0.14426000  1.0 -0.0316948596
C  C200  1  0.62424000  0.78426000  0.12750000  1.0 -0.1508086943
C  C201  1  0.60475000  0.74709000  0.08384000  1.0 -0.0807376707
C  C202  1  0.56347000  0.77091000  0.19178000  1.0 0.5027106331
C  C203  1  0.56630000  0.63853000  0.99163000  1.0 -0.8058768584
C  C204  1  0.32965000  0.45205000  0.98050000  1.0 -0.7904746084
C  C205  1  0.33802000  0.67727000  0.56709000  1.0 -0.2285092509
C  C206  1  0.26200000  0.58535000  0.58575000  1.0 -0.0973645624
C  C207  1  0.29049000  0.59172000  0.62721000  1.0 -0.1598588611
C  C208  1  0.39690000  0.69216000  0.65200000  1.0 -0.0096557477
C  C209  1  0.47317000  0.78421000  0.63458000  1.0 -0.1206154874
C  C210  1  0.44391000  0.77642000  0.59253000  1.0 -0.0807376707
C  C211  1  0.43046000  0.70189000  0.69755000  1.0 0.5585543515
C  C212  1  0.23708000  0.56619000  0.46627000  1.0 -0.2062329351
C  C213  1  0.13532000  0.47802000  0.43834000  1.0 -0.0807376707
C  C214  1  0.09620000  0.41187000  0.40267000  1.0 -0.1508086943
C  C215  1  0.15763000  0.43158000  0.39401000  1.0 -0.0096557477
C  C216  1  0.25553000  0.51461000  0.42314000  1.0 -0.2207071183
C  C217  1  0.29334000  0.57954000  0.45888000  1.0 -0.1206154874
C  C218  1  0.11771000  0.36406000  0.35297000  1.0 0.5135078133
C  C219  1  0.42254000  0.80147000  0.49421000  1.0 -0.8042205571
C  C220  1  0.19578000  0.61796000  0.51154000  1.0 -0.8058768584
C  C221  1  0.31880000  0.72800000  0.82800000  1.0 0.2106884011
C  C222  1  0.28820000  0.63710000  0.77010000  1.0 -0.1206154874
C  C223  1  0.13700000  0.54840000  0.77840000  1.0 -0.1925723067
C  C224  1  0.31000000  0.46050000  0.68070000  1.0 0.1499181522
C  C225  1  0.25750000  0.35490000  0.62040000  1.0 -0.1206154874
C  C226  1  0.43260000  0.50960000  0.67340000  1.0 -0.0906414947
C  C227  1  0.34010000  0.75580000  0.82310000  1.0 0.2509948911
C  C228  1  0.31410000  0.67370000  0.75980000  1.0 -0.1065004457
C  C229  1  0.17940000  0.60980000  0.75960000  1.0 -0.1598588611
C  C230  1  0.33630000  0.48830000  0.67800000  1.0 0.1291124059
C  C231  1  0.25070000  0.33700000  0.67670000  1.0 -0.1598588611
C  C232  1  0.45000000  0.52570000  0.68950000  1.0 -0.1662926822
C  C233  1  0.31870000  0.47420000  0.66510000  1.0 0.1392563937
C  C234  1  0.42700000  0.51900000  0.62680000  1.0 -0.2707895449
C  C235  1  0.24640000  0.33400000  0.63780000  1.0 -0.1065004457
C  C236  1  0.70912000  0.53913000  0.04385000  1.0 -0.2207071183
C  C237  1  0.76667000  0.55540000  0.03007000  1.0 -0.1303774602
C  C238  1  0.83928000  0.59757000  0.06125000  1.0 -0.1206154874
C  C239  1  0.85504000  0.62229000  0.10693000  1.0 -0.020341928
C  C240  1  0.80042000  0.60858000  0.12140000  1.0 -0.1206154874
C  C241  1  0.72946000  0.56836000  0.09062000  1.0 -0.0807376707
C  C242  1  0.93237000  0.66622000  0.14119000  1.0 0.607079141
C  C243  1  0.59809000  0.44610000  0.94439000  1.0 -0.2285092509
C  C244  1  0.52744000  0.34654000  0.92718000  1.0 -0.1508086943
C  C245  1  0.52173000  0.32247000  0.88380000  1.0 -0.2579388524
C  C246  1  0.58575000  0.39719000  0.85574000  1.0 -0.0316948596
C  C247  1  0.65676000  0.49674000  0.87250000  1.0 -0.1508086943
C  C248  1  0.66325000  0.52091000  0.91616000  1.0 -0.0807376707
C  C249  1  0.57913000  0.37169000  0.80822000  1.0 0.5027106331
C  C250  1  0.64690000  0.57467000  0.00837000  1.0 -0.8058768584
C  C251  1  0.47155000  0.34915000  0.01950000  1.0 -0.7904746084
C  C252  1  0.11018000  0.77093000  0.43291000  1.0 -0.2285092509
C  C253  1  0.99960000  0.67625000  0.41425000  1.0 -0.0973645624
C  C254  1  0.96451000  0.66328000  0.37279000  1.0 -0.1598588611
C  C255  1  0.04016000  0.74490000  0.34800000  1.0 -0.0096557477
C  C256  1  0.14963000  0.83859000  0.36542000  1.0 -0.1206154874
C  C257  1  0.18389000  0.85138000  0.40747000  1.0 -0.0807376707
C  C258  1  0.00434000  0.73291000  0.30245000  1.0 0.5585543515
C  C259  1  0.09992000  0.77081000  0.53373000  1.0 -0.2062329351
C  C260  1  0.03968000  0.69698000  0.56166000  1.0 -0.0807376707
C  C261  1  0.00920000  0.69353000  0.59733000  1.0 -0.1508086943
C  C262  1  0.03757000  0.76362000  0.60599000  1.0 -0.0096557477
C  C263  1  0.09147000  0.83239000  0.57686000  1.0 -0.2207071183
C  C264  1  0.12066000  0.83446000  0.54112000  1.0 -0.1206154874
C  C265  1  0.01109000  0.76474000  0.64703000  1.0 0.5135078133
C  C266  1  0.30726000  0.92833000  0.50579000  1.0 -0.8042205571
C  C267  1  0.10642000  0.68424000  0.48846000  1.0 -0.8058768584
C  C268  1  0.90000000  0.49080000  0.17200000  1.0 0.2106884011
C  C269  1  0.86700000  0.51810000  0.22990000  1.0 -0.1206154874
C  C270  1  0.77000000  0.35860000  0.22160000  1.0 -0.1925723067
C  C271  1  0.77980000  0.62930000  0.31930000  1.0 0.1499181522
C  C272  1  0.73450000  0.63710000  0.37960000  1.0 -0.1206154874
C  C273  1  0.83620000  0.75920000  0.32660000  1.0 -0.0906414947
C  C274  1  0.93270000  0.51700000  0.17690000  1.0 0.2509948911
C  C275  1  0.91390000  0.55430000  0.24020000  1.0 -0.1065004457
C  C276  1  0.85020000  0.41980000  0.24040000  1.0 -0.1598588611
C  C277  1  0.81030000  0.65830000  0.32200000  1.0 0.1291124059
C  C278  1  0.66030000  0.57400000  0.32330000  1.0 -0.1598588611
C  C279  1  0.83620000  0.76050000  0.31050000  1.0 -0.1662926822
C  C280  1  0.80910000  0.65360000  0.33490000  1.0 0.1392563937
C  C281  1  0.89220000  0.80020000  0.37320000  1.0 -0.2707895449
C  C282  1  0.69620000  0.60860000  0.36220000  1.0 -0.1065004457
C  C283  1  0.91527000  0.45912000  0.66999000  1.0 -0.2207071183
C  C284  1  0.98660000  0.51667000  0.71127000  1.0 -0.1303774602
C  C285  1  0.02803000  0.58928000  0.74171000  1.0 -0.1206154874
C  C286  1  0.99811000  0.60504000  0.73275000  1.0 -0.020341928
C  C287  1  0.92902000  0.55042000  0.69184000  1.0 -0.1206154874
C  C288  1  0.88884000  0.47946000  0.66110000  1.0 -0.0807376707
C  C289  1  0.04118000  0.68237000  0.76615000  1.0 0.607079141
C  C290  1  0.90370000  0.34809000  0.65199000  1.0 -0.2285092509
C  C291  1  0.85026000  0.27744000  0.68090000  1.0 -0.1508086943
C  C292  1  0.88793000  0.27173000  0.69926000  1.0 -0.2579388524
C  C293  1  0.98001000  0.33575000  0.68856000  1.0 -0.0316948596
C  C294  1  0.03426000  0.40676000  0.66002000  1.0 -0.1508086943
C  C295  1  0.99709000  0.41325000  0.64234000  1.0 -0.0807376707
C  C296  1  0.02091000  0.32913000  0.70744000  1.0 0.5027106331
C  C297  1  0.88853000  0.39690000  0.57223000  1.0 -0.8058768584
C  C298  1  0.70205000  0.22155000  0.62240000  1.0 -0.7904746084
C  C299  1  0.92727000  0.86018000  0.83925000  1.0 -0.2285092509
C  C300  1  0.83535000  0.74960000  0.82335000  1.0 -0.0973645624
C  C301  1  0.84172000  0.71451000  0.80123000  1.0 -0.1598588611
C  C302  1  0.94216000  0.79016000  0.79526000  1.0 -0.0096557477
C  C303  1  0.03421000  0.89963000  0.81104000  1.0 -0.1206154874
C  C304  1  0.02642000  0.93389000  0.83251000  1.0 -0.0807376707
C  C305  1  0.95189000  0.75434000  0.77143000  1.0 0.5585543515
C  C306  1  0.81619000  0.84992000  0.82911000  1.0 -0.2062329351
C  C307  1  0.72802000  0.78968000  0.84270000  1.0 -0.0807376707
C  C308  1  0.66187000  0.75920000  0.81567000  1.0 -0.1508086943
C  C309  1  0.68158000  0.78757000  0.77395000  1.0 -0.0096557477
C  C310  1  0.76461000  0.84147000  0.75908000  1.0 -0.2207071183
C  C311  1  0.82954000  0.87066000  0.78620000  1.0 -0.1206154874
C  C312  1  0.61406000  0.76109000  0.74635000  1.0 0.5135078133
C  C313  1  0.05147000  0.05726000  0.87893000  1.0 -0.8042205571
C  C314  1  0.86796000  0.85642000  0.92218000  1.0 -0.8058768584
C  C315  1  0.97800000  0.65000000  0.90920000  1.0 0.2106884011
C  C316  1  0.88710000  0.61700000  0.84890000  1.0 -0.1206154874
C  C317  1  0.79840000  0.52000000  0.91140000  1.0 -0.1925723067
C  C318  1  0.71050000  0.52980000  0.65050000  1.0 0.1499181522
C  C319  1  0.60490000  0.48450000  0.59740000  1.0 -0.1206154874
C  C320  1  0.75960000  0.58620000  0.57700000  1.0 -0.0906414947
C  C321  1  0.00580000  0.68270000  0.91570000  1.0 0.2509948911
C  C322  1  0.92370000  0.66390000  0.85960000  1.0 -0.1065004457
C  C323  1  0.85980000  0.60020000  0.93040000  1.0 -0.1598588611
C  C324  1  0.73830000  0.56030000  0.65200000  1.0 0.1291124059
C  C325  1  0.58700000  0.41030000  0.58630000  1.0 -0.1598588611
C  C326  1  0.77570000  0.58620000  0.57570000  1.0 -0.1662926822
C  C327  1  0.72420000  0.55910000  0.65550000  1.0 0.1392563937
C  C328  1  0.76900000  0.64220000  0.59200000  1.0 -0.2707895449
C  C329  1  0.58400000  0.44620000  0.58760000  1.0 -0.1065004457
C  C330  1  0.78913000  0.24528000  0.33001000  1.0 -0.2207071183
C  C331  1  0.80540000  0.27533000  0.28873000  1.0 -0.1303774602
C  C332  1  0.84757000  0.28632000  0.25829000  1.0 -0.1206154874
C  C333  1  0.87229000  0.26536000  0.26725000  1.0 -0.020341928
C  C334  1  0.85858000  0.23718000  0.30816000  1.0 -0.1206154874
C  C335  1  0.81836000  0.22774000  0.33890000  1.0 -0.0807376707
C  C336  1  0.91622000  0.27503000  0.23385000  1.0 0.607079141
C  C337  1  0.69610000  0.25171000  0.34801000  1.0 -0.2285092509
C  C338  1  0.59654000  0.16936000  0.31910000  1.0 -0.1508086943
C  C339  1  0.57247000  0.18867000  0.30074000  1.0 -0.2579388524
C  C340  1  0.64719000  0.29145000  0.31144000  1.0 -0.0316948596
C  C341  1  0.74674000  0.37424000  0.33998000  1.0 -0.1508086943
C  C342  1  0.77091000  0.35475000  0.35766000  1.0 -0.0807376707
C  C343  1  0.62169000  0.31347000  0.29256000  1.0 0.5027106331
C  C344  1  0.82467000  0.31630000  0.42777000  1.0 -0.8058768584
C  C345  1  0.59915000  0.07965000  0.37760000  1.0 -0.7904746084
C  C346  1  0.02093000  0.08802000  0.16075000  1.0 -0.2285092509
C  C347  1  0.92625000  0.01200000  0.17665000  1.0 -0.0973645624
C  C348  1  0.91328000  0.04049000  0.19877000  1.0 -0.1598588611
C  C349  1  0.99490000  0.14690000  0.20474000  1.0 -0.0096557477
C  C350  1  0.08859000  0.22317000  0.18896000  1.0 -0.1206154874
C  C351  1  0.10138000  0.19391000  0.16749000  1.0 -0.0807376707
C  C352  1  0.98291000  0.18046000  0.22857000  1.0 0.5585543515
C  C353  1  0.02081000  0.98708000  0.17089000  1.0 -0.2062329351
C  C354  1  0.94698000  0.88532000  0.15730000  1.0 -0.0807376707
C  C355  1  0.94353000  0.84620000  0.18433000  1.0 -0.1508086943
C  C356  1  0.01362000  0.90763000  0.22605000  1.0 -0.0096557477
C  C357  1  0.08239000  0.00553000  0.24092000  1.0 -0.2207071183
C  C358  1  0.08446000  0.04334000  0.21380000  1.0 -0.1206154874
C  C359  1  0.01474000  0.86771000  0.25365000  1.0 0.5135078133
C  C360  1  0.17833000  0.17254000  0.12107000  1.0 -0.8042205571
C  C361  1  0.93424000  0.94578000  0.07782000  1.0 -0.8058768584
C  C362  1  0.74080000  0.06880000  0.09080000  1.0 0.2106884011
C  C363  1  0.76810000  0.03820000  0.15110000  1.0 -0.1206154874
C  C364  1  0.60860000  0.88700000  0.08860000  1.0 -0.1925723067
C  C365  1  0.87930000  0.06000000  0.34950000  1.0 0.1499181522
C  C366  1  0.88710000  0.00750000  0.40260000  1.0 -0.1206154874
C  C367  1  0.00920000  0.18260000  0.42300000  1.0 -0.0906414947
C  C368  1  0.76700000  0.09010000  0.08430000  1.0 0.2509948911
C  C369  1  0.80430000  0.06410000  0.14040000  1.0 -0.1065004457
C  C370  1  0.66980000  0.92940000  0.06960000  1.0 -0.1598588611
C  C371  1  0.90830000  0.08630000  0.34800000  1.0 0.1291124059
C  C372  1  0.82400000  0.00070000  0.41370000  1.0 -0.1598588611
C  C373  1  0.01050000  0.20000000  0.42430000  1.0 -0.1662926822
C  C374  1  0.90360000  0.06870000  0.34450000  1.0 0.1392563937
C  C375  1  0.05020000  0.17700000  0.40800000  1.0 -0.2707895449
C  C376  1  0.85860000  0.99640000  0.41240000  1.0 -0.1065004457
N  N1  1  0.99810000  0.10862000  0.70572000  1.0 0.0322984798
N  N2  1  0.91930000  0.30940000  0.83770000  1.0 0.1601474771
N  N3  1  0.96920000  0.06720000  0.71740000  1.0 0.1029349678
N  N4  1  0.90610000  0.29950000  0.81920000  1.0 0.0703764426
N  N5  1  0.91860000  0.30510000  0.85490000  1.0 0.1695193519
N  N6  1  0.40290000  0.29238000  0.29428000  1.0 0.0322984798
N  N7  1  0.47170000  0.08160000  0.16230000  1.0 0.1601474771
N  N8  1  0.34980000  0.25180000  0.28260000  1.0 0.1029349678
N  N9  1  0.48030000  0.08690000  0.18080000  1.0 0.0703764426
N  N10  1  0.45020000  0.06370000  0.14510000  1.0 0.1695193519
N  N11  1  0.35862000  0.15290000  0.61052000  1.0 0.0322984798
N  N12  1  0.55940000  0.22170000  0.89010000  1.0 0.1601474771
N  N13  1  0.31720000  0.09980000  0.59800000  1.0 0.1029349678
N  N14  1  0.54950000  0.23030000  0.89340000  1.0 0.0703764426
N  N15  1  0.55510000  0.20020000  0.88650000  1.0 0.1695193519
N  N16  1  0.54238000  0.74810000  0.38948000  1.0 0.0322984798
N  N17  1  0.33160000  0.66930000  0.10990000  1.0 0.1601474771
N  N18  1  0.50180000  0.71920000  0.40200000  1.0 0.1029349678
N  N19  1  0.33690000  0.65610000  0.10660000  1.0 0.0703764426
N  N20  1  0.31370000  0.66860000  0.11350000  1.0 0.1695193519
N  N21  1  0.25190000  0.64138000  0.79428000  1.0 0.0322984798
N  N22  1  0.33070000  0.44060000  0.66230000  1.0 0.1601474771
N  N23  1  0.28080000  0.68280000  0.78260000  1.0 0.1029349678
N  N24  1  0.34390000  0.45050000  0.68080000  1.0 0.0800310768
N  N25  1  0.33140000  0.44490000  0.64510000  1.0 0.1695193519
N  N26  1  0.84710000  0.45762000  0.20572000  1.0 0.0322984798
N  N27  1  0.77830000  0.66840000  0.33770000  1.0 0.1601474771
N  N28  1  0.90020000  0.49820000  0.21740000  1.0 0.1029349678
N  N29  1  0.76970000  0.66310000  0.31920000  1.0 0.0703764426
N  N30  1  0.79980000  0.68630000  0.35490000  1.0 0.1695193519
N  N31  1  0.89138000  0.59710000  0.88948000  1.0 0.0322984798
N  N32  1  0.69060000  0.52830000  0.60990000  1.0 0.1601474771
N  N33  1  0.93280000  0.65020000  0.90200000  1.0 0.1029349678
N  N34  1  0.70050000  0.51970000  0.60660000  1.0 0.0703764426
N  N35  1  0.69490000  0.54980000  0.61350000  1.0 0.1695193519
N  N36  1  0.70762000  0.00190000  0.11052000  1.0 0.0322984798
N  N37  1  0.91840000  0.08070000  0.39010000  1.0 0.1601474771
N  N38  1  0.74820000  0.03080000  0.09800000  1.0 0.1029349678
N  N39  1  0.91310000  0.09390000  0.39340000  1.0 0.0703764426
N  N40  1  0.93630000  0.08140000  0.38650000  1.0 0.1695193519
O  O1  1  0.69086000  0.88996000  0.62602000  1.0 -0.6612361817
O  O2  1  0.74958000  0.99260000  0.68274000  1.0 -0.7407860754
O  O3  1  0.76635000  0.03736000  0.29259000  1.0 -0.6844822018
O  O4  1  0.58947000  0.89093000  0.28620000  1.0 -0.6187478601
O  O5  1  0.88930000  0.13272000  0.78722000  1.0 -0.7058701514
O  O6  1  0.72199000  0.95470000  0.78155000  1.0 -0.7183140552
O  O7  1  0.22778000  0.46829000  0.16749000  1.0 -0.5920156835
O  O8  1  0.06518000  0.35237000  0.15829000  1.0 -0.7183140552
O  O9  1  0.83710000  0.94230000  0.65780000  1.0 -0.3724088183
O  O10  1  0.03900000  0.35380000  0.83300000  1.0 -0.1769117451
O  O11  1  0.82680000  0.93170000  0.65650000  1.0 -0.4247728436
O  O12  1  0.00690000  0.32348000  0.83118000  1.0 -0.0973645624
O  O13  1  0.02400000  0.34800000  0.81860000  1.0 -0.0544907594
O  O14  1  0.26394000  0.06484000  0.37398000  1.0 -0.6612361817
O  O15  1  0.30986000  0.06684000  0.31726000  1.0 -0.7407860754
O  O16  1  0.74477000  0.47376000  0.70741000  1.0 -0.6844822018
O  O17  1  0.60473000  0.30327000  0.71380000  1.0 -0.6187478601
O  O18  1  0.34550000  0.10208000  0.21278000  1.0 -0.7058701514
O  O19  1  0.17315000  0.94044000  0.21845000  1.0 -0.7183140552
O  O20  1  0.30080000  0.06029000  0.83251000  1.0 -0.5920156835
O  O21  1  0.19408000  0.90689000  0.84171000  1.0 -0.7183140552
O  O22  1  0.28450000  0.17930000  0.34220000  1.0 -0.3724088183
O  O23  1  0.52080000  0.20600000  0.16700000  1.0 -0.1769117451
O  O24  1  0.27520000  0.17030000  0.34350000  1.0 -0.4247728436
O  O25  1  0.49230000  0.17572000  0.16882000  1.0 -0.0973645624
O  O26  1  0.52940000  0.20540000  0.18140000  1.0 -0.0544907594
O  O27  1  0.13996000  0.01394000  0.69910000  1.0 -0.6612361817
O  O28  1  0.24260000  0.05986000  0.74302000  1.0 -0.7407860754
O  O29  1  0.28736000  0.49477000  0.77101000  1.0 -0.6844822018
O  O30  1  0.14093000  0.35473000  0.80146000  1.0 -0.6187478601
O  O31  1  0.38272000  0.09550000  0.74342000  1.0 -0.7058701514
O  O32  1  0.20470000  0.92315000  0.73271000  1.0 -0.7183140552
O  O33  1  0.71829000  0.05080000  0.74051000  1.0 -0.5920156835
O  O34  1  0.60237000  0.94408000  0.78719000  1.0 -0.7183140552
O  O35  1  0.19230000  0.03450000  0.60520000  1.0 -0.3724088183
O  O36  1  0.60380000  0.27080000  0.81480000  1.0 -0.1769117451
O  O37  1  0.18170000  0.02520000  0.60490000  1.0 -0.4247728436
O  O38  1  0.57348000  0.24230000  0.81658000  1.0 -0.0973645624
O  O39  1  0.59800000  0.27940000  0.82400000  1.0 -0.0544907594
O  O40  1  0.31484000  0.44086000  0.30090000  1.0 -0.6612361817
O  O41  1  0.31684000  0.49958000  0.25698000  1.0 -0.7407860754
O  O42  1  0.72376000  0.51635000  0.22899000  1.0 -0.6844822018
O  O43  1  0.55327000  0.33947000  0.19854000  1.0 -0.6187478601
O  O44  1  0.35208000  0.63930000  0.25658000  1.0 -0.7058701514
O  O45  1  0.19044000  0.47199000  0.26729000  1.0 -0.7183140552
O  O46  1  0.31029000  0.97778000  0.25949000  1.0 -0.5920156835
O  O47  1  0.15689000  0.81518000  0.21281000  1.0 -0.7183140552
O  O48  1  0.42930000  0.58710000  0.39480000  1.0 -0.3724088183
O  O49  1  0.45600000  0.78900000  0.18520000  1.0 -0.1769117451
O  O50  1  0.42030000  0.57680000  0.39510000  1.0 -0.4247728436
O  O51  1  0.42572000  0.75690000  0.18342000  1.0 -0.0973645624
O  O52  1  0.45540000  0.77400000  0.17600000  1.0 -0.0544907594
O  O53  1  0.55914000  0.86004000  0.87398000  1.0 -0.6612361817
O  O54  1  0.50042000  0.75740000  0.81726000  1.0 -0.7407860754
O  O55  1  0.48365000  0.71264000  0.20741000  1.0 -0.6844822018
O  O56  1  0.66053000  0.85907000  0.21380000  1.0 -0.6187478601
O  O57  1  0.36070000  0.61728000  0.71278000  1.0 -0.7058701514
O  O58  1  0.52801000  0.79530000  0.71845000  1.0 -0.7183140552
O  O59  1  0.02222000  0.28171000  0.33251000  1.0 -0.5920156835
O  O60  1  0.18482000  0.39763000  0.34171000  1.0 -0.7183140552
O  O61  1  0.41290000  0.80770000  0.84220000  1.0 -0.3724088183
O  O62  1  0.21100000  0.39620000  0.66700000  1.0 -0.1769117451
O  O63  1  0.42320000  0.81830000  0.84350000  1.0 -0.4247728436
O  O64  1  0.24310000  0.42652000  0.66882000  1.0 -0.0973645624
O  O65  1  0.22600000  0.40200000  0.68140000  1.0 -0.0544907594
O  O66  1  0.98606000  0.68516000  0.12602000  1.0 -0.6612361817
O  O67  1  0.94014000  0.68316000  0.18274000  1.0 -0.7407860754
O  O68  1  0.50523000  0.27624000  0.79259000  1.0 -0.6844822018
O  O69  1  0.64527000  0.44673000  0.78620000  1.0 -0.6187478601
O  O70  1  0.90450000  0.64792000  0.28722000  1.0 -0.7058701514
O  O71  1  0.07685000  0.80956000  0.28155000  1.0 -0.7183140552
O  O72  1  0.94920000  0.68971000  0.66749000  1.0 -0.5920156835
O  O73  1  0.05592000  0.84311000  0.65829000  1.0 -0.7183140552
O  O74  1  0.96550000  0.57070000  0.15780000  1.0 -0.3724088183
O  O75  1  0.72920000  0.54400000  0.33300000  1.0 -0.1769117451
O  O76  1  0.97480000  0.57970000  0.15650000  1.0 -0.4247728436
O  O77  1  0.75770000  0.57428000  0.33118000  1.0 -0.0973645624
O  O78  1  0.72060000  0.54460000  0.31860000  1.0 -0.0544907594
O  O79  1  0.11004000  0.73606000  0.80090000  1.0 -0.6612361817
O  O80  1  0.00740000  0.69014000  0.75698000  1.0 -0.7407860754
O  O81  1  0.96264000  0.25523000  0.72899000  1.0 -0.6844822018
O  O82  1  0.10907000  0.39527000  0.69854000  1.0 -0.6187478601
O  O83  1  0.86728000  0.65450000  0.75658000  1.0 -0.7058701514
O  O84  1  0.04530000  0.82685000  0.76729000  1.0 -0.7183140552
O  O85  1  0.53171000  0.69920000  0.75949000  1.0 -0.5920156835
O  O86  1  0.64763000  0.80592000  0.71281000  1.0 -0.7183140552
O  O87  1  0.05770000  0.71550000  0.89480000  1.0 -0.3724088183
O  O88  1  0.64620000  0.47920000  0.68520000  1.0 -0.1769117451
O  O89  1  0.06830000  0.72480000  0.89510000  1.0 -0.4247728436
O  O90  1  0.67652000  0.50770000  0.68342000  1.0 -0.0973645624
O  O91  1  0.65200000  0.47060000  0.67600000  1.0 -0.0544907594
O  O92  1  0.93516000  0.30914000  0.19910000  1.0 -0.6612361817
O  O93  1  0.93316000  0.25042000  0.24302000  1.0 -0.7407860754
O  O94  1  0.52624000  0.23365000  0.27101000  1.0 -0.6844822018
O  O95  1  0.69673000  0.41053000  0.30146000  1.0 -0.6187478601
O  O96  1  0.89792000  0.11070000  0.24342000  1.0 -0.7058701514
O  O97  1  0.05956000  0.27801000  0.23271000  1.0 -0.7183140552
O  O98  1  0.93971000  0.77222000  0.24051000  1.0 -0.5920156835
O  O99  1  0.09311000  0.93482000  0.28719000  1.0 -0.7183140552
O  O100  1  0.82070000  0.16290000  0.10520000  1.0 -0.3724088183
O  O101  1  0.79400000  0.96100000  0.31480000  1.0 -0.1769117451
O  O102  1  0.82970000  0.17320000  0.10490000  1.0 -0.4247728436
O  O103  1  0.82428000  0.99310000  0.31658000  1.0 -0.0973645624
O  O104  1  0.79460000  0.97600000  0.32400000  1.0 -0.0544907594
