# DDEC6 charges by PACMAN v1.1 (https://github.com/mtap-research/PACMAN-charge/)
data_ZIQZEI_FSR_pacman
_symmetry_space_group_name_H-M   'P 1'
_cell_length_a   16.86440000
_cell_length_b   16.86440000
_cell_length_c   26.72220000
_cell_angle_alpha   90.00000000
_cell_angle_beta   90.00000000
_cell_angle_gamma   120.00000000
_symmetry_Int_Tables_number   1
_chemical_formula_structural   Cd2H49C28Br2N7O
_chemical_formula_sum   'Cd12 H294 C168 Br12 N42 O6'
_cell_volume   6581.79923472
_cell_formula_units_Z   6
loop_
 _symmetry_equiv_pos_site_id
 _symmetry_equiv_pos_as_xyz
  1  'x, y, z'
loop_
 _atom_site_type_symbol
 _atom_site_label
 _atom_site_symmetry_multiplicity
 _atom_site_fract_x
 _atom_site_fract_y
 _atom_site_fract_z
 _atom_site_occupancy
 _atom_site_charge
Cd  Cd1  1  0.50364000  0.80950000  0.64049000  1.0 0.7428312735
Cd  Cd2  1  0.19050000  0.69414000  0.30716000  1.0 0.7428312735
Cd  Cd3  1  0.30586000  0.49636000  0.97382000  1.0 0.7428312735
Cd  Cd4  1  0.49636000  0.19050000  0.14049000  1.0 0.7428312735
Cd  Cd5  1  0.80950000  0.30586000  0.80716000  1.0 0.7428312735
Cd  Cd6  1  0.69414000  0.50364000  0.47382000  1.0 0.7428312735
Cd  Cd7  1  0.50597000  0.15531000  0.62921000  1.0 0.7077603377
Cd  Cd8  1  0.84469000  0.35066000  0.29588000  1.0 0.7077603377
Cd  Cd9  1  0.64934000  0.49403000  0.96254000  1.0 0.7077603377
Cd  Cd10  1  0.49403000  0.84469000  0.12921000  1.0 0.7077603377
Cd  Cd11  1  0.15531000  0.64934000  0.79588000  1.0 0.7077603377
Cd  Cd12  1  0.35066000  0.50597000  0.46254000  1.0 0.7077603377
H  H1  1  0.62655000  0.71904000  0.68705000  1.0 0.1382615187
H  H2  1  0.28096000  0.90751000  0.35372000  1.0 0.1382615187
H  H3  1  0.09249000  0.37345000  0.02038000  1.0 0.1382615187
H  H4  1  0.37345000  0.28096000  0.18705000  1.0 0.1382615187
H  H5  1  0.71904000  0.09249000  0.85372000  1.0 0.1382615187
H  H6  1  0.90751000  0.62655000  0.52038000  1.0 0.1382615187
H  H7  1  0.72376000  0.66879000  0.67614000  1.0 0.0616541958
H  H8  1  0.33121000  0.05497000  0.34281000  1.0 0.0616541958
H  H9  1  0.94503000  0.27624000  0.00947000  1.0 0.0616541958
H  H10  1  0.27624000  0.33121000  0.17614000  1.0 0.0616541958
H  H11  1  0.66879000  0.94503000  0.84281000  1.0 0.0616541958
H  H12  1  0.05497000  0.72376000  0.50947000  1.0 0.0616541958
H  H13  1  0.70085000  0.60208000  0.63059000  1.0 0.0118726767
H  H14  1  0.39792000  0.09877000  0.29726000  1.0 0.0118726767
H  H15  1  0.90123000  0.29915000  0.96392000  1.0 0.0118726767
H  H16  1  0.29915000  0.39792000  0.13059000  1.0 0.0118726767
H  H17  1  0.60208000  0.90123000  0.79726000  1.0 0.0118726767
H  H18  1  0.09877000  0.70085000  0.46392000  1.0 0.0118726767
H  H19  1  0.65587000  0.54236000  0.72991000  1.0 0.0784549946
H  H20  1  0.45764000  0.11351000  0.39658000  1.0 0.0784549946
H  H21  1  0.88649000  0.34413000  0.06324000  1.0 0.0784549946
H  H22  1  0.34413000  0.45764000  0.22991000  1.0 0.0784549946
H  H23  1  0.54236000  0.88649000  0.89658000  1.0 0.0784549946
H  H24  1  0.11351000  0.65587000  0.56324000  1.0 0.0784549946
H  H25  1  0.73859000  0.54623000  0.70095000  1.0 0.0784549946
H  H26  1  0.45377000  0.19236000  0.36762000  1.0 0.0784549946
H  H27  1  0.80764000  0.26141000  0.03428000  1.0 0.0784549946
H  H28  1  0.26141000  0.45377000  0.20095000  1.0 0.0784549946
H  H29  1  0.54623000  0.80764000  0.86762000  1.0 0.0784549946
H  H30  1  0.19236000  0.73859000  0.53428000  1.0 0.0784549946
H  H31  1  0.63802000  0.47763000  0.68401000  1.0 0.0784549946
H  H32  1  0.52237000  0.16039000  0.35068000  1.0 0.0784549946
H  H33  1  0.83961000  0.36198000  0.01734000  1.0 0.0784549946
H  H34  1  0.36198000  0.52237000  0.18401000  1.0 0.0784549946
H  H35  1  0.47763000  0.83961000  0.85068000  1.0 0.0784549946
H  H36  1  0.16039000  0.63802000  0.51734000  1.0 0.0784549946
H  H37  1  0.51030000  0.45919000  0.66645000  1.0 0.0784549946
H  H38  1  0.54081000  0.05111000  0.33312000  1.0 0.0784549946
H  H39  1  0.94889000  0.48970000  0.99978000  1.0 0.0784549946
H  H40  1  0.48970000  0.54081000  0.16645000  1.0 0.0784549946
H  H41  1  0.45919000  0.94889000  0.83312000  1.0 0.0784549946
H  H42  1  0.05111000  0.51030000  0.49978000  1.0 0.0784549946
H  H43  1  0.44927000  0.50545000  0.66241000  1.0 0.0881072076
H  H44  1  0.49455000  0.94382000  0.32908000  1.0 0.0881072076
H  H45  1  0.05618000  0.55073000  0.99574000  1.0 0.0881072076
H  H46  1  0.55073000  0.49455000  0.16241000  1.0 0.0881072076
H  H47  1  0.50545000  0.05618000  0.82908000  1.0 0.0881072076
H  H48  1  0.94382000  0.44927000  0.49574000  1.0 0.0881072076
H  H49  1  0.50099000  0.54441000  0.57817000  1.0 0.0616541958
H  H50  1  0.45559000  0.95658000  0.24484000  1.0 0.0616541958
H  H51  1  0.04342000  0.49901000  0.91150000  1.0 0.0616541958
H  H52  1  0.49901000  0.45559000  0.07817000  1.0 0.0616541958
H  H53  1  0.54441000  0.04342000  0.74484000  1.0 0.0616541958
H  H54  1  0.95658000  0.50099000  0.41150000  1.0 0.0616541958
H  H55  1  0.43930000  0.43868000  0.58662000  1.0 0.0696950088
H  H56  1  0.56132000  0.00062000  0.25329000  1.0 0.0696950088
H  H57  1  0.99938000  0.56070000  0.91995000  1.0 0.0696950088
H  H58  1  0.56070000  0.56132000  0.08662000  1.0 0.0696950088
H  H59  1  0.43868000  0.99938000  0.75329000  1.0 0.0696950088
H  H60  1  0.00062000  0.43930000  0.41995000  1.0 0.0696950088
H  H61  1  0.54596000  0.48290000  0.58340000  1.0 0.0881072076
H  H62  1  0.51710000  0.06306000  0.25007000  1.0 0.0881072076
H  H63  1  0.93694000  0.45404000  0.91673000  1.0 0.0881072076
H  H64  1  0.45404000  0.51710000  0.08340000  1.0 0.0881072076
H  H65  1  0.48290000  0.93694000  0.75007000  1.0 0.0881072076
H  H66  1  0.06306000  0.54596000  0.41673000  1.0 0.0881072076
H  H67  1  0.24277000  0.53654000  0.53202000  1.0 0.0994861187
H  H68  1  0.46346000  0.70623000  0.19869000  1.0 0.0994861187
H  H69  1  0.29377000  0.75723000  0.86535000  1.0 0.0994861187
H  H70  1  0.75723000  0.46346000  0.03202000  1.0 0.0994861187
H  H71  1  0.53654000  0.29377000  0.69869000  1.0 0.0994861187
H  H72  1  0.70623000  0.24277000  0.36535000  1.0 0.0994861187
H  H73  1  0.19578000  0.52461000  0.58425000  1.0 0.111103141
H  H74  1  0.47539000  0.67117000  0.25092000  1.0 0.111103141
H  H75  1  0.32883000  0.80422000  0.91758000  1.0 0.111103141
H  H76  1  0.80422000  0.47539000  0.08425000  1.0 0.111103141
H  H77  1  0.52461000  0.32883000  0.75092000  1.0 0.111103141
H  H78  1  0.67117000  0.19578000  0.41758000  1.0 0.111103141
H  H79  1  0.26721000  0.49204000  0.57653000  1.0 0.1198169753
H  H80  1  0.50796000  0.77517000  0.24320000  1.0 0.1198169753
H  H81  1  0.22483000  0.73279000  0.90986000  1.0 0.1198169753
H  H82  1  0.73279000  0.50796000  0.07653000  1.0 0.1198169753
H  H83  1  0.49204000  0.22483000  0.74320000  1.0 0.1198169753
H  H84  1  0.77517000  0.26721000  0.40986000  1.0 0.1198169753
H  H85  1  0.30616000  0.67408000  0.57895000  1.0 0.1198169753
H  H86  1  0.32592000  0.63208000  0.24562000  1.0 0.1198169753
H  H87  1  0.36792000  0.69384000  0.91228000  1.0 0.1198169753
H  H88  1  0.69384000  0.32592000  0.07895000  1.0 0.1198169753
H  H89  1  0.67408000  0.36792000  0.74562000  1.0 0.1198169753
H  H90  1  0.63208000  0.30616000  0.41228000  1.0 0.1198169753
H  H91  1  0.33952000  0.62845000  0.61835000  1.0 0.1198169753
H  H92  1  0.37155000  0.71107000  0.28502000  1.0 0.1198169753
H  H93  1  0.28893000  0.66048000  0.95168000  1.0 0.1198169753
H  H94  1  0.66048000  0.37155000  0.11835000  1.0 0.1198169753
H  H95  1  0.62845000  0.28893000  0.78502000  1.0 0.1198169753
H  H96  1  0.71107000  0.33952000  0.45168000  1.0 0.1198169753
H  H97  1  0.65497000  0.88003000  0.51948000  1.0 0.1382615187
H  H98  1  0.11997000  0.77494000  0.18615000  1.0 0.1382615187
H  H99  1  0.22506000  0.34503000  0.85281000  1.0 0.1382615187
H  H100  1  0.34503000  0.11997000  0.01948000  1.0 0.1382615187
H  H101  1  0.88003000  0.22506000  0.68615000  1.0 0.1382615187
H  H102  1  0.77494000  0.65497000  0.35281000  1.0 0.1382615187
H  H103  1  0.69112000  0.81075000  0.51603000  1.0 0.1477984922
H  H104  1  0.18925000  0.88037000  0.18270000  1.0 0.1477984922
H  H105  1  0.11963000  0.30888000  0.84936000  1.0 0.1477984922
H  H106  1  0.30888000  0.18925000  0.01603000  1.0 0.1477984922
H  H107  1  0.81075000  0.11963000  0.68270000  1.0 0.1477984922
H  H108  1  0.88037000  0.69112000  0.34936000  1.0 0.1477984922
H  H109  1  0.67406000  0.84119000  0.56847000  1.0 0.1477984922
H  H110  1  0.15881000  0.83287000  0.23514000  1.0 0.1477984922
H  H111  1  0.16713000  0.32594000  0.90180000  1.0 0.1477984922
H  H112  1  0.32594000  0.15881000  0.06847000  1.0 0.1477984922
H  H113  1  0.84119000  0.16713000  0.73514000  1.0 0.1477984922
H  H114  1  0.83287000  0.67406000  0.40180000  1.0 0.1477984922
H  H115  1  0.61125000  0.68421000  0.44954000  1.0 0.111103141
H  H116  1  0.31579000  0.92704000  0.11621000  1.0 0.111103141
H  H117  1  0.07296000  0.38875000  0.78287000  1.0 0.111103141
H  H118  1  0.38875000  0.31579000  0.94954000  1.0 0.111103141
H  H119  1  0.68421000  0.07296000  0.61621000  1.0 0.111103141
H  H120  1  0.92704000  0.61125000  0.28287000  1.0 0.111103141
H  H121  1  0.60234000  0.58763000  0.39168000  1.0 0.0881072076
H  H122  1  0.41237000  0.01471000  0.05835000  1.0 0.0881072076
H  H123  1  0.98529000  0.39766000  0.72501000  1.0 0.0881072076
H  H124  1  0.39766000  0.41237000  0.89168000  1.0 0.0881072076
H  H125  1  0.58763000  0.98529000  0.55835000  1.0 0.0881072076
H  H126  1  0.01471000  0.60234000  0.22501000  1.0 0.0881072076
H  H127  1  0.52717000  0.64143000  0.33997000  1.0 0.1198169753
H  H128  1  0.35857000  0.88574000  0.00664000  1.0 0.1198169753
H  H129  1  0.11426000  0.47283000  0.67330000  1.0 0.1198169753
H  H130  1  0.47283000  0.35857000  0.83997000  1.0 0.1198169753
H  H131  1  0.64143000  0.11426000  0.50664000  1.0 0.1198169753
H  H132  1  0.88574000  0.52717000  0.17330000  1.0 0.1198169753
H  H133  1  0.43491000  0.54781000  0.34378000  1.0 0.111103141
H  H134  1  0.45219000  0.88710000  0.01045000  1.0 0.111103141
H  H135  1  0.11290000  0.56509000  0.67711000  1.0 0.111103141
H  H136  1  0.56509000  0.45219000  0.84378000  1.0 0.111103141
H  H137  1  0.54781000  0.11290000  0.51045000  1.0 0.111103141
H  H138  1  0.88710000  0.43491000  0.17711000  1.0 0.111103141
H  H139  1  0.50502000  0.55340000  0.26614000  1.0 0.0994861187
H  H140  1  0.44660000  0.95162000  0.93281000  1.0 0.0994861187
H  H141  1  0.04838000  0.49498000  0.59947000  1.0 0.0994861187
H  H142  1  0.49498000  0.44660000  0.76614000  1.0 0.0994861187
H  H143  1  0.55340000  0.04838000  0.43281000  1.0 0.0994861187
H  H144  1  0.95162000  0.50502000  0.09947000  1.0 0.0994861187
H  H145  1  0.59479000  0.57124000  0.29355000  1.0 0.0994861187
H  H146  1  0.42876000  0.02355000  0.96022000  1.0 0.0994861187
H  H147  1  0.97645000  0.40521000  0.62688000  1.0 0.0994861187
H  H148  1  0.40521000  0.42876000  0.79355000  1.0 0.0994861187
H  H149  1  0.57124000  0.97645000  0.46022000  1.0 0.0994861187
H  H150  1  0.02355000  0.59479000  0.12688000  1.0 0.0994861187
H  H151  1  0.50936000  0.41703000  0.27004000  1.0 0.111103141
H  H152  1  0.58297000  0.09233000  0.93671000  1.0 0.111103141
H  H153  1  0.90767000  0.49064000  0.60337000  1.0 0.111103141
H  H154  1  0.49064000  0.58297000  0.77004000  1.0 0.111103141
H  H155  1  0.41703000  0.90767000  0.43671000  1.0 0.111103141
H  H156  1  0.09233000  0.50936000  0.10337000  1.0 0.111103141
H  H157  1  0.42520000  0.40614000  0.30095000  1.0 0.111103141
H  H158  1  0.59386000  0.01906000  0.96762000  1.0 0.111103141
H  H159  1  0.98094000  0.57480000  0.63428000  1.0 0.111103141
H  H160  1  0.57480000  0.59386000  0.80095000  1.0 0.111103141
H  H161  1  0.40614000  0.98094000  0.46762000  1.0 0.111103141
H  H162  1  0.01906000  0.42520000  0.13428000  1.0 0.111103141
H  H163  1  0.50512000  0.35059000  0.34902000  1.0 0.1198169753
H  H164  1  0.64941000  0.15453000  0.01569000  1.0 0.1198169753
H  H165  1  0.84547000  0.49488000  0.68235000  1.0 0.1198169753
H  H166  1  0.49488000  0.64941000  0.84902000  1.0 0.1198169753
H  H167  1  0.35059000  0.84547000  0.51569000  1.0 0.1198169753
H  H168  1  0.15453000  0.50512000  0.18235000  1.0 0.1198169753
H  H169  1  0.59556000  0.44574000  0.34451000  1.0 0.1198169753
H  H170  1  0.55426000  0.14982000  0.01118000  1.0 0.1198169753
H  H171  1  0.85018000  0.40444000  0.67784000  1.0 0.1198169753
H  H172  1  0.40444000  0.55426000  0.84451000  1.0 0.1198169753
H  H173  1  0.44574000  0.85018000  0.51118000  1.0 0.1198169753
H  H174  1  0.14982000  0.59556000  0.17784000  1.0 0.1198169753
H  H175  1  0.43543000  0.41651000  0.39615000  1.0 0.0784549946
H  H176  1  0.58349000  0.01892000  0.06282000  1.0 0.0784549946
H  H177  1  0.98108000  0.56457000  0.72948000  1.0 0.0784549946
H  H178  1  0.56457000  0.58349000  0.89615000  1.0 0.0784549946
H  H179  1  0.41651000  0.98108000  0.56282000  1.0 0.0784549946
H  H180  1  0.01892000  0.43543000  0.22948000  1.0 0.0784549946
H  H181  1  0.42740000  0.32313000  0.45151000  1.0 0.111103141
H  H182  1  0.67687000  0.10427000  0.11818000  1.0 0.111103141
H  H183  1  0.89573000  0.57260000  0.78484000  1.0 0.111103141
H  H184  1  0.57260000  0.67687000  0.95151000  1.0 0.111103141
H  H185  1  0.32313000  0.89573000  0.61818000  1.0 0.111103141
H  H186  1  0.10427000  0.42740000  0.28484000  1.0 0.111103141
H  H187  1  0.37603000  0.12639000  0.51763000  1.0 0.1382615187
H  H188  1  0.87361000  0.24964000  0.18430000  1.0 0.1382615187
H  H189  1  0.75036000  0.62397000  0.85096000  1.0 0.1382615187
H  H190  1  0.62397000  0.87361000  0.01763000  1.0 0.1382615187
H  H191  1  0.12639000  0.75036000  0.68430000  1.0 0.1382615187
H  H192  1  0.24964000  0.37603000  0.35096000  1.0 0.1382615187
H  H193  1  0.34203000  0.19722000  0.51273000  1.0 0.1382615187
H  H194  1  0.80278000  0.14481000  0.17940000  1.0 0.1382615187
H  H195  1  0.85519000  0.65797000  0.84606000  1.0 0.1382615187
H  H196  1  0.65797000  0.80278000  0.01273000  1.0 0.1382615187
H  H197  1  0.19722000  0.85519000  0.67940000  1.0 0.1382615187
H  H198  1  0.14481000  0.34203000  0.34606000  1.0 0.1382615187
H  H199  1  0.35043000  0.16209000  0.56568000  1.0 0.1477984922
H  H200  1  0.83791000  0.18834000  0.23235000  1.0 0.1477984922
H  H201  1  0.81166000  0.64957000  0.89901000  1.0 0.1477984922
H  H202  1  0.64957000  0.83791000  0.06568000  1.0 0.1477984922
H  H203  1  0.16209000  0.81166000  0.73235000  1.0 0.1477984922
H  H204  1  0.18834000  0.35043000  0.39901000  1.0 0.1477984922
H  H205  1  0.68782000  0.35332000  0.62492000  1.0 0.1198169753
H  H206  1  0.64668000  0.33450000  0.29159000  1.0 0.1198169753
H  H207  1  0.66550000  0.31218000  0.95825000  1.0 0.1198169753
H  H208  1  0.31218000  0.64668000  0.12492000  1.0 0.1198169753
H  H209  1  0.35332000  0.66550000  0.79159000  1.0 0.1198169753
H  H210  1  0.33450000  0.68782000  0.45825000  1.0 0.1198169753
H  H211  1  0.74067000  0.43365000  0.58668000  1.0 0.1198169753
H  H212  1  0.56635000  0.30702000  0.25335000  1.0 0.1198169753
H  H213  1  0.69298000  0.25933000  0.92001000  1.0 0.1198169753
H  H214  1  0.25933000  0.56635000  0.08668000  1.0 0.1198169753
H  H215  1  0.43365000  0.69298000  0.75335000  1.0 0.1198169753
H  H216  1  0.30702000  0.74067000  0.42001000  1.0 0.1198169753
H  H217  1  0.77834000  0.34458000  0.53701000  1.0 0.1275175201
H  H218  1  0.65542000  0.43376000  0.20368000  1.0 0.1275175201
H  H219  1  0.56624000  0.22166000  0.87034000  1.0 0.1275175201
H  H220  1  0.22166000  0.65542000  0.03701000  1.0 0.1275175201
H  H221  1  0.34458000  0.56624000  0.70368000  1.0 0.1275175201
H  H222  1  0.43376000  0.77834000  0.37034000  1.0 0.1275175201
H  H223  1  0.70919000  0.25479000  0.56527000  1.0 0.111103141
H  H224  1  0.74521000  0.45440000  0.23194000  1.0 0.111103141
H  H225  1  0.54560000  0.29081000  0.89860000  1.0 0.111103141
H  H226  1  0.29081000  0.74521000  0.06527000  1.0 0.111103141
H  H227  1  0.25479000  0.54560000  0.73194000  1.0 0.111103141
H  H228  1  0.45440000  0.70919000  0.39860000  1.0 0.111103141
H  H229  1  0.79950000  0.32745000  0.59180000  1.0 0.111103141
H  H230  1  0.67255000  0.47205000  0.25847000  1.0 0.111103141
H  H231  1  0.52795000  0.20050000  0.92513000  1.0 0.111103141
H  H232  1  0.20050000  0.67255000  0.09180000  1.0 0.111103141
H  H233  1  0.32745000  0.52795000  0.75847000  1.0 0.111103141
H  H234  1  0.47205000  0.79950000  0.42513000  1.0 0.111103141
H  H235  1  0.69252000  0.60293000  0.69834000  1.0 0.0288836962
H  H236  1  0.39707000  0.08959000  0.36501000  1.0 0.0288836962
H  H237  1  0.91041000  0.30748000  0.03167000  1.0 0.0288836962
H  H238  1  0.30748000  0.39707000  0.19834000  1.0 0.0288836962
H  H239  1  0.60293000  0.91041000  0.86501000  1.0 0.0288836962
H  H240  1  0.08959000  0.69252000  0.53167000  1.0 0.0288836962
H  H241  1  0.72686000  0.66838000  0.65176000  1.0 0.0616541958
H  H242  1  0.33162000  0.05848000  0.31843000  1.0 0.0616541958
H  H243  1  0.94152000  0.27314000  0.98509000  1.0 0.0616541958
H  H244  1  0.27314000  0.33162000  0.15176000  1.0 0.0616541958
H  H245  1  0.66838000  0.94152000  0.81843000  1.0 0.0616541958
H  H246  1  0.05848000  0.72686000  0.48509000  1.0 0.0616541958
H  H247  1  0.64013000  0.47636000  0.64557000  1.0 0.0696950088
H  H248  1  0.52364000  0.16377000  0.31224000  1.0 0.0696950088
H  H249  1  0.83623000  0.35987000  0.97890000  1.0 0.0696950088
H  H250  1  0.35987000  0.52364000  0.14557000  1.0 0.0696950088
H  H251  1  0.47636000  0.83623000  0.81224000  1.0 0.0696950088
H  H252  1  0.16377000  0.64013000  0.47890000  1.0 0.0696950088
H  H253  1  0.74499000  0.54275000  0.63667000  1.0 0.0881072076
H  H254  1  0.45725000  0.20224000  0.30334000  1.0 0.0881072076
H  H255  1  0.79776000  0.25501000  0.97000000  1.0 0.0881072076
H  H256  1  0.25501000  0.45725000  0.13667000  1.0 0.0881072076
H  H257  1  0.54275000  0.79776000  0.80334000  1.0 0.0881072076
H  H258  1  0.20224000  0.74499000  0.47000000  1.0 0.0881072076
H  H259  1  0.67322000  0.54127000  0.59885000  1.0 0.0696950088
H  H260  1  0.45873000  0.13195000  0.26552000  1.0 0.0696950088
H  H261  1  0.86805000  0.32678000  0.93218000  1.0 0.0696950088
H  H262  1  0.32678000  0.45873000  0.09885000  1.0 0.0696950088
H  H263  1  0.54127000  0.86805000  0.76552000  1.0 0.0696950088
H  H264  1  0.13195000  0.67322000  0.43218000  1.0 0.0696950088
H  H265  1  0.51748000  0.58572000  0.59260000  1.0 0.0881072076
H  H266  1  0.41428000  0.93176000  0.25927000  1.0 0.0881072076
H  H267  1  0.06824000  0.48252000  0.92593000  1.0 0.0881072076
H  H268  1  0.48252000  0.41428000  0.09260000  1.0 0.0881072076
H  H269  1  0.58572000  0.06824000  0.75927000  1.0 0.0881072076
H  H270  1  0.93176000  0.51748000  0.42593000  1.0 0.0881072076
H  H271  1  0.57632000  0.53664000  0.59045000  1.0 0.0616541958
H  H272  1  0.46336000  0.03968000  0.25712000  1.0 0.0616541958
H  H273  1  0.96032000  0.42368000  0.92378000  1.0 0.0616541958
H  H274  1  0.42368000  0.46336000  0.09045000  1.0 0.0616541958
H  H275  1  0.53664000  0.96032000  0.75712000  1.0 0.0616541958
H  H276  1  0.03968000  0.57632000  0.42378000  1.0 0.0616541958
H  H277  1  0.41589000  0.43202000  0.60391000  1.0 0.0696950088
H  H278  1  0.56798000  0.98387000  0.27058000  1.0 0.0616541958
H  H279  1  0.01613000  0.58411000  0.93724000  1.0 0.0616541958
H  H280  1  0.58411000  0.56798000  0.10391000  1.0 0.0696950088
H  H281  1  0.43202000  0.01613000  0.77058000  1.0 0.0616541958
H  H282  1  0.98387000  0.41589000  0.43724000  1.0 0.0696950088
H  H283  1  0.42664000  0.47822000  0.65628000  1.0 0.0696950088
H  H284  1  0.52178000  0.94842000  0.32295000  1.0 0.0696950088
H  H285  1  0.05158000  0.57336000  0.98961000  1.0 0.0696950088
H  H286  1  0.57336000  0.52178000  0.15628000  1.0 0.0696950088
H  H287  1  0.47822000  0.05158000  0.82295000  1.0 0.0696950088
H  H288  1  0.94842000  0.42664000  0.48961000  1.0 0.0696950088
H  H289  1  0.47861000  0.42491000  0.64486000  1.0 0.0616541958
H  H290  1  0.57509000  0.05370000  0.31153000  1.0 0.0616541958
H  H291  1  0.94630000  0.52139000  0.97819000  1.0 0.0616541958
H  H292  1  0.52139000  0.57509000  0.14486000  1.0 0.0616541958
H  H293  1  0.42491000  0.94630000  0.81153000  1.0 0.0616541958
H  H294  1  0.05370000  0.47861000  0.47819000  1.0 0.0616541958
C  C1  1  0.57680000  0.66860000  0.67250000  1.0 0.0696950088
C  C2  1  0.33140000  0.90820000  0.33917000  1.0 0.0696950088
C  C3  1  0.09180000  0.42320000  0.00583000  1.0 0.0696950088
C  C4  1  0.42320000  0.33140000  0.17250000  1.0 0.0696950088
C  C5  1  0.66860000  0.09180000  0.83917000  1.0 0.0696950088
C  C6  1  0.90820000  0.57680000  0.50583000  1.0 0.0696950088
C  C7  1  0.68020000  0.60850000  0.66340000  1.0 -0.0441122285
C  C8  1  0.39150000  0.07170000  0.33007000  1.0 -0.0441122285
C  C9  1  0.92830000  0.31980000  0.99673000  1.0 -0.0441122285
C  C10  1  0.31980000  0.39150000  0.16340000  1.0 -0.0441122285
C  C11  1  0.60850000  0.92830000  0.83007000  1.0 -0.0441122285
C  C12  1  0.07170000  0.68020000  0.49673000  1.0 -0.0441122285
C  C13  1  0.67800000  0.53730000  0.69760000  1.0 -0.2388915411
C  C14  1  0.46270000  0.14070000  0.36427000  1.0 -0.2388915411
C  C15  1  0.85930000  0.32200000  0.03093000  1.0 -0.2388915411
C  C16  1  0.32200000  0.46270000  0.19760000  1.0 -0.2388915411
C  C17  1  0.53730000  0.85930000  0.86427000  1.0 -0.2388915411
C  C18  1  0.14070000  0.67800000  0.53093000  1.0 -0.2388915411
C  C19  1  0.50380000  0.50670000  0.64970000  1.0 -0.0342451999
C  C20  1  0.49330000  0.99710000  0.31637000  1.0 -0.0342451999
C  C21  1  0.00290000  0.49620000  0.98303000  1.0 -0.0342451999
C  C22  1  0.49620000  0.49330000  0.14970000  1.0 -0.0342451999
C  C23  1  0.50670000  0.00290000  0.81637000  1.0 -0.0342451999
C  C24  1  0.99710000  0.50380000  0.48303000  1.0 -0.0342451999
C  C25  1  0.49690000  0.49180000  0.59460000  1.0 -0.1418895163
C  C26  1  0.50820000  0.00510000  0.26127000  1.0 -0.1418895163
C  C27  1  0.99490000  0.50310000  0.92793000  1.0 -0.1418895163
C  C28  1  0.50310000  0.50820000  0.09460000  1.0 -0.1418895163
C  C29  1  0.49180000  0.99490000  0.76127000  1.0 -0.1418895163
C  C30  1  0.00510000  0.49690000  0.42793000  1.0 -0.1418895163
C  C31  1  0.25140000  0.53750000  0.56760000  1.0 -0.3597382469
C  C32  1  0.46250000  0.71390000  0.23427000  1.0 -0.3597382469
C  C33  1  0.28610000  0.74860000  0.90093000  1.0 -0.3597382469
C  C34  1  0.74860000  0.46250000  0.06760000  1.0 -0.3597382469
C  C35  1  0.53750000  0.28610000  0.73427000  1.0 -0.3597382469
C  C36  1  0.71390000  0.25140000  0.40093000  1.0 -0.3597382469
C  C37  1  0.32710000  0.63030000  0.58310000  1.0 -0.2498678911
C  C38  1  0.36970000  0.69680000  0.24977000  1.0 -0.2498678911
C  C39  1  0.30320000  0.67290000  0.91643000  1.0 -0.2498678911
C  C40  1  0.67290000  0.36970000  0.08310000  1.0 -0.2388915411
C  C41  1  0.63030000  0.30320000  0.74977000  1.0 -0.2498678911
C  C42  1  0.69680000  0.32710000  0.41643000  1.0 -0.2498678911
C  C43  1  0.41400000  0.66360000  0.55470000  1.0 0.3230337338
C  C44  1  0.33640000  0.75040000  0.22137000  1.0 0.3230337338
C  C45  1  0.24960000  0.58600000  0.88803000  1.0 0.3230337338
C  C46  1  0.58600000  0.33640000  0.05470000  1.0 0.3230337338
C  C47  1  0.66360000  0.24960000  0.72137000  1.0 0.3230337338
C  C48  1  0.75040000  0.41400000  0.38803000  1.0 0.3230337338
C  C49  1  0.65280000  0.82730000  0.53450000  1.0 -0.4891102675
C  C50  1  0.17270000  0.82550000  0.20117000  1.0 -0.4891102675
C  C51  1  0.17450000  0.34720000  0.86783000  1.0 -0.4891102675
C  C52  1  0.34720000  0.17270000  0.03450000  1.0 -0.4891102675
C  C53  1  0.82730000  0.17450000  0.70117000  1.0 -0.4891102675
C  C54  1  0.82550000  0.65280000  0.36783000  1.0 -0.4891102675
C  C55  1  0.55760000  0.75020000  0.53400000  1.0 0.1976454841
C  C56  1  0.24980000  0.80740000  0.20067000  1.0 0.1976454841
C  C57  1  0.19260000  0.44240000  0.86733000  1.0 0.1976454841
C  C58  1  0.44240000  0.24980000  0.03400000  1.0 0.1976454841
C  C59  1  0.75020000  0.19260000  0.70067000  1.0 0.1976454841
C  C60  1  0.80740000  0.55760000  0.36733000  1.0 0.1976454841
C  C61  1  0.51570000  0.67640000  0.50140000  1.0 0.036081581
C  C62  1  0.32360000  0.83930000  0.16807000  1.0 0.036081581
C  C63  1  0.16070000  0.48430000  0.83473000  1.0 0.036081581
C  C64  1  0.48430000  0.32360000  0.00140000  1.0 0.036081581
C  C65  1  0.67640000  0.16070000  0.66807000  1.0 0.036081581
C  C66  1  0.83930000  0.51570000  0.33473000  1.0 0.036081581
C  C67  1  0.55020000  0.64880000  0.45890000  1.0 0.0696950088
C  C68  1  0.35120000  0.90140000  0.12557000  1.0 0.0696950088
C  C69  1  0.09860000  0.44980000  0.79223000  1.0 0.0696950088
C  C70  1  0.44980000  0.35120000  0.95890000  1.0 0.0696950088
C  C71  1  0.64880000  0.09860000  0.62557000  1.0 0.0696950088
C  C72  1  0.90140000  0.55020000  0.29223000  1.0 0.0696950088
C  C73  1  0.53530000  0.55250000  0.39060000  1.0 0.0616541958
C  C74  1  0.44750000  0.98280000  0.05727000  1.0 0.0616541958
C  C75  1  0.01720000  0.46470000  0.72393000  1.0 0.0616541958
C  C76  1  0.46470000  0.44750000  0.89060000  1.0 0.0616541958
C  C77  1  0.55250000  0.01720000  0.55727000  1.0 0.0616541958
C  C78  1  0.98280000  0.53530000  0.22393000  1.0 0.0616541958
C  C79  1  0.50100000  0.57560000  0.34250000  1.0 -0.2197410552
C  C80  1  0.42440000  0.92540000  0.00917000  1.0 -0.2197410552
C  C81  1  0.07460000  0.49900000  0.67583000  1.0 -0.2197410552
C  C82  1  0.49900000  0.42440000  0.84250000  1.0 -0.2197410552
C  C83  1  0.57560000  0.07460000  0.50917000  1.0 -0.2197410552
C  C84  1  0.92540000  0.50100000  0.17583000  1.0 -0.2197410552
C  C85  1  0.52860000  0.53990000  0.29610000  1.0 -0.1510620925
C  C86  1  0.46010000  0.98870000  0.96277000  1.0 -0.1510620925
C  C87  1  0.01130000  0.47140000  0.62943000  1.0 -0.1510620925
C  C88  1  0.47140000  0.46010000  0.79610000  1.0 -0.1510620925
C  C89  1  0.53990000  0.01130000  0.46277000  1.0 -0.1510620925
C  C90  1  0.98870000  0.52860000  0.12943000  1.0 -0.1510620925
C  C91  1  0.49150000  0.43790000  0.29950000  1.0 -0.1595149649
C  C92  1  0.56210000  0.05360000  0.96617000  1.0 -0.1595149649
C  C93  1  0.94640000  0.50850000  0.63283000  1.0 -0.1595149649
C  C94  1  0.50850000  0.56210000  0.79950000  1.0 -0.1595149649
C  C95  1  0.43790000  0.94640000  0.46617000  1.0 -0.1595149649
C  C96  1  0.05360000  0.49150000  0.13283000  1.0 -0.1595149649
C  C97  1  0.52940000  0.41610000  0.34670000  1.0 -0.2123869522
C  C98  1  0.58390000  0.11330000  0.01337000  1.0 -0.2123869522
C  C99  1  0.88670000  0.47060000  0.68003000  1.0 -0.2123869522
C  C100  1  0.47060000  0.58390000  0.84670000  1.0 -0.2123869522
C  C101  1  0.41610000  0.88670000  0.51337000  1.0 -0.2123869522
C  C102  1  0.11330000  0.52940000  0.18003000  1.0 -0.2123869522
C  C103  1  0.50230000  0.45000000  0.39340000  1.0 0.0696950088
C  C104  1  0.55000000  0.05230000  0.06007000  1.0 0.0696950088
C  C105  1  0.94770000  0.49770000  0.72673000  1.0 0.0696950088
C  C106  1  0.49770000  0.55000000  0.89340000  1.0 0.0696950088
C  C107  1  0.45000000  0.94770000  0.56007000  1.0 0.0696950088
C  C108  1  0.05230000  0.50230000  0.22673000  1.0 0.0696950088
C  C109  1  0.48750000  0.35910000  0.46240000  1.0 0.0528199542
C  C110  1  0.64090000  0.12840000  0.12907000  1.0 0.0528199542
C  C111  1  0.87160000  0.51250000  0.79573000  1.0 0.0528199542
C  C112  1  0.51250000  0.64090000  0.96240000  1.0 0.0528199542
C  C113  1  0.35910000  0.87160000  0.62907000  1.0 0.0528199542
C  C114  1  0.12840000  0.48750000  0.29573000  1.0 0.0528199542
C  C115  1  0.51780000  0.33120000  0.50590000  1.0 0.0288836962
C  C116  1  0.66880000  0.18660000  0.17257000  1.0 0.0288836962
C  C117  1  0.81340000  0.48220000  0.83923000  1.0 0.0288836962
C  C118  1  0.48220000  0.66880000  0.00590000  1.0 0.0288836962
C  C119  1  0.33120000  0.81340000  0.67257000  1.0 0.0288836962
C  C120  1  0.18660000  0.51780000  0.33923000  1.0 0.0288836962
C  C121  1  0.37680000  0.17840000  0.53280000  1.0 -0.4989841445
C  C122  1  0.82160000  0.19840000  0.19947000  1.0 -0.4989841445
C  C123  1  0.80160000  0.62320000  0.86613000  1.0 -0.4989841445
C  C124  1  0.62320000  0.82160000  0.03280000  1.0 -0.4989841445
C  C125  1  0.17840000  0.80160000  0.69947000  1.0 -0.4989841445
C  C126  1  0.19840000  0.37680000  0.36613000  1.0 -0.4989841445
C  C127  1  0.47240000  0.25440000  0.53670000  1.0 0.1976454841
C  C128  1  0.74560000  0.21800000  0.20337000  1.0 0.1976454841
C  C129  1  0.78200000  0.52760000  0.87003000  1.0 0.1976454841
C  C130  1  0.52760000  0.74560000  0.03670000  1.0 0.1976454841
C  C131  1  0.25440000  0.78200000  0.70337000  1.0 0.1976454841
C  C132  1  0.21800000  0.47240000  0.37003000  1.0 0.1976454841
C  C133  1  0.61430000  0.33820000  0.56150000  1.0 0.3264314817
C  C134  1  0.66180000  0.27610000  0.22817000  1.0 0.3264314817
C  C135  1  0.72390000  0.38570000  0.89483000  1.0 0.3264314817
C  C136  1  0.38570000  0.66180000  0.06150000  1.0 0.3264314817
C  C137  1  0.33820000  0.72390000  0.72817000  1.0 0.3264314817
C  C138  1  0.27610000  0.61430000  0.39483000  1.0 0.3264314817
C  C139  1  0.70140000  0.36790000  0.58970000  1.0 -0.2498678911
C  C140  1  0.63210000  0.33350000  0.25637000  1.0 -0.2498678911
C  C141  1  0.66650000  0.29860000  0.92303000  1.0 -0.2498678911
C  C142  1  0.29860000  0.63210000  0.08970000  1.0 -0.2498678911
C  C143  1  0.36790000  0.66650000  0.75637000  1.0 -0.2498678911
C  C144  1  0.33350000  0.70140000  0.42303000  1.0 -0.2498678911
C  C145  1  0.75190000  0.31900000  0.56900000  1.0 -0.3526766462
C  C146  1  0.68100000  0.43290000  0.23567000  1.0 -0.3526766462
C  C147  1  0.56710000  0.24810000  0.90233000  1.0 -0.3526766462
C  C148  1  0.24810000  0.68100000  0.06900000  1.0 -0.3526766462
C  C149  1  0.31900000  0.56710000  0.73567000  1.0 -0.3526766462
C  C150  1  0.43290000  0.75190000  0.40233000  1.0 -0.3526766462
C  C151  1  0.68500000  0.53600000  0.63300000  1.0 -0.2498678911
C  C152  1  0.46400000  0.14900000  0.29967000  1.0 -0.2498678911
C  C153  1  0.85100000  0.31500000  0.96633000  1.0 -0.2498678911
C  C154  1  0.31500000  0.46400000  0.13300000  1.0 -0.2498678911
C  C155  1  0.53600000  0.85100000  0.79967000  1.0 -0.2498678911
C  C156  1  0.14900000  0.68500000  0.46633000  1.0 -0.2498678911
C  C157  1  0.53800000  0.55000000  0.61160000  1.0 -0.022751436
C  C158  1  0.45000000  0.98800000  0.27827000  1.0 -0.022751436
C  C159  1  0.01200000  0.46200000  0.94493000  1.0 -0.022751436
C  C160  1  0.46200000  0.45000000  0.11160000  1.0 -0.022751436
C  C161  1  0.55000000  0.01200000  0.77827000  1.0 -0.022751436
C  C162  1  0.98800000  0.53800000  0.44493000  1.0 -0.022751436
C  C163  1  0.45700000  0.46300000  0.63090000  1.0 -0.1510620925
C  C164  1  0.53700000  0.99400000  0.29757000  1.0 -0.1510620925
C  C165  1  0.00600000  0.54300000  0.96423000  1.0 -0.1510620925
C  C166  1  0.54300000  0.53700000  0.13090000  1.0 -0.1510620925
C  C167  1  0.46300000  0.00600000  0.79757000  1.0 -0.1510620925
C  C168  1  0.99400000  0.45700000  0.46423000  1.0 -0.1510620925
Br  Br1  1  0.66295000  0.91626000  0.67572000  1.0 -0.5569012824
Br  Br2  1  0.08374000  0.74669000  0.34239000  1.0 -0.5569012824
Br  Br3  1  0.25331000  0.33705000  0.00905000  1.0 -0.5569012824
Br  Br4  1  0.33705000  0.08374000  0.17572000  1.0 -0.5569012824
Br  Br5  1  0.91626000  0.25331000  0.84239000  1.0 -0.5569012824
Br  Br6  1  0.74669000  0.66295000  0.50905000  1.0 -0.5569012824
Br  Br7  1  0.34601000  0.07253000  0.66559000  1.0 -0.527813431
Br  Br8  1  0.92747000  0.27348000  0.33226000  1.0 -0.527813431
Br  Br9  1  0.72652000  0.65399000  0.99892000  1.0 -0.527813431
Br  Br10  1  0.65399000  0.92747000  0.16559000  1.0 -0.527813431
Br  Br11  1  0.07253000  0.72652000  0.83226000  1.0 -0.527813431
Br  Br12  1  0.27348000  0.34601000  0.49892000  1.0 -0.527813431
N  N1  1  0.53340000  0.26000000  0.57220000  1.0 -0.4416578773
N  N2  1  0.74000000  0.27340000  0.23887000  1.0 -0.4416578773
N  N3  1  0.72660000  0.46660000  0.90553000  1.0 -0.4416578773
N  N4  1  0.46660000  0.74000000  0.07220000  1.0 -0.4416578773
N  N5  1  0.26000000  0.72660000  0.73887000  1.0 -0.4416578773
N  N6  1  0.27340000  0.53340000  0.40553000  1.0 -0.4416578773
N  N7  1  0.54070000  0.43110000  0.43870000  1.0 -0.2749277714
N  N8  1  0.56890000  0.10960000  0.10537000  1.0 -0.2749277714
N  N9  1  0.89040000  0.45930000  0.77203000  1.0 -0.2749277714
N  N10  1  0.45930000  0.56890000  0.93870000  1.0 -0.2749277714
N  N11  1  0.43110000  0.89040000  0.60537000  1.0 -0.2749277714
N  N12  1  0.10960000  0.54070000  0.27203000  1.0 -0.2749277714
N  N13  1  0.58830000  0.60060000  0.65890000  1.0 -0.1510620925
N  N14  1  0.39940000  0.98770000  0.32557000  1.0 -0.1510620925
N  N15  1  0.01230000  0.41170000  0.99223000  1.0 -0.1510620925
N  N16  1  0.41170000  0.39940000  0.15890000  1.0 -0.1510620925
N  N17  1  0.60060000  0.01230000  0.82557000  1.0 -0.1510620925
N  N18  1  0.98770000  0.58830000  0.49223000  1.0 -0.1510620925
N  N19  1  0.60840000  0.38290000  0.52230000  1.0 -0.3926261155
N  N20  1  0.61710000  0.22550000  0.18897000  1.0 -0.3926261155
N  N21  1  0.77450000  0.39160000  0.85563000  1.0 -0.3926261155
N  N22  1  0.39160000  0.61710000  0.02230000  1.0 -0.3926261155
N  N23  1  0.38290000  0.77450000  0.68897000  1.0 -0.3926261155
N  N24  1  0.22550000  0.60840000  0.35563000  1.0 -0.3926261155
N  N25  1  0.42450000  0.62260000  0.51440000  1.0 -0.3926261155
N  N26  1  0.37740000  0.80190000  0.18107000  1.0 -0.3926261155
N  N27  1  0.19810000  0.57550000  0.84773000  1.0 -0.3926261155
N  N28  1  0.57550000  0.37740000  0.01440000  1.0 -0.3926261155
N  N29  1  0.62260000  0.19810000  0.68107000  1.0 -0.3926261155
N  N30  1  0.80190000  0.42450000  0.34773000  1.0 -0.3926261155
N  N31  1  0.49720000  0.57640000  0.43430000  1.0 -0.2597389979
N  N32  1  0.42360000  0.92080000  0.10097000  1.0 -0.2597389979
N  N33  1  0.07920000  0.50280000  0.76763000  1.0 -0.2597389979
N  N34  1  0.50280000  0.42360000  0.93430000  1.0 -0.2597389979
N  N35  1  0.57640000  0.07920000  0.60097000  1.0 -0.2597389979
N  N36  1  0.92080000  0.49720000  0.26763000  1.0 -0.2597389979
N  N37  1  0.49280000  0.74070000  0.56750000  1.0 -0.4169913792
N  N38  1  0.25930000  0.75210000  0.23417000  1.0 -0.4169913792
N  N39  1  0.24790000  0.50720000  0.90083000  1.0 -0.4169913792
N  N40  1  0.50720000  0.25930000  0.06750000  1.0 -0.4169913792
N  N41  1  0.74070000  0.24790000  0.73417000  1.0 -0.4169913792
N  N42  1  0.75210000  0.49280000  0.40083000  1.0 -0.4169913792
O  O1  1  0.50560000  0.67170000  0.66790000  1.0 -0.4416578773
O  O2  1  0.32830000  0.83390000  0.33457000  1.0 -0.4416578773
O  O3  1  0.16610000  0.49440000  0.00123000  1.0 -0.4416578773
O  O4  1  0.49440000  0.32830000  0.16790000  1.0 -0.4416578773
O  O5  1  0.67170000  0.16610000  0.83457000  1.0 -0.4416578773
O  O6  1  0.83390000  0.50560000  0.50123000  1.0 -0.4416578773
