# DDEC6 charges by PACMAN v1.1 (https://github.com/mtap-research/PACMAN-charge/)
data_ZIVCOY_ASR_pacman
_symmetry_space_group_name_H-M   'P 1'
_cell_length_a   30.29220000
_cell_length_b   30.29220000
_cell_length_c   29.59700000
_cell_angle_alpha   90.00000000
_cell_angle_beta   90.00000000
_cell_angle_gamma   90.00000000
_symmetry_Int_Tables_number   1
_chemical_formula_structural   Cu2(C4O)9
_chemical_formula_sum   'Cu24 C432 O108'
_cell_volume   27158.72162072
_cell_formula_units_Z   12
loop_
 _symmetry_equiv_pos_site_id
 _symmetry_equiv_pos_as_xyz
  1  'x, y, z'
loop_
 _atom_site_type_symbol
 _atom_site_label
 _atom_site_symmetry_multiplicity
 _atom_site_fract_x
 _atom_site_fract_y
 _atom_site_fract_z
 _atom_site_occupancy
 _atom_site_charge
Cu  Cu1  1  0.13000000  0.13000000  0.19565000  1.0 0.8623125779
Cu  Cu2  1  0.13000000  0.87000000  0.19565000  1.0 0.8623125779
Cu  Cu3  1  0.87000000  0.87000000  0.19565000  1.0 0.8623125779
Cu  Cu4  1  0.87000000  0.13000000  0.19565000  1.0 0.8623125779
Cu  Cu5  1  0.87000000  0.13000000  0.80435000  1.0 0.8623125779
Cu  Cu6  1  0.13000000  0.87000000  0.80435000  1.0 0.8623125779
Cu  Cu7  1  0.13000000  0.13000000  0.80435000  1.0 0.8623125779
Cu  Cu8  1  0.87000000  0.87000000  0.80435000  1.0 0.8623125779
Cu  Cu9  1  0.17510000  0.17510000  0.25716000  1.0 0.8623125779
Cu  Cu10  1  0.17510000  0.82490000  0.25716000  1.0 0.8623125779
Cu  Cu11  1  0.82490000  0.82490000  0.25716000  1.0 0.8623125779
Cu  Cu12  1  0.82490000  0.17510000  0.25716000  1.0 0.8623125779
Cu  Cu13  1  0.82490000  0.17510000  0.74284000  1.0 0.8623125779
Cu  Cu14  1  0.17510000  0.82490000  0.74284000  1.0 0.8623125779
Cu  Cu15  1  0.17510000  0.17510000  0.74284000  1.0 0.8623125779
Cu  Cu16  1  0.82490000  0.82490000  0.74284000  1.0 0.8623125779
Cu  Cu17  1  0.00000000  0.26058000  0.00000000  1.0 0.7861154678
Cu  Cu18  1  0.26058000  0.00000000  0.00000000  1.0 0.7861154678
Cu  Cu19  1  0.00000000  0.73942000  0.00000000  1.0 0.7861154678
Cu  Cu20  1  0.73942000  0.00000000  0.00000000  1.0 0.7861154678
Cu  Cu21  1  0.00000000  0.34824000  0.00000000  1.0 0.8364931943
Cu  Cu22  1  0.34824000  0.00000000  0.00000000  1.0 0.8364931943
Cu  Cu23  1  0.00000000  0.65176000  0.00000000  1.0 0.8364931943
Cu  Cu24  1  0.65176000  0.00000000  0.00000000  1.0 0.8364931943
C  C1  1  0.13930000  0.22050000  0.18740000  1.0 0.59362584
C  C2  1  0.22050000  0.86070000  0.18740000  1.0 0.59362584
C  C3  1  0.86070000  0.77950000  0.18740000  1.0 0.59362584
C  C4  1  0.77950000  0.13930000  0.18740000  1.0 0.59362584
C  C5  1  0.86070000  0.22050000  0.81260000  1.0 0.59362584
C  C6  1  0.13930000  0.77950000  0.81260000  1.0 0.59362584
C  C7  1  0.22050000  0.13930000  0.81260000  1.0 0.59362584
C  C8  1  0.77950000  0.86070000  0.81260000  1.0 0.59362584
C  C9  1  0.86070000  0.77950000  0.81260000  1.0 0.59362584
C  C10  1  0.77950000  0.13930000  0.81260000  1.0 0.59362584
C  C11  1  0.13930000  0.22050000  0.81260000  1.0 0.59362584
C  C12  1  0.22050000  0.86070000  0.81260000  1.0 0.59362584
C  C13  1  0.13930000  0.77950000  0.18740000  1.0 0.59362584
C  C14  1  0.86070000  0.22050000  0.18740000  1.0 0.59362584
C  C15  1  0.77950000  0.86070000  0.18740000  1.0 0.59362584
C  C16  1  0.22050000  0.13930000  0.18740000  1.0 0.59362584
C  C17  1  0.05310000  0.30260000  0.05730000  1.0 0.5784622284
C  C18  1  0.30260000  0.94690000  0.05730000  1.0 0.5784622284
C  C19  1  0.94690000  0.69740000  0.05730000  1.0 0.5784622284
C  C20  1  0.69740000  0.05310000  0.05730000  1.0 0.5784622284
C  C21  1  0.94690000  0.30260000  0.94270000  1.0 0.5784622284
C  C22  1  0.05310000  0.69740000  0.94270000  1.0 0.5784622284
C  C23  1  0.30260000  0.05310000  0.94270000  1.0 0.5784622284
C  C24  1  0.69740000  0.94690000  0.94270000  1.0 0.5784622284
C  C25  1  0.94690000  0.69740000  0.94270000  1.0 0.5784622284
C  C26  1  0.69740000  0.05310000  0.94270000  1.0 0.5784622284
C  C27  1  0.05310000  0.30260000  0.94270000  1.0 0.5784622284
C  C28  1  0.30260000  0.94690000  0.94270000  1.0 0.5784622284
C  C29  1  0.05310000  0.69740000  0.05730000  1.0 0.5784622284
C  C30  1  0.94690000  0.30260000  0.05730000  1.0 0.5784622284
C  C31  1  0.69740000  0.94690000  0.05730000  1.0 0.5784622284
C  C32  1  0.30260000  0.05310000  0.05730000  1.0 0.5784622284
C  C33  1  0.12900000  0.26310000  0.15920000  1.0 -0.0387969721
C  C34  1  0.26310000  0.87100000  0.15920000  1.0 -0.0387969721
C  C35  1  0.87100000  0.73690000  0.15920000  1.0 -0.0387969721
C  C36  1  0.73690000  0.12900000  0.15920000  1.0 -0.0387969721
C  C37  1  0.87100000  0.26310000  0.84080000  1.0 -0.0387969721
C  C38  1  0.12900000  0.73690000  0.84080000  1.0 -0.0387969721
C  C39  1  0.26310000  0.12900000  0.84080000  1.0 -0.0387969721
C  C40  1  0.73690000  0.87100000  0.84080000  1.0 -0.0387969721
C  C41  1  0.87100000  0.73690000  0.84080000  1.0 -0.0387969721
C  C42  1  0.73690000  0.12900000  0.84080000  1.0 -0.0387969721
C  C43  1  0.12900000  0.26310000  0.84080000  1.0 -0.0387969721
C  C44  1  0.26310000  0.87100000  0.84080000  1.0 -0.0387969721
C  C45  1  0.12900000  0.73690000  0.15920000  1.0 -0.0387969721
C  C46  1  0.87100000  0.26310000  0.15920000  1.0 -0.0387969721
C  C47  1  0.73690000  0.87100000  0.15920000  1.0 -0.0387969721
C  C48  1  0.26310000  0.12900000  0.15920000  1.0 -0.0387969721
C  C49  1  0.10050000  0.26450000  0.11820000  1.0 0.1071629503
C  C50  1  0.26450000  0.89950000  0.11820000  1.0 0.1071629503
C  C51  1  0.89950000  0.73550000  0.11820000  1.0 0.1071629503
C  C52  1  0.73550000  0.10050000  0.11820000  1.0 0.1071629503
C  C53  1  0.89950000  0.26450000  0.88180000  1.0 0.1071629503
C  C54  1  0.10050000  0.73550000  0.88180000  1.0 0.1071629503
C  C55  1  0.26450000  0.10050000  0.88180000  1.0 0.1071629503
C  C56  1  0.73550000  0.89950000  0.88180000  1.0 0.1071629503
C  C57  1  0.89950000  0.73550000  0.88180000  1.0 0.1071629503
C  C58  1  0.73550000  0.10050000  0.88180000  1.0 0.1071629503
C  C59  1  0.10050000  0.26450000  0.88180000  1.0 0.1071629503
C  C60  1  0.26450000  0.89950000  0.88180000  1.0 0.1071629503
C  C61  1  0.10050000  0.73550000  0.11820000  1.0 0.1071629503
C  C62  1  0.89950000  0.26450000  0.11820000  1.0 0.1071629503
C  C63  1  0.73550000  0.89950000  0.11820000  1.0 0.1071629503
C  C64  1  0.26450000  0.10050000  0.11820000  1.0 0.1071629503
C  C65  1  0.09020000  0.30360000  0.09620000  1.0 -0.0763956609
C  C66  1  0.30360000  0.90980000  0.09620000  1.0 -0.0763956609
C  C67  1  0.90980000  0.69640000  0.09620000  1.0 -0.0763956609
C  C68  1  0.69640000  0.09020000  0.09620000  1.0 -0.0763956609
C  C69  1  0.90980000  0.30360000  0.90380000  1.0 -0.0763956609
C  C70  1  0.09020000  0.69640000  0.90380000  1.0 -0.0763956609
C  C71  1  0.30360000  0.09020000  0.90380000  1.0 -0.0763956609
C  C72  1  0.69640000  0.90980000  0.90380000  1.0 -0.0763956609
C  C73  1  0.90980000  0.69640000  0.90380000  1.0 -0.0749702526
C  C74  1  0.69640000  0.09020000  0.90380000  1.0 -0.0763956609
C  C75  1  0.09020000  0.30360000  0.90380000  1.0 -0.0763956609
C  C76  1  0.30360000  0.90980000  0.90380000  1.0 -0.0763956609
C  C77  1  0.09020000  0.69640000  0.09620000  1.0 -0.0763956609
C  C78  1  0.90980000  0.30360000  0.09620000  1.0 -0.0763956609
C  C79  1  0.69640000  0.90980000  0.09620000  1.0 -0.0763956609
C  C80  1  0.30360000  0.09020000  0.09620000  1.0 -0.0763956609
C  C81  1  0.10880000  0.34270000  0.11320000  1.0 0.0673945062
C  C82  1  0.34270000  0.89120000  0.11320000  1.0 0.0673945062
C  C83  1  0.89120000  0.65730000  0.11320000  1.0 0.0673945062
C  C84  1  0.65730000  0.10880000  0.11320000  1.0 0.0673945062
C  C85  1  0.89120000  0.34270000  0.88680000  1.0 0.0673945062
C  C86  1  0.10880000  0.65730000  0.88680000  1.0 0.0673945062
C  C87  1  0.34270000  0.10880000  0.88680000  1.0 0.0673945062
C  C88  1  0.65730000  0.89120000  0.88680000  1.0 0.0673945062
C  C89  1  0.89120000  0.65730000  0.88680000  1.0 0.0673945062
C  C90  1  0.65730000  0.10880000  0.88680000  1.0 0.0673945062
C  C91  1  0.10880000  0.34270000  0.88680000  1.0 0.0673945062
C  C92  1  0.34270000  0.89120000  0.88680000  1.0 0.0673945062
C  C93  1  0.10880000  0.65730000  0.11320000  1.0 0.0673945062
C  C94  1  0.89120000  0.34270000  0.11320000  1.0 0.0673945062
C  C95  1  0.65730000  0.89120000  0.11320000  1.0 0.0673945062
C  C96  1  0.34270000  0.10880000  0.11320000  1.0 0.0673945062
C  C97  1  0.14190000  0.34240000  0.14990000  1.0 0.0027514636
C  C98  1  0.34240000  0.85810000  0.14990000  1.0 0.0027514636
C  C99  1  0.85810000  0.65760000  0.14990000  1.0 0.0027514636
C  C100  1  0.65760000  0.14190000  0.14990000  1.0 0.0027514636
C  C101  1  0.85810000  0.34240000  0.85010000  1.0 0.0027514636
C  C102  1  0.14190000  0.65760000  0.85010000  1.0 0.0027514636
C  C103  1  0.34240000  0.14190000  0.85010000  1.0 0.0027514636
C  C104  1  0.65760000  0.85810000  0.85010000  1.0 0.0027514636
C  C105  1  0.85810000  0.65760000  0.85010000  1.0 0.0027514636
C  C106  1  0.65760000  0.14190000  0.85010000  1.0 0.0027514636
C  C107  1  0.14190000  0.34240000  0.85010000  1.0 0.0027514636
C  C108  1  0.34240000  0.85810000  0.85010000  1.0 0.0027514636
C  C109  1  0.14190000  0.65760000  0.14990000  1.0 0.0027514636
C  C110  1  0.85810000  0.34240000  0.14990000  1.0 0.0027514636
C  C111  1  0.65760000  0.85810000  0.14990000  1.0 0.0027514636
C  C112  1  0.34240000  0.14190000  0.14990000  1.0 0.0027514636
C  C113  1  0.14820000  0.30240000  0.17050000  1.0 -0.0310229104
C  C114  1  0.30240000  0.85180000  0.17050000  1.0 -0.0310229104
C  C115  1  0.85180000  0.69760000  0.17050000  1.0 -0.0310229104
C  C116  1  0.69760000  0.14820000  0.17050000  1.0 -0.0310229104
C  C117  1  0.85180000  0.30240000  0.82950000  1.0 -0.0310229104
C  C118  1  0.14820000  0.69760000  0.82950000  1.0 -0.0310229104
C  C119  1  0.30240000  0.14820000  0.82950000  1.0 -0.0310229104
C  C120  1  0.69760000  0.85180000  0.82950000  1.0 -0.0310229104
C  C121  1  0.85180000  0.69760000  0.82950000  1.0 -0.0310229104
C  C122  1  0.69760000  0.14820000  0.82950000  1.0 -0.0310229104
C  C123  1  0.14820000  0.30240000  0.82950000  1.0 -0.0310229104
C  C124  1  0.30240000  0.85180000  0.82950000  1.0 -0.0310229104
C  C125  1  0.14820000  0.69760000  0.17050000  1.0 -0.0310229104
C  C126  1  0.85180000  0.30240000  0.17050000  1.0 -0.0310229104
C  C127  1  0.69760000  0.85180000  0.17050000  1.0 -0.0310229104
C  C128  1  0.30240000  0.14820000  0.17050000  1.0 -0.0310229104
C  C129  1  0.16040000  0.38540000  0.16520000  1.0 0.0453675547
C  C130  1  0.38540000  0.83960000  0.16520000  1.0 0.0453675547
C  C131  1  0.83960000  0.61460000  0.16520000  1.0 0.0453675547
C  C132  1  0.61460000  0.16040000  0.16520000  1.0 0.0453675547
C  C133  1  0.83960000  0.38540000  0.83480000  1.0 0.040303351
C  C134  1  0.16040000  0.61460000  0.83480000  1.0 0.040303351
C  C135  1  0.38540000  0.16040000  0.83480000  1.0 0.040303351
C  C136  1  0.61460000  0.83960000  0.83480000  1.0 0.040303351
C  C137  1  0.83960000  0.61460000  0.83480000  1.0 0.040303351
C  C138  1  0.61460000  0.16040000  0.83480000  1.0 0.040303351
C  C139  1  0.16040000  0.38540000  0.83480000  1.0 0.040303351
C  C140  1  0.38540000  0.83960000  0.83480000  1.0 0.040303351
C  C141  1  0.16040000  0.61460000  0.16520000  1.0 0.0453675547
C  C142  1  0.83960000  0.38540000  0.16520000  1.0 0.0453675547
C  C143  1  0.61460000  0.83960000  0.16520000  1.0 0.0453675547
C  C144  1  0.38540000  0.16040000  0.16520000  1.0 0.0453675547
C  C145  1  0.20960000  0.46030000  0.18390000  1.0 0.1644282045
C  C146  1  0.46030000  0.79040000  0.18390000  1.0 0.1656302613
C  C147  1  0.79040000  0.53970000  0.18390000  1.0 0.1656302613
C  C148  1  0.53970000  0.20960000  0.18390000  1.0 0.1644282045
C  C149  1  0.79040000  0.46030000  0.81610000  1.0 0.1656302613
C  C150  1  0.20960000  0.53970000  0.81610000  1.0 0.1656302613
C  C151  1  0.46030000  0.20960000  0.81610000  1.0 0.1656302613
C  C152  1  0.53970000  0.79040000  0.81610000  1.0 0.1656302613
C  C153  1  0.79040000  0.53970000  0.81610000  1.0 0.1656302613
C  C154  1  0.53970000  0.20960000  0.81610000  1.0 0.1656302613
C  C155  1  0.20960000  0.46030000  0.81610000  1.0 0.1656302613
C  C156  1  0.46030000  0.79040000  0.81610000  1.0 0.1656302613
C  C157  1  0.20960000  0.53970000  0.18390000  1.0 0.1644282045
C  C158  1  0.79040000  0.46030000  0.18390000  1.0 0.1656302613
C  C159  1  0.53970000  0.79040000  0.18390000  1.0 0.1656302613
C  C160  1  0.46030000  0.20960000  0.18390000  1.0 0.1644282045
C  C161  1  0.08320000  0.16980000  0.26600000  1.0 0.6099680888
C  C162  1  0.16980000  0.91680000  0.26600000  1.0 0.6099680888
C  C163  1  0.91680000  0.83020000  0.26600000  1.0 0.6099680888
C  C164  1  0.83020000  0.08320000  0.26600000  1.0 0.6099680888
C  C165  1  0.91680000  0.16980000  0.73400000  1.0 0.6099680888
C  C166  1  0.08320000  0.83020000  0.73400000  1.0 0.6099680888
C  C167  1  0.16980000  0.08320000  0.73400000  1.0 0.6099680888
C  C168  1  0.83020000  0.91680000  0.73400000  1.0 0.6099680888
C  C169  1  0.91680000  0.83020000  0.73400000  1.0 0.6099680888
C  C170  1  0.83020000  0.08320000  0.73400000  1.0 0.6099680888
C  C171  1  0.08320000  0.16980000  0.73400000  1.0 0.6099680888
C  C172  1  0.16980000  0.91680000  0.73400000  1.0 0.6099680888
C  C173  1  0.08320000  0.83020000  0.26600000  1.0 0.6099680888
C  C174  1  0.91680000  0.16980000  0.26600000  1.0 0.6099680888
C  C175  1  0.83020000  0.91680000  0.26600000  1.0 0.6099680888
C  C176  1  0.16980000  0.08320000  0.26600000  1.0 0.6099680888
C  C177  1  0.00000000  0.16860000  0.27070000  1.0 -0.0010865649
C  C178  1  0.16860000  0.00000000  0.27070000  1.0 -0.0010865649
C  C179  1  0.00000000  0.83140000  0.27070000  1.0 -0.0010865649
C  C180  1  0.83140000  0.00000000  0.27070000  1.0 -0.0010865649
C  C181  1  0.00000000  0.16860000  0.72930000  1.0 -0.0010865649
C  C182  1  0.00000000  0.83140000  0.72930000  1.0 -0.0010865649
C  C183  1  0.16860000  0.00000000  0.72930000  1.0 -0.0010865649
C  C184  1  0.83140000  0.00000000  0.72930000  1.0 -0.0010865649
C  C185  1  0.03790000  0.18220000  0.28900000  1.0 -0.0387969721
C  C186  1  0.18220000  0.96210000  0.28900000  1.0 -0.0387969721
C  C187  1  0.96210000  0.81780000  0.28900000  1.0 -0.0387969721
C  C188  1  0.81780000  0.03790000  0.28900000  1.0 -0.0387969721
C  C189  1  0.96210000  0.18220000  0.71100000  1.0 -0.0387969721
C  C190  1  0.03790000  0.81780000  0.71100000  1.0 -0.0387969721
C  C191  1  0.18220000  0.03790000  0.71100000  1.0 -0.0387969721
C  C192  1  0.81780000  0.96210000  0.71100000  1.0 -0.0387969721
C  C193  1  0.96210000  0.81780000  0.71100000  1.0 -0.0387969721
C  C194  1  0.81780000  0.03790000  0.71100000  1.0 -0.0387969721
C  C195  1  0.03790000  0.18220000  0.71100000  1.0 -0.0387969721
C  C196  1  0.18220000  0.96210000  0.71100000  1.0 -0.0387969721
C  C197  1  0.03790000  0.81780000  0.28900000  1.0 -0.0387969721
C  C198  1  0.96210000  0.18220000  0.28900000  1.0 -0.0387969721
C  C199  1  0.81780000  0.96210000  0.28900000  1.0 -0.0387969721
C  C200  1  0.18220000  0.03790000  0.28900000  1.0 -0.0387969721
C  C201  1  0.04280000  0.21240000  0.32650000  1.0 0.040303351
C  C202  1  0.21240000  0.95720000  0.32650000  1.0 0.040303351
C  C203  1  0.95720000  0.78760000  0.32650000  1.0 0.040303351
C  C204  1  0.78760000  0.04280000  0.32650000  1.0 0.040303351
C  C205  1  0.95720000  0.21240000  0.67350000  1.0 0.040303351
C  C206  1  0.04280000  0.78760000  0.67350000  1.0 0.040303351
C  C207  1  0.21240000  0.04280000  0.67350000  1.0 0.040303351
C  C208  1  0.78760000  0.95720000  0.67350000  1.0 0.040303351
C  C209  1  0.95720000  0.78760000  0.67350000  1.0 0.040303351
C  C210  1  0.78760000  0.04280000  0.67350000  1.0 0.040303351
C  C211  1  0.04280000  0.21240000  0.67350000  1.0 0.040303351
C  C212  1  0.21240000  0.95720000  0.67350000  1.0 0.040303351
C  C213  1  0.04280000  0.78760000  0.32650000  1.0 0.040303351
C  C214  1  0.95720000  0.21240000  0.32650000  1.0 0.040303351
C  C215  1  0.78760000  0.95720000  0.32650000  1.0 0.040303351
C  C216  1  0.21240000  0.04280000  0.32650000  1.0 0.040303351
C  C217  1  0.00000000  0.22640000  0.34450000  1.0 0.0099155057
C  C218  1  0.22640000  0.00000000  0.34450000  1.0 0.0099155057
C  C219  1  0.00000000  0.77360000  0.34450000  1.0 0.0099155057
C  C220  1  0.77360000  0.00000000  0.34450000  1.0 0.0099155057
C  C221  1  0.00000000  0.22640000  0.65550000  1.0 0.0099155057
C  C222  1  0.00000000  0.77360000  0.65550000  1.0 0.0099155057
C  C223  1  0.22640000  0.00000000  0.65550000  1.0 0.0099155057
C  C224  1  0.77360000  0.00000000  0.65550000  1.0 0.0099155057
C  C225  1  0.00000000  0.25870000  0.38340000  1.0 0.0453675547
C  C226  1  0.25870000  0.00000000  0.38340000  1.0 0.0453675547
C  C227  1  0.00000000  0.74130000  0.38340000  1.0 0.0453675547
C  C228  1  0.74130000  0.00000000  0.38340000  1.0 0.040303351
C  C229  1  0.00000000  0.25870000  0.61660000  1.0 0.0453675547
C  C230  1  0.00000000  0.74130000  0.61660000  1.0 0.0453675547
C  C231  1  0.25870000  0.00000000  0.61660000  1.0 0.040303351
C  C232  1  0.74130000  0.00000000  0.61660000  1.0 0.040303351
C  C233  1  0.96840000  0.25100000  0.41880000  1.0 0.0099155057
C  C234  1  0.25100000  0.03160000  0.41880000  1.0 0.0099155057
C  C235  1  0.03160000  0.74900000  0.41880000  1.0 0.0099155057
C  C236  1  0.74900000  0.96840000  0.41880000  1.0 0.0099155057
C  C237  1  0.03160000  0.25100000  0.58120000  1.0 0.0099155057
C  C238  1  0.96840000  0.74900000  0.58120000  1.0 0.0099155057
C  C239  1  0.25100000  0.96840000  0.58120000  1.0 0.0099155057
C  C240  1  0.74900000  0.03160000  0.58120000  1.0 0.0099155057
C  C241  1  0.03160000  0.74900000  0.58120000  1.0 0.0099155057
C  C242  1  0.74900000  0.96840000  0.58120000  1.0 0.0099155057
C  C243  1  0.96840000  0.25100000  0.58120000  1.0 0.0099155057
C  C244  1  0.25100000  0.03160000  0.58120000  1.0 0.0099155057
C  C245  1  0.96840000  0.74900000  0.41880000  1.0 0.0099155057
C  C246  1  0.03160000  0.25100000  0.41880000  1.0 0.0099155057
C  C247  1  0.74900000  0.03160000  0.41880000  1.0 0.0099155057
C  C248  1  0.25100000  0.96840000  0.41880000  1.0 0.0099155057
C  C249  1  0.96890000  0.27840000  0.45680000  1.0 -0.0387969721
C  C250  1  0.27840000  0.03110000  0.45680000  1.0 -0.0387969721
C  C251  1  0.03110000  0.72160000  0.45680000  1.0 -0.0387969721
C  C252  1  0.72160000  0.96890000  0.45680000  1.0 -0.0387969721
C  C253  1  0.03110000  0.27840000  0.54320000  1.0 -0.0387969721
C  C254  1  0.96890000  0.72160000  0.54320000  1.0 -0.0387969721
C  C255  1  0.27840000  0.96890000  0.54320000  1.0 -0.0387969721
C  C256  1  0.72160000  0.03110000  0.54320000  1.0 -0.0387969721
C  C257  1  0.03110000  0.72160000  0.54320000  1.0 -0.0387969721
C  C258  1  0.72160000  0.96890000  0.54320000  1.0 -0.0387969721
C  C259  1  0.96890000  0.27840000  0.54320000  1.0 -0.0387969721
C  C260  1  0.27840000  0.03110000  0.54320000  1.0 -0.0387969721
C  C261  1  0.96890000  0.72160000  0.45680000  1.0 -0.0387969721
C  C262  1  0.03110000  0.27840000  0.45680000  1.0 -0.0387969721
C  C263  1  0.72160000  0.03110000  0.45680000  1.0 -0.0387969721
C  C264  1  0.27840000  0.96890000  0.45680000  1.0 -0.0387969721
C  C265  1  0.00000000  0.31240000  0.45960000  1.0 0.1911650917
C  C266  1  0.31240000  0.00000000  0.45960000  1.0 0.1911650917
C  C267  1  0.00000000  0.68760000  0.45960000  1.0 0.1911650917
C  C268  1  0.68760000  0.00000000  0.45960000  1.0 0.1911650917
C  C269  1  0.00000000  0.31240000  0.54040000  1.0 0.1911650917
C  C270  1  0.00000000  0.68760000  0.54040000  1.0 0.1911650917
C  C271  1  0.31240000  0.00000000  0.54040000  1.0 0.1911650917
C  C272  1  0.68760000  0.00000000  0.54040000  1.0 0.1911650917
C  C273  1  0.02960000  0.31960000  0.42550000  1.0 -0.0310229104
C  C274  1  0.31960000  0.97040000  0.42550000  1.0 -0.0310229104
C  C275  1  0.97040000  0.68040000  0.42550000  1.0 -0.0310229104
C  C276  1  0.68040000  0.02960000  0.42550000  1.0 -0.0310229104
C  C277  1  0.97040000  0.31960000  0.57450000  1.0 -0.0310229104
C  C278  1  0.02960000  0.68040000  0.57450000  1.0 -0.0310229104
C  C279  1  0.31960000  0.02960000  0.57450000  1.0 -0.0387969721
C  C280  1  0.68040000  0.97040000  0.57450000  1.0 -0.0310229104
C  C281  1  0.97040000  0.68040000  0.57450000  1.0 -0.0310229104
C  C282  1  0.68040000  0.02960000  0.57450000  1.0 -0.0310229104
C  C283  1  0.02960000  0.31960000  0.57450000  1.0 -0.0387969721
C  C284  1  0.31960000  0.97040000  0.57450000  1.0 -0.0310229104
C  C285  1  0.02960000  0.68040000  0.42550000  1.0 -0.0310229104
C  C286  1  0.97040000  0.31960000  0.42550000  1.0 -0.0310229104
C  C287  1  0.68040000  0.97040000  0.42550000  1.0 -0.0310229104
C  C288  1  0.31960000  0.02960000  0.42550000  1.0 -0.0310229104
C  C289  1  0.02970000  0.29300000  0.38800000  1.0 0.0099155057
C  C290  1  0.29300000  0.97030000  0.38800000  1.0 0.0099155057
C  C291  1  0.97030000  0.70700000  0.38800000  1.0 0.0099155057
C  C292  1  0.70700000  0.02970000  0.38800000  1.0 0.0099155057
C  C293  1  0.97030000  0.29300000  0.61200000  1.0 0.0099155057
C  C294  1  0.02970000  0.70700000  0.61200000  1.0 0.0099155057
C  C295  1  0.29300000  0.02970000  0.61200000  1.0 0.0099155057
C  C296  1  0.70700000  0.97030000  0.61200000  1.0 0.0099155057
C  C297  1  0.97030000  0.70700000  0.61200000  1.0 0.0099155057
C  C298  1  0.70700000  0.02970000  0.61200000  1.0 0.0099155057
C  C299  1  0.02970000  0.29300000  0.61200000  1.0 0.0099155057
C  C300  1  0.29300000  0.97030000  0.61200000  1.0 0.0099155057
C  C301  1  0.02970000  0.70700000  0.38800000  1.0 0.0099155057
C  C302  1  0.97030000  0.29300000  0.38800000  1.0 0.0099155057
C  C303  1  0.70700000  0.97030000  0.38800000  1.0 0.0099155057
C  C304  1  0.29300000  0.02970000  0.38800000  1.0 0.0099155057
C  C305  1  0.13990000  0.42680000  0.16680000  1.0 0.0099155057
C  C306  1  0.42680000  0.86010000  0.16680000  1.0 0.0099155057
C  C307  1  0.86010000  0.57320000  0.16680000  1.0 0.0099155057
C  C308  1  0.57320000  0.13990000  0.16680000  1.0 0.0099155057
C  C309  1  0.86010000  0.42680000  0.83320000  1.0 0.0099155057
C  C310  1  0.13990000  0.57320000  0.83320000  1.0 0.0099155057
C  C311  1  0.42680000  0.13990000  0.83320000  1.0 0.0099155057
C  C312  1  0.57320000  0.86010000  0.83320000  1.0 0.0099155057
C  C313  1  0.86010000  0.57320000  0.83320000  1.0 0.0099155057
C  C314  1  0.57320000  0.13990000  0.83320000  1.0 0.0099155057
C  C315  1  0.13990000  0.42680000  0.83320000  1.0 0.0099155057
C  C316  1  0.42680000  0.86010000  0.83320000  1.0 0.0099155057
C  C317  1  0.13990000  0.57320000  0.16680000  1.0 0.0099155057
C  C318  1  0.86010000  0.42680000  0.16680000  1.0 0.0099155057
C  C319  1  0.57320000  0.86010000  0.16680000  1.0 0.0099155057
C  C320  1  0.42680000  0.13990000  0.16680000  1.0 0.0099155057
C  C321  1  0.16530000  0.46460000  0.17640000  1.0 -0.0924645963
C  C322  1  0.46460000  0.83470000  0.17640000  1.0 -0.0924645963
C  C323  1  0.83470000  0.53540000  0.17640000  1.0 -0.0953919438
C  C324  1  0.53540000  0.16530000  0.17640000  1.0 -0.0924645963
C  C325  1  0.83470000  0.46460000  0.82360000  1.0 -0.0924645963
C  C326  1  0.16530000  0.53540000  0.82360000  1.0 -0.0924645963
C  C327  1  0.46460000  0.16530000  0.82360000  1.0 -0.0924645963
C  C328  1  0.53540000  0.83470000  0.82360000  1.0 -0.0924645963
C  C329  1  0.83470000  0.53540000  0.82360000  1.0 -0.0924645963
C  C330  1  0.53540000  0.16530000  0.82360000  1.0 -0.0924645963
C  C331  1  0.16530000  0.46460000  0.82360000  1.0 -0.0924645963
C  C332  1  0.46460000  0.83470000  0.82360000  1.0 -0.0924645963
C  C333  1  0.16530000  0.53540000  0.17640000  1.0 -0.0924645963
C  C334  1  0.83470000  0.46460000  0.17640000  1.0 -0.0953919438
C  C335  1  0.53540000  0.83470000  0.17640000  1.0 -0.0924645963
C  C336  1  0.46460000  0.16530000  0.17640000  1.0 -0.0924645963
C  C337  1  0.23090000  0.42050000  0.18280000  1.0 -0.0310229104
C  C338  1  0.42050000  0.76910000  0.18280000  1.0 -0.0310229104
C  C339  1  0.76910000  0.57950000  0.18280000  1.0 -0.0310229104
C  C340  1  0.57950000  0.23090000  0.18280000  1.0 -0.0310229104
C  C341  1  0.76910000  0.42050000  0.81720000  1.0 -0.0310229104
C  C342  1  0.23090000  0.57950000  0.81720000  1.0 -0.0310229104
C  C343  1  0.42050000  0.23090000  0.81720000  1.0 -0.0310229104
C  C344  1  0.57950000  0.76910000  0.81720000  1.0 -0.0310229104
C  C345  1  0.76910000  0.57950000  0.81720000  1.0 -0.0310229104
C  C346  1  0.57950000  0.23090000  0.81720000  1.0 -0.0310229104
C  C347  1  0.23090000  0.42050000  0.81720000  1.0 -0.0310229104
C  C348  1  0.42050000  0.76910000  0.81720000  1.0 -0.0310229104
C  C349  1  0.23090000  0.57950000  0.18280000  1.0 -0.0310229104
C  C350  1  0.76910000  0.42050000  0.18280000  1.0 -0.0310229104
C  C351  1  0.57950000  0.76910000  0.18280000  1.0 -0.0310229104
C  C352  1  0.42050000  0.23090000  0.18280000  1.0 -0.0310229104
C  C353  1  0.20530000  0.38140000  0.17300000  1.0 0.0327522318
C  C354  1  0.38140000  0.79470000  0.17300000  1.0 0.0327522318
C  C355  1  0.79470000  0.61860000  0.17300000  1.0 0.0327522318
C  C356  1  0.61860000  0.20530000  0.17300000  1.0 0.0327522318
C  C357  1  0.79470000  0.38140000  0.82700000  1.0 0.0327522318
C  C358  1  0.20530000  0.61860000  0.82700000  1.0 0.0327522318
C  C359  1  0.38140000  0.20530000  0.82700000  1.0 0.0327522318
C  C360  1  0.61860000  0.79470000  0.82700000  1.0 0.0327522318
C  C361  1  0.79470000  0.61860000  0.82700000  1.0 0.0327522318
C  C362  1  0.61860000  0.20530000  0.82700000  1.0 0.0327522318
C  C363  1  0.20530000  0.38140000  0.82700000  1.0 0.0327522318
C  C364  1  0.38140000  0.79470000  0.82700000  1.0 0.0327522318
C  C365  1  0.20530000  0.61860000  0.17300000  1.0 0.0327522318
C  C366  1  0.79470000  0.38140000  0.17300000  1.0 0.0327522318
C  C367  1  0.61860000  0.79470000  0.17300000  1.0 0.0327522318
C  C368  1  0.38140000  0.20530000  0.17300000  1.0 0.0327522318
C  C369  1  0.17720000  0.41000000  0.12980000  1.0 0.0099155057
C  C370  1  0.41000000  0.82280000  0.12980000  1.0 0.0099155057
C  C371  1  0.82280000  0.59000000  0.12980000  1.0 0.0099155057
C  C372  1  0.59000000  0.17720000  0.12980000  1.0 0.0099155057
C  C373  1  0.82280000  0.41000000  0.87020000  1.0 0.0099155057
C  C374  1  0.17720000  0.59000000  0.87020000  1.0 0.0099155057
C  C375  1  0.41000000  0.17720000  0.87020000  1.0 0.0099155057
C  C376  1  0.59000000  0.82280000  0.87020000  1.0 0.0099155057
C  C377  1  0.82280000  0.59000000  0.87020000  1.0 0.0099155057
C  C378  1  0.59000000  0.17720000  0.87020000  1.0 0.0099155057
C  C379  1  0.17720000  0.41000000  0.87020000  1.0 0.0099155057
C  C380  1  0.41000000  0.82280000  0.87020000  1.0 0.0099155057
C  C381  1  0.17720000  0.59000000  0.12980000  1.0 0.0099155057
C  C382  1  0.82280000  0.41000000  0.12980000  1.0 0.0099155057
C  C383  1  0.59000000  0.82280000  0.12980000  1.0 0.0099155057
C  C384  1  0.41000000  0.17720000  0.12980000  1.0 0.0099155057
C  C385  1  0.19250000  0.43540000  0.21910000  1.0 -0.0387969721
C  C386  1  0.43540000  0.80750000  0.21910000  1.0 -0.0387969721
C  C387  1  0.80750000  0.56460000  0.21910000  1.0 -0.0387969721
C  C388  1  0.56460000  0.19250000  0.21910000  1.0 -0.0387969721
C  C389  1  0.80750000  0.43540000  0.78090000  1.0 -0.0310229104
C  C390  1  0.19250000  0.56460000  0.78090000  1.0 -0.0310229104
C  C391  1  0.43540000  0.19250000  0.78090000  1.0 -0.0310229104
C  C392  1  0.56460000  0.80750000  0.78090000  1.0 -0.0310229104
C  C393  1  0.80750000  0.56460000  0.78090000  1.0 -0.0310229104
C  C394  1  0.56460000  0.19250000  0.78090000  1.0 -0.0310229104
C  C395  1  0.19250000  0.43540000  0.78090000  1.0 -0.0310229104
C  C396  1  0.43540000  0.80750000  0.78090000  1.0 -0.0310229104
C  C397  1  0.19250000  0.56460000  0.21910000  1.0 -0.0387969721
C  C398  1  0.80750000  0.43540000  0.21910000  1.0 -0.0387969721
C  C399  1  0.56460000  0.80750000  0.21910000  1.0 -0.0387969721
C  C400  1  0.43540000  0.19250000  0.21910000  1.0 -0.0387969721
C  C401  1  0.16780000  0.39740000  0.20950000  1.0 0.0099155057
C  C402  1  0.39740000  0.83220000  0.20950000  1.0 0.0099155057
C  C403  1  0.83220000  0.60260000  0.20950000  1.0 0.0099155057
C  C404  1  0.60260000  0.16780000  0.20950000  1.0 0.0099155057
C  C405  1  0.83220000  0.39740000  0.79050000  1.0 0.0099155057
C  C406  1  0.16780000  0.60260000  0.79050000  1.0 0.0099155057
C  C407  1  0.39740000  0.16780000  0.79050000  1.0 0.0099155057
C  C408  1  0.60260000  0.83220000  0.79050000  1.0 0.0099155057
C  C409  1  0.83220000  0.60260000  0.79050000  1.0 0.0099155057
C  C410  1  0.60260000  0.16780000  0.79050000  1.0 0.0099155057
C  C411  1  0.16780000  0.39740000  0.79050000  1.0 0.0099155057
C  C412  1  0.39740000  0.83220000  0.79050000  1.0 0.0099155057
C  C413  1  0.16780000  0.60260000  0.20950000  1.0 0.0099155057
C  C414  1  0.83220000  0.39740000  0.20950000  1.0 0.0099155057
C  C415  1  0.60260000  0.83220000  0.20950000  1.0 0.0099155057
C  C416  1  0.39740000  0.16780000  0.20950000  1.0 0.0099155057
C  C417  1  0.20260000  0.44870000  0.13870000  1.0 -0.0310229104
C  C418  1  0.44870000  0.79740000  0.13870000  1.0 -0.0310229104
C  C419  1  0.79740000  0.55130000  0.13870000  1.0 -0.0310229104
C  C420  1  0.55130000  0.20260000  0.13870000  1.0 -0.0310229104
C  C421  1  0.79740000  0.44870000  0.86130000  1.0 -0.0310229104
C  C422  1  0.20260000  0.55130000  0.86130000  1.0 -0.0310229104
C  C423  1  0.44870000  0.20260000  0.86130000  1.0 -0.0310229104
C  C424  1  0.55130000  0.79740000  0.86130000  1.0 -0.0310229104
C  C425  1  0.79740000  0.55130000  0.86130000  1.0 -0.0310229104
C  C426  1  0.55130000  0.20260000  0.86130000  1.0 -0.0310229104
C  C427  1  0.20260000  0.44870000  0.86130000  1.0 -0.0310229104
C  C428  1  0.44870000  0.79740000  0.86130000  1.0 -0.0310229104
C  C429  1  0.20260000  0.55130000  0.13870000  1.0 -0.0310229104
C  C430  1  0.79740000  0.44870000  0.13870000  1.0 -0.0310229104
C  C431  1  0.55130000  0.79740000  0.13870000  1.0 -0.0310229104
C  C432  1  0.44870000  0.20260000  0.13870000  1.0 -0.0310229104
O  O1  1  0.12410000  0.18760000  0.16540000  1.0 -0.5373914612
O  O2  1  0.18760000  0.87590000  0.16540000  1.0 -0.5373914612
O  O3  1  0.87590000  0.81240000  0.16540000  1.0 -0.5373914612
O  O4  1  0.81240000  0.12410000  0.16540000  1.0 -0.5373914612
O  O5  1  0.87590000  0.18760000  0.83460000  1.0 -0.5373914612
O  O6  1  0.12410000  0.81240000  0.83460000  1.0 -0.5373914612
O  O7  1  0.18760000  0.12410000  0.83460000  1.0 -0.5373914612
O  O8  1  0.81240000  0.87590000  0.83460000  1.0 -0.5373914612
O  O9  1  0.87590000  0.81240000  0.83460000  1.0 -0.5373914612
O  O10  1  0.81240000  0.12410000  0.83460000  1.0 -0.5373914612
O  O11  1  0.12410000  0.18760000  0.83460000  1.0 -0.5373914612
O  O12  1  0.18760000  0.87590000  0.83460000  1.0 -0.5373914612
O  O13  1  0.12410000  0.81240000  0.16540000  1.0 -0.5373914612
O  O14  1  0.87590000  0.18760000  0.16540000  1.0 -0.5373914612
O  O15  1  0.81240000  0.87590000  0.16540000  1.0 -0.5373914612
O  O16  1  0.18760000  0.12410000  0.16540000  1.0 -0.5373914612
O  O17  1  0.16380000  0.22590000  0.21930000  1.0 -0.4780613871
O  O18  1  0.22590000  0.83620000  0.21930000  1.0 -0.4780613871
O  O19  1  0.83620000  0.77410000  0.21930000  1.0 -0.4780613871
O  O20  1  0.77410000  0.16380000  0.21930000  1.0 -0.4780613871
O  O21  1  0.83620000  0.22590000  0.78070000  1.0 -0.4780613871
O  O22  1  0.16380000  0.77410000  0.78070000  1.0 -0.4780613871
O  O23  1  0.22590000  0.16380000  0.78070000  1.0 -0.4780613871
O  O24  1  0.77410000  0.83620000  0.78070000  1.0 -0.4780613871
O  O25  1  0.83620000  0.77410000  0.78070000  1.0 -0.4780613871
O  O26  1  0.77410000  0.16380000  0.78070000  1.0 -0.4780613871
O  O27  1  0.16380000  0.22590000  0.78070000  1.0 -0.4780613871
O  O28  1  0.22590000  0.83620000  0.78070000  1.0 -0.4780613871
O  O29  1  0.16380000  0.77410000  0.21930000  1.0 -0.4780613871
O  O30  1  0.83620000  0.22590000  0.21930000  1.0 -0.4780613871
O  O31  1  0.77410000  0.83620000  0.21930000  1.0 -0.4780613871
O  O32  1  0.22590000  0.16380000  0.21930000  1.0 -0.4780613871
O  O33  1  0.04480000  0.26617000  0.04503000  1.0 -0.4684887489
O  O34  1  0.26617000  0.95520000  0.04503000  1.0 -0.4684887489
O  O35  1  0.95520000  0.73383000  0.04503000  1.0 -0.4684887489
O  O36  1  0.73383000  0.04480000  0.04503000  1.0 -0.4684887489
O  O37  1  0.95520000  0.26617000  0.95497000  1.0 -0.4684887489
O  O38  1  0.04480000  0.73383000  0.95497000  1.0 -0.4684887489
O  O39  1  0.26617000  0.04480000  0.95497000  1.0 -0.4684887489
O  O40  1  0.73383000  0.95520000  0.95497000  1.0 -0.4684887489
O  O41  1  0.95520000  0.73383000  0.95497000  1.0 -0.4684887489
O  O42  1  0.73383000  0.04480000  0.95497000  1.0 -0.4684887489
O  O43  1  0.04480000  0.26617000  0.95497000  1.0 -0.4684887489
O  O44  1  0.26617000  0.95520000  0.95497000  1.0 -0.4684887489
O  O45  1  0.04480000  0.73383000  0.04503000  1.0 -0.4684887489
O  O46  1  0.95520000  0.26617000  0.04503000  1.0 -0.4684887489
O  O47  1  0.73383000  0.95520000  0.04503000  1.0 -0.4684887489
O  O48  1  0.26617000  0.04480000  0.04503000  1.0 -0.4684887489
O  O49  1  0.04640000  0.34249000  0.04678000  1.0 -0.5199435202
O  O50  1  0.34249000  0.95360000  0.04678000  1.0 -0.5199435202
O  O51  1  0.95360000  0.65751000  0.04678000  1.0 -0.5199435202
O  O52  1  0.65751000  0.04640000  0.04678000  1.0 -0.5199435202
O  O53  1  0.95360000  0.34249000  0.95322000  1.0 -0.5199435202
O  O54  1  0.04640000  0.65751000  0.95322000  1.0 -0.5199435202
O  O55  1  0.34249000  0.04640000  0.95322000  1.0 -0.5199435202
O  O56  1  0.65751000  0.95360000  0.95322000  1.0 -0.5199435202
O  O57  1  0.95360000  0.65751000  0.95322000  1.0 -0.5199435202
O  O58  1  0.65751000  0.04640000  0.95322000  1.0 -0.5199435202
O  O59  1  0.04640000  0.34249000  0.95322000  1.0 -0.5199435202
O  O60  1  0.34249000  0.95360000  0.95322000  1.0 -0.5199435202
O  O61  1  0.04640000  0.65751000  0.04678000  1.0 -0.5199435202
O  O62  1  0.95360000  0.34249000  0.04678000  1.0 -0.5199435202
O  O63  1  0.65751000  0.95360000  0.04678000  1.0 -0.5199435202
O  O64  1  0.34249000  0.04640000  0.04678000  1.0 -0.5199435202
O  O65  1  0.07966000  0.14330000  0.23420000  1.0 -0.5199435202
O  O66  1  0.14330000  0.92034000  0.23420000  1.0 -0.5199435202
O  O67  1  0.92034000  0.85670000  0.23420000  1.0 -0.5199435202
O  O68  1  0.85670000  0.07966000  0.23420000  1.0 -0.5199435202
O  O69  1  0.92034000  0.14330000  0.76580000  1.0 -0.5199435202
O  O70  1  0.07966000  0.85670000  0.76580000  1.0 -0.5199435202
O  O71  1  0.14330000  0.07966000  0.76580000  1.0 -0.5199435202
O  O72  1  0.85670000  0.92034000  0.76580000  1.0 -0.5199435202
O  O73  1  0.92034000  0.85670000  0.76580000  1.0 -0.5199435202
O  O74  1  0.85670000  0.07966000  0.76580000  1.0 -0.5199435202
O  O75  1  0.07966000  0.14330000  0.76580000  1.0 -0.5199435202
O  O76  1  0.14330000  0.92034000  0.76580000  1.0 -0.5199435202
O  O77  1  0.07966000  0.85670000  0.23420000  1.0 -0.5199435202
O  O78  1  0.92034000  0.14330000  0.23420000  1.0 -0.5199435202
O  O79  1  0.85670000  0.92034000  0.23420000  1.0 -0.5199435202
O  O80  1  0.14330000  0.07966000  0.23420000  1.0 -0.5199435202
O  O81  1  0.11880000  0.18310000  0.28510000  1.0 -0.5471178999
O  O82  1  0.18310000  0.88120000  0.28510000  1.0 -0.5471178999
O  O83  1  0.88120000  0.81690000  0.28510000  1.0 -0.5471178999
O  O84  1  0.81690000  0.11880000  0.28510000  1.0 -0.5471178999
O  O85  1  0.88120000  0.18310000  0.71490000  1.0 -0.5471178999
O  O86  1  0.11880000  0.81690000  0.71490000  1.0 -0.5471178999
O  O87  1  0.18310000  0.11880000  0.71490000  1.0 -0.5471178999
O  O88  1  0.81690000  0.88120000  0.71490000  1.0 -0.5471178999
O  O89  1  0.88120000  0.81690000  0.71490000  1.0 -0.5471178999
O  O90  1  0.81690000  0.11880000  0.71490000  1.0 -0.5471178999
O  O91  1  0.11880000  0.18310000  0.71490000  1.0 -0.5471178999
O  O92  1  0.18310000  0.88120000  0.71490000  1.0 -0.5471178999
O  O93  1  0.11880000  0.81690000  0.28510000  1.0 -0.5471178999
O  O94  1  0.88120000  0.18310000  0.28510000  1.0 -0.5471178999
O  O95  1  0.81690000  0.88120000  0.28510000  1.0 -0.5471178999
O  O96  1  0.18310000  0.11880000  0.28510000  1.0 -0.5471178999
O  O97  1  0.00000000  0.33770000  0.50000000  1.0 -0.3033777473
O  O98  1  0.33770000  0.00000000  0.50000000  1.0 -0.3033777473
O  O99  1  0.00000000  0.66230000  0.50000000  1.0 -0.3033777473
O  O100  1  0.66230000  0.00000000  0.50000000  1.0 -0.3033777473
O  O101  1  0.21610000  0.50000000  0.20780000  1.0 -0.1758346257
O  O102  1  0.50000000  0.78390000  0.20780000  1.0 -0.1758346257
O  O103  1  0.78390000  0.50000000  0.20780000  1.0 -0.1758346257
O  O104  1  0.50000000  0.21610000  0.20780000  1.0 -0.1758346257
O  O105  1  0.78390000  0.50000000  0.79220000  1.0 -0.1744336483
O  O106  1  0.21610000  0.50000000  0.79220000  1.0 -0.1744336483
O  O107  1  0.50000000  0.21610000  0.79220000  1.0 -0.1744336483
O  O108  1  0.50000000  0.78390000  0.79220000  1.0 -0.1744336483
