# DDEC6 charges by PACMAN v1.1 (https://github.com/mtap-research/PACMAN-charge/)
data_ZIWTII_ion_pacman
_symmetry_space_group_name_H-M   'P 1'
_cell_length_a   10.57800000
_cell_length_b   10.57800000
_cell_length_c   10.57800000
_cell_angle_alpha   90.00000000
_cell_angle_beta   90.00000000
_cell_angle_gamma   90.00000000
_symmetry_Int_Tables_number   1
_chemical_formula_structural   AgPH12C6(N2F3)2
_chemical_formula_sum   'Ag4 P4 H48 C24 N16 F24'
_cell_volume   1183.61562055
_cell_formula_units_Z   4
loop_
 _symmetry_equiv_pos_site_id
 _symmetry_equiv_pos_as_xyz
  1  'x, y, z'
loop_
 _atom_site_type_symbol
 _atom_site_label
 _atom_site_symmetry_multiplicity
 _atom_site_fract_x
 _atom_site_fract_y
 _atom_site_fract_z
 _atom_site_occupancy
 _atom_site_charge
Ag  Ag1  1  0.87008000  0.12992000  0.62992000  1.0 0.3767391838
Ag  Ag2  1  0.62992000  0.87008000  0.12992000  1.0 0.3767391838
Ag  Ag3  1  0.37008000  0.37008000  0.37008000  1.0 0.3767391838
Ag  Ag4  1  0.12992000  0.62992000  0.87008000  1.0 0.3767391838
P  P1  1  0.14736000  0.14736000  0.14736000  1.0 1.5344209767
P  P2  1  0.35264000  0.85264000  0.64736000  1.0 1.5352236129
P  P3  1  0.64736000  0.35264000  0.85264000  1.0 1.5344209767
P  P4  1  0.85264000  0.64736000  0.35264000  1.0 1.5344209767
H  H1  1  0.81100000  0.84600000  0.60500000  1.0 0.1200502169
H  H2  1  0.68900000  0.15400000  0.10500000  1.0 0.1200502169
H  H3  1  0.31100000  0.65400000  0.39500000  1.0 0.1200502169
H  H4  1  0.60500000  0.81100000  0.84600000  1.0 0.1200502169
H  H5  1  0.18900000  0.34600000  0.89500000  1.0 0.1200502169
H  H6  1  0.89500000  0.18900000  0.34600000  1.0 0.1200502169
H  H7  1  0.10500000  0.68900000  0.15400000  1.0 0.1200502169
H  H8  1  0.39500000  0.31100000  0.65400000  1.0 0.1200502169
H  H9  1  0.84600000  0.60500000  0.81100000  1.0 0.1200502169
H  H10  1  0.34600000  0.89500000  0.18900000  1.0 0.1200502169
H  H11  1  0.15400000  0.10500000  0.68900000  1.0 0.1200502169
H  H12  1  0.65400000  0.39500000  0.31100000  1.0 0.1200502169
H  H13  1  0.69000000  0.90900000  0.67500000  1.0 0.1200502169
H  H14  1  0.81000000  0.09100000  0.17500000  1.0 0.1200502169
H  H15  1  0.19000000  0.59100000  0.32500000  1.0 0.1200502169
H  H16  1  0.67500000  0.69000000  0.90900000  1.0 0.1200502169
H  H17  1  0.31000000  0.40900000  0.82500000  1.0 0.1200502169
H  H18  1  0.82500000  0.31000000  0.40900000  1.0 0.1200502169
H  H19  1  0.17500000  0.81000000  0.09100000  1.0 0.1200502169
H  H20  1  0.32500000  0.19000000  0.59100000  1.0 0.1200502169
H  H21  1  0.90900000  0.67500000  0.69000000  1.0 0.1200502169
H  H22  1  0.40900000  0.82500000  0.31000000  1.0 0.1200502169
H  H23  1  0.09100000  0.17500000  0.81000000  1.0 0.1200502169
H  H24  1  0.59100000  0.32500000  0.19000000  1.0 0.1200502169
H  H25  1  0.01600000  0.87700000  0.70000000  1.0 0.1200502169
H  H26  1  0.48400000  0.12300000  0.20000000  1.0 0.1200502169
H  H27  1  0.51600000  0.62300000  0.30000000  1.0 0.1200502169
H  H28  1  0.70000000  0.01600000  0.87700000  1.0 0.1200502169
H  H29  1  0.98400000  0.37700000  0.80000000  1.0 0.1200502169
H  H30  1  0.80000000  0.98400000  0.37700000  1.0 0.1200502169
H  H31  1  0.20000000  0.48400000  0.12300000  1.0 0.1200502169
H  H32  1  0.30000000  0.51600000  0.62300000  1.0 0.1200502169
H  H33  1  0.87700000  0.70000000  0.01600000  1.0 0.1200502169
H  H34  1  0.37700000  0.80000000  0.98400000  1.0 0.1200502169
H  H35  1  0.12300000  0.20000000  0.48400000  1.0 0.1200502169
H  H36  1  0.62300000  0.30000000  0.51600000  1.0 0.1200502169
H  H37  1  0.02800000  0.94000000  0.84200000  1.0 0.1200502169
H  H38  1  0.47200000  0.06000000  0.34200000  1.0 0.1200502169
H  H39  1  0.52800000  0.56000000  0.15800000  1.0 0.1200502169
H  H40  1  0.84200000  0.02800000  0.94000000  1.0 0.1200502169
H  H41  1  0.97200000  0.44000000  0.65800000  1.0 0.1200502169
H  H42  1  0.65800000  0.97200000  0.44000000  1.0 0.1200502169
H  H43  1  0.34200000  0.47200000  0.06000000  1.0 0.1200502169
H  H44  1  0.15800000  0.52800000  0.56000000  1.0 0.1200502169
H  H45  1  0.94000000  0.84200000  0.02800000  1.0 0.1200502169
H  H46  1  0.44000000  0.65800000  0.97200000  1.0 0.1200502169
H  H47  1  0.06000000  0.34200000  0.47200000  1.0 0.1200502169
H  H48  1  0.56000000  0.15800000  0.52800000  1.0 0.1200502169
C  C1  1  0.76860000  0.86630000  0.68350000  1.0 -0.0256128564
C  C2  1  0.73140000  0.13370000  0.18350000  1.0 -0.0256128564
C  C3  1  0.26860000  0.63370000  0.31650000  1.0 -0.0256128564
C  C4  1  0.68350000  0.76860000  0.86630000  1.0 -0.0256128564
C  C5  1  0.23140000  0.36630000  0.81650000  1.0 -0.0256128564
C  C6  1  0.81650000  0.23140000  0.36630000  1.0 -0.0256128564
C  C7  1  0.18350000  0.73140000  0.13370000  1.0 -0.0256128564
C  C8  1  0.31650000  0.26860000  0.63370000  1.0 -0.0256128564
C  C9  1  0.86630000  0.68350000  0.76860000  1.0 -0.0256128564
C  C10  1  0.36630000  0.81650000  0.23140000  1.0 -0.0256128564
C  C11  1  0.13370000  0.18350000  0.73140000  1.0 -0.0256128564
C  C12  1  0.63370000  0.31650000  0.26860000  1.0 -0.0256128564
C  C13  1  0.97140000  0.88480000  0.78590000  1.0 -0.0383231543
C  C14  1  0.52860000  0.11520000  0.28590000  1.0 -0.0383231543
C  C15  1  0.47140000  0.61520000  0.21410000  1.0 -0.0383231543
C  C16  1  0.78590000  0.97140000  0.88480000  1.0 -0.0383231543
C  C17  1  0.02860000  0.38480000  0.71410000  1.0 -0.0383231543
C  C18  1  0.71410000  0.02860000  0.38480000  1.0 -0.0383231543
C  C19  1  0.28590000  0.52860000  0.11520000  1.0 -0.0383231543
C  C20  1  0.21410000  0.47140000  0.61520000  1.0 -0.0383231543
C  C21  1  0.88480000  0.78590000  0.97140000  1.0 -0.0383231543
C  C22  1  0.38480000  0.71410000  0.02860000  1.0 -0.0383231543
C  C23  1  0.11520000  0.28590000  0.52860000  1.0 -0.0383231543
C  C24  1  0.61520000  0.21410000  0.47140000  1.0 -0.0383231543
N  N1  1  0.74530000  0.74530000  0.74530000  1.0 -0.1118919083
N  N2  1  0.75470000  0.25470000  0.24530000  1.0 -0.1118919083
N  N3  1  0.24530000  0.75470000  0.25470000  1.0 -0.1118919083
N  N4  1  0.25470000  0.24530000  0.75470000  1.0 -0.1118919083
N  N5  1  0.84990000  0.95090000  0.76180000  1.0 -0.1527359948
N  N6  1  0.65010000  0.04910000  0.26180000  1.0 -0.1527359948
N  N7  1  0.34990000  0.54910000  0.23820000  1.0 -0.1527359948
N  N8  1  0.76180000  0.84990000  0.95090000  1.0 -0.1527359948
N  N9  1  0.15010000  0.45090000  0.73820000  1.0 -0.1527359948
N  N10  1  0.73820000  0.15010000  0.45090000  1.0 -0.1527359948
N  N11  1  0.26180000  0.65010000  0.04910000  1.0 -0.1527359948
N  N12  1  0.23820000  0.34990000  0.54910000  1.0 -0.1527359948
N  N13  1  0.95090000  0.76180000  0.84990000  1.0 -0.1527359948
N  N14  1  0.45090000  0.73820000  0.15010000  1.0 -0.1527359948
N  N15  1  0.04910000  0.26180000  0.65010000  1.0 -0.1527359948
N  N16  1  0.54910000  0.23820000  0.34990000  1.0 -0.1527359948
F  F1  1  0.05830000  0.19650000  0.03700000  1.0 -0.4309966229
F  F2  1  0.03700000  0.05830000  0.19650000  1.0 -0.4309966229
F  F3  1  0.19650000  0.03700000  0.05830000  1.0 -0.4309966229
F  F4  1  0.25910000  0.23470000  0.09810000  1.0 -0.4309966229
F  F5  1  0.09810000  0.25910000  0.23470000  1.0 -0.4309966229
F  F6  1  0.23470000  0.09810000  0.25910000  1.0 -0.4309966229
F  F7  1  0.44170000  0.80350000  0.53700000  1.0 -0.4309966229
F  F8  1  0.46300000  0.94170000  0.69650000  1.0 -0.4309966229
F  F9  1  0.30350000  0.96300000  0.55830000  1.0 -0.4309966229
F  F10  1  0.24090000  0.76530000  0.59810000  1.0 -0.4309966229
F  F11  1  0.40190000  0.74090000  0.73470000  1.0 -0.4309966229
F  F12  1  0.26530000  0.90190000  0.75910000  1.0 -0.4350723826
F  F13  1  0.55830000  0.30350000  0.96300000  1.0 -0.4309966229
F  F14  1  0.53700000  0.44170000  0.80350000  1.0 -0.4309966229
F  F15  1  0.69650000  0.46300000  0.94170000  1.0 -0.4309966229
F  F16  1  0.75910000  0.26530000  0.90190000  1.0 -0.4309966229
F  F17  1  0.59810000  0.24090000  0.76530000  1.0 -0.4309966229
F  F18  1  0.73470000  0.40190000  0.74090000  1.0 -0.4309966229
F  F19  1  0.94170000  0.69650000  0.46300000  1.0 -0.4309966229
F  F20  1  0.96300000  0.55830000  0.30350000  1.0 -0.4309966229
F  F21  1  0.80350000  0.53700000  0.44170000  1.0 -0.4309966229
F  F22  1  0.74090000  0.73470000  0.40190000  1.0 -0.4350723826
F  F23  1  0.90190000  0.75910000  0.26530000  1.0 -0.4350723826
F  F24  1  0.76530000  0.59810000  0.24090000  1.0 -0.4350723826
