# DDEC6 charges by PACMAN v1.1 (https://github.com/mtap-research/PACMAN-charge/)
data_ZIZTIO_FSR_pacman
_symmetry_space_group_name_H-M   'P 1'
_cell_length_a   24.93580000
_cell_length_b   24.93580000
_cell_length_c   24.93580000
_cell_angle_alpha   60.00000000
_cell_angle_beta   60.00000000
_cell_angle_gamma   60.00000000
_symmetry_Int_Tables_number   1
_chemical_formula_structural   Zr3H7C9(Se3O25)2
_chemical_formula_sum   'Zr24 H56 C72 Se48 O400'
_cell_volume   10963.64387312
_cell_formula_units_Z   8
loop_
 _symmetry_equiv_pos_site_id
 _symmetry_equiv_pos_as_xyz
  1  'x, y, z'
loop_
 _atom_site_type_symbol
 _atom_site_label
 _atom_site_symmetry_multiplicity
 _atom_site_fract_x
 _atom_site_fract_y
 _atom_site_fract_z
 _atom_site_occupancy
 _atom_site_charge
Zr  Zr1  1  0.14749000  0.69647000  0.14749000  1.0 2.0422181272
Zr  Zr2  1  0.69647000  0.14749000  0.00855000  1.0 2.0422181272
Zr  Zr3  1  0.14749000  0.00855000  0.14749000  1.0 2.0422181272
Zr  Zr4  1  0.00855000  0.14749000  0.69647000  1.0 2.0422181272
Zr  Zr5  1  0.14749000  0.14749000  0.69647000  1.0 2.0422181272
Zr  Zr6  1  0.00855000  0.69647000  0.14749000  1.0 2.0422181272
Zr  Zr7  1  0.14749000  0.14749000  0.00855000  1.0 2.0422181272
Zr  Zr8  1  0.69647000  0.00855000  0.14749000  1.0 2.0422181272
Zr  Zr9  1  0.69647000  0.14749000  0.14749000  1.0 2.0422181272
Zr  Zr10  1  0.14749000  0.00855000  0.69647000  1.0 2.0422181272
Zr  Zr11  1  0.00855000  0.14749000  0.14749000  1.0 2.0422181272
Zr  Zr12  1  0.14749000  0.69647000  0.00855000  1.0 2.0422181272
Zr  Zr13  1  0.10251000  0.55353000  0.24145000  1.0 2.0422181272
Zr  Zr14  1  0.55353000  0.10251000  0.10251000  1.0 2.0422181272
Zr  Zr15  1  0.10251000  0.24145000  0.55353000  1.0 2.0422181272
Zr  Zr16  1  0.24145000  0.10251000  0.10251000  1.0 2.0422181272
Zr  Zr17  1  0.10251000  0.10251000  0.24145000  1.0 2.0422181272
Zr  Zr18  1  0.24145000  0.55353000  0.10251000  1.0 2.0422181272
Zr  Zr19  1  0.10251000  0.10251000  0.55353000  1.0 2.0422181272
Zr  Zr20  1  0.55353000  0.24145000  0.10251000  1.0 2.0422181272
Zr  Zr21  1  0.55353000  0.10251000  0.24145000  1.0 2.0422181272
Zr  Zr22  1  0.10251000  0.24145000  0.10251000  1.0 2.0422181272
Zr  Zr23  1  0.24145000  0.10251000  0.55353000  1.0 2.0422181272
Zr  Zr24  1  0.10251000  0.55353000  0.10251000  1.0 2.0422181272
H  H1  1  0.07110000  0.78670000  0.07110000  1.0 0.3466891878
H  H2  1  0.78670000  0.07110000  0.07110000  1.0 0.3466891878
H  H3  1  0.07110000  0.07110000  0.07110000  1.0 0.3466891878
H  H4  1  0.07110000  0.07110000  0.78670000  1.0 0.3466891878
H  H5  1  0.17890000  0.46330000  0.17890000  1.0 0.3466891878
H  H6  1  0.46330000  0.17890000  0.17890000  1.0 0.3466891878
H  H7  1  0.17890000  0.17890000  0.46330000  1.0 0.3466891878
H  H8  1  0.17890000  0.17890000  0.17890000  1.0 0.3466891878
H  H9  1  0.04660000  0.88400000  0.18540000  1.0 0.1303375512
H  H10  1  0.88400000  0.04660000  0.88400000  1.0 0.1303375512
H  H11  1  0.18540000  0.88400000  0.04660000  1.0 0.1303375512
H  H12  1  0.88400000  0.18540000  0.88400000  1.0 0.1303375512
H  H13  1  0.18540000  0.04660000  0.88400000  1.0 0.1303375512
H  H14  1  0.88400000  0.88400000  0.04660000  1.0 0.1303375512
H  H15  1  0.04660000  0.18540000  0.88400000  1.0 0.1303375512
H  H16  1  0.88400000  0.88400000  0.18540000  1.0 0.1303375512
H  H17  1  0.88400000  0.18540000  0.04660000  1.0 0.1303375512
H  H18  1  0.04660000  0.88400000  0.88400000  1.0 0.1303375512
H  H19  1  0.88400000  0.04660000  0.18540000  1.0 0.1303375512
H  H20  1  0.18540000  0.88400000  0.88400000  1.0 0.1303375512
H  H21  1  0.20340000  0.36600000  0.36600000  1.0 0.1303375512
H  H22  1  0.36600000  0.20340000  0.06460000  1.0 0.1303375512
H  H23  1  0.06460000  0.36600000  0.36600000  1.0 0.1303375512
H  H24  1  0.36600000  0.06460000  0.20340000  1.0 0.1303375512
H  H25  1  0.06460000  0.20340000  0.36600000  1.0 0.1303375512
H  H26  1  0.36600000  0.36600000  0.06460000  1.0 0.1303375512
H  H27  1  0.20340000  0.06460000  0.36600000  1.0 0.1303375512
H  H28  1  0.36600000  0.36600000  0.20340000  1.0 0.1303375512
H  H29  1  0.36600000  0.06460000  0.36600000  1.0 0.1303375512
H  H30  1  0.20340000  0.36600000  0.06460000  1.0 0.1303375512
H  H31  1  0.36600000  0.20340000  0.36600000  1.0 0.1303375512
H  H32  1  0.06460000  0.36600000  0.20340000  1.0 0.1303375512
H  H33  1  0.21760000  0.57360000  0.21760000  1.0 0.2824612889
H  H34  1  0.57360000  0.21760000  0.99120000  1.0 0.2824612889
H  H35  1  0.21760000  0.99120000  0.21760000  1.0 0.2824612889
H  H36  1  0.99120000  0.21760000  0.57360000  1.0 0.2824612889
H  H37  1  0.21760000  0.21760000  0.57360000  1.0 0.2824612889
H  H38  1  0.99120000  0.57360000  0.21760000  1.0 0.2824612889
H  H39  1  0.21760000  0.21760000  0.99120000  1.0 0.2824612889
H  H40  1  0.57360000  0.99120000  0.21760000  1.0 0.2824612889
H  H41  1  0.57360000  0.21760000  0.21760000  1.0 0.2824612889
H  H42  1  0.21760000  0.99120000  0.57360000  1.0 0.2824612889
H  H43  1  0.99120000  0.21760000  0.21760000  1.0 0.2824612889
H  H44  1  0.21760000  0.57360000  0.99120000  1.0 0.2824612889
H  H45  1  0.03240000  0.67640000  0.25880000  1.0 0.2824612889
H  H46  1  0.67640000  0.03240000  0.03240000  1.0 0.2824612889
H  H47  1  0.03240000  0.25880000  0.67640000  1.0 0.2824612889
H  H48  1  0.25880000  0.03240000  0.03240000  1.0 0.2824612889
H  H49  1  0.03240000  0.03240000  0.25880000  1.0 0.2824612889
H  H50  1  0.25880000  0.67640000  0.03240000  1.0 0.2824612889
H  H51  1  0.03240000  0.03240000  0.67640000  1.0 0.2824612889
H  H52  1  0.67640000  0.25880000  0.03240000  1.0 0.2824612889
H  H53  1  0.67640000  0.03240000  0.25880000  1.0 0.2824612889
H  H54  1  0.03240000  0.25880000  0.03240000  1.0 0.2824612889
H  H55  1  0.25880000  0.03240000  0.67640000  1.0 0.2824612889
H  H56  1  0.03240000  0.67640000  0.03240000  1.0 0.2824612889
C  C1  1  0.00277000  0.90621000  0.18481000  1.0 -0.0984991057
C  C2  1  0.90621000  0.00277000  0.90621000  1.0 -0.0984991057
C  C3  1  0.18481000  0.90621000  0.00277000  1.0 -0.0984991057
C  C4  1  0.90621000  0.18481000  0.90621000  1.0 -0.0984991057
C  C5  1  0.18481000  0.00277000  0.90621000  1.0 -0.0984991057
C  C6  1  0.90621000  0.90621000  0.00277000  1.0 -0.0984991057
C  C7  1  0.00277000  0.18481000  0.90621000  1.0 -0.0984991057
C  C8  1  0.90621000  0.90621000  0.18481000  1.0 -0.0984991057
C  C9  1  0.90621000  0.18481000  0.00277000  1.0 -0.0984991057
C  C10  1  0.00277000  0.90621000  0.90621000  1.0 -0.0984991057
C  C11  1  0.90621000  0.00277000  0.18481000  1.0 -0.0984991057
C  C12  1  0.18481000  0.90621000  0.90621000  1.0 -0.0984991057
C  C13  1  0.24723000  0.34379000  0.34379000  1.0 -0.0984991057
C  C14  1  0.34379000  0.24723000  0.06519000  1.0 -0.0984991057
C  C15  1  0.06519000  0.34379000  0.34379000  1.0 -0.0984991057
C  C16  1  0.34379000  0.06519000  0.24723000  1.0 -0.0984991057
C  C17  1  0.06519000  0.24723000  0.34379000  1.0 -0.0984991057
C  C18  1  0.34379000  0.34379000  0.06519000  1.0 -0.0984991057
C  C19  1  0.24723000  0.06519000  0.34379000  1.0 -0.0984991057
C  C20  1  0.34379000  0.34379000  0.24723000  1.0 -0.0984991057
C  C21  1  0.34379000  0.06519000  0.34379000  1.0 -0.0984991057
C  C22  1  0.24723000  0.34379000  0.06519000  1.0 -0.0984991057
C  C23  1  0.34379000  0.24723000  0.34379000  1.0 -0.0984991057
C  C24  1  0.06519000  0.34379000  0.24723000  1.0 -0.0984991057
C  C25  1  0.97110000  0.87334000  0.18446000  1.0 -0.049467615
C  C26  1  0.00730000  0.80734000  0.17806000  1.0 0.5300880455
C  C27  1  0.87334000  0.97110000  0.97110000  1.0 -0.049467615
C  C28  1  0.80734000  0.00730000  0.00730000  1.0 0.5300880455
C  C29  1  0.18446000  0.97110000  0.97110000  1.0 -0.049467615
C  C30  1  0.17806000  0.00730000  0.00730000  1.0 0.5300880455
C  C31  1  0.97110000  0.18446000  0.87334000  1.0 -0.049467615
C  C32  1  0.00730000  0.17806000  0.80734000  1.0 0.5300880455
C  C33  1  0.18446000  0.97110000  0.87334000  1.0 -0.049467615
C  C34  1  0.17806000  0.00730000  0.80734000  1.0 0.5300880455
C  C35  1  0.97110000  0.87334000  0.97110000  1.0 -0.049467615
C  C36  1  0.00730000  0.80734000  0.00730000  1.0 0.5300880455
C  C37  1  0.97110000  0.18446000  0.97110000  1.0 -0.049467615
C  C38  1  0.00730000  0.17806000  0.00730000  1.0 0.5300880455
C  C39  1  0.87334000  0.97110000  0.18446000  1.0 -0.049467615
C  C40  1  0.80734000  0.00730000  0.17806000  1.0 0.5300880455
C  C41  1  0.87334000  0.18446000  0.97110000  1.0 -0.049467615
C  C42  1  0.80734000  0.17806000  0.00730000  1.0 0.5300880455
C  C43  1  0.97110000  0.97110000  0.87334000  1.0 -0.049467615
C  C44  1  0.00730000  0.00730000  0.80734000  1.0 0.5300880455
C  C45  1  0.97110000  0.97110000  0.18446000  1.0 -0.049467615
C  C46  1  0.00730000  0.00730000  0.17806000  1.0 0.5300880455
C  C47  1  0.18446000  0.87334000  0.97110000  1.0 -0.049467615
C  C48  1  0.17806000  0.80734000  0.00730000  1.0 0.5300880455
C  C49  1  0.27890000  0.37666000  0.27890000  1.0 -0.049467615
C  C50  1  0.24270000  0.44266000  0.24270000  1.0 0.5300880455
C  C51  1  0.37666000  0.27890000  0.06554000  1.0 -0.049467615
C  C52  1  0.44266000  0.24270000  0.07194000  1.0 0.5300880455
C  C53  1  0.06554000  0.27890000  0.37666000  1.0 -0.049467615
C  C54  1  0.07194000  0.24270000  0.44266000  1.0 0.5300880455
C  C55  1  0.27890000  0.06554000  0.27890000  1.0 -0.049467615
C  C56  1  0.24270000  0.07194000  0.24270000  1.0 0.5300880455
C  C57  1  0.06554000  0.27890000  0.27890000  1.0 -0.049467615
C  C58  1  0.07194000  0.24270000  0.24270000  1.0 0.5300880455
C  C59  1  0.27890000  0.37666000  0.06554000  1.0 -0.049467615
C  C60  1  0.24270000  0.44266000  0.07194000  1.0 0.5300880455
C  C61  1  0.27890000  0.06554000  0.37666000  1.0 -0.049467615
C  C62  1  0.24270000  0.07194000  0.44266000  1.0 0.5300880455
C  C63  1  0.37666000  0.27890000  0.27890000  1.0 -0.049467615
C  C64  1  0.44266000  0.24270000  0.24270000  1.0 0.5300880455
C  C65  1  0.37666000  0.06554000  0.27890000  1.0 -0.049467615
C  C66  1  0.44266000  0.07194000  0.24270000  1.0 0.5300880455
C  C67  1  0.27890000  0.27890000  0.06554000  1.0 -0.049467615
C  C68  1  0.24270000  0.24270000  0.07194000  1.0 0.5300880455
C  C69  1  0.27890000  0.27890000  0.37666000  1.0 -0.049467615
C  C70  1  0.24270000  0.24270000  0.44266000  1.0 0.5300880455
C  C71  1  0.06554000  0.37666000  0.27890000  1.0 -0.049467615
C  C72  1  0.07194000  0.44266000  0.24270000  1.0 0.5300880455
Se  Se1  1  0.31717000  0.64519000  0.09515000  1.0 0.8017930312
Se  Se2  1  0.64519000  0.31717000  0.94249000  1.0 0.8017930312
Se  Se3  1  0.09515000  0.94249000  0.31717000  1.0 0.8069947643
Se  Se4  1  0.94249000  0.09515000  0.64519000  1.0 0.8017930312
Se  Se5  1  0.09515000  0.31717000  0.64519000  1.0 0.8017930312
Se  Se6  1  0.94249000  0.64519000  0.31717000  1.0 0.8017930312
Se  Se7  1  0.31717000  0.09515000  0.94249000  1.0 0.8017930312
Se  Se8  1  0.64519000  0.94249000  0.09515000  1.0 0.8017930312
Se  Se9  1  0.64519000  0.09515000  0.31717000  1.0 0.8017930312
Se  Se10  1  0.31717000  0.94249000  0.64519000  1.0 0.8069947643
Se  Se11  1  0.94249000  0.31717000  0.09515000  1.0 0.8017930312
Se  Se12  1  0.09515000  0.64519000  0.94249000  1.0 0.8069947643
Se  Se13  1  0.93283000  0.60481000  0.30751000  1.0 0.8017930312
Se  Se14  1  0.60481000  0.93283000  0.15485000  1.0 0.8017930312
Se  Se15  1  0.15485000  0.30751000  0.60481000  1.0 0.8069947643
Se  Se16  1  0.30751000  0.15485000  0.93283000  1.0 0.8069947643
Se  Se17  1  0.15485000  0.93283000  0.30751000  1.0 0.8069947643
Se  Se18  1  0.30751000  0.60481000  0.15485000  1.0 0.8017930312
Se  Se19  1  0.93283000  0.15485000  0.60481000  1.0 0.8017930312
Se  Se20  1  0.60481000  0.30751000  0.93283000  1.0 0.8069947643
Se  Se21  1  0.60481000  0.15485000  0.30751000  1.0 0.8017930312
Se  Se22  1  0.93283000  0.30751000  0.15485000  1.0 0.8017930312
Se  Se23  1  0.30751000  0.93283000  0.60481000  1.0 0.8069947643
Se  Se24  1  0.15485000  0.60481000  0.93283000  1.0 0.8069947643
Se  Se25  1  0.93283000  0.60481000  0.15485000  1.0 0.8017930312
Se  Se26  1  0.60481000  0.93283000  0.30751000  1.0 0.8017930312
Se  Se27  1  0.15485000  0.30751000  0.93283000  1.0 0.8069947643
Se  Se28  1  0.30751000  0.15485000  0.60481000  1.0 0.8069947643
Se  Se29  1  0.15485000  0.93283000  0.60481000  1.0 0.8069947643
Se  Se30  1  0.30751000  0.60481000  0.93283000  1.0 0.8069947643
Se  Se31  1  0.93283000  0.15485000  0.30751000  1.0 0.8017930312
Se  Se32  1  0.60481000  0.30751000  0.15485000  1.0 0.8017930312
Se  Se33  1  0.60481000  0.15485000  0.93283000  1.0 0.8069947643
Se  Se34  1  0.93283000  0.30751000  0.60481000  1.0 0.8017930312
Se  Se35  1  0.30751000  0.93283000  0.15485000  1.0 0.8017930312
Se  Se36  1  0.15485000  0.60481000  0.30751000  1.0 0.8069947643
Se  Se37  1  0.31717000  0.64519000  0.94249000  1.0 0.8017930312
Se  Se38  1  0.64519000  0.31717000  0.09515000  1.0 0.8017930312
Se  Se39  1  0.09515000  0.94249000  0.64519000  1.0 0.8069947643
Se  Se40  1  0.94249000  0.09515000  0.31717000  1.0 0.8017930312
Se  Se41  1  0.09515000  0.31717000  0.94249000  1.0 0.8017930312
Se  Se42  1  0.94249000  0.64519000  0.09515000  1.0 0.8017930312
Se  Se43  1  0.31717000  0.09515000  0.64519000  1.0 0.8017930312
Se  Se44  1  0.64519000  0.94249000  0.31717000  1.0 0.8017930312
Se  Se45  1  0.64519000  0.09515000  0.94249000  1.0 0.8017930312
Se  Se46  1  0.31717000  0.94249000  0.09515000  1.0 0.8069947643
Se  Se47  1  0.94249000  0.31717000  0.64519000  1.0 0.8017930312
Se  Se48  1  0.09515000  0.64519000  0.31717000  1.0 0.8069947643
O  O1  1  0.06652000  0.78234000  0.17484000  1.0 -0.5999288302
O  O2  1  0.24850000  0.67670000  0.14530000  1.0 -0.4900468884
O  O3  1  0.33090000  0.71270000  0.01030000  1.0 -0.0081027456
O  O4  1  0.32080000  0.76120000  0.05140000  1.0 0.1415558548
O  O5  1  0.32320000  0.69300000  0.01840000  1.0 -0.042709294
O  O6  1  0.24260000  0.69220000  0.13880000  1.0 -0.581444809
O  O7  1  0.37930000  0.63530000  0.10910000  1.0 -0.0984991057
O  O8  1  0.78234000  0.06652000  0.97630000  1.0 -0.5999288302
O  O9  1  0.67670000  0.24850000  0.92950000  1.0 -0.4900468884
O  O10  1  0.71270000  0.33090000  0.94610000  1.0 -0.0081027456
O  O11  1  0.76120000  0.32080000  0.86660000  1.0 0.1303375512
O  O12  1  0.69300000  0.32320000  0.96540000  1.0 -0.042709294
O  O13  1  0.69220000  0.24260000  0.92640000  1.0 -0.581444809
O  O14  1  0.63530000  0.37930000  0.87630000  1.0 -0.0984991057
O  O15  1  0.17484000  0.97630000  0.06652000  1.0 -0.5999288302
O  O16  1  0.14530000  0.92950000  0.24850000  1.0 -0.4900468884
O  O17  1  0.01030000  0.94610000  0.33090000  1.0 -0.0081027456
O  O18  1  0.05140000  0.86660000  0.32080000  1.0 0.1415558548
O  O19  1  0.01840000  0.96540000  0.32320000  1.0 -0.042709294
O  O20  1  0.13880000  0.92640000  0.24260000  1.0 -0.581444809
O  O21  1  0.10910000  0.87630000  0.37930000  1.0 -0.0984991057
O  O22  1  0.97630000  0.17484000  0.78234000  1.0 -0.5999288302
O  O23  1  0.92950000  0.14530000  0.67670000  1.0 -0.4900468884
O  O24  1  0.94610000  0.01030000  0.71270000  1.0 -0.0081027456
O  O25  1  0.86660000  0.05140000  0.76120000  1.0 0.1474911189
O  O26  1  0.96540000  0.01840000  0.69300000  1.0 -0.042709294
O  O27  1  0.92640000  0.13880000  0.69220000  1.0 -0.581444809
O  O28  1  0.87630000  0.10910000  0.63530000  1.0 -0.0984991057
O  O29  1  0.17484000  0.06652000  0.78234000  1.0 -0.5999288302
O  O30  1  0.14530000  0.24850000  0.67670000  1.0 -0.4900468884
O  O31  1  0.01030000  0.33090000  0.71270000  1.0 -0.0081027456
O  O32  1  0.05140000  0.32080000  0.76120000  1.0 0.1474911189
O  O33  1  0.01840000  0.32320000  0.69300000  1.0 -0.042709294
O  O34  1  0.13880000  0.24260000  0.69220000  1.0 -0.581444809
O  O35  1  0.10910000  0.37930000  0.63530000  1.0 -0.0984991057
O  O36  1  0.97630000  0.78234000  0.06652000  1.0 -0.5999288302
O  O37  1  0.92950000  0.67670000  0.24850000  1.0 -0.4900468884
O  O38  1  0.94610000  0.71270000  0.33090000  1.0 -0.0081027456
O  O39  1  0.86660000  0.76120000  0.32080000  1.0 0.1415558548
O  O40  1  0.96540000  0.69300000  0.32320000  1.0 -0.042709294
O  O41  1  0.92640000  0.69220000  0.24260000  1.0 -0.581444809
O  O42  1  0.87630000  0.63530000  0.37930000  1.0 -0.0984991057
O  O43  1  0.06652000  0.17484000  0.97630000  1.0 -0.5999288302
O  O44  1  0.24850000  0.14530000  0.92950000  1.0 -0.4900468884
O  O45  1  0.33090000  0.01030000  0.94610000  1.0 -0.0081027456
O  O46  1  0.32080000  0.05140000  0.86660000  1.0 0.1415558548
O  O47  1  0.32320000  0.01840000  0.96540000  1.0 -0.042709294
O  O48  1  0.24260000  0.13880000  0.92640000  1.0 -0.581444809
O  O49  1  0.37930000  0.10910000  0.87630000  1.0 -0.0984991057
O  O50  1  0.78234000  0.97630000  0.17484000  1.0 -0.5999288302
O  O51  1  0.67670000  0.92950000  0.14530000  1.0 -0.4900468884
O  O52  1  0.71270000  0.94610000  0.01030000  1.0 -0.0081027456
O  O53  1  0.76120000  0.86660000  0.05140000  1.0 0.1474911189
O  O54  1  0.69300000  0.96540000  0.01840000  1.0 -0.042709294
O  O55  1  0.69220000  0.92640000  0.13880000  1.0 -0.581444809
O  O56  1  0.63530000  0.87630000  0.10910000  1.0 -0.0984991057
O  O57  1  0.78234000  0.17484000  0.06652000  1.0 -0.5999288302
O  O58  1  0.67670000  0.14530000  0.24850000  1.0 -0.4900468884
O  O59  1  0.71270000  0.01030000  0.33090000  1.0 -0.0081027456
O  O60  1  0.76120000  0.05140000  0.32080000  1.0 0.1474911189
O  O61  1  0.69300000  0.01840000  0.32320000  1.0 -0.042709294
O  O62  1  0.69220000  0.13880000  0.24260000  1.0 -0.581444809
O  O63  1  0.63530000  0.10910000  0.37930000  1.0 -0.0984991057
O  O64  1  0.06652000  0.97630000  0.78234000  1.0 -0.5999288302
O  O65  1  0.24850000  0.92950000  0.67670000  1.0 -0.4900468884
O  O66  1  0.33090000  0.94610000  0.71270000  1.0 -0.0081027456
O  O67  1  0.32080000  0.86660000  0.76120000  1.0 0.1415558548
O  O68  1  0.32320000  0.96540000  0.69300000  1.0 -0.042709294
O  O69  1  0.24260000  0.92640000  0.69220000  1.0 -0.581444809
O  O70  1  0.37930000  0.87630000  0.63530000  1.0 -0.0984991057
O  O71  1  0.97630000  0.06652000  0.17484000  1.0 -0.5999288302
O  O72  1  0.92950000  0.24850000  0.14530000  1.0 -0.4900468884
O  O73  1  0.94610000  0.33090000  0.01030000  1.0 -0.0081027456
O  O74  1  0.86660000  0.32080000  0.05140000  1.0 0.1474911189
O  O75  1  0.96540000  0.32320000  0.01840000  1.0 -0.042709294
O  O76  1  0.92640000  0.24260000  0.13880000  1.0 -0.581444809
O  O77  1  0.87630000  0.37930000  0.10910000  1.0 -0.0984991057
O  O78  1  0.17484000  0.78234000  0.97630000  1.0 -0.5999288302
O  O79  1  0.14530000  0.67670000  0.92950000  1.0 -0.4900468884
O  O80  1  0.01030000  0.71270000  0.94610000  1.0 -0.0081027456
O  O81  1  0.05140000  0.76120000  0.86660000  1.0 0.1415558548
O  O82  1  0.01840000  0.69300000  0.96540000  1.0 -0.042709294
O  O83  1  0.13880000  0.69220000  0.92640000  1.0 -0.581444809
O  O84  1  0.10910000  0.63530000  0.87630000  1.0 -0.0984991057
O  O85  1  0.18348000  0.46766000  0.27370000  1.0 -0.5999288302
O  O86  1  0.00150000  0.57330000  0.32050000  1.0 -0.4900468884
O  O87  1  0.91910000  0.53730000  0.30390000  1.0 -0.0081027456
O  O88  1  0.92920000  0.48880000  0.38340000  1.0 0.1415558548
O  O89  1  0.92680000  0.55700000  0.28460000  1.0 -0.042709294
O  O90  1  0.00740000  0.55780000  0.32360000  1.0 -0.581444809
O  O91  1  0.87070000  0.61470000  0.37370000  1.0 -0.0984991057
O  O92  1  0.46766000  0.18348000  0.07516000  1.0 -0.5999288302
O  O93  1  0.57330000  0.00150000  0.10470000  1.0 -0.4900468884
O  O94  1  0.53730000  0.91910000  0.23970000  1.0 -0.0081027456
O  O95  1  0.48880000  0.92920000  0.19860000  1.0 0.1303375512
O  O96  1  0.55700000  0.92680000  0.23160000  1.0 -0.042709294
O  O97  1  0.55780000  0.00740000  0.11120000  1.0 -0.581444809
O  O98  1  0.61470000  0.87070000  0.14090000  1.0 -0.0984991057
O  O99  1  0.07516000  0.27370000  0.46766000  1.0 -0.5999288302
O  O100  1  0.10470000  0.32050000  0.57330000  1.0 -0.4900468884
O  O101  1  0.23970000  0.30390000  0.53730000  1.0 -0.0081027456
O  O102  1  0.19860000  0.38340000  0.48880000  1.0 0.1474911189
O  O103  1  0.23160000  0.28460000  0.55700000  1.0 -0.042709294
O  O104  1  0.11120000  0.32360000  0.55780000  1.0 -0.581444809
O  O105  1  0.14090000  0.37370000  0.61470000  1.0 -0.0984991057
O  O106  1  0.27370000  0.07516000  0.18348000  1.0 -0.5999288302
O  O107  1  0.32050000  0.10470000  0.00150000  1.0 -0.4900468884
O  O108  1  0.30390000  0.23970000  0.91910000  1.0 -0.0081027456
O  O109  1  0.38340000  0.19860000  0.92920000  1.0 0.1474911189
O  O110  1  0.28460000  0.23160000  0.92680000  1.0 -0.042709294
O  O111  1  0.32360000  0.11120000  0.00740000  1.0 -0.581444809
O  O112  1  0.37370000  0.14090000  0.87070000  1.0 -0.0984991057
O  O113  1  0.07516000  0.18348000  0.27370000  1.0 -0.5999288302
O  O114  1  0.10470000  0.00150000  0.32050000  1.0 -0.4900468884
O  O115  1  0.23970000  0.91910000  0.30390000  1.0 -0.0081027456
O  O116  1  0.19860000  0.92920000  0.38340000  1.0 0.1415558548
O  O117  1  0.23160000  0.92680000  0.28460000  1.0 -0.042709294
O  O118  1  0.11120000  0.00740000  0.32360000  1.0 -0.581444809
O  O119  1  0.14090000  0.87070000  0.37370000  1.0 -0.0984991057
O  O120  1  0.27370000  0.46766000  0.07516000  1.0 -0.5999288302
O  O121  1  0.32050000  0.57330000  0.10470000  1.0 -0.4900468884
O  O122  1  0.30390000  0.53730000  0.23970000  1.0 -0.0081027456
O  O123  1  0.38340000  0.48880000  0.19860000  1.0 0.1303375512
O  O124  1  0.28460000  0.55700000  0.23160000  1.0 -0.042709294
O  O125  1  0.32360000  0.55780000  0.11120000  1.0 -0.581444809
O  O126  1  0.37370000  0.61470000  0.14090000  1.0 -0.0984991057
O  O127  1  0.18348000  0.07516000  0.46766000  1.0 -0.5999288302
O  O128  1  0.00150000  0.10470000  0.57330000  1.0 -0.4900468884
O  O129  1  0.91910000  0.23970000  0.53730000  1.0 -0.0081027456
O  O130  1  0.92920000  0.19860000  0.48880000  1.0 0.1474911189
O  O131  1  0.92680000  0.23160000  0.55700000  1.0 -0.042709294
O  O132  1  0.00740000  0.11120000  0.55780000  1.0 -0.581444809
O  O133  1  0.87070000  0.14090000  0.61470000  1.0 -0.0984991057
O  O134  1  0.46766000  0.27370000  0.18348000  1.0 -0.5999288302
O  O135  1  0.57330000  0.32050000  0.00150000  1.0 -0.4900468884
O  O136  1  0.53730000  0.30390000  0.91910000  1.0 -0.0081027456
O  O137  1  0.48880000  0.38340000  0.92920000  1.0 0.1415558548
O  O138  1  0.55700000  0.28460000  0.92680000  1.0 -0.042709294
O  O139  1  0.55780000  0.32360000  0.00740000  1.0 -0.581444809
O  O140  1  0.61470000  0.37370000  0.87070000  1.0 -0.0984991057
O  O141  1  0.46766000  0.07516000  0.27370000  1.0 -0.5999288302
O  O142  1  0.57330000  0.10470000  0.32050000  1.0 -0.4900468884
O  O143  1  0.53730000  0.23970000  0.30390000  1.0 -0.0081027456
O  O144  1  0.48880000  0.19860000  0.38340000  1.0 0.1415558548
O  O145  1  0.55700000  0.23160000  0.28460000  1.0 -0.042709294
O  O146  1  0.55780000  0.11120000  0.32360000  1.0 -0.581444809
O  O147  1  0.61470000  0.14090000  0.37370000  1.0 -0.0984991057
O  O148  1  0.18348000  0.27370000  0.07516000  1.0 -0.5999288302
O  O149  1  0.00150000  0.32050000  0.10470000  1.0 -0.4900468884
O  O150  1  0.91910000  0.30390000  0.23970000  1.0 -0.0081027456
O  O151  1  0.92920000  0.38340000  0.19860000  1.0 0.1303375512
O  O152  1  0.92680000  0.28460000  0.23160000  1.0 -0.042709294
O  O153  1  0.00740000  0.32360000  0.11120000  1.0 -0.581444809
O  O154  1  0.87070000  0.37370000  0.14090000  1.0 -0.0984991057
O  O155  1  0.27370000  0.18348000  0.46766000  1.0 -0.5999288302
O  O156  1  0.32050000  0.00150000  0.57330000  1.0 -0.4900468884
O  O157  1  0.30390000  0.91910000  0.53730000  1.0 -0.0081027456
O  O158  1  0.38340000  0.92920000  0.48880000  1.0 0.1415558548
O  O159  1  0.28460000  0.92680000  0.55700000  1.0 -0.042709294
O  O160  1  0.32360000  0.00740000  0.55780000  1.0 -0.581444809
O  O161  1  0.37370000  0.87070000  0.61470000  1.0 -0.0984991057
O  O162  1  0.07516000  0.46766000  0.18348000  1.0 -0.5999288302
O  O163  1  0.10470000  0.57330000  0.00150000  1.0 -0.4900468884
O  O164  1  0.23970000  0.53730000  0.91910000  1.0 -0.0081027456
O  O165  1  0.19860000  0.48880000  0.92920000  1.0 0.1303375512
O  O166  1  0.23160000  0.55700000  0.92680000  1.0 -0.042709294
O  O167  1  0.11120000  0.55780000  0.00740000  1.0 -0.581444809
O  O168  1  0.14090000  0.61470000  0.87070000  1.0 -0.0984991057
O  O169  1  0.18348000  0.46766000  0.07516000  1.0 -0.5999288302
O  O170  1  0.00150000  0.57330000  0.10470000  1.0 -0.4900468884
O  O171  1  0.91910000  0.53730000  0.23970000  1.0 -0.0081027456
O  O172  1  0.92920000  0.48880000  0.19860000  1.0 0.1303375512
O  O173  1  0.92680000  0.55700000  0.23160000  1.0 -0.042709294
O  O174  1  0.00740000  0.55780000  0.11120000  1.0 -0.581444809
O  O175  1  0.87070000  0.61470000  0.14090000  1.0 -0.0984991057
O  O176  1  0.46766000  0.18348000  0.27370000  1.0 -0.5999288302
O  O177  1  0.57330000  0.00150000  0.32050000  1.0 -0.4900468884
O  O178  1  0.53730000  0.91910000  0.30390000  1.0 -0.0081027456
O  O179  1  0.48880000  0.92920000  0.38340000  1.0 0.1415558548
O  O180  1  0.55700000  0.92680000  0.28460000  1.0 -0.042709294
O  O181  1  0.55780000  0.00740000  0.32360000  1.0 -0.581444809
O  O182  1  0.61470000  0.87070000  0.37370000  1.0 -0.0984991057
O  O183  1  0.07516000  0.27370000  0.18348000  1.0 -0.5999288302
O  O184  1  0.10470000  0.32050000  0.00150000  1.0 -0.4900468884
O  O185  1  0.23970000  0.30390000  0.91910000  1.0 -0.0081027456
O  O186  1  0.19860000  0.38340000  0.92920000  1.0 0.1474911189
O  O187  1  0.23160000  0.28460000  0.92680000  1.0 -0.042709294
O  O188  1  0.11120000  0.32360000  0.00740000  1.0 -0.581444809
O  O189  1  0.14090000  0.37370000  0.87070000  1.0 -0.0984991057
O  O190  1  0.27370000  0.07516000  0.46766000  1.0 -0.5999288302
O  O191  1  0.32050000  0.10470000  0.57330000  1.0 -0.4900468884
O  O192  1  0.30390000  0.23970000  0.53730000  1.0 -0.0081027456
O  O193  1  0.38340000  0.19860000  0.48880000  1.0 0.1474911189
O  O194  1  0.28460000  0.23160000  0.55700000  1.0 -0.042709294
O  O195  1  0.32360000  0.11120000  0.55780000  1.0 -0.581444809
O  O196  1  0.37370000  0.14090000  0.61470000  1.0 -0.0984991057
O  O197  1  0.07516000  0.18348000  0.46766000  1.0 -0.5999288302
O  O198  1  0.10470000  0.00150000  0.57330000  1.0 -0.4900468884
O  O199  1  0.23970000  0.91910000  0.53730000  1.0 -0.0081027456
O  O200  1  0.19860000  0.92920000  0.48880000  1.0 0.1415558548
O  O201  1  0.23160000  0.92680000  0.55700000  1.0 -0.042709294
O  O202  1  0.11120000  0.00740000  0.55780000  1.0 -0.581444809
O  O203  1  0.14090000  0.87070000  0.61470000  1.0 -0.0984991057
O  O204  1  0.27370000  0.46766000  0.18348000  1.0 -0.5999288302
O  O205  1  0.32050000  0.57330000  0.00150000  1.0 -0.4900468884
O  O206  1  0.30390000  0.53730000  0.91910000  1.0 -0.0081027456
O  O207  1  0.38340000  0.48880000  0.92920000  1.0 0.1474911189
O  O208  1  0.28460000  0.55700000  0.92680000  1.0 -0.042709294
O  O209  1  0.32360000  0.55780000  0.00740000  1.0 -0.581444809
O  O210  1  0.37370000  0.61470000  0.87070000  1.0 -0.0984991057
O  O211  1  0.18348000  0.07516000  0.27370000  1.0 -0.5999288302
O  O212  1  0.00150000  0.10470000  0.32050000  1.0 -0.4900468884
O  O213  1  0.91910000  0.23970000  0.30390000  1.0 -0.0081027456
O  O214  1  0.92920000  0.19860000  0.38340000  1.0 0.1415558548
O  O215  1  0.92680000  0.23160000  0.28460000  1.0 -0.042709294
O  O216  1  0.00740000  0.11120000  0.32360000  1.0 -0.581444809
O  O217  1  0.87070000  0.14090000  0.37370000  1.0 -0.0984991057
O  O218  1  0.46766000  0.27370000  0.07516000  1.0 -0.5999288302
O  O219  1  0.57330000  0.32050000  0.10470000  1.0 -0.4900468884
O  O220  1  0.53730000  0.30390000  0.23970000  1.0 -0.0081027456
O  O221  1  0.48880000  0.38340000  0.19860000  1.0 0.1303375512
O  O222  1  0.55700000  0.28460000  0.23160000  1.0 -0.042709294
O  O223  1  0.55780000  0.32360000  0.11120000  1.0 -0.581444809
O  O224  1  0.61470000  0.37370000  0.14090000  1.0 -0.0984991057
O  O225  1  0.46766000  0.07516000  0.18348000  1.0 -0.5999288302
O  O226  1  0.57330000  0.10470000  0.00150000  1.0 -0.4900468884
O  O227  1  0.53730000  0.23970000  0.91910000  1.0 -0.0081027456
O  O228  1  0.48880000  0.19860000  0.92920000  1.0 0.1303375512
O  O229  1  0.55700000  0.23160000  0.92680000  1.0 -0.042709294
O  O230  1  0.55780000  0.11120000  0.00740000  1.0 -0.581444809
O  O231  1  0.61470000  0.14090000  0.87070000  1.0 -0.0984991057
O  O232  1  0.18348000  0.27370000  0.46766000  1.0 -0.5999288302
O  O233  1  0.00150000  0.32050000  0.57330000  1.0 -0.4900468884
O  O234  1  0.91910000  0.30390000  0.53730000  1.0 -0.0081027456
O  O235  1  0.92920000  0.38340000  0.48880000  1.0 0.1474911189
O  O236  1  0.92680000  0.28460000  0.55700000  1.0 -0.042709294
O  O237  1  0.00740000  0.32360000  0.55780000  1.0 -0.581444809
O  O238  1  0.87070000  0.37370000  0.61470000  1.0 -0.0984991057
O  O239  1  0.27370000  0.18348000  0.07516000  1.0 -0.5999288302
O  O240  1  0.32050000  0.00150000  0.10470000  1.0 -0.4900468884
O  O241  1  0.30390000  0.91910000  0.23970000  1.0 -0.0081027456
O  O242  1  0.38340000  0.92920000  0.19860000  1.0 0.1234893732
O  O243  1  0.28460000  0.92680000  0.23160000  1.0 -0.042709294
O  O244  1  0.32360000  0.00740000  0.11120000  1.0 -0.581444809
O  O245  1  0.37370000  0.87070000  0.14090000  1.0 -0.0984991057
O  O246  1  0.07516000  0.46766000  0.27370000  1.0 -0.5999288302
O  O247  1  0.10470000  0.57330000  0.32050000  1.0 -0.4900468884
O  O248  1  0.23970000  0.53730000  0.30390000  1.0 -0.0081027456
O  O249  1  0.19860000  0.48880000  0.38340000  1.0 0.1415558548
O  O250  1  0.23160000  0.55700000  0.28460000  1.0 -0.042709294
O  O251  1  0.11120000  0.55780000  0.32360000  1.0 -0.581444809
O  O252  1  0.14090000  0.61470000  0.37370000  1.0 -0.0984991057
O  O253  1  0.06652000  0.78234000  0.97630000  1.0 -0.5999288302
O  O254  1  0.24850000  0.67670000  0.92950000  1.0 -0.4900468884
O  O255  1  0.33090000  0.71270000  0.94610000  1.0 -0.0081027456
O  O256  1  0.32080000  0.76120000  0.86660000  1.0 0.1415558548
O  O257  1  0.32320000  0.69300000  0.96540000  1.0 -0.042709294
O  O258  1  0.24260000  0.69220000  0.92640000  1.0 -0.581444809
O  O259  1  0.37930000  0.63530000  0.87630000  1.0 -0.0984991057
O  O260  1  0.78234000  0.06652000  0.17484000  1.0 -0.5999288302
O  O261  1  0.67670000  0.24850000  0.14530000  1.0 -0.4900468884
O  O262  1  0.71270000  0.33090000  0.01030000  1.0 -0.0081027456
O  O263  1  0.76120000  0.32080000  0.05140000  1.0 0.1474911189
O  O264  1  0.69300000  0.32320000  0.01840000  1.0 -0.042709294
O  O265  1  0.69220000  0.24260000  0.13880000  1.0 -0.581444809
O  O266  1  0.63530000  0.37930000  0.10910000  1.0 -0.0984991057
O  O267  1  0.17484000  0.97630000  0.78234000  1.0 -0.5999288302
O  O268  1  0.14530000  0.92950000  0.67670000  1.0 -0.4900468884
O  O269  1  0.01030000  0.94610000  0.71270000  1.0 -0.0081027456
O  O270  1  0.05140000  0.86660000  0.76120000  1.0 0.1415558548
O  O271  1  0.01840000  0.96540000  0.69300000  1.0 -0.042709294
O  O272  1  0.13880000  0.92640000  0.69220000  1.0 -0.581444809
O  O273  1  0.10910000  0.87630000  0.63530000  1.0 -0.0984991057
O  O274  1  0.97630000  0.17484000  0.06652000  1.0 -0.5999288302
O  O275  1  0.92950000  0.14530000  0.24850000  1.0 -0.4900468884
O  O276  1  0.94610000  0.01030000  0.33090000  1.0 -0.0081027456
O  O277  1  0.86660000  0.05140000  0.32080000  1.0 0.1415558548
O  O278  1  0.96540000  0.01840000  0.32320000  1.0 -0.042709294
O  O279  1  0.92640000  0.13880000  0.24260000  1.0 -0.581444809
O  O280  1  0.87630000  0.10910000  0.37930000  1.0 -0.0984991057
O  O281  1  0.17484000  0.06652000  0.97630000  1.0 -0.5999288302
O  O282  1  0.14530000  0.24850000  0.92950000  1.0 -0.4900468884
O  O283  1  0.01030000  0.33090000  0.94610000  1.0 -0.0081027456
O  O284  1  0.05140000  0.32080000  0.86660000  1.0 0.1303375512
O  O285  1  0.01840000  0.32320000  0.96540000  1.0 -0.042709294
O  O286  1  0.13880000  0.24260000  0.92640000  1.0 -0.581444809
O  O287  1  0.10910000  0.37930000  0.87630000  1.0 -0.0984991057
O  O288  1  0.97630000  0.78234000  0.17484000  1.0 -0.5999288302
O  O289  1  0.92950000  0.67670000  0.14530000  1.0 -0.4900468884
O  O290  1  0.94610000  0.71270000  0.01030000  1.0 -0.0081027456
O  O291  1  0.86660000  0.76120000  0.05140000  1.0 0.1474911189
O  O292  1  0.96540000  0.69300000  0.01840000  1.0 -0.042709294
O  O293  1  0.92640000  0.69220000  0.13880000  1.0 -0.581444809
O  O294  1  0.87630000  0.63530000  0.10910000  1.0 -0.0984991057
O  O295  1  0.06652000  0.17484000  0.78234000  1.0 -0.5999288302
O  O296  1  0.24850000  0.14530000  0.67670000  1.0 -0.4900468884
O  O297  1  0.33090000  0.01030000  0.71270000  1.0 -0.0081027456
O  O298  1  0.32080000  0.05140000  0.76120000  1.0 0.1474911189
O  O299  1  0.32320000  0.01840000  0.69300000  1.0 -0.042709294
O  O300  1  0.24260000  0.13880000  0.69220000  1.0 -0.581444809
O  O301  1  0.37930000  0.10910000  0.63530000  1.0 -0.0984991057
O  O302  1  0.78234000  0.97630000  0.06652000  1.0 -0.5999288302
O  O303  1  0.67670000  0.92950000  0.24850000  1.0 -0.4900468884
O  O304  1  0.71270000  0.94610000  0.33090000  1.0 -0.0081027456
O  O305  1  0.76120000  0.86660000  0.32080000  1.0 0.1303375512
O  O306  1  0.69300000  0.96540000  0.32320000  1.0 -0.042709294
O  O307  1  0.69220000  0.92640000  0.24260000  1.0 -0.581444809
O  O308  1  0.63530000  0.87630000  0.37930000  1.0 -0.0984991057
O  O309  1  0.78234000  0.17484000  0.97630000  1.0 -0.5999288302
O  O310  1  0.67670000  0.14530000  0.92950000  1.0 -0.4900468884
O  O311  1  0.71270000  0.01030000  0.94610000  1.0 -0.0081027456
O  O312  1  0.76120000  0.05140000  0.86660000  1.0 0.1474911189
O  O313  1  0.69300000  0.01840000  0.96540000  1.0 -0.042709294
O  O314  1  0.69220000  0.13880000  0.92640000  1.0 -0.581444809
O  O315  1  0.63530000  0.10910000  0.87630000  1.0 -0.0984991057
O  O316  1  0.06652000  0.97630000  0.17484000  1.0 -0.5999288302
O  O317  1  0.24850000  0.92950000  0.14530000  1.0 -0.4900468884
O  O318  1  0.33090000  0.94610000  0.01030000  1.0 -0.0081027456
O  O319  1  0.32080000  0.86660000  0.05140000  1.0 0.1474911189
O  O320  1  0.32320000  0.96540000  0.01840000  1.0 -0.049467615
O  O321  1  0.24260000  0.92640000  0.13880000  1.0 -0.581444809
O  O322  1  0.37930000  0.87630000  0.10910000  1.0 -0.0984991057
O  O323  1  0.97630000  0.06652000  0.78234000  1.0 -0.5999288302
O  O324  1  0.92950000  0.24850000  0.67670000  1.0 -0.4900468884
O  O325  1  0.94610000  0.33090000  0.71270000  1.0 -0.0081027456
O  O326  1  0.86660000  0.32080000  0.76120000  1.0 0.1474911189
O  O327  1  0.96540000  0.32320000  0.69300000  1.0 -0.042709294
O  O328  1  0.92640000  0.24260000  0.69220000  1.0 -0.581444809
O  O329  1  0.87630000  0.37930000  0.63530000  1.0 -0.0984991057
O  O330  1  0.17484000  0.78234000  0.06652000  1.0 -0.5999288302
O  O331  1  0.14530000  0.67670000  0.24850000  1.0 -0.4900468884
O  O332  1  0.01030000  0.71270000  0.33090000  1.0 -0.0081027456
O  O333  1  0.05140000  0.76120000  0.32080000  1.0 0.1415558548
O  O334  1  0.01840000  0.69300000  0.32320000  1.0 -0.042709294
O  O335  1  0.13880000  0.69220000  0.24260000  1.0 -0.581444809
O  O336  1  0.10910000  0.63530000  0.37930000  1.0 -0.0984991057
O  O337  1  0.08740000  0.73780000  0.08740000  1.0 -0.3999581414
O  O338  1  0.09670000  0.70990000  0.09670000  1.0 -0.3999581414
O  O339  1  0.73780000  0.08740000  0.08740000  1.0 -0.3999581414
O  O340  1  0.70990000  0.09670000  0.09670000  1.0 -0.3999581414
O  O341  1  0.08740000  0.08740000  0.08740000  1.0 -0.3999581414
O  O342  1  0.09670000  0.09670000  0.09670000  1.0 -0.3999581414
O  O343  1  0.08740000  0.08740000  0.73780000  1.0 -0.3999581414
O  O344  1  0.09670000  0.09670000  0.70990000  1.0 -0.3999581414
O  O345  1  0.16260000  0.51220000  0.16260000  1.0 -0.3999581414
O  O346  1  0.15330000  0.54010000  0.15330000  1.0 -0.3999581414
O  O347  1  0.51220000  0.16260000  0.16260000  1.0 -0.3999581414
O  O348  1  0.54010000  0.15330000  0.15330000  1.0 -0.3938457883
O  O349  1  0.16260000  0.16260000  0.51220000  1.0 -0.3999581414
O  O350  1  0.15330000  0.15330000  0.54010000  1.0 -0.3999581414
O  O351  1  0.16260000  0.16260000  0.16260000  1.0 -0.3999581414
O  O352  1  0.15330000  0.15330000  0.15330000  1.0 -0.3999581414
O  O353  1  0.17760000  0.59460000  0.17760000  1.0 -0.5170457256
O  O354  1  0.19050000  0.58890000  0.19050000  1.0 -0.4179099153
O  O355  1  0.59460000  0.17760000  0.05020000  1.0 -0.5170457256
O  O356  1  0.58890000  0.19050000  0.03010000  1.0 -0.4148705072
O  O357  1  0.17760000  0.05020000  0.17760000  1.0 -0.5170457256
O  O358  1  0.19050000  0.03010000  0.19050000  1.0 -0.4179099153
O  O359  1  0.05020000  0.17760000  0.59460000  1.0 -0.5170457256
O  O360  1  0.03010000  0.19050000  0.58890000  1.0 -0.4148705072
O  O361  1  0.17760000  0.17760000  0.59460000  1.0 -0.5170457256
O  O362  1  0.19050000  0.19050000  0.58890000  1.0 -0.4148705072
O  O363  1  0.05020000  0.59460000  0.17760000  1.0 -0.5170457256
O  O364  1  0.03010000  0.58890000  0.19050000  1.0 -0.4179099153
O  O365  1  0.17760000  0.17760000  0.05020000  1.0 -0.5170457256
O  O366  1  0.19050000  0.19050000  0.03010000  1.0 -0.4148705072
O  O367  1  0.59460000  0.05020000  0.17760000  1.0 -0.5170457256
O  O368  1  0.58890000  0.03010000  0.19050000  1.0 -0.4179099153
O  O369  1  0.59460000  0.17760000  0.17760000  1.0 -0.5170457256
O  O370  1  0.58890000  0.19050000  0.19050000  1.0 -0.4179099153
O  O371  1  0.17760000  0.05020000  0.59460000  1.0 -0.5170457256
O  O372  1  0.19050000  0.03010000  0.58890000  1.0 -0.4179099153
O  O373  1  0.05020000  0.17760000  0.17760000  1.0 -0.5170457256
O  O374  1  0.03010000  0.19050000  0.19050000  1.0 -0.4179099153
O  O375  1  0.17760000  0.59460000  0.05020000  1.0 -0.5170457256
O  O376  1  0.19050000  0.58890000  0.03010000  1.0 -0.4148705072
O  O377  1  0.07240000  0.65540000  0.19980000  1.0 -0.5170457256
O  O378  1  0.05950000  0.66110000  0.21990000  1.0 -0.4179099153
O  O379  1  0.65540000  0.07240000  0.07240000  1.0 -0.5170457256
O  O380  1  0.66110000  0.05950000  0.05950000  1.0 -0.4179099153
O  O381  1  0.07240000  0.19980000  0.65540000  1.0 -0.5170457256
O  O382  1  0.05950000  0.21990000  0.66110000  1.0 -0.4179099153
O  O383  1  0.19980000  0.07240000  0.07240000  1.0 -0.5170457256
O  O384  1  0.21990000  0.05950000  0.05950000  1.0 -0.4179099153
O  O385  1  0.07240000  0.07240000  0.19980000  1.0 -0.5170457256
O  O386  1  0.05950000  0.05950000  0.21990000  1.0 -0.4179099153
O  O387  1  0.19980000  0.65540000  0.07240000  1.0 -0.5170457256
O  O388  1  0.21990000  0.66110000  0.05950000  1.0 -0.4179099153
O  O389  1  0.07240000  0.07240000  0.65540000  1.0 -0.5170457256
O  O390  1  0.05950000  0.05950000  0.66110000  1.0 -0.4179099153
O  O391  1  0.65540000  0.19980000  0.07240000  1.0 -0.5170457256
O  O392  1  0.66110000  0.21990000  0.05950000  1.0 -0.4179099153
O  O393  1  0.65540000  0.07240000  0.19980000  1.0 -0.5170457256
O  O394  1  0.66110000  0.05950000  0.21990000  1.0 -0.4148705072
O  O395  1  0.07240000  0.19980000  0.07240000  1.0 -0.5170457256
O  O396  1  0.05950000  0.21990000  0.05950000  1.0 -0.4179099153
O  O397  1  0.19980000  0.07240000  0.65540000  1.0 -0.5170457256
O  O398  1  0.21990000  0.05950000  0.66110000  1.0 -0.4179099153
O  O399  1  0.07240000  0.65540000  0.07240000  1.0 -0.5170457256
O  O400  1  0.05950000  0.66110000  0.05950000  1.0 -0.4179099153
