# DDEC6 charges by PACMAN v1.1 (https://github.com/mtap-research/PACMAN-charge/)
data_ZIZTEJ_FSR_pacman
_symmetry_space_group_name_H-M   'P 1'
_cell_length_a   13.63670000
_cell_length_b   13.63670000
_cell_length_c   17.74320000
_cell_angle_alpha   80.58070000
_cell_angle_beta   99.41930000
_cell_angle_gamma   142.54800000
_symmetry_Int_Tables_number   1
_chemical_formula_structural   U2P3H10C3NO14F
_chemical_formula_sum   'U8 P12 H40 C12 N4 O56 F4'
_cell_volume   1976.24084888
_cell_formula_units_Z   4
loop_
 _symmetry_equiv_pos_site_id
 _symmetry_equiv_pos_as_xyz
  1  'x, y, z'
loop_
 _atom_site_type_symbol
 _atom_site_label
 _atom_site_symmetry_multiplicity
 _atom_site_fract_x
 _atom_site_fract_y
 _atom_site_fract_z
 _atom_site_occupancy
 _atom_site_charge
U  U1  1  0.97496000  0.84148000  0.64153000  1.0 2.5770831422
U  U2  1  0.84148000  0.97496000  0.85847000  1.0 2.5770831422
U  U3  1  0.02504000  0.15852000  0.35847000  1.0 2.5770831422
U  U4  1  0.15852000  0.02504000  0.14153000  1.0 2.5770831422
U  U5  1  0.39640000  0.90542000  0.59968000  1.0 2.5619035677
U  U6  1  0.90542000  0.39640000  0.90032000  1.0 2.5619035677
U  U7  1  0.60360000  0.09458000  0.40032000  1.0 2.5619035677
U  U8  1  0.09458000  0.60360000  0.09968000  1.0 2.5619035677
P  P1  1  0.10512000  0.98312000  0.83825000  1.0 1.3669351057
P  P2  1  0.98312000  0.10512000  0.66175000  1.0 1.3669351057
P  P3  1  0.89488000  0.01688000  0.16175000  1.0 1.3669351057
P  P4  1  0.01688000  0.89488000  0.33825000  1.0 1.3669351057
P  P5  1  0.16490000  0.76178000  0.75856000  1.0 1.4055763201
P  P6  1  0.76178000  0.16490000  0.74144000  1.0 1.4055763201
P  P7  1  0.83510000  0.23822000  0.24144000  1.0 1.4055763201
P  P8  1  0.23822000  0.83510000  0.25856000  1.0 1.4055763201
P  P9  1  0.38399000  0.03801000  0.03694000  1.0 1.3256389813
P  P10  1  0.03801000  0.38399000  0.46306000  1.0 1.3247263944
P  P11  1  0.61601000  0.96199000  0.96306000  1.0 1.3247263944
P  P12  1  0.96199000  0.61601000  0.53694000  1.0 1.3247263944
H  H1  1  0.01980000  0.75140000  0.86920000  1.0 0.1792160437
H  H2  1  0.75140000  0.01980000  0.63080000  1.0 0.1792160437
H  H3  1  0.98020000  0.24860000  0.13080000  1.0 0.1792160437
H  H4  1  0.24860000  0.98020000  0.36920000  1.0 0.1792160437
H  H5  1  0.08830000  0.84490000  0.94440000  1.0 0.1792160437
H  H6  1  0.84490000  0.08830000  0.55560000  1.0 0.1792160437
H  H7  1  0.91170000  0.15510000  0.05560000  1.0 0.1792160437
H  H8  1  0.15510000  0.91170000  0.44440000  1.0 0.1792160437
H  H9  1  0.33280000  0.02520000  0.78290000  1.0 0.1697010488
H  H10  1  0.02520000  0.33280000  0.71710000  1.0 0.1697010488
H  H11  1  0.66720000  0.97480000  0.21710000  1.0 0.1697010488
H  H12  1  0.97480000  0.66720000  0.28290000  1.0 0.1697010488
H  H13  1  0.41420000  0.98560000  0.81990000  1.0 0.1792160437
H  H14  1  0.98560000  0.41420000  0.68010000  1.0 0.1792160437
H  H15  1  0.58580000  0.01440000  0.18010000  1.0 0.1792160437
H  H16  1  0.01440000  0.58580000  0.31990000  1.0 0.1792160437
H  H17  1  0.50140000  0.10420000  0.92630000  1.0 0.1697010488
H  H18  1  0.10420000  0.50140000  0.57370000  1.0 0.1697010488
H  H19  1  0.49860000  0.89580000  0.07370000  1.0 0.1697010488
H  H20  1  0.89580000  0.49860000  0.42630000  1.0 0.1697010488
H  H21  1  0.42490000  0.15270000  0.91430000  1.0 0.1552035824
H  H22  1  0.15270000  0.42490000  0.58570000  1.0 0.1552035824
H  H23  1  0.57510000  0.84730000  0.08570000  1.0 0.1552035824
H  H24  1  0.84730000  0.57510000  0.41430000  1.0 0.1552035824
H  H25  1  0.23380000  0.83420000  0.92000000  1.0 0.2781595306
H  H26  1  0.83420000  0.23380000  0.58000000  1.0 0.2781595306
H  H27  1  0.76620000  0.16580000  0.08000000  1.0 0.2781595306
H  H28  1  0.16580000  0.76620000  0.42000000  1.0 0.2781595306
H  H29  1  0.33470000  0.20870000  0.83600000  1.0 0.3725035504
H  H30  1  0.20870000  0.33470000  0.66400000  1.0 0.3725035504
H  H31  1  0.66530000  0.79130000  0.16400000  1.0 0.3725035504
H  H32  1  0.79130000  0.66530000  0.33600000  1.0 0.3725035504
H  H33  1  0.60200000  0.27400000  0.06200000  1.0 0.2993614987
H  H34  1  0.27400000  0.60200000  0.43800000  1.0 0.2993614987
H  H35  1  0.39800000  0.72600000  0.93800000  1.0 0.2993614987
H  H36  1  0.72600000  0.39800000  0.56200000  1.0 0.2993614987
H  H37  1  0.59600000  0.22800000  0.11400000  1.0 0.3307351784
H  H38  1  0.22800000  0.59600000  0.38600000  1.0 0.3307351784
H  H39  1  0.40400000  0.77200000  0.88600000  1.0 0.3307351784
H  H40  1  0.77200000  0.40400000  0.61400000  1.0 0.3307351784
C  C1  1  0.11034000  0.85946000  0.89050000  1.0 -0.4425431847
C  C2  1  0.85946000  0.11034000  0.60950000  1.0 -0.4425431847
C  C3  1  0.88966000  0.14054000  0.10950000  1.0 -0.4425431847
C  C4  1  0.14054000  0.88966000  0.39050000  1.0 -0.4425431847
C  C5  1  0.31140000  0.94240000  0.81330000  1.0 -0.4425431847
C  C6  1  0.94240000  0.31140000  0.68670000  1.0 -0.4425431847
C  C7  1  0.68860000  0.05760000  0.18670000  1.0 -0.4425431847
C  C8  1  0.05760000  0.68860000  0.31330000  1.0 -0.4425431847
C  C9  1  0.40515000  0.06645000  0.93500000  1.0 -0.4480891957
C  C10  1  0.06645000  0.40515000  0.56500000  1.0 -0.4480891957
C  C11  1  0.59485000  0.93355000  0.06500000  1.0 -0.4480891957
C  C12  1  0.93355000  0.59485000  0.43500000  1.0 -0.4480891957
N  N1  1  0.26178000  0.91802000  0.89100000  1.0 0.1075963338
N  N2  1  0.91802000  0.26178000  0.60900000  1.0 0.1075963338
N  N3  1  0.73822000  0.08198000  0.10900000  1.0 0.1075963338
N  N4  1  0.08198000  0.73822000  0.39100000  1.0 0.1075963338
O  O1  1  0.10627000  0.98013000  0.75370000  1.0 -0.8407543435
O  O2  1  0.98013000  0.10627000  0.74630000  1.0 -0.8407543435
O  O3  1  0.89373000  0.01987000  0.24630000  1.0 -0.8407543435
O  O4  1  0.01987000  0.89373000  0.25370000  1.0 -0.8407543435
O  O5  1  0.94547000  0.89513000  0.86150000  1.0 -0.7754461452
O  O6  1  0.89513000  0.94547000  0.63850000  1.0 -0.7754461452
O  O7  1  0.05453000  0.10487000  0.13850000  1.0 -0.7754461452
O  O8  1  0.10487000  0.05453000  0.36150000  1.0 -0.7754461452
O  O9  1  0.24890000  0.15010000  0.86850000  1.0 -0.5891724362
O  O10  1  0.15010000  0.24890000  0.63150000  1.0 -0.5891724362
O  O11  1  0.75110000  0.84990000  0.13150000  1.0 -0.5891724362
O  O12  1  0.84990000  0.75110000  0.36850000  1.0 -0.5891724362
O  O13  1  0.05907000  0.75373000  0.70740000  1.0 -0.8407543435
O  O14  1  0.75373000  0.05907000  0.79260000  1.0 -0.8407543435
O  O15  1  0.94093000  0.24627000  0.29260000  1.0 -0.8407543435
O  O16  1  0.24627000  0.94093000  0.20740000  1.0 -0.8407543435
O  O17  1  0.27057000  0.78623000  0.71388000  1.0 -0.8279843091
O  O18  1  0.78623000  0.27057000  0.78612000  1.0 -0.8279843091
O  O19  1  0.72943000  0.21377000  0.28612000  1.0 -0.8279843091
O  O20  1  0.21377000  0.72943000  0.21388000  1.0 -0.8279843091
O  O21  1  0.07064000  0.61836000  0.81457000  1.0 -0.8279843091
O  O22  1  0.61836000  0.07064000  0.68543000  1.0 -0.8279843091
O  O23  1  0.92936000  0.38164000  0.18543000  1.0 -0.8279843091
O  O24  1  0.38164000  0.92936000  0.31457000  1.0 -0.8279843091
O  O25  1  0.31032000  0.88028000  0.06120000  1.0 -0.8099527641
O  O26  1  0.88028000  0.31032000  0.43880000  1.0 -0.8099527641
O  O27  1  0.68968000  0.11972000  0.93880000  1.0 -0.8099527641
O  O28  1  0.11972000  0.68968000  0.56120000  1.0 -0.8099527641
O  O29  1  0.56314000  0.17686000  0.06880000  1.0 -0.5584330841
O  O30  1  0.17686000  0.56314000  0.43120000  1.0 -0.5584330841
O  O31  1  0.43686000  0.82314000  0.93120000  1.0 -0.5584330841
O  O32  1  0.82314000  0.43686000  0.56880000  1.0 -0.5584330841
O  O33  1  0.29643000  0.05717000  0.05440000  1.0 -0.7885580942
O  O34  1  0.05717000  0.29643000  0.44560000  1.0 -0.7885580942
O  O35  1  0.70357000  0.94283000  0.94560000  1.0 -0.7885580942
O  O36  1  0.94283000  0.70357000  0.55440000  1.0 -0.7885580942
O  O37  1  0.78924000  0.66316000  0.68290000  1.0 -0.6501639767
O  O38  1  0.66316000  0.78924000  0.81710000  1.0 -0.6501639767
O  O39  1  0.21076000  0.33684000  0.31710000  1.0 -0.6501639767
O  O40  1  0.33684000  0.21076000  0.18290000  1.0 -0.6501639767
O  O41  1  0.15727000  0.02093000  0.59750000  1.0 -0.5891724362
O  O42  1  0.02093000  0.15727000  0.90250000  1.0 -0.5891724362
O  O43  1  0.84273000  0.97907000  0.40250000  1.0 -0.5891724362
O  O44  1  0.97907000  0.84273000  0.09750000  1.0 -0.5891724362
O  O45  1  0.39277000  0.03363000  0.59160000  1.0 -0.6942185446
O  O46  1  0.03363000  0.39277000  0.90840000  1.0 -0.6942185446
O  O47  1  0.60723000  0.96637000  0.40840000  1.0 -0.6942185446
O  O48  1  0.96637000  0.60723000  0.09160000  1.0 -0.6942185446
O  O49  1  0.39877000  0.77663000  0.60610000  1.0 -0.6778852179
O  O50  1  0.77663000  0.39877000  0.89390000  1.0 -0.6778852179
O  O51  1  0.60123000  0.22337000  0.39390000  1.0 -0.6778852179
O  O52  1  0.22337000  0.60123000  0.10610000  1.0 -0.6778852179
O  O53  1  0.82101000  0.78719000  0.51830000  1.0 -0.2302251194
O  O54  1  0.78719000  0.82101000  0.98170000  1.0 -0.2399056836
O  O55  1  0.17899000  0.21281000  0.48170000  1.0 -0.2302251194
O  O56  1  0.21281000  0.17899000  0.01830000  1.0 -0.2302251194
F  F1  1  0.63511000  0.10069000  0.53359000  1.0 -0.6207617505
F  F2  1  0.10069000  0.63511000  0.96641000  1.0 -0.6207617505
F  F3  1  0.36489000  0.89931000  0.46641000  1.0 -0.6207617505
F  F4  1  0.89931000  0.36489000  0.03359000  1.0 -0.6207617505
