# DDEC6 charges by PACMAN v1.1 (https://github.com/mtap-research/PACMAN-charge/)
data_ZIZTAG_FSR_pacman
_symmetry_space_group_name_H-M   'P 1'
_cell_length_a   24.84520000
_cell_length_b   24.84520000
_cell_length_c   24.84520000
_cell_angle_alpha   60.00000000
_cell_angle_beta   60.00000000
_cell_angle_gamma   60.00000000
_symmetry_Int_Tables_number   1
_chemical_formula_structural   Zr3H10(C6O13)2
_chemical_formula_sum   'Zr24 H80 C96 O208'
_cell_volume   10844.57392191
_cell_formula_units_Z   8
loop_
 _symmetry_equiv_pos_site_id
 _symmetry_equiv_pos_as_xyz
  1  'x, y, z'
loop_
 _atom_site_type_symbol
 _atom_site_label
 _atom_site_symmetry_multiplicity
 _atom_site_fract_x
 _atom_site_fract_y
 _atom_site_fract_z
 _atom_site_occupancy
 _atom_site_charge
Zr  Zr1  1  0.10222000  0.55394000  0.10222000  1.0 1.8657651275
Zr  Zr2  1  0.10222000  0.24162000  0.10222000  1.0 1.8657651275
Zr  Zr3  1  0.55394000  0.10222000  0.24162000  1.0 1.8657651275
Zr  Zr4  1  0.24162000  0.10222000  0.55394000  1.0 1.8657651275
Zr  Zr5  1  0.55394000  0.10222000  0.10222000  1.0 1.8628091048
Zr  Zr6  1  0.24162000  0.10222000  0.10222000  1.0 1.8628091048
Zr  Zr7  1  0.10222000  0.24162000  0.55394000  1.0 1.8657651275
Zr  Zr8  1  0.10222000  0.55394000  0.24162000  1.0 1.8628091048
Zr  Zr9  1  0.10222000  0.10222000  0.55394000  1.0 1.8657651275
Zr  Zr10  1  0.10222000  0.10222000  0.24162000  1.0 1.8657651275
Zr  Zr11  1  0.24162000  0.55394000  0.10222000  1.0 1.8657651275
Zr  Zr12  1  0.55394000  0.24162000  0.10222000  1.0 1.8657651275
Zr  Zr13  1  0.14778000  0.00838000  0.14778000  1.0 1.8657651275
Zr  Zr14  1  0.14778000  0.69606000  0.14778000  1.0 1.8628091048
Zr  Zr15  1  0.69606000  0.14778000  0.00838000  1.0 1.8657651275
Zr  Zr16  1  0.00838000  0.14778000  0.69606000  1.0 1.8657651275
Zr  Zr17  1  0.69606000  0.00838000  0.14778000  1.0 1.8657651275
Zr  Zr18  1  0.00838000  0.69606000  0.14778000  1.0 1.8628091048
Zr  Zr19  1  0.14778000  0.14778000  0.69606000  1.0 1.8657651275
Zr  Zr20  1  0.14778000  0.14778000  0.00838000  1.0 1.8657651275
Zr  Zr21  1  0.14778000  0.00838000  0.69606000  1.0 1.8657651275
Zr  Zr22  1  0.14778000  0.69606000  0.00838000  1.0 1.8628091048
Zr  Zr23  1  0.00838000  0.14778000  0.14778000  1.0 1.8657651275
Zr  Zr24  1  0.69606000  0.14778000  0.14778000  1.0 1.8628091048
H  H1  1  0.17950000  0.46150000  0.17950000  1.0 0.3203022737
H  H2  1  0.17950000  0.17950000  0.17950000  1.0 0.3203022737
H  H3  1  0.46150000  0.17950000  0.17950000  1.0 0.3203022737
H  H4  1  0.17950000  0.17950000  0.46150000  1.0 0.3203022737
H  H5  1  0.07050000  0.07050000  0.07050000  1.0 0.3203022737
H  H6  1  0.07050000  0.78850000  0.07050000  1.0 0.3203022737
H  H7  1  0.78850000  0.07050000  0.07050000  1.0 0.3203022737
H  H8  1  0.07050000  0.07050000  0.78850000  1.0 0.3203022737
H  H9  1  0.03250000  0.67430000  0.03250000  1.0 0.3362596094
H  H10  1  0.03250000  0.26070000  0.03250000  1.0 0.3362596094
H  H11  1  0.67430000  0.03250000  0.26070000  1.0 0.3362596094
H  H12  1  0.26070000  0.03250000  0.67430000  1.0 0.3362596094
H  H13  1  0.67430000  0.03250000  0.03250000  1.0 0.3362596094
H  H14  1  0.26070000  0.03250000  0.03250000  1.0 0.3362596094
H  H15  1  0.03250000  0.26070000  0.67430000  1.0 0.3362596094
H  H16  1  0.03250000  0.67430000  0.26070000  1.0 0.3362596094
H  H17  1  0.03250000  0.03250000  0.67430000  1.0 0.3362596094
H  H18  1  0.03250000  0.03250000  0.26070000  1.0 0.3362596094
H  H19  1  0.26070000  0.67430000  0.03250000  1.0 0.3362596094
H  H20  1  0.67430000  0.26070000  0.03250000  1.0 0.3362596094
H  H21  1  0.21750000  0.98930000  0.21750000  1.0 0.3362596094
H  H22  1  0.21750000  0.57570000  0.21750000  1.0 0.3362596094
H  H23  1  0.57570000  0.21750000  0.98930000  1.0 0.3362596094
H  H24  1  0.98930000  0.21750000  0.57570000  1.0 0.3362596094
H  H25  1  0.57570000  0.98930000  0.21750000  1.0 0.3362596094
H  H26  1  0.98930000  0.57570000  0.21750000  1.0 0.3362596094
H  H27  1  0.21750000  0.21750000  0.57570000  1.0 0.3362596094
H  H28  1  0.21750000  0.21750000  0.98930000  1.0 0.3362596094
H  H29  1  0.21750000  0.98930000  0.57570000  1.0 0.3362596094
H  H30  1  0.21750000  0.57570000  0.98930000  1.0 0.3362596094
H  H31  1  0.98930000  0.21750000  0.21750000  1.0 0.3362596094
H  H32  1  0.57570000  0.21750000  0.21750000  1.0 0.3362596094
H  H33  1  0.90590000  0.62500000  0.12500000  1.0 0.1563565963
H  H34  1  0.12500000  0.34410000  0.90590000  1.0 0.1563565963
H  H35  1  0.62500000  0.90590000  0.34410000  1.0 0.1563565963
H  H36  1  0.34410000  0.12500000  0.62500000  1.0 0.1563565963
H  H37  1  0.62500000  0.12500000  0.90590000  1.0 0.1563565963
H  H38  1  0.34410000  0.90590000  0.12500000  1.0 0.1563565963
H  H39  1  0.90590000  0.34410000  0.62500000  1.0 0.1563565963
H  H40  1  0.12500000  0.62500000  0.34410000  1.0 0.1563565963
H  H41  1  0.12500000  0.90590000  0.62500000  1.0 0.1563565963
H  H42  1  0.90590000  0.12500000  0.34410000  1.0 0.1563565963
H  H43  1  0.34410000  0.62500000  0.90590000  1.0 0.1563565963
H  H44  1  0.62500000  0.34410000  0.12500000  1.0 0.1563565963
H  H45  1  0.34410000  0.62500000  0.12500000  1.0 0.1563565963
H  H46  1  0.12500000  0.90590000  0.34410000  1.0 0.1563565963
H  H47  1  0.62500000  0.34410000  0.90590000  1.0 0.1563565963
H  H48  1  0.90590000  0.12500000  0.62500000  1.0 0.1563565963
H  H49  1  0.62500000  0.12500000  0.34410000  1.0 0.1563565963
H  H50  1  0.90590000  0.34410000  0.12500000  1.0 0.1563565963
H  H51  1  0.34410000  0.90590000  0.62500000  1.0 0.1563565963
H  H52  1  0.12500000  0.62500000  0.90590000  1.0 0.1563565963
H  H53  1  0.12500000  0.34410000  0.62500000  1.0 0.1563565963
H  H54  1  0.34410000  0.12500000  0.90590000  1.0 0.1563565963
H  H55  1  0.90590000  0.62500000  0.34410000  1.0 0.1563565963
H  H56  1  0.62500000  0.90590000  0.12500000  1.0 0.1563565963
H  H57  1  0.06220000  0.36700000  0.20380000  1.0 0.1191898692
H  H58  1  0.20380000  0.36700000  0.06220000  1.0 0.1191898692
H  H59  1  0.36700000  0.06220000  0.36700000  1.0 0.1191898692
H  H60  1  0.36700000  0.20380000  0.36700000  1.0 0.1191898692
H  H61  1  0.36700000  0.20380000  0.06220000  1.0 0.1191898692
H  H62  1  0.36700000  0.06220000  0.20380000  1.0 0.1191898692
H  H63  1  0.06220000  0.36700000  0.36700000  1.0 0.1191898692
H  H64  1  0.20380000  0.36700000  0.36700000  1.0 0.1191898692
H  H65  1  0.20380000  0.06220000  0.36700000  1.0 0.1191898692
H  H66  1  0.06220000  0.20380000  0.36700000  1.0 0.1191898692
H  H67  1  0.36700000  0.36700000  0.06220000  1.0 0.1191898692
H  H68  1  0.36700000  0.36700000  0.20380000  1.0 0.1191898692
H  H69  1  0.18780000  0.88300000  0.04620000  1.0 0.1191898692
H  H70  1  0.04620000  0.88300000  0.18780000  1.0 0.1191898692
H  H71  1  0.88300000  0.04620000  0.88300000  1.0 0.1191898692
H  H72  1  0.88300000  0.18780000  0.88300000  1.0 0.1191898692
H  H73  1  0.88300000  0.88300000  0.18780000  1.0 0.1191898692
H  H74  1  0.88300000  0.88300000  0.04620000  1.0 0.1191898692
H  H75  1  0.18780000  0.04620000  0.88300000  1.0 0.1191898692
H  H76  1  0.04620000  0.18780000  0.88300000  1.0 0.1191898692
H  H77  1  0.04620000  0.88300000  0.88300000  1.0 0.1191898692
H  H78  1  0.18780000  0.88300000  0.88300000  1.0 0.1191898692
H  H79  1  0.88300000  0.04620000  0.18780000  1.0 0.1191898692
H  H80  1  0.88300000  0.18780000  0.04620000  1.0 0.1191898692
C  C1  1  0.06996000  0.44376000  0.24314000  1.0 0.5523345553
C  C2  1  0.06321000  0.37721000  0.27979000  1.0 -0.0415776693
C  C3  1  0.24314000  0.24314000  0.06996000  1.0 0.5523345553
C  C4  1  0.27979000  0.27979000  0.06321000  1.0 -0.0415776693
C  C5  1  0.44376000  0.06996000  0.24314000  1.0 0.5523345553
C  C6  1  0.37721000  0.06321000  0.27979000  1.0 -0.0415776693
C  C7  1  0.24314000  0.24314000  0.44376000  1.0 0.5523345553
C  C8  1  0.27979000  0.27979000  0.37721000  1.0 -0.0415776693
C  C9  1  0.44376000  0.24314000  0.06996000  1.0 0.5523345553
C  C10  1  0.37721000  0.27979000  0.06321000  1.0 -0.0415776693
C  C11  1  0.24314000  0.06996000  0.24314000  1.0 0.5523345553
C  C12  1  0.27979000  0.06321000  0.27979000  1.0 -0.0415776693
C  C13  1  0.06996000  0.24314000  0.44376000  1.0 0.5523345553
C  C14  1  0.06321000  0.27979000  0.37721000  1.0 -0.0415776693
C  C15  1  0.24314000  0.44376000  0.24314000  1.0 0.5523345553
C  C16  1  0.27979000  0.37721000  0.27979000  1.0 -0.0415776693
C  C17  1  0.24314000  0.06996000  0.44376000  1.0 0.5523345553
C  C18  1  0.27979000  0.06321000  0.37721000  1.0 -0.0415776693
C  C19  1  0.06996000  0.24314000  0.24314000  1.0 0.5523345553
C  C20  1  0.06321000  0.27979000  0.27979000  1.0 -0.0415776693
C  C21  1  0.24314000  0.44376000  0.06996000  1.0 0.5523345553
C  C22  1  0.27979000  0.37721000  0.06321000  1.0 -0.0415776693
C  C23  1  0.44376000  0.24314000  0.24314000  1.0 0.5523345553
C  C24  1  0.37721000  0.27979000  0.27979000  1.0 -0.0415776693
C  C25  1  0.18004000  0.00686000  0.00686000  1.0 0.5523345553
C  C26  1  0.18679000  0.97021000  0.97021000  1.0 -0.0415776693
C  C27  1  0.00686000  0.80624000  0.18004000  1.0 0.5523345553
C  C28  1  0.97021000  0.87279000  0.18679000  1.0 -0.0415776693
C  C29  1  0.80624000  0.00686000  0.00686000  1.0 0.5523345553
C  C30  1  0.87279000  0.97021000  0.97021000  1.0 -0.0415776693
C  C31  1  0.00686000  0.18004000  0.80624000  1.0 0.5523345553
C  C32  1  0.97021000  0.18679000  0.87279000  1.0 -0.0415776693
C  C33  1  0.80624000  0.00686000  0.18004000  1.0 0.5523345553
C  C34  1  0.87279000  0.97021000  0.18679000  1.0 -0.0415776693
C  C35  1  0.00686000  0.80624000  0.00686000  1.0 0.5523345553
C  C36  1  0.97021000  0.87279000  0.97021000  1.0 -0.0415776693
C  C37  1  0.18004000  0.00686000  0.80624000  1.0 0.5523345553
C  C38  1  0.18679000  0.97021000  0.87279000  1.0 -0.0415776693
C  C39  1  0.00686000  0.18004000  0.00686000  1.0 0.5523345553
C  C40  1  0.97021000  0.18679000  0.97021000  1.0 -0.0415776693
C  C41  1  0.00686000  0.00686000  0.80624000  1.0 0.5523345553
C  C42  1  0.97021000  0.97021000  0.87279000  1.0 -0.0415776693
C  C43  1  0.18004000  0.80624000  0.00686000  1.0 0.5523345553
C  C44  1  0.18679000  0.87279000  0.97021000  1.0 -0.0415776693
C  C45  1  0.00686000  0.00686000  0.18004000  1.0 0.5523345553
C  C46  1  0.97021000  0.97021000  0.18679000  1.0 -0.0415776693
C  C47  1  0.80624000  0.18004000  0.00686000  1.0 0.5523345553
C  C48  1  0.87279000  0.18679000  0.97021000  1.0 -0.0415776693
C  C49  1  0.94420000  0.62500000  0.12500000  1.0 -0.1942976956
C  C50  1  0.12500000  0.30580000  0.94420000  1.0 -0.1957374256
C  C51  1  0.62500000  0.94420000  0.30580000  1.0 -0.1942976956
C  C52  1  0.30580000  0.12500000  0.62500000  1.0 -0.1942976956
C  C53  1  0.62500000  0.12500000  0.94420000  1.0 -0.1957374256
C  C54  1  0.30580000  0.94420000  0.12500000  1.0 -0.1942976956
C  C55  1  0.94420000  0.30580000  0.62500000  1.0 -0.1942976956
C  C56  1  0.12500000  0.62500000  0.30580000  1.0 -0.1942976956
C  C57  1  0.12500000  0.94420000  0.62500000  1.0 -0.1942976956
C  C58  1  0.94420000  0.12500000  0.30580000  1.0 -0.1957374256
C  C59  1  0.30580000  0.62500000  0.94420000  1.0 -0.1942976956
C  C60  1  0.62500000  0.30580000  0.12500000  1.0 -0.1957374256
C  C61  1  0.30580000  0.62500000  0.12500000  1.0 -0.1942976956
C  C62  1  0.12500000  0.94420000  0.30580000  1.0 -0.1942976956
C  C63  1  0.62500000  0.30580000  0.94420000  1.0 -0.1957374256
C  C64  1  0.94420000  0.12500000  0.62500000  1.0 -0.1942976956
C  C65  1  0.62500000  0.12500000  0.30580000  1.0 -0.1942976956
C  C66  1  0.94420000  0.30580000  0.12500000  1.0 -0.1957374256
C  C67  1  0.30580000  0.94420000  0.62500000  1.0 -0.1942976956
C  C68  1  0.12500000  0.62500000  0.94420000  1.0 -0.1942976956
C  C69  1  0.12500000  0.30580000  0.62500000  1.0 -0.1942976956
C  C70  1  0.30580000  0.12500000  0.94420000  1.0 -0.1957374256
C  C71  1  0.94420000  0.62500000  0.30580000  1.0 -0.1942976956
C  C72  1  0.62500000  0.94420000  0.12500000  1.0 -0.1942976956
C  C73  1  0.06277000  0.34469000  0.24785000  1.0 -0.1070068436
C  C74  1  0.24785000  0.34469000  0.06277000  1.0 -0.1070068436
C  C75  1  0.34469000  0.06277000  0.34469000  1.0 -0.1070068436
C  C76  1  0.34469000  0.24785000  0.34469000  1.0 -0.1070068436
C  C77  1  0.34469000  0.24785000  0.06277000  1.0 -0.1070068436
C  C78  1  0.34469000  0.06277000  0.24785000  1.0 -0.1070068436
C  C79  1  0.06277000  0.34469000  0.34469000  1.0 -0.1070068436
C  C80  1  0.24785000  0.34469000  0.34469000  1.0 -0.1070068436
C  C81  1  0.24785000  0.06277000  0.34469000  1.0 -0.1070068436
C  C82  1  0.06277000  0.24785000  0.34469000  1.0 -0.1070068436
C  C83  1  0.34469000  0.34469000  0.06277000  1.0 -0.1070068436
C  C84  1  0.34469000  0.34469000  0.24785000  1.0 -0.1070068436
C  C85  1  0.18723000  0.90531000  0.00215000  1.0 -0.1070068436
C  C86  1  0.00215000  0.90531000  0.18723000  1.0 -0.1070068436
C  C87  1  0.90531000  0.00215000  0.90531000  1.0 -0.1070068436
C  C88  1  0.90531000  0.18723000  0.90531000  1.0 -0.1070068436
C  C89  1  0.90531000  0.90531000  0.18723000  1.0 -0.1070068436
C  C90  1  0.90531000  0.90531000  0.00215000  1.0 -0.1070068436
C  C91  1  0.18723000  0.00215000  0.90531000  1.0 -0.1070068436
C  C92  1  0.00215000  0.18723000  0.90531000  1.0 -0.1070068436
C  C93  1  0.00215000  0.90531000  0.90531000  1.0 -0.1070068436
C  C94  1  0.18723000  0.90531000  0.90531000  1.0 -0.1070068436
C  C95  1  0.90531000  0.00215000  0.18723000  1.0 -0.1070068436
C  C96  1  0.90531000  0.18723000  0.00215000  1.0 -0.1070068436
O  O1  1  0.07337000  0.46861000  0.18385000  1.0 -0.6171414198
O  O2  1  0.00141000  0.56937000  0.10963000  1.0 -0.0938334953
O  O3  1  0.02630000  0.54650000  0.09350000  1.0 -0.1070068436
O  O4  1  0.18385000  0.27417000  0.07337000  1.0 -0.6171414198
O  O5  1  0.10963000  0.31959000  0.00141000  1.0 -0.0996015994
O  O6  1  0.09350000  0.33370000  0.02630000  1.0 -0.1070068436
O  O7  1  0.46861000  0.07337000  0.27417000  1.0 -0.6171414198
O  O8  1  0.56937000  0.00141000  0.31959000  1.0 -0.0996015994
O  O9  1  0.54650000  0.02630000  0.33370000  1.0 -0.0996015994
O  O10  1  0.27417000  0.18385000  0.46861000  1.0 -0.6171414198
O  O11  1  0.31959000  0.10963000  0.56937000  1.0 -0.0996015994
O  O12  1  0.33370000  0.09350000  0.54650000  1.0 -0.0996015994
O  O13  1  0.46861000  0.18385000  0.07337000  1.0 -0.6171414198
O  O14  1  0.56937000  0.10963000  0.00141000  1.0 -0.0996015994
O  O15  1  0.54650000  0.09350000  0.02630000  1.0 -0.0996015994
O  O16  1  0.27417000  0.07337000  0.18385000  1.0 -0.6171414198
O  O17  1  0.31959000  0.00141000  0.10963000  1.0 -0.0996015994
O  O18  1  0.33370000  0.02630000  0.09350000  1.0 -0.0996015994
O  O19  1  0.07337000  0.27417000  0.46861000  1.0 -0.6171414198
O  O20  1  0.00141000  0.31959000  0.56937000  1.0 -0.0996015994
O  O21  1  0.02630000  0.33370000  0.54650000  1.0 -0.0996015994
O  O22  1  0.18385000  0.46861000  0.27417000  1.0 -0.6171414198
O  O23  1  0.10963000  0.56937000  0.31959000  1.0 -0.0996015994
O  O24  1  0.09350000  0.54650000  0.33370000  1.0 -0.1070068436
O  O25  1  0.18385000  0.07337000  0.46861000  1.0 -0.6171414198
O  O26  1  0.10963000  0.00141000  0.56937000  1.0 -0.0996015994
O  O27  1  0.09350000  0.02630000  0.54650000  1.0 -0.0996015994
O  O28  1  0.07337000  0.18385000  0.27417000  1.0 -0.6171414198
O  O29  1  0.00141000  0.10963000  0.31959000  1.0 -0.0996015994
O  O30  1  0.02630000  0.09350000  0.33370000  1.0 -0.0996015994
O  O31  1  0.27417000  0.46861000  0.07337000  1.0 -0.6171414198
O  O32  1  0.31959000  0.56937000  0.00141000  1.0 -0.0996015994
O  O33  1  0.33370000  0.54650000  0.02630000  1.0 -0.1070068436
O  O34  1  0.46861000  0.27417000  0.18385000  1.0 -0.6171414198
O  O35  1  0.56937000  0.31959000  0.10963000  1.0 -0.0996015994
O  O36  1  0.54650000  0.33370000  0.09350000  1.0 -0.1070068436
O  O37  1  0.17663000  0.97583000  0.06615000  1.0 -0.6171414198
O  O38  1  0.24859000  0.93041000  0.14037000  1.0 -0.0996015994
O  O39  1  0.22370000  0.91630000  0.15650000  1.0 -0.1070068436
O  O40  1  0.06615000  0.78139000  0.17663000  1.0 -0.6171414198
O  O41  1  0.14037000  0.68063000  0.24859000  1.0 -0.0996015994
O  O42  1  0.15650000  0.70350000  0.22370000  1.0 -0.1070068436
O  O43  1  0.78139000  0.06615000  0.97583000  1.0 -0.6171414198
O  O44  1  0.68063000  0.14037000  0.93041000  1.0 -0.0996015994
O  O45  1  0.70350000  0.15650000  0.91630000  1.0 -0.0996015994
O  O46  1  0.97583000  0.17663000  0.78139000  1.0 -0.6171414198
O  O47  1  0.93041000  0.24859000  0.68063000  1.0 -0.0996015994
O  O48  1  0.91630000  0.22370000  0.70350000  1.0 -0.0996015994
O  O49  1  0.78139000  0.97583000  0.17663000  1.0 -0.6171414198
O  O50  1  0.68063000  0.93041000  0.24859000  1.0 -0.0938334953
O  O51  1  0.70350000  0.91630000  0.22370000  1.0 -0.1070068436
O  O52  1  0.97583000  0.78139000  0.06615000  1.0 -0.6171414198
O  O53  1  0.93041000  0.68063000  0.14037000  1.0 -0.0938334953
O  O54  1  0.91630000  0.70350000  0.15650000  1.0 -0.0996015994
O  O55  1  0.17663000  0.06615000  0.78139000  1.0 -0.6171414198
O  O56  1  0.24859000  0.14037000  0.68063000  1.0 -0.0996015994
O  O57  1  0.22370000  0.15650000  0.70350000  1.0 -0.0996015994
O  O58  1  0.06615000  0.17663000  0.97583000  1.0 -0.6171414198
O  O59  1  0.14037000  0.24859000  0.93041000  1.0 -0.0996015994
O  O60  1  0.15650000  0.22370000  0.91630000  1.0 -0.0996015994
O  O61  1  0.06615000  0.97583000  0.78139000  1.0 -0.6171414198
O  O62  1  0.14037000  0.93041000  0.68063000  1.0 -0.0996015994
O  O63  1  0.15650000  0.91630000  0.70350000  1.0 -0.1070068436
O  O64  1  0.17663000  0.78139000  0.97583000  1.0 -0.6171414198
O  O65  1  0.24859000  0.68063000  0.93041000  1.0 -0.0996015994
O  O66  1  0.22370000  0.70350000  0.91630000  1.0 -0.0996015994
O  O67  1  0.97583000  0.06615000  0.17663000  1.0 -0.6171414198
O  O68  1  0.93041000  0.14037000  0.24859000  1.0 -0.0996015994
O  O69  1  0.91630000  0.15650000  0.22370000  1.0 -0.0996015994
O  O70  1  0.78139000  0.17663000  0.06615000  1.0 -0.6171414198
O  O71  1  0.68063000  0.24859000  0.14037000  1.0 -0.0996015994
O  O72  1  0.70350000  0.22370000  0.15650000  1.0 -0.0996015994
O  O73  1  0.17663000  0.78139000  0.06615000  1.0 -0.6171414198
O  O74  1  0.24859000  0.68063000  0.14037000  1.0 -0.0996015994
O  O75  1  0.22370000  0.70350000  0.15650000  1.0 -0.0996015994
O  O76  1  0.06615000  0.97583000  0.17663000  1.0 -0.6171414198
O  O77  1  0.14037000  0.93041000  0.24859000  1.0 -0.0938334953
O  O78  1  0.15650000  0.91630000  0.22370000  1.0 -0.0996015994
O  O79  1  0.78139000  0.17663000  0.97583000  1.0 -0.6171414198
O  O80  1  0.68063000  0.24859000  0.93041000  1.0 -0.0996015994
O  O81  1  0.70350000  0.22370000  0.91630000  1.0 -0.0996015994
O  O82  1  0.97583000  0.06615000  0.78139000  1.0 -0.6171414198
O  O83  1  0.93041000  0.14037000  0.68063000  1.0 -0.0996015994
O  O84  1  0.91630000  0.15650000  0.70350000  1.0 -0.0996015994
O  O85  1  0.78139000  0.06615000  0.17663000  1.0 -0.6171414198
O  O86  1  0.68063000  0.14037000  0.24859000  1.0 -0.0996015994
O  O87  1  0.70350000  0.15650000  0.22370000  1.0 -0.0996015994
O  O88  1  0.97583000  0.17663000  0.06615000  1.0 -0.6171414198
O  O89  1  0.93041000  0.24859000  0.14037000  1.0 -0.0996015994
O  O90  1  0.91630000  0.22370000  0.15650000  1.0 -0.1070068436
O  O91  1  0.17663000  0.97583000  0.78139000  1.0 -0.6171414198
O  O92  1  0.24859000  0.93041000  0.68063000  1.0 -0.0996015994
O  O93  1  0.22370000  0.91630000  0.70350000  1.0 -0.1070068436
O  O94  1  0.06615000  0.78139000  0.97583000  1.0 -0.6171414198
O  O95  1  0.14037000  0.68063000  0.93041000  1.0 -0.0996015994
O  O96  1  0.15650000  0.70350000  0.91630000  1.0 -0.1070068436
O  O97  1  0.06615000  0.17663000  0.78139000  1.0 -0.6171414198
O  O98  1  0.14037000  0.24859000  0.68063000  1.0 -0.0996015994
O  O99  1  0.15650000  0.22370000  0.70350000  1.0 -0.0996015994
O  O100  1  0.17663000  0.06615000  0.97583000  1.0 -0.6171414198
O  O101  1  0.24859000  0.14037000  0.93041000  1.0 -0.0996015994
O  O102  1  0.22370000  0.15650000  0.91630000  1.0 -0.0996015994
O  O103  1  0.97583000  0.78139000  0.17663000  1.0 -0.6171414198
O  O104  1  0.93041000  0.68063000  0.24859000  1.0 -0.0996015994
O  O105  1  0.91630000  0.70350000  0.22370000  1.0 -0.1070068436
O  O106  1  0.78139000  0.97583000  0.06615000  1.0 -0.6171414198
O  O107  1  0.68063000  0.93041000  0.14037000  1.0 -0.0996015994
O  O108  1  0.70350000  0.91630000  0.15650000  1.0 -0.1070068436
O  O109  1  0.07337000  0.27417000  0.18385000  1.0 -0.6171414198
O  O110  1  0.00141000  0.31959000  0.10963000  1.0 -0.0996015994
O  O111  1  0.02630000  0.33370000  0.09350000  1.0 -0.1070068436
O  O112  1  0.18385000  0.46861000  0.07337000  1.0 -0.6171414198
O  O113  1  0.10963000  0.56937000  0.00141000  1.0 -0.0996015994
O  O114  1  0.09350000  0.54650000  0.02630000  1.0 -0.1070068436
O  O115  1  0.46861000  0.18385000  0.27417000  1.0 -0.6171414198
O  O116  1  0.56937000  0.10963000  0.31959000  1.0 -0.0996015994
O  O117  1  0.54650000  0.09350000  0.33370000  1.0 -0.0996015994
O  O118  1  0.27417000  0.07337000  0.46861000  1.0 -0.6171414198
O  O119  1  0.31959000  0.00141000  0.56937000  1.0 -0.0996015994
O  O120  1  0.33370000  0.02630000  0.54650000  1.0 -0.0996015994
O  O121  1  0.46861000  0.27417000  0.07337000  1.0 -0.6171414198
O  O122  1  0.56937000  0.31959000  0.00141000  1.0 -0.0996015994
O  O123  1  0.54650000  0.33370000  0.02630000  1.0 -0.1070068436
O  O124  1  0.27417000  0.46861000  0.18385000  1.0 -0.6171414198
O  O125  1  0.31959000  0.56937000  0.10963000  1.0 -0.0938334953
O  O126  1  0.33370000  0.54650000  0.09350000  1.0 -0.1070068436
O  O127  1  0.07337000  0.18385000  0.46861000  1.0 -0.6171414198
O  O128  1  0.00141000  0.10963000  0.56937000  1.0 -0.0996015994
O  O129  1  0.02630000  0.09350000  0.54650000  1.0 -0.0996015994
O  O130  1  0.18385000  0.07337000  0.27417000  1.0 -0.6171414198
O  O131  1  0.10963000  0.00141000  0.31959000  1.0 -0.0996015994
O  O132  1  0.09350000  0.02630000  0.33370000  1.0 -0.0996015994
O  O133  1  0.18385000  0.27417000  0.46861000  1.0 -0.6171414198
O  O134  1  0.10963000  0.31959000  0.56937000  1.0 -0.0996015994
O  O135  1  0.09350000  0.33370000  0.54650000  1.0 -0.0996015994
O  O136  1  0.07337000  0.46861000  0.27417000  1.0 -0.6171414198
O  O137  1  0.00141000  0.56937000  0.31959000  1.0 -0.0996015994
O  O138  1  0.02630000  0.54650000  0.33370000  1.0 -0.1070068436
O  O139  1  0.27417000  0.18385000  0.07337000  1.0 -0.6171414198
O  O140  1  0.31959000  0.10963000  0.00141000  1.0 -0.0996015994
O  O141  1  0.33370000  0.09350000  0.02630000  1.0 -0.0996015994
O  O142  1  0.46861000  0.07337000  0.18385000  1.0 -0.6171414198
O  O143  1  0.56937000  0.00141000  0.10963000  1.0 -0.0938334953
O  O144  1  0.54650000  0.02630000  0.09350000  1.0 -0.0996015994
O  O145  1  0.16300000  0.51100000  0.16300000  1.0 -0.442421649
O  O146  1  0.15290000  0.54130000  0.15290000  1.0 -0.3548587176
O  O147  1  0.16300000  0.16300000  0.16300000  1.0 -0.442421649
O  O148  1  0.15290000  0.15290000  0.15290000  1.0 -0.3548587176
O  O149  1  0.51100000  0.16300000  0.16300000  1.0 -0.442421649
O  O150  1  0.54130000  0.15290000  0.15290000  1.0 -0.3548587176
O  O151  1  0.16300000  0.16300000  0.51100000  1.0 -0.442421649
O  O152  1  0.15290000  0.15290000  0.54130000  1.0 -0.3548587176
O  O153  1  0.08700000  0.08700000  0.08700000  1.0 -0.442421649
O  O154  1  0.09710000  0.09710000  0.09710000  1.0 -0.3548587176
O  O155  1  0.08700000  0.73900000  0.08700000  1.0 -0.442421649
O  O156  1  0.09710000  0.70870000  0.09710000  1.0 -0.3564751487
O  O157  1  0.73900000  0.08700000  0.08700000  1.0 -0.442421649
O  O158  1  0.70870000  0.09710000  0.09710000  1.0 -0.3548587176
O  O159  1  0.08700000  0.08700000  0.73900000  1.0 -0.442421649
O  O160  1  0.09710000  0.09710000  0.70870000  1.0 -0.3548587176
O  O161  1  0.05970000  0.65910000  0.05970000  1.0 -0.4299554431
O  O162  1  0.07280000  0.65700000  0.07280000  1.0 -0.4596162666
O  O163  1  0.05970000  0.22150000  0.05970000  1.0 -0.4299554431
O  O164  1  0.07280000  0.19740000  0.07280000  1.0 -0.4596162666
O  O165  1  0.65910000  0.05970000  0.22150000  1.0 -0.4299554431
O  O166  1  0.65700000  0.07280000  0.19740000  1.0 -0.4596162666
O  O167  1  0.22150000  0.05970000  0.65910000  1.0 -0.4299554431
O  O168  1  0.19740000  0.07280000  0.65700000  1.0 -0.4596162666
O  O169  1  0.65910000  0.05970000  0.05970000  1.0 -0.4299554431
O  O170  1  0.65700000  0.07280000  0.07280000  1.0 -0.4596162666
O  O171  1  0.22150000  0.05970000  0.05970000  1.0 -0.4299554431
O  O172  1  0.19740000  0.07280000  0.07280000  1.0 -0.4596162666
O  O173  1  0.05970000  0.22150000  0.65910000  1.0 -0.4299554431
O  O174  1  0.07280000  0.19740000  0.65700000  1.0 -0.4596162666
O  O175  1  0.05970000  0.65910000  0.22150000  1.0 -0.4299554431
O  O176  1  0.07280000  0.65700000  0.19740000  1.0 -0.4596162666
O  O177  1  0.05970000  0.05970000  0.65910000  1.0 -0.4299554431
O  O178  1  0.07280000  0.07280000  0.65700000  1.0 -0.4596162666
O  O179  1  0.05970000  0.05970000  0.22150000  1.0 -0.4299554431
O  O180  1  0.07280000  0.07280000  0.19740000  1.0 -0.4596162666
O  O181  1  0.22150000  0.65910000  0.05970000  1.0 -0.4299554431
O  O182  1  0.19740000  0.65700000  0.07280000  1.0 -0.4596162666
O  O183  1  0.65910000  0.22150000  0.05970000  1.0 -0.4299554431
O  O184  1  0.65700000  0.19740000  0.07280000  1.0 -0.4596162666
O  O185  1  0.19030000  0.02850000  0.19030000  1.0 -0.4299554431
O  O186  1  0.17720000  0.05260000  0.17720000  1.0 -0.4596162666
O  O187  1  0.19030000  0.59090000  0.19030000  1.0 -0.4299554431
O  O188  1  0.17720000  0.59300000  0.17720000  1.0 -0.4596162666
O  O189  1  0.59090000  0.19030000  0.02850000  1.0 -0.4299554431
O  O190  1  0.59300000  0.17720000  0.05260000  1.0 -0.4596162666
O  O191  1  0.02850000  0.19030000  0.59090000  1.0 -0.4299554431
O  O192  1  0.05260000  0.17720000  0.59300000  1.0 -0.4596162666
O  O193  1  0.59090000  0.02850000  0.19030000  1.0 -0.4299554431
O  O194  1  0.59300000  0.05260000  0.17720000  1.0 -0.4596162666
O  O195  1  0.02850000  0.59090000  0.19030000  1.0 -0.4299554431
O  O196  1  0.05260000  0.59300000  0.17720000  1.0 -0.4596162666
O  O197  1  0.19030000  0.19030000  0.59090000  1.0 -0.4299554431
O  O198  1  0.17720000  0.17720000  0.59300000  1.0 -0.4596162666
O  O199  1  0.19030000  0.19030000  0.02850000  1.0 -0.4299554431
O  O200  1  0.17720000  0.17720000  0.05260000  1.0 -0.4596162666
O  O201  1  0.19030000  0.02850000  0.59090000  1.0 -0.4299554431
O  O202  1  0.17720000  0.05260000  0.59300000  1.0 -0.4596162666
O  O203  1  0.19030000  0.59090000  0.02850000  1.0 -0.4299554431
O  O204  1  0.17720000  0.59300000  0.05260000  1.0 -0.4596162666
O  O205  1  0.02850000  0.19030000  0.19030000  1.0 -0.4299554431
O  O206  1  0.05260000  0.17720000  0.17720000  1.0 -0.4596162666
O  O207  1  0.59090000  0.19030000  0.19030000  1.0 -0.4299554431
O  O208  1  0.59300000  0.17720000  0.17720000  1.0 -0.4596162666
