# DDEC6 charges by PACMAN v1.1 (https://github.com/mtap-research/PACMAN-charge/)
data_ZIZTEK_FSR_pacman
_symmetry_space_group_name_H-M   'P 1'
_cell_length_a   24.89550000
_cell_length_b   24.89550000
_cell_length_c   24.89550000
_cell_angle_alpha   60.00000000
_cell_angle_beta   60.00000000
_cell_angle_gamma   60.00000000
_symmetry_Int_Tables_number   1
_chemical_formula_structural   Zr3H7C9S9O50
_chemical_formula_sum   'Zr24 H56 C72 S72 O400'
_cell_volume   10910.57304789
_cell_formula_units_Z   8
loop_
 _symmetry_equiv_pos_site_id
 _symmetry_equiv_pos_as_xyz
  1  'x, y, z'
loop_
 _atom_site_type_symbol
 _atom_site_label
 _atom_site_symmetry_multiplicity
 _atom_site_fract_x
 _atom_site_fract_y
 _atom_site_fract_z
 _atom_site_occupancy
 _atom_site_charge
Zr  Zr1  1  0.55365000  0.24185000  0.10225000  1.0 2.0141136165
Zr  Zr2  1  0.10225000  0.10225000  0.24185000  1.0 2.015004812
Zr  Zr3  1  0.10225000  0.10225000  0.55365000  1.0 2.0141136165
Zr  Zr4  1  0.24185000  0.55365000  0.10225000  1.0 2.0141136165
Zr  Zr5  1  0.24185000  0.10225000  0.55365000  1.0 2.0141136165
Zr  Zr6  1  0.10225000  0.24185000  0.10225000  1.0 2.015004812
Zr  Zr7  1  0.10225000  0.55365000  0.10225000  1.0 2.0141136165
Zr  Zr8  1  0.55365000  0.10225000  0.24185000  1.0 2.0141136165
Zr  Zr9  1  0.10225000  0.55365000  0.24185000  1.0 2.0141136165
Zr  Zr10  1  0.24185000  0.10225000  0.10225000  1.0 2.015004812
Zr  Zr11  1  0.55365000  0.10225000  0.10225000  1.0 2.0141136165
Zr  Zr12  1  0.10225000  0.24185000  0.55365000  1.0 2.0141136165
Zr  Zr13  1  0.14775000  0.00815000  0.14775000  1.0 2.0141136165
Zr  Zr14  1  0.69635000  0.14775000  0.00815000  1.0 2.0141136165
Zr  Zr15  1  0.00815000  0.14775000  0.69635000  1.0 2.0141136165
Zr  Zr16  1  0.14775000  0.69635000  0.14775000  1.0 2.015004812
Zr  Zr17  1  0.14775000  0.14775000  0.69635000  1.0 2.0141136165
Zr  Zr18  1  0.69635000  0.00815000  0.14775000  1.0 2.0141136165
Zr  Zr19  1  0.00815000  0.69635000  0.14775000  1.0 2.015004812
Zr  Zr20  1  0.14775000  0.14775000  0.00815000  1.0 2.0141136165
Zr  Zr21  1  0.14775000  0.69635000  0.00815000  1.0 2.0141136165
Zr  Zr22  1  0.69635000  0.14775000  0.14775000  1.0 2.0141136165
Zr  Zr23  1  0.00815000  0.14775000  0.14775000  1.0 2.015004812
Zr  Zr24  1  0.14775000  0.00815000  0.69635000  1.0 2.0141136165
H  H1  1  0.46000000  0.18000000  0.18000000  1.0 0.3215596025
H  H2  1  0.18000000  0.18000000  0.18000000  1.0 0.3215596025
H  H3  1  0.18000000  0.18000000  0.46000000  1.0 0.3215596025
H  H4  1  0.18000000  0.46000000  0.18000000  1.0 0.3215596025
H  H5  1  0.07000000  0.07000000  0.07000000  1.0 0.3215596025
H  H6  1  0.79000000  0.07000000  0.07000000  1.0 0.3215596025
H  H7  1  0.07000000  0.07000000  0.79000000  1.0 0.3215596025
H  H8  1  0.07000000  0.79000000  0.07000000  1.0 0.3215596025
H  H9  1  0.67680000  0.25880000  0.03220000  1.0 0.2115486756
H  H10  1  0.03220000  0.03220000  0.25880000  1.0 0.2115486756
H  H11  1  0.03220000  0.03220000  0.67680000  1.0 0.2115486756
H  H12  1  0.25880000  0.67680000  0.03220000  1.0 0.2115486756
H  H13  1  0.25880000  0.03220000  0.67680000  1.0 0.2115486756
H  H14  1  0.03220000  0.25880000  0.03220000  1.0 0.2115486756
H  H15  1  0.03220000  0.67680000  0.03220000  1.0 0.2115486756
H  H16  1  0.67680000  0.03220000  0.25880000  1.0 0.2115486756
H  H17  1  0.03220000  0.67680000  0.25880000  1.0 0.2115486756
H  H18  1  0.25880000  0.03220000  0.03220000  1.0 0.2115486756
H  H19  1  0.67680000  0.03220000  0.03220000  1.0 0.2115486756
H  H20  1  0.03220000  0.25880000  0.67680000  1.0 0.2115486756
H  H21  1  0.21780000  0.99120000  0.21780000  1.0 0.2115486756
H  H22  1  0.57320000  0.21780000  0.99120000  1.0 0.2115486756
H  H23  1  0.99120000  0.21780000  0.57320000  1.0 0.2115486756
H  H24  1  0.21780000  0.57320000  0.21780000  1.0 0.2115486756
H  H25  1  0.21780000  0.21780000  0.57320000  1.0 0.2115486756
H  H26  1  0.57320000  0.99120000  0.21780000  1.0 0.2115486756
H  H27  1  0.99120000  0.57320000  0.21780000  1.0 0.2115486756
H  H28  1  0.21780000  0.21780000  0.99120000  1.0 0.2115486756
H  H29  1  0.21780000  0.57320000  0.99120000  1.0 0.2115486756
H  H30  1  0.57320000  0.21780000  0.21780000  1.0 0.2115486756
H  H31  1  0.99120000  0.21780000  0.21780000  1.0 0.2115486756
H  H32  1  0.21780000  0.99120000  0.57320000  1.0 0.2115486756
H  H33  1  0.36560000  0.20240000  0.06640000  1.0 0.0989381306
H  H34  1  0.36560000  0.06640000  0.20240000  1.0 0.0989381306
H  H35  1  0.06640000  0.36560000  0.36560000  1.0 0.0989381306
H  H36  1  0.20240000  0.36560000  0.36560000  1.0 0.0989381306
H  H37  1  0.20240000  0.06640000  0.36560000  1.0 0.0989381306
H  H38  1  0.06640000  0.20240000  0.36560000  1.0 0.0989381306
H  H39  1  0.36560000  0.36560000  0.06640000  1.0 0.0989381306
H  H40  1  0.36560000  0.36560000  0.20240000  1.0 0.0989381306
H  H41  1  0.06640000  0.36560000  0.20240000  1.0 0.0989381306
H  H42  1  0.20240000  0.36560000  0.06640000  1.0 0.0989381306
H  H43  1  0.36560000  0.06640000  0.36560000  1.0 0.0989381306
H  H44  1  0.36560000  0.20240000  0.36560000  1.0 0.0989381306
H  H45  1  0.88440000  0.04760000  0.18360000  1.0 0.0989381306
H  H46  1  0.88440000  0.18360000  0.04760000  1.0 0.0989381306
H  H47  1  0.04760000  0.88440000  0.88440000  1.0 0.0989381306
H  H48  1  0.18360000  0.88440000  0.88440000  1.0 0.0989381306
H  H49  1  0.88440000  0.18360000  0.88440000  1.0 0.0989381306
H  H50  1  0.88440000  0.04760000  0.88440000  1.0 0.0989381306
H  H51  1  0.04760000  0.88440000  0.18360000  1.0 0.0989381306
H  H52  1  0.18360000  0.88440000  0.04760000  1.0 0.0989381306
H  H53  1  0.88440000  0.88440000  0.04760000  1.0 0.0989381306
H  H54  1  0.88440000  0.88440000  0.18360000  1.0 0.0989381306
H  H55  1  0.04760000  0.18360000  0.88440000  1.0 0.0989381306
H  H56  1  0.18360000  0.04760000  0.88440000  1.0 0.0989381306
C  C1  1  0.37639000  0.27901000  0.06559000  1.0 -0.066912184
C  C2  1  0.44271000  0.24263000  0.07203000  1.0 0.524219249
C  C3  1  0.27901000  0.06559000  0.27901000  1.0 -0.066912184
C  C4  1  0.24263000  0.07203000  0.24263000  1.0 0.524219249
C  C5  1  0.06559000  0.27901000  0.37639000  1.0 -0.066912184
C  C6  1  0.07203000  0.24263000  0.44271000  1.0 0.524219249
C  C7  1  0.27901000  0.37639000  0.27901000  1.0 -0.066912184
C  C8  1  0.24263000  0.44271000  0.24263000  1.0 0.524219249
C  C9  1  0.27901000  0.06559000  0.37639000  1.0 -0.066912184
C  C10  1  0.24263000  0.07203000  0.44271000  1.0 0.524219249
C  C11  1  0.06559000  0.27901000  0.27901000  1.0 -0.066912184
C  C12  1  0.07203000  0.24263000  0.24263000  1.0 0.5251446349
C  C13  1  0.27901000  0.37639000  0.06559000  1.0 -0.066912184
C  C14  1  0.24263000  0.44271000  0.07203000  1.0 0.5251446349
C  C15  1  0.37639000  0.27901000  0.27901000  1.0 -0.066912184
C  C16  1  0.44271000  0.24263000  0.24263000  1.0 0.524219249
C  C17  1  0.06559000  0.37639000  0.27901000  1.0 -0.066912184
C  C18  1  0.07203000  0.44271000  0.24263000  1.0 0.524219249
C  C19  1  0.27901000  0.27901000  0.06559000  1.0 -0.066912184
C  C20  1  0.24263000  0.24263000  0.07203000  1.0 0.524219249
C  C21  1  0.37639000  0.06559000  0.27901000  1.0 -0.066912184
C  C22  1  0.44271000  0.07203000  0.24263000  1.0 0.524219249
C  C23  1  0.27901000  0.27901000  0.37639000  1.0 -0.066912184
C  C24  1  0.24263000  0.24263000  0.44271000  1.0 0.5251446349
C  C25  1  0.97099000  0.97099000  0.18441000  1.0 -0.066912184
C  C26  1  0.00737000  0.00737000  0.17797000  1.0 0.524219249
C  C27  1  0.87361000  0.18441000  0.97099000  1.0 -0.066912184
C  C28  1  0.80729000  0.17797000  0.00737000  1.0 0.524219249
C  C29  1  0.97099000  0.97099000  0.87361000  1.0 -0.066912184
C  C30  1  0.00737000  0.00737000  0.80729000  1.0 0.524219249
C  C31  1  0.18441000  0.87361000  0.97099000  1.0 -0.066912184
C  C32  1  0.17797000  0.80729000  0.00737000  1.0 0.5251446349
C  C33  1  0.97099000  0.18441000  0.87361000  1.0 -0.066912184
C  C34  1  0.00737000  0.17797000  0.80729000  1.0 0.5251446349
C  C35  1  0.87361000  0.97099000  0.97099000  1.0 -0.066912184
C  C36  1  0.80729000  0.00737000  0.00737000  1.0 0.524219249
C  C37  1  0.97099000  0.87361000  0.18441000  1.0 -0.066912184
C  C38  1  0.00737000  0.80729000  0.17797000  1.0 0.5251446349
C  C39  1  0.18441000  0.97099000  0.97099000  1.0 -0.066912184
C  C40  1  0.17797000  0.00737000  0.00737000  1.0 0.5251446349
C  C41  1  0.97099000  0.87361000  0.97099000  1.0 -0.066912184
C  C42  1  0.00737000  0.80729000  0.00737000  1.0 0.524219249
C  C43  1  0.87361000  0.97099000  0.18441000  1.0 -0.066912184
C  C44  1  0.80729000  0.00737000  0.17797000  1.0 0.524219249
C  C45  1  0.97099000  0.18441000  0.97099000  1.0 -0.066912184
C  C46  1  0.00737000  0.17797000  0.00737000  1.0 0.5251446349
C  C47  1  0.18441000  0.97099000  0.87361000  1.0 -0.066912184
C  C48  1  0.17797000  0.00737000  0.80729000  1.0 0.5251446349
C  C49  1  0.34368000  0.24668000  0.06596000  1.0 -0.1288624454
C  C50  1  0.34368000  0.06596000  0.24668000  1.0 -0.1288624454
C  C51  1  0.06596000  0.34368000  0.34368000  1.0 -0.1288624454
C  C52  1  0.24668000  0.34368000  0.34368000  1.0 -0.1288624454
C  C53  1  0.24668000  0.06596000  0.34368000  1.0 -0.1288624454
C  C54  1  0.06596000  0.24668000  0.34368000  1.0 -0.1288624454
C  C55  1  0.34368000  0.34368000  0.06596000  1.0 -0.1288624454
C  C56  1  0.34368000  0.34368000  0.24668000  1.0 -0.1288624454
C  C57  1  0.06596000  0.34368000  0.24668000  1.0 -0.1288624454
C  C58  1  0.24668000  0.34368000  0.06596000  1.0 -0.1288624454
C  C59  1  0.34368000  0.06596000  0.34368000  1.0 -0.1288624454
C  C60  1  0.34368000  0.24668000  0.34368000  1.0 -0.1288624454
C  C61  1  0.90632000  0.00332000  0.18404000  1.0 -0.1288624454
C  C62  1  0.90632000  0.18404000  0.00332000  1.0 -0.1288624454
C  C63  1  0.00332000  0.90632000  0.90632000  1.0 -0.1288624454
C  C64  1  0.18404000  0.90632000  0.90632000  1.0 -0.1288624454
C  C65  1  0.90632000  0.18404000  0.90632000  1.0 -0.1288624454
C  C66  1  0.90632000  0.00332000  0.90632000  1.0 -0.1288624454
C  C67  1  0.00332000  0.90632000  0.18404000  1.0 -0.1288624454
C  C68  1  0.18404000  0.90632000  0.00332000  1.0 -0.1288624454
C  C69  1  0.90632000  0.90632000  0.00332000  1.0 -0.1288624454
C  C70  1  0.90632000  0.90632000  0.18404000  1.0 -0.1288624454
C  C71  1  0.00332000  0.18404000  0.90632000  1.0 -0.1288624454
C  C72  1  0.18404000  0.00332000  0.90632000  1.0 -0.1288624454
S  S1  1  0.61250000  0.31090000  0.14410000  1.0 0.3818360302
S  S2  1  0.93250000  0.14410000  0.31090000  1.0 0.3818360302
S  S3  1  0.14410000  0.93250000  0.61250000  1.0 0.3818360302
S  S4  1  0.31090000  0.61250000  0.93250000  1.0 0.3818360302
S  S5  1  0.31090000  0.14410000  0.61250000  1.0 0.3818360302
S  S6  1  0.14410000  0.31090000  0.93250000  1.0 0.3818360302
S  S7  1  0.93250000  0.61250000  0.14410000  1.0 0.3818360302
S  S8  1  0.61250000  0.93250000  0.31090000  1.0 0.3818360302
S  S9  1  0.14410000  0.61250000  0.31090000  1.0 0.3818360302
S  S10  1  0.31090000  0.93250000  0.14410000  1.0 0.3818360302
S  S11  1  0.61250000  0.14410000  0.93250000  1.0 0.3818360302
S  S12  1  0.93250000  0.31090000  0.61250000  1.0 0.3818360302
S  S13  1  0.31750000  0.93910000  0.10590000  1.0 0.3818360302
S  S14  1  0.63750000  0.10590000  0.93910000  1.0 0.3818360302
S  S15  1  0.93910000  0.31750000  0.63750000  1.0 0.3818360302
S  S16  1  0.10590000  0.63750000  0.31750000  1.0 0.3818360302
S  S17  1  0.31750000  0.10590000  0.63750000  1.0 0.3818360302
S  S18  1  0.63750000  0.93910000  0.31750000  1.0 0.3818360302
S  S19  1  0.93910000  0.63750000  0.10590000  1.0 0.3818360302
S  S20  1  0.10590000  0.31750000  0.93910000  1.0 0.3818360302
S  S21  1  0.31750000  0.63750000  0.93910000  1.0 0.3818360302
S  S22  1  0.63750000  0.31750000  0.10590000  1.0 0.3818360302
S  S23  1  0.93910000  0.10590000  0.31750000  1.0 0.3818360302
S  S24  1  0.10590000  0.93910000  0.63750000  1.0 0.3818360302
S  S25  1  0.63750000  0.93910000  0.10590000  1.0 0.3818360302
S  S26  1  0.31750000  0.10590000  0.93910000  1.0 0.3818360302
S  S27  1  0.10590000  0.31750000  0.63750000  1.0 0.3818360302
S  S28  1  0.93910000  0.63750000  0.31750000  1.0 0.3818360302
S  S29  1  0.93910000  0.10590000  0.63750000  1.0 0.3818360302
S  S30  1  0.10590000  0.93910000  0.31750000  1.0 0.3818360302
S  S31  1  0.31750000  0.63750000  0.10590000  1.0 0.3818360302
S  S32  1  0.63750000  0.31750000  0.93910000  1.0 0.3818360302
S  S33  1  0.10590000  0.63750000  0.93910000  1.0 0.3818360302
S  S34  1  0.93910000  0.31750000  0.10590000  1.0 0.3818360302
S  S35  1  0.63750000  0.10590000  0.31750000  1.0 0.3818360302
S  S36  1  0.31750000  0.93910000  0.63750000  1.0 0.3818360302
S  S37  1  0.93250000  0.31090000  0.14410000  1.0 0.3818360302
S  S38  1  0.61250000  0.14410000  0.31090000  1.0 0.3818360302
S  S39  1  0.31090000  0.93250000  0.61250000  1.0 0.3818360302
S  S40  1  0.14410000  0.61250000  0.93250000  1.0 0.3818360302
S  S41  1  0.93250000  0.14410000  0.61250000  1.0 0.3818360302
S  S42  1  0.61250000  0.31090000  0.93250000  1.0 0.3818360302
S  S43  1  0.31090000  0.61250000  0.14410000  1.0 0.3818360302
S  S44  1  0.14410000  0.93250000  0.31090000  1.0 0.3818360302
S  S45  1  0.93250000  0.61250000  0.31090000  1.0 0.3818360302
S  S46  1  0.61250000  0.93250000  0.14410000  1.0 0.3818360302
S  S47  1  0.31090000  0.14410000  0.93250000  1.0 0.3818360302
S  S48  1  0.14410000  0.31090000  0.61250000  1.0 0.3818360302
S  S49  1  0.56920000  0.37000000  0.03040000  1.0 0.300314113
S  S50  1  0.03040000  0.03040000  0.37000000  1.0 0.300314113
S  S51  1  0.03040000  0.03040000  0.56920000  1.0 0.300314113
S  S52  1  0.37000000  0.56920000  0.03040000  1.0 0.300314113
S  S53  1  0.37000000  0.03040000  0.56920000  1.0 0.300314113
S  S54  1  0.03040000  0.37000000  0.03040000  1.0 0.300314113
S  S55  1  0.03040000  0.56920000  0.03040000  1.0 0.300314113
S  S56  1  0.56920000  0.03040000  0.37000000  1.0 0.300314113
S  S57  1  0.03040000  0.56920000  0.37000000  1.0 0.300314113
S  S58  1  0.37000000  0.03040000  0.03040000  1.0 0.300314113
S  S59  1  0.56920000  0.03040000  0.03040000  1.0 0.300314113
S  S60  1  0.03040000  0.37000000  0.56920000  1.0 0.300314113
S  S61  1  0.21960000  0.88000000  0.21960000  1.0 0.300314113
S  S62  1  0.68080000  0.21960000  0.88000000  1.0 0.300314113
S  S63  1  0.88000000  0.21960000  0.68080000  1.0 0.300314113
S  S64  1  0.21960000  0.68080000  0.21960000  1.0 0.300314113
S  S65  1  0.21960000  0.21960000  0.68080000  1.0 0.300314113
S  S66  1  0.68080000  0.88000000  0.21960000  1.0 0.300314113
S  S67  1  0.88000000  0.68080000  0.21960000  1.0 0.300314113
S  S68  1  0.21960000  0.21960000  0.88000000  1.0 0.300314113
S  S69  1  0.21960000  0.68080000  0.88000000  1.0 0.300314113
S  S70  1  0.68080000  0.21960000  0.21960000  1.0 0.300314113
S  S71  1  0.88000000  0.21960000  0.21960000  1.0 0.300314113
S  S72  1  0.21960000  0.88000000  0.68080000  1.0 0.300314113
O  O1  1  0.46762000  0.27424000  0.07488000  1.0 -0.6719838882
O  O2  1  0.56476000  0.32234000  0.10758000  1.0 -0.4638969439
O  O3  1  0.63520000  0.36660000  0.10560000  1.0 0.0078224201
O  O4  1  0.56990000  0.31190000  0.21030000  1.0 -0.0406517935
O  O5  1  0.54310000  0.28930000  0.24350000  1.0 0.0035063257
O  O6  1  0.60180000  0.42540000  0.01780000  1.0 -0.0196854043
O  O7  1  0.18326000  0.07488000  0.27424000  1.0 -0.6719838882
O  O8  1  0.00532000  0.10758000  0.32234000  1.0 -0.4638969439
O  O9  1  0.89260000  0.10560000  0.36660000  1.0 0.0078224201
O  O10  1  0.90790000  0.21030000  0.31190000  1.0 -0.0406517935
O  O11  1  0.92410000  0.24350000  0.28930000  1.0 0.0035063257
O  O12  1  0.95500000  0.01780000  0.42540000  1.0 -0.0196854043
O  O13  1  0.07488000  0.18326000  0.46762000  1.0 -0.6719838882
O  O14  1  0.10758000  0.00532000  0.56476000  1.0 -0.4661197914
O  O15  1  0.10560000  0.89260000  0.63520000  1.0 0.0078224201
O  O16  1  0.21030000  0.90790000  0.56990000  1.0 -0.0406517935
O  O17  1  0.24350000  0.92410000  0.54310000  1.0 0.0078224201
O  O18  1  0.01780000  0.95500000  0.60180000  1.0 -0.0196854043
O  O19  1  0.27424000  0.46762000  0.18326000  1.0 -0.6719838882
O  O20  1  0.32234000  0.56476000  0.00532000  1.0 -0.4638969439
O  O21  1  0.36660000  0.63520000  0.89260000  1.0 0.0078224201
O  O22  1  0.31190000  0.56990000  0.90790000  1.0 -0.0406517935
O  O23  1  0.28930000  0.54310000  0.92410000  1.0 0.0035063257
O  O24  1  0.42540000  0.60180000  0.95500000  1.0 -0.0196854043
O  O25  1  0.27424000  0.07488000  0.46762000  1.0 -0.6719838882
O  O26  1  0.32234000  0.10758000  0.56476000  1.0 -0.4661197914
O  O27  1  0.36660000  0.10560000  0.63520000  1.0 0.0078224201
O  O28  1  0.31190000  0.21030000  0.56990000  1.0 -0.0406517935
O  O29  1  0.28930000  0.24350000  0.54310000  1.0 0.0078224201
O  O30  1  0.42540000  0.01780000  0.60180000  1.0 -0.0196854043
O  O31  1  0.07488000  0.27424000  0.18326000  1.0 -0.6719838882
O  O32  1  0.10758000  0.32234000  0.00532000  1.0 -0.4638969439
O  O33  1  0.10560000  0.36660000  0.89260000  1.0 0.0078224201
O  O34  1  0.21030000  0.31190000  0.90790000  1.0 -0.0406517935
O  O35  1  0.24350000  0.28930000  0.92410000  1.0 0.0035063257
O  O36  1  0.01780000  0.42540000  0.95500000  1.0 -0.0196854043
O  O37  1  0.18326000  0.46762000  0.07488000  1.0 -0.6719838882
O  O38  1  0.00532000  0.56476000  0.10758000  1.0 -0.4661197914
O  O39  1  0.89260000  0.63520000  0.10560000  1.0 0.0078224201
O  O40  1  0.90790000  0.56990000  0.21030000  1.0 -0.0406517935
O  O41  1  0.92410000  0.54310000  0.24350000  1.0 0.0035063257
O  O42  1  0.95500000  0.60180000  0.01780000  1.0 -0.0196854043
O  O43  1  0.46762000  0.18326000  0.27424000  1.0 -0.6719838882
O  O44  1  0.56476000  0.00532000  0.32234000  1.0 -0.4661197914
O  O45  1  0.63520000  0.89260000  0.36660000  1.0 0.0078224201
O  O46  1  0.56990000  0.90790000  0.31190000  1.0 -0.0406517935
O  O47  1  0.54310000  0.92410000  0.28930000  1.0 0.0035063257
O  O48  1  0.60180000  0.95500000  0.42540000  1.0 -0.0196854043
O  O49  1  0.07488000  0.46762000  0.27424000  1.0 -0.6719838882
O  O50  1  0.10758000  0.56476000  0.32234000  1.0 -0.4661197914
O  O51  1  0.10560000  0.63520000  0.36660000  1.0 0.0078224201
O  O52  1  0.21030000  0.56990000  0.31190000  1.0 -0.0406517935
O  O53  1  0.24350000  0.54310000  0.28930000  1.0 0.0035063257
O  O54  1  0.01780000  0.60180000  0.42540000  1.0 -0.0196854043
O  O55  1  0.27424000  0.18326000  0.07488000  1.0 -0.6719838882
O  O56  1  0.32234000  0.00532000  0.10758000  1.0 -0.4638969439
O  O57  1  0.36660000  0.89260000  0.10560000  1.0 0.0078224201
O  O58  1  0.31190000  0.90790000  0.21030000  1.0 -0.0406517935
O  O59  1  0.28930000  0.92410000  0.24350000  1.0 0.0035063257
O  O60  1  0.42540000  0.95500000  0.01780000  1.0 -0.0196854043
O  O61  1  0.46762000  0.07488000  0.18326000  1.0 -0.6719838882
O  O62  1  0.56476000  0.10758000  0.00532000  1.0 -0.4638969439
O  O63  1  0.63520000  0.10560000  0.89260000  1.0 0.0078224201
O  O64  1  0.56990000  0.21030000  0.90790000  1.0 -0.0406517935
O  O65  1  0.54310000  0.24350000  0.92410000  1.0 0.0035063257
O  O66  1  0.60180000  0.01780000  0.95500000  1.0 -0.0196854043
O  O67  1  0.18326000  0.27424000  0.46762000  1.0 -0.6719838882
O  O68  1  0.00532000  0.32234000  0.56476000  1.0 -0.4661197914
O  O69  1  0.89260000  0.36660000  0.63520000  1.0 0.0078224201
O  O70  1  0.90790000  0.31190000  0.56990000  1.0 -0.0406517935
O  O71  1  0.92410000  0.28930000  0.54310000  1.0 0.0078224201
O  O72  1  0.95500000  0.42540000  0.60180000  1.0 -0.0196854043
O  O73  1  0.06674000  0.97576000  0.17512000  1.0 -0.6719838882
O  O74  1  0.24468000  0.92766000  0.14242000  1.0 -0.4661197914
O  O75  1  0.35740000  0.88340000  0.14440000  1.0 0.0078224201
O  O76  1  0.34210000  0.93810000  0.03970000  1.0 -0.0406517935
O  O77  1  0.32590000  0.96070000  0.00650000  1.0 0.0035063257
O  O78  1  0.29500000  0.82460000  0.23220000  1.0 -0.0196854043
O  O79  1  0.78238000  0.17512000  0.97576000  1.0 -0.6719838882
O  O80  1  0.68524000  0.14242000  0.92766000  1.0 -0.4661197914
O  O81  1  0.61480000  0.14440000  0.88340000  1.0 0.0078224201
O  O82  1  0.68010000  0.03970000  0.93810000  1.0 -0.0406517935
O  O83  1  0.70690000  0.00650000  0.96070000  1.0 0.0035063257
O  O84  1  0.64820000  0.23220000  0.82460000  1.0 -0.0196854043
O  O85  1  0.97576000  0.06674000  0.78238000  1.0 -0.6719838882
O  O86  1  0.92766000  0.24468000  0.68524000  1.0 -0.4661197914
O  O87  1  0.88340000  0.35740000  0.61480000  1.0 0.0078224201
O  O88  1  0.93810000  0.34210000  0.68010000  1.0 -0.0406517935
O  O89  1  0.96070000  0.32590000  0.70690000  1.0 0.0035063257
O  O90  1  0.82460000  0.29500000  0.64820000  1.0 -0.0196854043
O  O91  1  0.17512000  0.78238000  0.06674000  1.0 -0.6719838882
O  O92  1  0.14242000  0.68524000  0.24468000  1.0 -0.4661197914
O  O93  1  0.14440000  0.61480000  0.35740000  1.0 0.0078224201
O  O94  1  0.03970000  0.68010000  0.34210000  1.0 -0.0406517935
O  O95  1  0.00650000  0.70690000  0.32590000  1.0 0.0035063257
O  O96  1  0.23220000  0.64820000  0.29500000  1.0 -0.0196854043
O  O97  1  0.06674000  0.17512000  0.78238000  1.0 -0.6719838882
O  O98  1  0.24468000  0.14242000  0.68524000  1.0 -0.4661197914
O  O99  1  0.35740000  0.14440000  0.61480000  1.0 0.0078224201
O  O100  1  0.34210000  0.03970000  0.68010000  1.0 -0.0406517935
O  O101  1  0.32590000  0.00650000  0.70690000  1.0 0.0035063257
O  O102  1  0.29500000  0.23220000  0.64820000  1.0 -0.0196854043
O  O103  1  0.78238000  0.97576000  0.06674000  1.0 -0.6719838882
O  O104  1  0.68524000  0.92766000  0.24468000  1.0 -0.4661197914
O  O105  1  0.61480000  0.88340000  0.35740000  1.0 0.0078224201
O  O106  1  0.68010000  0.93810000  0.34210000  1.0 -0.0406517935
O  O107  1  0.70690000  0.96070000  0.32590000  1.0 0.0078224201
O  O108  1  0.64820000  0.82460000  0.29500000  1.0 -0.0196854043
O  O109  1  0.97576000  0.78238000  0.17512000  1.0 -0.6719838882
O  O110  1  0.92766000  0.68524000  0.14242000  1.0 -0.4638969439
O  O111  1  0.88340000  0.61480000  0.14440000  1.0 0.0078224201
O  O112  1  0.93810000  0.68010000  0.03970000  1.0 -0.0406517935
O  O113  1  0.96070000  0.70690000  0.00650000  1.0 0.0035063257
O  O114  1  0.82460000  0.64820000  0.23220000  1.0 -0.0196854043
O  O115  1  0.17512000  0.06674000  0.97576000  1.0 -0.6719838882
O  O116  1  0.14242000  0.24468000  0.92766000  1.0 -0.4638969439
O  O117  1  0.14440000  0.35740000  0.88340000  1.0 0.0078224201
O  O118  1  0.03970000  0.34210000  0.93810000  1.0 -0.0406517935
O  O119  1  0.00650000  0.32590000  0.96070000  1.0 0.0035063257
O  O120  1  0.23220000  0.29500000  0.82460000  1.0 -0.0196854043
O  O121  1  0.06674000  0.78238000  0.97576000  1.0 -0.6719838882
O  O122  1  0.24468000  0.68524000  0.92766000  1.0 -0.4638969439
O  O123  1  0.35740000  0.61480000  0.88340000  1.0 0.0078224201
O  O124  1  0.34210000  0.68010000  0.93810000  1.0 -0.0406517935
O  O125  1  0.32590000  0.70690000  0.96070000  1.0 0.0035063257
O  O126  1  0.29500000  0.64820000  0.82460000  1.0 -0.0196854043
O  O127  1  0.78238000  0.06674000  0.17512000  1.0 -0.6719838882
O  O128  1  0.68524000  0.24468000  0.14242000  1.0 -0.4638969439
O  O129  1  0.61480000  0.35740000  0.14440000  1.0 0.0078224201
O  O130  1  0.68010000  0.34210000  0.03970000  1.0 -0.0406517935
O  O131  1  0.70690000  0.32590000  0.00650000  1.0 0.0035063257
O  O132  1  0.64820000  0.29500000  0.23220000  1.0 -0.0196854043
O  O133  1  0.97576000  0.17512000  0.06674000  1.0 -0.6719838882
O  O134  1  0.92766000  0.14242000  0.24468000  1.0 -0.4661197914
O  O135  1  0.88340000  0.14440000  0.35740000  1.0 0.0078224201
O  O136  1  0.93810000  0.03970000  0.34210000  1.0 -0.0406517935
O  O137  1  0.96070000  0.00650000  0.32590000  1.0 0.0035063257
O  O138  1  0.82460000  0.23220000  0.29500000  1.0 -0.0196854043
O  O139  1  0.17512000  0.97576000  0.78238000  1.0 -0.6719838882
O  O140  1  0.14242000  0.92766000  0.68524000  1.0 -0.4661197914
O  O141  1  0.14440000  0.88340000  0.61480000  1.0 0.0078224201
O  O142  1  0.03970000  0.93810000  0.68010000  1.0 -0.0406517935
O  O143  1  0.00650000  0.96070000  0.70690000  1.0 0.0035063257
O  O144  1  0.23220000  0.82460000  0.64820000  1.0 -0.0196854043
O  O145  1  0.78238000  0.97576000  0.17512000  1.0 -0.6719838882
O  O146  1  0.68524000  0.92766000  0.14242000  1.0 -0.4661197914
O  O147  1  0.61480000  0.88340000  0.14440000  1.0 0.0078224201
O  O148  1  0.68010000  0.93810000  0.03970000  1.0 -0.0406517935
O  O149  1  0.70690000  0.96070000  0.00650000  1.0 0.0035063257
O  O150  1  0.64820000  0.82460000  0.23220000  1.0 -0.0196854043
O  O151  1  0.06674000  0.17512000  0.97576000  1.0 -0.6719838882
O  O152  1  0.24468000  0.14242000  0.92766000  1.0 -0.4661197914
O  O153  1  0.35740000  0.14440000  0.88340000  1.0 0.0078224201
O  O154  1  0.34210000  0.03970000  0.93810000  1.0 -0.0406517935
O  O155  1  0.32590000  0.00650000  0.96070000  1.0 0.0035063257
O  O156  1  0.29500000  0.23220000  0.82460000  1.0 -0.0196854043
O  O157  1  0.17512000  0.06674000  0.78238000  1.0 -0.6719838882
O  O158  1  0.14242000  0.24468000  0.68524000  1.0 -0.4661197914
O  O159  1  0.14440000  0.35740000  0.61480000  1.0 0.0078224201
O  O160  1  0.03970000  0.34210000  0.68010000  1.0 -0.0406517935
O  O161  1  0.00650000  0.32590000  0.70690000  1.0 0.0035063257
O  O162  1  0.23220000  0.29500000  0.64820000  1.0 -0.0196854043
O  O163  1  0.97576000  0.78238000  0.06674000  1.0 -0.6719838882
O  O164  1  0.92766000  0.68524000  0.24468000  1.0 -0.4661197914
O  O165  1  0.88340000  0.61480000  0.35740000  1.0 0.0078224201
O  O166  1  0.93810000  0.68010000  0.34210000  1.0 -0.0406517935
O  O167  1  0.96070000  0.70690000  0.32590000  1.0 0.0078224201
O  O168  1  0.82460000  0.64820000  0.29500000  1.0 -0.0196854043
O  O169  1  0.97576000  0.17512000  0.78238000  1.0 -0.6719838882
O  O170  1  0.92766000  0.14242000  0.68524000  1.0 -0.4661197914
O  O171  1  0.88340000  0.14440000  0.61480000  1.0 0.0078224201
O  O172  1  0.93810000  0.03970000  0.68010000  1.0 -0.0406517935
O  O173  1  0.96070000  0.00650000  0.70690000  1.0 0.0078224201
O  O174  1  0.82460000  0.23220000  0.64820000  1.0 -0.0196854043
O  O175  1  0.17512000  0.97576000  0.06674000  1.0 -0.6719838882
O  O176  1  0.14242000  0.92766000  0.24468000  1.0 -0.4661197914
O  O177  1  0.14440000  0.88340000  0.35740000  1.0 0.0078224201
O  O178  1  0.03970000  0.93810000  0.34210000  1.0 -0.0406517935
O  O179  1  0.00650000  0.96070000  0.32590000  1.0 0.0035063257
O  O180  1  0.23220000  0.82460000  0.29500000  1.0 -0.0196854043
O  O181  1  0.06674000  0.78238000  0.17512000  1.0 -0.6719838882
O  O182  1  0.24468000  0.68524000  0.14242000  1.0 -0.4638969439
O  O183  1  0.35740000  0.61480000  0.14440000  1.0 0.0078224201
O  O184  1  0.34210000  0.68010000  0.03970000  1.0 -0.0406517935
O  O185  1  0.32590000  0.70690000  0.00650000  1.0 0.0035063257
O  O186  1  0.29500000  0.64820000  0.23220000  1.0 -0.0196854043
O  O187  1  0.78238000  0.06674000  0.97576000  1.0 -0.6719838882
O  O188  1  0.68524000  0.24468000  0.92766000  1.0 -0.4638969439
O  O189  1  0.61480000  0.35740000  0.88340000  1.0 0.0078224201
O  O190  1  0.68010000  0.34210000  0.93810000  1.0 -0.0406517935
O  O191  1  0.70690000  0.32590000  0.96070000  1.0 0.0035063257
O  O192  1  0.64820000  0.29500000  0.82460000  1.0 -0.0196854043
O  O193  1  0.17512000  0.78238000  0.97576000  1.0 -0.6719838882
O  O194  1  0.14242000  0.68524000  0.92766000  1.0 -0.4661197914
O  O195  1  0.14440000  0.61480000  0.88340000  1.0 0.0078224201
O  O196  1  0.03970000  0.68010000  0.93810000  1.0 -0.0406517935
O  O197  1  0.00650000  0.70690000  0.96070000  1.0 0.0035063257
O  O198  1  0.23220000  0.64820000  0.82460000  1.0 -0.0196854043
O  O199  1  0.97576000  0.06674000  0.17512000  1.0 -0.6719838882
O  O200  1  0.92766000  0.24468000  0.14242000  1.0 -0.4638969439
O  O201  1  0.88340000  0.35740000  0.14440000  1.0 0.0078224201
O  O202  1  0.93810000  0.34210000  0.03970000  1.0 -0.0406517935
O  O203  1  0.96070000  0.32590000  0.00650000  1.0 0.0035063257
O  O204  1  0.82460000  0.29500000  0.23220000  1.0 -0.0196854043
O  O205  1  0.78238000  0.17512000  0.06674000  1.0 -0.6719838882
O  O206  1  0.68524000  0.14242000  0.24468000  1.0 -0.4661197914
O  O207  1  0.61480000  0.14440000  0.35740000  1.0 0.0078224201
O  O208  1  0.68010000  0.03970000  0.34210000  1.0 -0.0406517935
O  O209  1  0.70690000  0.00650000  0.32590000  1.0 0.0035063257
O  O210  1  0.64820000  0.23220000  0.29500000  1.0 -0.0196854043
O  O211  1  0.06674000  0.97576000  0.78238000  1.0 -0.6719838882
O  O212  1  0.24468000  0.92766000  0.68524000  1.0 -0.4661197914
O  O213  1  0.35740000  0.88340000  0.61480000  1.0 0.0078224201
O  O214  1  0.34210000  0.93810000  0.68010000  1.0 -0.0406517935
O  O215  1  0.32590000  0.96070000  0.70690000  1.0 0.0035063257
O  O216  1  0.29500000  0.82460000  0.64820000  1.0 -0.0196854043
O  O217  1  0.18326000  0.27424000  0.07488000  1.0 -0.6719838882
O  O218  1  0.00532000  0.32234000  0.10758000  1.0 -0.4638969439
O  O219  1  0.89260000  0.36660000  0.10560000  1.0 0.0078224201
O  O220  1  0.90790000  0.31190000  0.21030000  1.0 -0.0406517935
O  O221  1  0.92410000  0.28930000  0.24350000  1.0 0.0078224201
O  O222  1  0.95500000  0.42540000  0.01780000  1.0 -0.0196854043
O  O223  1  0.46762000  0.07488000  0.27424000  1.0 -0.6719838882
O  O224  1  0.56476000  0.10758000  0.32234000  1.0 -0.4638969439
O  O225  1  0.63520000  0.10560000  0.36660000  1.0 0.0078224201
O  O226  1  0.56990000  0.21030000  0.31190000  1.0 -0.0406517935
O  O227  1  0.54310000  0.24350000  0.28930000  1.0 0.0035063257
O  O228  1  0.60180000  0.01780000  0.42540000  1.0 -0.0196854043
O  O229  1  0.27424000  0.18326000  0.46762000  1.0 -0.6719838882
O  O230  1  0.32234000  0.00532000  0.56476000  1.0 -0.4661197914
O  O231  1  0.36660000  0.89260000  0.63520000  1.0 0.0078224201
O  O232  1  0.31190000  0.90790000  0.56990000  1.0 -0.0406517935
O  O233  1  0.28930000  0.92410000  0.54310000  1.0 0.0035063257
O  O234  1  0.42540000  0.95500000  0.60180000  1.0 -0.0196854043
O  O235  1  0.07488000  0.46762000  0.18326000  1.0 -0.6719838882
O  O236  1  0.10758000  0.56476000  0.00532000  1.0 -0.4638969439
O  O237  1  0.10560000  0.63520000  0.89260000  1.0 0.0078224201
O  O238  1  0.21030000  0.56990000  0.90790000  1.0 -0.0406517935
O  O239  1  0.24350000  0.54310000  0.92410000  1.0 0.0035063257
O  O240  1  0.01780000  0.60180000  0.95500000  1.0 -0.0196854043
O  O241  1  0.18326000  0.07488000  0.46762000  1.0 -0.6719838882
O  O242  1  0.00532000  0.10758000  0.56476000  1.0 -0.4661197914
O  O243  1  0.89260000  0.10560000  0.63520000  1.0 0.0078224201
O  O244  1  0.90790000  0.21030000  0.56990000  1.0 -0.0406517935
O  O245  1  0.92410000  0.24350000  0.54310000  1.0 0.0078224201
O  O246  1  0.95500000  0.01780000  0.60180000  1.0 -0.0196854043
O  O247  1  0.46762000  0.27424000  0.18326000  1.0 -0.6719838882
O  O248  1  0.56476000  0.32234000  0.00532000  1.0 -0.4638969439
O  O249  1  0.63520000  0.36660000  0.89260000  1.0 0.0078224201
O  O250  1  0.56990000  0.31190000  0.90790000  1.0 -0.0406517935
O  O251  1  0.54310000  0.28930000  0.92410000  1.0 0.0035063257
O  O252  1  0.60180000  0.42540000  0.95500000  1.0 -0.0196854043
O  O253  1  0.27424000  0.46762000  0.07488000  1.0 -0.6719838882
O  O254  1  0.32234000  0.56476000  0.10758000  1.0 -0.4661197914
O  O255  1  0.36660000  0.63520000  0.10560000  1.0 0.0078224201
O  O256  1  0.31190000  0.56990000  0.21030000  1.0 -0.0406517935
O  O257  1  0.28930000  0.54310000  0.24350000  1.0 0.0035063257
O  O258  1  0.42540000  0.60180000  0.01780000  1.0 -0.0196854043
O  O259  1  0.07488000  0.18326000  0.27424000  1.0 -0.6719838882
O  O260  1  0.10758000  0.00532000  0.32234000  1.0 -0.4661197914
O  O261  1  0.10560000  0.89260000  0.36660000  1.0 0.0078224201
O  O262  1  0.21030000  0.90790000  0.31190000  1.0 -0.0406517935
O  O263  1  0.24350000  0.92410000  0.28930000  1.0 0.0035063257
O  O264  1  0.01780000  0.95500000  0.42540000  1.0 -0.0196854043
O  O265  1  0.18326000  0.46762000  0.27424000  1.0 -0.6719838882
O  O266  1  0.00532000  0.56476000  0.32234000  1.0 -0.4638969439
O  O267  1  0.89260000  0.63520000  0.36660000  1.0 0.0078224201
O  O268  1  0.90790000  0.56990000  0.31190000  1.0 -0.0406517935
O  O269  1  0.92410000  0.54310000  0.28930000  1.0 0.0078224201
O  O270  1  0.95500000  0.60180000  0.42540000  1.0 -0.0196854043
O  O271  1  0.46762000  0.18326000  0.07488000  1.0 -0.6719838882
O  O272  1  0.56476000  0.00532000  0.10758000  1.0 -0.4638969439
O  O273  1  0.63520000  0.89260000  0.10560000  1.0 0.0078224201
O  O274  1  0.56990000  0.90790000  0.21030000  1.0 -0.0406517935
O  O275  1  0.54310000  0.92410000  0.24350000  1.0 0.0035063257
O  O276  1  0.60180000  0.95500000  0.01780000  1.0 -0.0196854043
O  O277  1  0.27424000  0.07488000  0.18326000  1.0 -0.6719838882
O  O278  1  0.32234000  0.10758000  0.00532000  1.0 -0.4638969439
O  O279  1  0.36660000  0.10560000  0.89260000  1.0 0.0078224201
O  O280  1  0.31190000  0.21030000  0.90790000  1.0 -0.0406517935
O  O281  1  0.28930000  0.24350000  0.92410000  1.0 0.0035063257
O  O282  1  0.42540000  0.01780000  0.95500000  1.0 -0.0196854043
O  O283  1  0.07488000  0.27424000  0.46762000  1.0 -0.6719838882
O  O284  1  0.10758000  0.32234000  0.56476000  1.0 -0.4661197914
O  O285  1  0.10560000  0.36660000  0.63520000  1.0 0.0078224201
O  O286  1  0.21030000  0.31190000  0.56990000  1.0 -0.0406517935
O  O287  1  0.24350000  0.28930000  0.54310000  1.0 0.0078224201
O  O288  1  0.01780000  0.42540000  0.60180000  1.0 -0.0196854043
O  O289  1  0.50920000  0.16360000  0.16360000  1.0 -0.4427513051
O  O290  1  0.54190000  0.15270000  0.15270000  1.0 -0.3936972283
O  O291  1  0.16360000  0.16360000  0.16360000  1.0 -0.4427513051
O  O292  1  0.15270000  0.15270000  0.15270000  1.0 -0.3936972283
O  O293  1  0.16360000  0.16360000  0.50920000  1.0 -0.4427513051
O  O294  1  0.15270000  0.15270000  0.54190000  1.0 -0.3962425905
O  O295  1  0.16360000  0.50920000  0.16360000  1.0 -0.4427513051
O  O296  1  0.15270000  0.54190000  0.15270000  1.0 -0.3962425905
O  O297  1  0.08640000  0.08640000  0.08640000  1.0 -0.4427513051
O  O298  1  0.09730000  0.09730000  0.09730000  1.0 -0.3962425905
O  O299  1  0.74080000  0.08640000  0.08640000  1.0 -0.4427513051
O  O300  1  0.70810000  0.09730000  0.09730000  1.0 -0.3962425905
O  O301  1  0.08640000  0.08640000  0.74080000  1.0 -0.4427513051
O  O302  1  0.09730000  0.09730000  0.70810000  1.0 -0.3962425905
O  O303  1  0.08640000  0.74080000  0.08640000  1.0 -0.4427513051
O  O304  1  0.09730000  0.70810000  0.09730000  1.0 -0.3962425905
O  O305  1  0.65620000  0.19820000  0.07280000  1.0 -0.5113100675
O  O306  1  0.66120000  0.22000000  0.05940000  1.0 -0.4885877351
O  O307  1  0.61540000  0.40700000  0.98880000  1.0 0.2204243499
O  O308  1  0.50130000  0.42570000  0.03650000  1.0 -0.3936972283
O  O309  1  0.07280000  0.07280000  0.19820000  1.0 -0.5113100675
O  O310  1  0.05940000  0.05940000  0.22000000  1.0 -0.4885877351
O  O311  1  0.98880000  0.98880000  0.40700000  1.0 0.2204243499
O  O312  1  0.03650000  0.03650000  0.42570000  1.0 -0.3962425905
O  O313  1  0.07280000  0.07280000  0.65620000  1.0 -0.5113100675
O  O314  1  0.05940000  0.05940000  0.66120000  1.0 -0.4885877351
O  O315  1  0.98880000  0.98880000  0.61540000  1.0 0.2204243499
O  O316  1  0.03650000  0.03650000  0.50130000  1.0 -0.3962425905
O  O317  1  0.19820000  0.65620000  0.07280000  1.0 -0.5113100675
O  O318  1  0.22000000  0.66120000  0.05940000  1.0 -0.4885877351
O  O319  1  0.40700000  0.61540000  0.98880000  1.0 0.2204243499
O  O320  1  0.42570000  0.50130000  0.03650000  1.0 -0.3936972283
O  O321  1  0.19820000  0.07280000  0.65620000  1.0 -0.5113100675
O  O322  1  0.22000000  0.05940000  0.66120000  1.0 -0.4885877351
O  O323  1  0.40700000  0.98880000  0.61540000  1.0 0.2204243499
O  O324  1  0.42570000  0.03650000  0.50130000  1.0 -0.3962425905
O  O325  1  0.07280000  0.19820000  0.07280000  1.0 -0.5113100675
O  O326  1  0.05940000  0.22000000  0.05940000  1.0 -0.4885877351
O  O327  1  0.98880000  0.40700000  0.98880000  1.0 0.2204243499
O  O328  1  0.03650000  0.42570000  0.03650000  1.0 -0.3962425905
O  O329  1  0.07280000  0.65620000  0.07280000  1.0 -0.5113100675
O  O330  1  0.05940000  0.66120000  0.05940000  1.0 -0.4885877351
O  O331  1  0.98880000  0.61540000  0.98880000  1.0 0.2204243499
O  O332  1  0.03650000  0.50130000  0.03650000  1.0 -0.3962425905
O  O333  1  0.65620000  0.07280000  0.19820000  1.0 -0.5113100675
O  O334  1  0.66120000  0.05940000  0.22000000  1.0 -0.4885877351
O  O335  1  0.61540000  0.98880000  0.40700000  1.0 0.2204243499
O  O336  1  0.50130000  0.03650000  0.42570000  1.0 -0.3936972283
O  O337  1  0.07280000  0.65620000  0.19820000  1.0 -0.5113100675
O  O338  1  0.05940000  0.66120000  0.22000000  1.0 -0.4885877351
O  O339  1  0.98880000  0.61540000  0.40700000  1.0 0.2204243499
O  O340  1  0.03650000  0.50130000  0.42570000  1.0 -0.3962425905
O  O341  1  0.19820000  0.07280000  0.07280000  1.0 -0.5113100675
O  O342  1  0.22000000  0.05940000  0.05940000  1.0 -0.4885877351
O  O343  1  0.40700000  0.98880000  0.98880000  1.0 0.2204243499
O  O344  1  0.42570000  0.03650000  0.03650000  1.0 -0.3962425905
O  O345  1  0.65620000  0.07280000  0.07280000  1.0 -0.5113100675
O  O346  1  0.66120000  0.05940000  0.05940000  1.0 -0.4885877351
O  O347  1  0.61540000  0.98880000  0.98880000  1.0 0.2204243499
O  O348  1  0.50130000  0.03650000  0.03650000  1.0 -0.3936972283
O  O349  1  0.07280000  0.19820000  0.65620000  1.0 -0.5113100675
O  O350  1  0.05940000  0.22000000  0.66120000  1.0 -0.4885877351
O  O351  1  0.98880000  0.40700000  0.61540000  1.0 0.2204243499
O  O352  1  0.03650000  0.42570000  0.50130000  1.0 -0.3962425905
O  O353  1  0.17720000  0.05180000  0.17720000  1.0 -0.5113100675
O  O354  1  0.19060000  0.03000000  0.19060000  1.0 -0.4885877351
O  O355  1  0.26120000  0.84300000  0.26120000  1.0 0.2204243499
O  O356  1  0.21350000  0.82430000  0.21350000  1.0 -0.3936972283
O  O357  1  0.59380000  0.17720000  0.05180000  1.0 -0.5113100675
O  O358  1  0.58880000  0.19060000  0.03000000  1.0 -0.4885877351
O  O359  1  0.63460000  0.26120000  0.84300000  1.0 0.2204243499
O  O360  1  0.74870000  0.21350000  0.82430000  1.0 -0.3962425905
O  O361  1  0.05180000  0.17720000  0.59380000  1.0 -0.5113100675
O  O362  1  0.03000000  0.19060000  0.58880000  1.0 -0.4885877351
O  O363  1  0.84300000  0.26120000  0.63460000  1.0 0.2204243499
O  O364  1  0.82430000  0.21350000  0.74870000  1.0 -0.3936972283
O  O365  1  0.17720000  0.59380000  0.17720000  1.0 -0.5113100675
O  O366  1  0.19060000  0.58880000  0.19060000  1.0 -0.4885877351
O  O367  1  0.26120000  0.63460000  0.26120000  1.0 0.2204243499
O  O368  1  0.21350000  0.74870000  0.21350000  1.0 -0.3962425905
O  O369  1  0.17720000  0.17720000  0.59380000  1.0 -0.5113100675
O  O370  1  0.19060000  0.19060000  0.58880000  1.0 -0.4885877351
O  O371  1  0.26120000  0.26120000  0.63460000  1.0 0.2204243499
O  O372  1  0.21350000  0.21350000  0.74870000  1.0 -0.3936972283
O  O373  1  0.59380000  0.05180000  0.17720000  1.0 -0.5113100675
O  O374  1  0.58880000  0.03000000  0.19060000  1.0 -0.4885877351
O  O375  1  0.63460000  0.84300000  0.26120000  1.0 0.2204243499
O  O376  1  0.74870000  0.82430000  0.21350000  1.0 -0.3962425905
O  O377  1  0.05180000  0.59380000  0.17720000  1.0 -0.5113100675
O  O378  1  0.03000000  0.58880000  0.19060000  1.0 -0.4885877351
O  O379  1  0.84300000  0.63460000  0.26120000  1.0 0.2204243499
O  O380  1  0.82430000  0.74870000  0.21350000  1.0 -0.3936972283
O  O381  1  0.17720000  0.17720000  0.05180000  1.0 -0.5113100675
O  O382  1  0.19060000  0.19060000  0.03000000  1.0 -0.4885877351
O  O383  1  0.26120000  0.26120000  0.84300000  1.0 0.2204243499
O  O384  1  0.21350000  0.21350000  0.82430000  1.0 -0.3962425905
O  O385  1  0.17720000  0.59380000  0.05180000  1.0 -0.5113100675
O  O386  1  0.19060000  0.58880000  0.03000000  1.0 -0.4885877351
O  O387  1  0.26120000  0.63460000  0.84300000  1.0 0.2204243499
O  O388  1  0.21350000  0.74870000  0.82430000  1.0 -0.3962425905
O  O389  1  0.59380000  0.17720000  0.17720000  1.0 -0.5113100675
O  O390  1  0.58880000  0.19060000  0.19060000  1.0 -0.4885877351
O  O391  1  0.63460000  0.26120000  0.26120000  1.0 0.2204243499
O  O392  1  0.74870000  0.21350000  0.21350000  1.0 -0.3962425905
O  O393  1  0.05180000  0.17720000  0.17720000  1.0 -0.5113100675
O  O394  1  0.03000000  0.19060000  0.19060000  1.0 -0.4885877351
O  O395  1  0.84300000  0.26120000  0.26120000  1.0 0.2204243499
O  O396  1  0.82430000  0.21350000  0.21350000  1.0 -0.3936972283
O  O397  1  0.17720000  0.05180000  0.59380000  1.0 -0.5113100675
O  O398  1  0.19060000  0.03000000  0.58880000  1.0 -0.4885877351
O  O399  1  0.26120000  0.84300000  0.63460000  1.0 0.2204243499
O  O400  1  0.21350000  0.82430000  0.74870000  1.0 -0.3962425905
