# DDEC6 charges by PACMAN v1.1 (https://github.com/mtap-research/PACMAN-charge/)
data_ZODXAT_ASR_pacman
_symmetry_space_group_name_H-M   'P 1'
_cell_length_a   28.82870000
_cell_length_b   28.82870000
_cell_length_c   28.82870000
_cell_angle_alpha   60.00000000
_cell_angle_beta   60.00000000
_cell_angle_gamma   60.00000000
_symmetry_Int_Tables_number   1
_chemical_formula_structural   Fe5H34C32O13
_chemical_formula_sum   'Fe30 H204 C192 O78'
_cell_volume   16941.82449661
_cell_formula_units_Z   6
loop_
 _symmetry_equiv_pos_site_id
 _symmetry_equiv_pos_as_xyz
  1  'x, y, z'
loop_
 _atom_site_type_symbol
 _atom_site_label
 _atom_site_symmetry_multiplicity
 _atom_site_fract_x
 _atom_site_fract_y
 _atom_site_fract_z
 _atom_site_occupancy
 _atom_site_charge
Fe  Fe1  1  0.35990000  0.64010000  0.35990000  1.0 1.0373503031
Fe  Fe2  1  0.35990000  0.64010000  0.64010000  1.0 1.0373503031
Fe  Fe3  1  0.64010000  0.35990000  0.64010000  1.0 1.0373503031
Fe  Fe4  1  0.64010000  0.35990000  0.35990000  1.0 1.0373503031
Fe  Fe5  1  0.35990000  0.35990000  0.64010000  1.0 1.0373503031
Fe  Fe6  1  0.64010000  0.64010000  0.35990000  1.0 1.0373503031
Fe  Fe7  1  0.28953000  0.76501000  0.28953000  1.0 0.3327553259
Fe  Fe8  1  0.34407000  0.71047000  0.71047000  1.0 0.3327553259
Fe  Fe9  1  0.76501000  0.28953000  0.65593000  1.0 0.3327553259
Fe  Fe10  1  0.71047000  0.34407000  0.23499000  1.0 0.3327553259
Fe  Fe11  1  0.23499000  0.34407000  0.71047000  1.0 0.3327553259
Fe  Fe12  1  0.65593000  0.28953000  0.76501000  1.0 0.3327553259
Fe  Fe13  1  0.71047000  0.71047000  0.34407000  1.0 0.3327553259
Fe  Fe14  1  0.23499000  0.71047000  0.34407000  1.0 0.3327553259
Fe  Fe15  1  0.28953000  0.65593000  0.28953000  1.0 0.3327553259
Fe  Fe16  1  0.34407000  0.71047000  0.23499000  1.0 0.3327553259
Fe  Fe17  1  0.28953000  0.28953000  0.76501000  1.0 0.3327553259
Fe  Fe18  1  0.76501000  0.28953000  0.28953000  1.0 0.3327553259
Fe  Fe19  1  0.28953000  0.76501000  0.65593000  1.0 0.3327553259
Fe  Fe20  1  0.65593000  0.76501000  0.28953000  1.0 0.3327553259
Fe  Fe21  1  0.28953000  0.65593000  0.76501000  1.0 0.3327553259
Fe  Fe22  1  0.28953000  0.28953000  0.65593000  1.0 0.3327553259
Fe  Fe23  1  0.76501000  0.65593000  0.28953000  1.0 0.3327553259
Fe  Fe24  1  0.65593000  0.28953000  0.28953000  1.0 0.3327553259
Fe  Fe25  1  0.71047000  0.23499000  0.34407000  1.0 0.3327553259
Fe  Fe26  1  0.23499000  0.71047000  0.71047000  1.0 0.3327553259
Fe  Fe27  1  0.34407000  0.23499000  0.71047000  1.0 0.3327553259
Fe  Fe28  1  0.71047000  0.71047000  0.23499000  1.0 0.3327553259
Fe  Fe29  1  0.71047000  0.34407000  0.71047000  1.0 0.3327553259
Fe  Fe30  1  0.71047000  0.23499000  0.71047000  1.0 0.3327553259
H  H1  1  0.50000000  0.69760000  0.30240000  1.0 0.1202703858
H  H2  1  0.50000000  0.69760000  0.50000000  1.0 0.1202703858
H  H3  1  0.69760000  0.50000000  0.50000000  1.0 0.1202703858
H  H4  1  0.69760000  0.50000000  0.30240000  1.0 0.1202703858
H  H5  1  0.30240000  0.50000000  0.50000000  1.0 0.1202703858
H  H6  1  0.50000000  0.30240000  0.69760000  1.0 0.1202703858
H  H7  1  0.30240000  0.69760000  0.50000000  1.0 0.1202703858
H  H8  1  0.50000000  0.50000000  0.30240000  1.0 0.1202703858
H  H9  1  0.30240000  0.50000000  0.69760000  1.0 0.1202703858
H  H10  1  0.69760000  0.30240000  0.50000000  1.0 0.1202703858
H  H11  1  0.50000000  0.50000000  0.69760000  1.0 0.1202703858
H  H12  1  0.50000000  0.30240000  0.50000000  1.0 0.1202703858
H  H13  1  0.42970000  0.81930000  0.18070000  1.0 0.1141201842
H  H14  1  0.42970000  0.81930000  0.57030000  1.0 0.1141201842
H  H15  1  0.81930000  0.42970000  0.57030000  1.0 0.1141201842
H  H16  1  0.81930000  0.42970000  0.18070000  1.0 0.1141201842
H  H17  1  0.18070000  0.42970000  0.57030000  1.0 0.1141201842
H  H18  1  0.57030000  0.18070000  0.81930000  1.0 0.1141201842
H  H19  1  0.81930000  0.57030000  0.42970000  1.0 0.1141201842
H  H20  1  0.18070000  0.81930000  0.42970000  1.0 0.1141201842
H  H21  1  0.18070000  0.57030000  0.42970000  1.0 0.1141201842
H  H22  1  0.42970000  0.57030000  0.18070000  1.0 0.1141201842
H  H23  1  0.18070000  0.42970000  0.81930000  1.0 0.1141201842
H  H24  1  0.81930000  0.18070000  0.42970000  1.0 0.1141201842
H  H25  1  0.18070000  0.81930000  0.57030000  1.0 0.1141201842
H  H26  1  0.57030000  0.81930000  0.42970000  1.0 0.1141201842
H  H27  1  0.42970000  0.57030000  0.81930000  1.0 0.1141201842
H  H28  1  0.42970000  0.18070000  0.57030000  1.0 0.1141201842
H  H29  1  0.81930000  0.57030000  0.18070000  1.0 0.1141201842
H  H30  1  0.57030000  0.42970000  0.18070000  1.0 0.1141201842
H  H31  1  0.57030000  0.18070000  0.42970000  1.0 0.1141201842
H  H32  1  0.18070000  0.57030000  0.81930000  1.0 0.1141201842
H  H33  1  0.42970000  0.18070000  0.81930000  1.0 0.1141201842
H  H34  1  0.57030000  0.81930000  0.18070000  1.0 0.1141201842
H  H35  1  0.57030000  0.42970000  0.81930000  1.0 0.1141201842
H  H36  1  0.81930000  0.18070000  0.57030000  1.0 0.1141201842
H  H37  1  0.45030000  0.01670000  0.08270000  1.0 0.1202703858
H  H38  1  0.54970000  0.91730000  0.54970000  1.0 0.1202703858
H  H39  1  0.01670000  0.45030000  0.45030000  1.0 0.1202703858
H  H40  1  0.91730000  0.54970000  0.98330000  1.0 0.1202703858
H  H41  1  0.98330000  0.54970000  0.54970000  1.0 0.1202703858
H  H42  1  0.45030000  0.08270000  0.01670000  1.0 0.1202703858
H  H43  1  0.91730000  0.54970000  0.54970000  1.0 0.1202703858
H  H44  1  0.98330000  0.91730000  0.54970000  1.0 0.1202703858
H  H45  1  0.08270000  0.45030000  0.45030000  1.0 0.1202703858
H  H46  1  0.54970000  0.54970000  0.98330000  1.0 0.1202703858
H  H47  1  0.08270000  0.45030000  0.01670000  1.0 0.1202703858
H  H48  1  0.01670000  0.08270000  0.45030000  1.0 0.1202703858
H  H49  1  0.08270000  0.01670000  0.45030000  1.0 0.1202703858
H  H50  1  0.45030000  0.01670000  0.45030000  1.0 0.1202703858
H  H51  1  0.45030000  0.45030000  0.01670000  1.0 0.1202703858
H  H52  1  0.45030000  0.08270000  0.45030000  1.0 0.1202703858
H  H53  1  0.01670000  0.45030000  0.08270000  1.0 0.1202703858
H  H54  1  0.45030000  0.45030000  0.08270000  1.0 0.1202703858
H  H55  1  0.54970000  0.98330000  0.54970000  1.0 0.1202703858
H  H56  1  0.98330000  0.54970000  0.91730000  1.0 0.1202703858
H  H57  1  0.54970000  0.98330000  0.91730000  1.0 0.1202703858
H  H58  1  0.54970000  0.91730000  0.98330000  1.0 0.1202703858
H  H59  1  0.54970000  0.54970000  0.91730000  1.0 0.1202703858
H  H60  1  0.91730000  0.98330000  0.54970000  1.0 0.1202703858
H  H61  1  0.45170000  0.89650000  0.21390000  1.0 0.1141201842
H  H62  1  0.56210000  0.78610000  0.54830000  1.0 0.1202703858
H  H63  1  0.89650000  0.45170000  0.43790000  1.0 0.1141201842
H  H64  1  0.78610000  0.56210000  0.10350000  1.0 0.1141201842
H  H65  1  0.10350000  0.56210000  0.54830000  1.0 0.1202703858
H  H66  1  0.43790000  0.21390000  0.89650000  1.0 0.1202703858
H  H67  1  0.78610000  0.54830000  0.56210000  1.0 0.1202703858
H  H68  1  0.10350000  0.78610000  0.56210000  1.0 0.1202703858
H  H69  1  0.21390000  0.43790000  0.45170000  1.0 0.1202703858
H  H70  1  0.56210000  0.54830000  0.10350000  1.0 0.1141201842
H  H71  1  0.21390000  0.45170000  0.89650000  1.0 0.1202703858
H  H72  1  0.89650000  0.21390000  0.45170000  1.0 0.1141201842
H  H73  1  0.21390000  0.89650000  0.43790000  1.0 0.1141201842
H  H74  1  0.43790000  0.89650000  0.45170000  1.0 0.1141201842
H  H75  1  0.45170000  0.43790000  0.89650000  1.0 0.1141201842
H  H76  1  0.45170000  0.21390000  0.43790000  1.0 0.1202703858
H  H77  1  0.89650000  0.43790000  0.21390000  1.0 0.1141201842
H  H78  1  0.43790000  0.45170000  0.21390000  1.0 0.1141201842
H  H79  1  0.54830000  0.10350000  0.56210000  1.0 0.1141201842
H  H80  1  0.10350000  0.54830000  0.78610000  1.0 0.1202703858
H  H81  1  0.56210000  0.10350000  0.78610000  1.0 0.1202703858
H  H82  1  0.54830000  0.78610000  0.10350000  1.0 0.1141201842
H  H83  1  0.54830000  0.56210000  0.78610000  1.0 0.1202703858
H  H84  1  0.78610000  0.10350000  0.54830000  1.0 0.1202703858
H  H85  1  0.54830000  0.10350000  0.78610000  1.0 0.1202703858
H  H86  1  0.43790000  0.21390000  0.45170000  1.0 0.1141201842
H  H87  1  0.10350000  0.54830000  0.56210000  1.0 0.1202703858
H  H88  1  0.21390000  0.43790000  0.89650000  1.0 0.1202703858
H  H89  1  0.89650000  0.43790000  0.45170000  1.0 0.1141201842
H  H90  1  0.56210000  0.78610000  0.10350000  1.0 0.1141201842
H  H91  1  0.21390000  0.45170000  0.43790000  1.0 0.1202703858
H  H92  1  0.89650000  0.21390000  0.43790000  1.0 0.1141201842
H  H93  1  0.78610000  0.56210000  0.54830000  1.0 0.1202703858
H  H94  1  0.43790000  0.45170000  0.89650000  1.0 0.1141201842
H  H95  1  0.78610000  0.54830000  0.10350000  1.0 0.1141201842
H  H96  1  0.10350000  0.78610000  0.54830000  1.0 0.1202703858
H  H97  1  0.78610000  0.10350000  0.56210000  1.0 0.1202703858
H  H98  1  0.56210000  0.10350000  0.54830000  1.0 0.1141201842
H  H99  1  0.54830000  0.56210000  0.10350000  1.0 0.1141201842
H  H100  1  0.54830000  0.78610000  0.56210000  1.0 0.1202703858
H  H101  1  0.10350000  0.56210000  0.78610000  1.0 0.1202703858
H  H102  1  0.56210000  0.54830000  0.78610000  1.0 0.1141201842
H  H103  1  0.45170000  0.89650000  0.43790000  1.0 0.1202703858
H  H104  1  0.89650000  0.45170000  0.21390000  1.0 0.1141201842
H  H105  1  0.43790000  0.89650000  0.21390000  1.0 0.1141201842
H  H106  1  0.45170000  0.21390000  0.89650000  1.0 0.1202703858
H  H107  1  0.45170000  0.43790000  0.21390000  1.0 0.1141201842
H  H108  1  0.21390000  0.89650000  0.45170000  1.0 0.1141201842
H  H109  1  0.39980000  0.95400000  0.19240000  1.0 0.0994123906
H  H110  1  0.54620000  0.80760000  0.60020000  1.0 0.0994123906
H  H111  1  0.95400000  0.39980000  0.45380000  1.0 0.0994123906
H  H112  1  0.80760000  0.54620000  0.04600000  1.0 0.0994123906
H  H113  1  0.04600000  0.54620000  0.60020000  1.0 0.0994123906
H  H114  1  0.45380000  0.19240000  0.95400000  1.0 0.0994123906
H  H115  1  0.80760000  0.60020000  0.54620000  1.0 0.0994123906
H  H116  1  0.04600000  0.80760000  0.54620000  1.0 0.0994123906
H  H117  1  0.19240000  0.45380000  0.39980000  1.0 0.0994123906
H  H118  1  0.54620000  0.60020000  0.04600000  1.0 0.0994123906
H  H119  1  0.19240000  0.39980000  0.95400000  1.0 0.0994123906
H  H120  1  0.95400000  0.19240000  0.39980000  1.0 0.0994123906
H  H121  1  0.19240000  0.95400000  0.45380000  1.0 0.0994123906
H  H122  1  0.45380000  0.95400000  0.39980000  1.0 0.0994123906
H  H123  1  0.39980000  0.45380000  0.95400000  1.0 0.0994123906
H  H124  1  0.39980000  0.19240000  0.45380000  1.0 0.0994123906
H  H125  1  0.95400000  0.45380000  0.19240000  1.0 0.0994123906
H  H126  1  0.45380000  0.39980000  0.19240000  1.0 0.0994123906
H  H127  1  0.60020000  0.04600000  0.54620000  1.0 0.0994123906
H  H128  1  0.04600000  0.60020000  0.80760000  1.0 0.0994123906
H  H129  1  0.54620000  0.04600000  0.80760000  1.0 0.0994123906
H  H130  1  0.60020000  0.80760000  0.04600000  1.0 0.0994123906
H  H131  1  0.60020000  0.54620000  0.80760000  1.0 0.0994123906
H  H132  1  0.80760000  0.04600000  0.60020000  1.0 0.0994123906
H  H133  1  0.60020000  0.04600000  0.80760000  1.0 0.0994123906
H  H134  1  0.45380000  0.19240000  0.39980000  1.0 0.0994123906
H  H135  1  0.04600000  0.60020000  0.54620000  1.0 0.0994123906
H  H136  1  0.19240000  0.45380000  0.95400000  1.0 0.0994123906
H  H137  1  0.95400000  0.45380000  0.39980000  1.0 0.0994123906
H  H138  1  0.54620000  0.80760000  0.04600000  1.0 0.0994123906
H  H139  1  0.19240000  0.39980000  0.45380000  1.0 0.0994123906
H  H140  1  0.95400000  0.19240000  0.45380000  1.0 0.0994123906
H  H141  1  0.80760000  0.54620000  0.60020000  1.0 0.0994123906
H  H142  1  0.45380000  0.39980000  0.95400000  1.0 0.0994123906
H  H143  1  0.80760000  0.60020000  0.04600000  1.0 0.0994123906
H  H144  1  0.04600000  0.80760000  0.60020000  1.0 0.0994123906
H  H145  1  0.80760000  0.04600000  0.54620000  1.0 0.0994123906
H  H146  1  0.54620000  0.04600000  0.60020000  1.0 0.0994123906
H  H147  1  0.60020000  0.54620000  0.04600000  1.0 0.0994123906
H  H148  1  0.60020000  0.80760000  0.54620000  1.0 0.0994123906
H  H149  1  0.04600000  0.54620000  0.80760000  1.0 0.0994123906
H  H150  1  0.54620000  0.60020000  0.80760000  1.0 0.0994123906
H  H151  1  0.39980000  0.95400000  0.45380000  1.0 0.0994123906
H  H152  1  0.95400000  0.39980000  0.19240000  1.0 0.0994123906
H  H153  1  0.45380000  0.95400000  0.19240000  1.0 0.0994123906
H  H154  1  0.39980000  0.19240000  0.95400000  1.0 0.0994123906
H  H155  1  0.39980000  0.45380000  0.19240000  1.0 0.0994123906
H  H156  1  0.19240000  0.95400000  0.39980000  1.0 0.0994123906
H  H157  1  0.45310000  0.95810000  0.18810000  1.0 0.0994123906
H  H158  1  0.59930000  0.81190000  0.54690000  1.0 0.0994123906
H  H159  1  0.95810000  0.45310000  0.40070000  1.0 0.0994123906
H  H160  1  0.81190000  0.59930000  0.04190000  1.0 0.0994123906
H  H161  1  0.04190000  0.59930000  0.54690000  1.0 0.0994123906
H  H162  1  0.40070000  0.18810000  0.95810000  1.0 0.0994123906
H  H163  1  0.81190000  0.54690000  0.59930000  1.0 0.1141201842
H  H164  1  0.04190000  0.81190000  0.59930000  1.0 0.0994123906
H  H165  1  0.18810000  0.40070000  0.45310000  1.0 0.0994123906
H  H166  1  0.59930000  0.54690000  0.04190000  1.0 0.0994123906
H  H167  1  0.18810000  0.45310000  0.95810000  1.0 0.0994123906
H  H168  1  0.95810000  0.18810000  0.45310000  1.0 0.0994123906
H  H169  1  0.18810000  0.95810000  0.40070000  1.0 0.0994123906
H  H170  1  0.40070000  0.95810000  0.45310000  1.0 0.0994123906
H  H171  1  0.45310000  0.40070000  0.95810000  1.0 0.0994123906
H  H172  1  0.45310000  0.18810000  0.40070000  1.0 0.0994123906
H  H173  1  0.95810000  0.40070000  0.18810000  1.0 0.0994123906
H  H174  1  0.40070000  0.45310000  0.18810000  1.0 0.0994123906
H  H175  1  0.54690000  0.04190000  0.59930000  1.0 0.0994123906
H  H176  1  0.04190000  0.54690000  0.81190000  1.0 0.0994123906
H  H177  1  0.59930000  0.04190000  0.81190000  1.0 0.0994123906
H  H178  1  0.54690000  0.81190000  0.04190000  1.0 0.0994123906
H  H179  1  0.54690000  0.59930000  0.81190000  1.0 0.0994123906
H  H180  1  0.81190000  0.04190000  0.54690000  1.0 0.0994123906
H  H181  1  0.54690000  0.04190000  0.81190000  1.0 0.0994123906
H  H182  1  0.40070000  0.18810000  0.45310000  1.0 0.0994123906
H  H183  1  0.04190000  0.54690000  0.59930000  1.0 0.0994123906
H  H184  1  0.18810000  0.40070000  0.95810000  1.0 0.0994123906
H  H185  1  0.95810000  0.40070000  0.45310000  1.0 0.0994123906
H  H186  1  0.59930000  0.81190000  0.04190000  1.0 0.0994123906
H  H187  1  0.18810000  0.45310000  0.40070000  1.0 0.0994123906
H  H188  1  0.95810000  0.18810000  0.40070000  1.0 0.0994123906
H  H189  1  0.81190000  0.59930000  0.54690000  1.0 0.1141201842
H  H190  1  0.40070000  0.45310000  0.95810000  1.0 0.0994123906
H  H191  1  0.81190000  0.54690000  0.04190000  1.0 0.0994123906
H  H192  1  0.04190000  0.81190000  0.54690000  1.0 0.0994123906
H  H193  1  0.81190000  0.04190000  0.59930000  1.0 0.0994123906
H  H194  1  0.59930000  0.04190000  0.54690000  1.0 0.0994123906
H  H195  1  0.54690000  0.59930000  0.04190000  1.0 0.0994123906
H  H196  1  0.54690000  0.81190000  0.59930000  1.0 0.0994123906
H  H197  1  0.04190000  0.59930000  0.81190000  1.0 0.0994123906
H  H198  1  0.59930000  0.54690000  0.81190000  1.0 0.0994123906
H  H199  1  0.45310000  0.95810000  0.40070000  1.0 0.0994123906
H  H200  1  0.95810000  0.45310000  0.18810000  1.0 0.0994123906
H  H201  1  0.40070000  0.95810000  0.18810000  1.0 0.0994123906
H  H202  1  0.45310000  0.18810000  0.95810000  1.0 0.0994123906
H  H203  1  0.45310000  0.40070000  0.18810000  1.0 0.0994123906
H  H204  1  0.18810000  0.95810000  0.45310000  1.0 0.0994123906
C  C1  1  0.41095000  0.73225000  0.26775000  1.0 0.4644027273
C  C2  1  0.41095000  0.73225000  0.58905000  1.0 0.4644027273
C  C3  1  0.73225000  0.41095000  0.58905000  1.0 0.4644027273
C  C4  1  0.73225000  0.41095000  0.26775000  1.0 0.4644027273
C  C5  1  0.26775000  0.41095000  0.58905000  1.0 0.4644027273
C  C6  1  0.58905000  0.26775000  0.73225000  1.0 0.4644027273
C  C7  1  0.73225000  0.58905000  0.41095000  1.0 0.4650770487
C  C8  1  0.26775000  0.73225000  0.41095000  1.0 0.4650770487
C  C9  1  0.26775000  0.58905000  0.41095000  1.0 0.4644027273
C  C10  1  0.41095000  0.58905000  0.26775000  1.0 0.4650770487
C  C11  1  0.26775000  0.41095000  0.73225000  1.0 0.4644027273
C  C12  1  0.73225000  0.26775000  0.41095000  1.0 0.4644027273
C  C13  1  0.26775000  0.73225000  0.58905000  1.0 0.4650770487
C  C14  1  0.58905000  0.73225000  0.41095000  1.0 0.4650770487
C  C15  1  0.41095000  0.58905000  0.73225000  1.0 0.4644027273
C  C16  1  0.41095000  0.26775000  0.58905000  1.0 0.4644027273
C  C17  1  0.73225000  0.58905000  0.26775000  1.0 0.4650770487
C  C18  1  0.58905000  0.41095000  0.26775000  1.0 0.4650770487
C  C19  1  0.58905000  0.26775000  0.41095000  1.0 0.4644027273
C  C20  1  0.26775000  0.58905000  0.73225000  1.0 0.4644027273
C  C21  1  0.41095000  0.26775000  0.73225000  1.0 0.4644027273
C  C22  1  0.58905000  0.73225000  0.26775000  1.0 0.4644027273
C  C23  1  0.58905000  0.41095000  0.73225000  1.0 0.4644027273
C  C24  1  0.73225000  0.26775000  0.58905000  1.0 0.4644027273
C  C25  1  0.50000000  0.73050000  0.26950000  1.0 -0.0599190468
C  C26  1  0.50000000  0.73050000  0.50000000  1.0 -0.0599190468
C  C27  1  0.73050000  0.50000000  0.50000000  1.0 -0.0599190468
C  C28  1  0.73050000  0.50000000  0.26950000  1.0 -0.0599190468
C  C29  1  0.26950000  0.50000000  0.50000000  1.0 -0.0599190468
C  C30  1  0.50000000  0.26950000  0.73050000  1.0 -0.0599190468
C  C31  1  0.26950000  0.73050000  0.50000000  1.0 -0.0599190468
C  C32  1  0.50000000  0.50000000  0.26950000  1.0 -0.0599190468
C  C33  1  0.26950000  0.50000000  0.73050000  1.0 -0.0599190468
C  C34  1  0.73050000  0.26950000  0.50000000  1.0 -0.0599190468
C  C35  1  0.50000000  0.50000000  0.73050000  1.0 -0.0599190468
C  C36  1  0.50000000  0.26950000  0.50000000  1.0 -0.0599190468
C  C37  1  0.45823000  0.75461000  0.24539000  1.0 -0.0022557005
C  C38  1  0.45823000  0.75461000  0.54177000  1.0 -0.0022557005
C  C39  1  0.75461000  0.45823000  0.54177000  1.0 -0.0022557005
C  C40  1  0.75461000  0.45823000  0.24539000  1.0 -0.0022557005
C  C41  1  0.24539000  0.45823000  0.54177000  1.0 -0.0022557005
C  C42  1  0.54177000  0.24539000  0.75461000  1.0 -0.0022557005
C  C43  1  0.75461000  0.54177000  0.45823000  1.0 -0.0022557005
C  C44  1  0.24539000  0.75461000  0.45823000  1.0 -0.0022557005
C  C45  1  0.24539000  0.54177000  0.45823000  1.0 -0.0022557005
C  C46  1  0.45823000  0.54177000  0.24539000  1.0 -0.0022557005
C  C47  1  0.24539000  0.45823000  0.75461000  1.0 -0.0022557005
C  C48  1  0.75461000  0.24539000  0.45823000  1.0 -0.0022557005
C  C49  1  0.24539000  0.75461000  0.54177000  1.0 -0.0022557005
C  C50  1  0.54177000  0.75461000  0.45823000  1.0 -0.0022557005
C  C51  1  0.45823000  0.54177000  0.75461000  1.0 -0.0022557005
C  C52  1  0.45823000  0.24539000  0.54177000  1.0 -0.0022557005
C  C53  1  0.75461000  0.54177000  0.24539000  1.0 -0.0022557005
C  C54  1  0.54177000  0.45823000  0.24539000  1.0 -0.0022557005
C  C55  1  0.54177000  0.24539000  0.45823000  1.0 -0.0022557005
C  C56  1  0.24539000  0.54177000  0.75461000  1.0 -0.0022557005
C  C57  1  0.45823000  0.24539000  0.75461000  1.0 -0.0022557005
C  C58  1  0.54177000  0.75461000  0.24539000  1.0 -0.0022557005
C  C59  1  0.54177000  0.45823000  0.75461000  1.0 -0.0022557005
C  C60  1  0.75461000  0.24539000  0.54177000  1.0 -0.0022557005
C  C61  1  0.45824000  0.80284000  0.19716000  1.0 -0.1940436794
C  C62  1  0.45824000  0.80284000  0.54176000  1.0 -0.1940436794
C  C63  1  0.80284000  0.45824000  0.54176000  1.0 -0.1940436794
C  C64  1  0.80284000  0.45824000  0.19716000  1.0 -0.1940436794
C  C65  1  0.19716000  0.45824000  0.54176000  1.0 -0.1940436794
C  C66  1  0.54176000  0.19716000  0.80284000  1.0 -0.1940436794
C  C67  1  0.80284000  0.54176000  0.45824000  1.0 -0.1940436794
C  C68  1  0.19716000  0.80284000  0.45824000  1.0 -0.1940436794
C  C69  1  0.19716000  0.54176000  0.45824000  1.0 -0.1952486722
C  C70  1  0.45824000  0.54176000  0.19716000  1.0 -0.1940436794
C  C71  1  0.19716000  0.45824000  0.80284000  1.0 -0.1940436794
C  C72  1  0.80284000  0.19716000  0.45824000  1.0 -0.1940436794
C  C73  1  0.19716000  0.80284000  0.54176000  1.0 -0.1940436794
C  C74  1  0.54176000  0.80284000  0.45824000  1.0 -0.1940436794
C  C75  1  0.45824000  0.54176000  0.80284000  1.0 -0.1940436794
C  C76  1  0.45824000  0.19716000  0.54176000  1.0 -0.1940436794
C  C77  1  0.80284000  0.54176000  0.19716000  1.0 -0.1940436794
C  C78  1  0.54176000  0.45824000  0.19716000  1.0 -0.1940436794
C  C79  1  0.54176000  0.19716000  0.45824000  1.0 -0.1940436794
C  C80  1  0.19716000  0.54176000  0.80284000  1.0 -0.1940436794
C  C81  1  0.45824000  0.19716000  0.80284000  1.0 -0.1940436794
C  C82  1  0.54176000  0.80284000  0.19716000  1.0 -0.1940436794
C  C83  1  0.54176000  0.45824000  0.80284000  1.0 -0.1940436794
C  C84  1  0.80284000  0.19716000  0.54176000  1.0 -0.1940436794
C  C85  1  0.50000000  0.82694000  0.17306000  1.0 -0.0022557005
C  C86  1  0.50000000  0.82694000  0.50000000  1.0 -0.0022557005
C  C87  1  0.82694000  0.50000000  0.50000000  1.0 -0.0022557005
C  C88  1  0.82694000  0.50000000  0.17306000  1.0 -0.0022557005
C  C89  1  0.17306000  0.50000000  0.50000000  1.0 -0.0022557005
C  C90  1  0.50000000  0.17306000  0.82694000  1.0 -0.0022557005
C  C91  1  0.17306000  0.82694000  0.50000000  1.0 -0.0022557005
C  C92  1  0.50000000  0.50000000  0.17306000  1.0 -0.0022557005
C  C93  1  0.17306000  0.50000000  0.82694000  1.0 -0.0022557005
C  C94  1  0.82694000  0.17306000  0.50000000  1.0 -0.0022557005
C  C95  1  0.50000000  0.50000000  0.82694000  1.0 -0.0022557005
C  C96  1  0.50000000  0.17306000  0.50000000  1.0 -0.0022557005
C  C97  1  0.50000000  0.87824000  0.12176000  1.0 -0.0599190468
C  C98  1  0.50000000  0.87824000  0.50000000  1.0 -0.0599190468
C  C99  1  0.87824000  0.50000000  0.50000000  1.0 -0.0599190468
C  C100  1  0.87824000  0.50000000  0.12176000  1.0 -0.0599190468
C  C101  1  0.12176000  0.50000000  0.50000000  1.0 -0.0659797301
C  C102  1  0.50000000  0.12176000  0.87824000  1.0 -0.0659797301
C  C103  1  0.12176000  0.87824000  0.50000000  1.0 -0.0659797301
C  C104  1  0.50000000  0.50000000  0.12176000  1.0 -0.0659797301
C  C105  1  0.12176000  0.50000000  0.87824000  1.0 -0.0659797301
C  C106  1  0.87824000  0.12176000  0.50000000  1.0 -0.0659797301
C  C107  1  0.50000000  0.50000000  0.87824000  1.0 -0.0599190468
C  C108  1  0.50000000  0.12176000  0.50000000  1.0 -0.0659797301
C  C109  1  0.47047000  0.93189000  0.12717000  1.0 -0.0022557005
C  C110  1  0.52953000  0.87283000  0.52953000  1.0 -0.0022557005
C  C111  1  0.93189000  0.47047000  0.47047000  1.0 -0.0022557005
C  C112  1  0.87283000  0.52953000  0.06811000  1.0 -0.0022557005
C  C113  1  0.06811000  0.52953000  0.52953000  1.0 -0.0022557005
C  C114  1  0.47047000  0.12717000  0.93189000  1.0 0.0003807922
C  C115  1  0.87283000  0.52953000  0.52953000  1.0 -0.0022557005
C  C116  1  0.06811000  0.87283000  0.52953000  1.0 -0.0022557005
C  C117  1  0.12717000  0.47047000  0.47047000  1.0 -0.0022557005
C  C118  1  0.52953000  0.52953000  0.06811000  1.0 -0.0022557005
C  C119  1  0.12717000  0.47047000  0.93189000  1.0 -0.0022557005
C  C120  1  0.93189000  0.12717000  0.47047000  1.0 0.0003807922
C  C121  1  0.12717000  0.93189000  0.47047000  1.0 -0.0022557005
C  C122  1  0.47047000  0.93189000  0.47047000  1.0 -0.0022557005
C  C123  1  0.47047000  0.47047000  0.93189000  1.0 -0.0022557005
C  C124  1  0.47047000  0.12717000  0.47047000  1.0 -0.0022557005
C  C125  1  0.93189000  0.47047000  0.12717000  1.0 0.0003807922
C  C126  1  0.47047000  0.47047000  0.12717000  1.0 -0.0022557005
C  C127  1  0.52953000  0.06811000  0.52953000  1.0 -0.0022557005
C  C128  1  0.06811000  0.52953000  0.87283000  1.0 -0.0022557005
C  C129  1  0.52953000  0.06811000  0.87283000  1.0 -0.0022557005
C  C130  1  0.52953000  0.87283000  0.06811000  1.0 -0.0022557005
C  C131  1  0.52953000  0.52953000  0.87283000  1.0 -0.0022557005
C  C132  1  0.87283000  0.06811000  0.52953000  1.0 -0.0022557005
C  C133  1  0.47047000  0.98011000  0.07895000  1.0 -0.2538275314
C  C134  1  0.52953000  0.92105000  0.52953000  1.0 -0.2561465224
C  C135  1  0.98011000  0.47047000  0.47047000  1.0 -0.2538275314
C  C136  1  0.92105000  0.52953000  0.01989000  1.0 -0.2561465224
C  C137  1  0.01989000  0.52953000  0.52953000  1.0 -0.2561465224
C  C138  1  0.47047000  0.07895000  0.98011000  1.0 -0.2538275314
C  C139  1  0.92105000  0.52953000  0.52953000  1.0 -0.2561465224
C  C140  1  0.01989000  0.92105000  0.52953000  1.0 -0.2561465224
C  C141  1  0.07895000  0.47047000  0.47047000  1.0 -0.2561465224
C  C142  1  0.52953000  0.52953000  0.01989000  1.0 -0.2561465224
C  C143  1  0.07895000  0.47047000  0.98011000  1.0 -0.2538275314
C  C144  1  0.98011000  0.07895000  0.47047000  1.0 -0.2538275314
C  C145  1  0.07895000  0.98011000  0.47047000  1.0 -0.2561465224
C  C146  1  0.47047000  0.98011000  0.47047000  1.0 -0.2538275314
C  C147  1  0.47047000  0.47047000  0.98011000  1.0 -0.2538275314
C  C148  1  0.47047000  0.07895000  0.47047000  1.0 -0.2538275314
C  C149  1  0.98011000  0.47047000  0.07895000  1.0 -0.2538275314
C  C150  1  0.47047000  0.47047000  0.07895000  1.0 -0.2561465224
C  C151  1  0.52953000  0.01989000  0.52953000  1.0 -0.2561465224
C  C152  1  0.01989000  0.52953000  0.92105000  1.0 -0.2538275314
C  C153  1  0.52953000  0.01989000  0.92105000  1.0 -0.2538275314
C  C154  1  0.52953000  0.92105000  0.01989000  1.0 -0.2538275314
C  C155  1  0.52953000  0.52953000  0.92105000  1.0 -0.2538275314
C  C156  1  0.92105000  0.01989000  0.52953000  1.0 -0.2561465224
C  C157  1  0.50000000  0.97470000  0.02530000  1.0 0.0221361532
C  C158  1  0.50000000  0.97470000  0.50000000  1.0 0.0221361532
C  C159  1  0.97470000  0.50000000  0.50000000  1.0 0.0221361532
C  C160  1  0.97470000  0.50000000  0.02530000  1.0 0.0221361532
C  C161  1  0.02530000  0.50000000  0.50000000  1.0 0.0221361532
C  C162  1  0.50000000  0.02530000  0.97470000  1.0 0.0221361532
C  C163  1  0.02530000  0.97470000  0.50000000  1.0 0.0221361532
C  C164  1  0.50000000  0.50000000  0.02530000  1.0 0.0221361532
C  C165  1  0.02530000  0.50000000  0.97470000  1.0 0.0221361532
C  C166  1  0.97470000  0.02530000  0.50000000  1.0 0.0221361532
C  C167  1  0.50000000  0.50000000  0.97470000  1.0 0.0221361532
C  C168  1  0.50000000  0.02530000  0.50000000  1.0 0.0221361532
C  C169  1  0.43953000  0.93417000  0.18677000  1.0 -0.4614870301
C  C170  1  0.56047000  0.81323000  0.56047000  1.0 -0.4614870301
C  C171  1  0.93417000  0.43953000  0.43953000  1.0 -0.4614870301
C  C172  1  0.81323000  0.56047000  0.06583000  1.0 -0.4614870301
C  C173  1  0.06583000  0.56047000  0.56047000  1.0 -0.4614870301
C  C174  1  0.43953000  0.18677000  0.93417000  1.0 -0.4614870301
C  C175  1  0.81323000  0.56047000  0.56047000  1.0 -0.4614870301
C  C176  1  0.06583000  0.81323000  0.56047000  1.0 -0.4614870301
C  C177  1  0.18677000  0.43953000  0.43953000  1.0 -0.4614870301
C  C178  1  0.56047000  0.56047000  0.06583000  1.0 -0.4614870301
C  C179  1  0.18677000  0.43953000  0.93417000  1.0 -0.4614870301
C  C180  1  0.93417000  0.18677000  0.43953000  1.0 -0.4614870301
C  C181  1  0.18677000  0.93417000  0.43953000  1.0 -0.4614870301
C  C182  1  0.43953000  0.93417000  0.43953000  1.0 -0.4614870301
C  C183  1  0.43953000  0.43953000  0.93417000  1.0 -0.4614870301
C  C184  1  0.43953000  0.18677000  0.43953000  1.0 -0.4614870301
C  C185  1  0.93417000  0.43953000  0.18677000  1.0 -0.4614870301
C  C186  1  0.43953000  0.43953000  0.18677000  1.0 -0.4614870301
C  C187  1  0.56047000  0.06583000  0.56047000  1.0 -0.4614870301
C  C188  1  0.06583000  0.56047000  0.81323000  1.0 -0.4614870301
C  C189  1  0.56047000  0.06583000  0.81323000  1.0 -0.4614870301
C  C190  1  0.56047000  0.81323000  0.06583000  1.0 -0.4614870301
C  C191  1  0.56047000  0.56047000  0.81323000  1.0 -0.4614870301
C  C192  1  0.81323000  0.06583000  0.56047000  1.0 -0.4614870301
O  O1  1  0.41293000  0.68795000  0.31205000  1.0 -0.5229352838
O  O2  1  0.41293000  0.68795000  0.58707000  1.0 -0.5229352838
O  O3  1  0.68795000  0.41293000  0.58707000  1.0 -0.5229352838
O  O4  1  0.68795000  0.41293000  0.31205000  1.0 -0.5229352838
O  O5  1  0.31205000  0.41293000  0.58707000  1.0 -0.5229352838
O  O6  1  0.58707000  0.31205000  0.68795000  1.0 -0.5229352838
O  O7  1  0.68795000  0.58707000  0.41293000  1.0 -0.5229352838
O  O8  1  0.31205000  0.68795000  0.41293000  1.0 -0.5229352838
O  O9  1  0.31205000  0.58707000  0.41293000  1.0 -0.5229352838
O  O10  1  0.41293000  0.58707000  0.31205000  1.0 -0.5229352838
O  O11  1  0.31205000  0.41293000  0.68795000  1.0 -0.5229352838
O  O12  1  0.68795000  0.31205000  0.41293000  1.0 -0.5229352838
O  O13  1  0.31205000  0.68795000  0.58707000  1.0 -0.5229352838
O  O14  1  0.58707000  0.68795000  0.41293000  1.0 -0.5229352838
O  O15  1  0.41293000  0.58707000  0.68795000  1.0 -0.5229352838
O  O16  1  0.41293000  0.31205000  0.58707000  1.0 -0.5229352838
O  O17  1  0.68795000  0.58707000  0.31205000  1.0 -0.5229352838
O  O18  1  0.58707000  0.41293000  0.31205000  1.0 -0.5229352838
O  O19  1  0.58707000  0.31205000  0.41293000  1.0 -0.5229352838
O  O20  1  0.31205000  0.58707000  0.68795000  1.0 -0.5229352838
O  O21  1  0.41293000  0.31205000  0.68795000  1.0 -0.5229352838
O  O22  1  0.58707000  0.68795000  0.31205000  1.0 -0.5229352838
O  O23  1  0.58707000  0.41293000  0.68795000  1.0 -0.5229352838
O  O24  1  0.68795000  0.31205000  0.58707000  1.0 -0.5229352838
O  O25  1  0.36274000  0.76726000  0.26214000  1.0 -0.1768390964
O  O26  1  0.39214000  0.73786000  0.63726000  1.0 -0.1768390964
O  O27  1  0.76726000  0.36274000  0.60786000  1.0 -0.1768390964
O  O28  1  0.73786000  0.39214000  0.23274000  1.0 -0.1768390964
O  O29  1  0.23274000  0.39214000  0.63726000  1.0 -0.1768390964
O  O30  1  0.60786000  0.26214000  0.76726000  1.0 -0.1768390964
O  O31  1  0.73786000  0.63726000  0.39214000  1.0 -0.1741643398
O  O32  1  0.23274000  0.73786000  0.39214000  1.0 -0.1741643398
O  O33  1  0.26214000  0.60786000  0.36274000  1.0 -0.1768390964
O  O34  1  0.39214000  0.63726000  0.23274000  1.0 -0.1741643398
O  O35  1  0.26214000  0.36274000  0.76726000  1.0 -0.1768390964
O  O36  1  0.76726000  0.26214000  0.36274000  1.0 -0.1768390964
O  O37  1  0.26214000  0.76726000  0.60786000  1.0 -0.1768390964
O  O38  1  0.60786000  0.76726000  0.36274000  1.0 -0.1768390964
O  O39  1  0.36274000  0.60786000  0.76726000  1.0 -0.1768390964
O  O40  1  0.36274000  0.26214000  0.60786000  1.0 -0.1768390964
O  O41  1  0.76726000  0.60786000  0.26214000  1.0 -0.1741643398
O  O42  1  0.60786000  0.36274000  0.26214000  1.0 -0.1768390964
O  O43  1  0.63726000  0.23274000  0.39214000  1.0 -0.1768390964
O  O44  1  0.23274000  0.63726000  0.73786000  1.0 -0.1768390964
O  O45  1  0.39214000  0.23274000  0.73786000  1.0 -0.1768390964
O  O46  1  0.63726000  0.73786000  0.23274000  1.0 -0.1768390964
O  O47  1  0.63726000  0.39214000  0.73786000  1.0 -0.1768390964
O  O48  1  0.73786000  0.23274000  0.63726000  1.0 -0.1768390964
O  O49  1  0.63726000  0.23274000  0.73786000  1.0 -0.1768390964
O  O50  1  0.60786000  0.26214000  0.36274000  1.0 -0.1768390964
O  O51  1  0.23274000  0.63726000  0.39214000  1.0 -0.1768390964
O  O52  1  0.26214000  0.60786000  0.76726000  1.0 -0.1768390964
O  O53  1  0.76726000  0.60786000  0.36274000  1.0 -0.1768390964
O  O54  1  0.39214000  0.73786000  0.23274000  1.0 -0.1768390964
O  O55  1  0.26214000  0.36274000  0.60786000  1.0 -0.1768390964
O  O56  1  0.76726000  0.26214000  0.60786000  1.0 -0.1768390964
O  O57  1  0.73786000  0.39214000  0.63726000  1.0 -0.1768390964
O  O58  1  0.60786000  0.36274000  0.76726000  1.0 -0.1768390964
O  O59  1  0.73786000  0.63726000  0.23274000  1.0 -0.1768390964
O  O60  1  0.23274000  0.73786000  0.63726000  1.0 -0.1768390964
O  O61  1  0.73786000  0.23274000  0.39214000  1.0 -0.1768390964
O  O62  1  0.39214000  0.23274000  0.63726000  1.0 -0.1768390964
O  O63  1  0.63726000  0.39214000  0.23274000  1.0 -0.1768390964
O  O64  1  0.63726000  0.73786000  0.39214000  1.0 -0.1768390964
O  O65  1  0.23274000  0.39214000  0.73786000  1.0 -0.1768390964
O  O66  1  0.39214000  0.63726000  0.73786000  1.0 -0.1768390964
O  O67  1  0.36274000  0.76726000  0.60786000  1.0 -0.1768390964
O  O68  1  0.76726000  0.36274000  0.26214000  1.0 -0.1768390964
O  O69  1  0.60786000  0.76726000  0.26214000  1.0 -0.1768390964
O  O70  1  0.36274000  0.26214000  0.76726000  1.0 -0.1768390964
O  O71  1  0.36274000  0.60786000  0.26214000  1.0 -0.1741643398
O  O72  1  0.26214000  0.76726000  0.36274000  1.0 -0.1768390964
O  O73  1  0.31220000  0.68780000  0.31220000  1.0 -0.5670867104
O  O74  1  0.31220000  0.68780000  0.68780000  1.0 -0.5670867104
O  O75  1  0.68780000  0.31220000  0.68780000  1.0 -0.5670867104
O  O76  1  0.68780000  0.31220000  0.31220000  1.0 -0.5670867104
O  O77  1  0.31220000  0.31220000  0.68780000  1.0 -0.5670867104
O  O78  1  0.68780000  0.68780000  0.31220000  1.0 -0.5670867104
