# DDEC6 charges by PACMAN v1.1 (https://github.com/mtap-research/PACMAN-charge/)
data_ZOFZUR_ASR_pacman
_symmetry_space_group_name_H-M   'P 1'
_cell_length_a   23.70500000
_cell_length_b   23.70500000
_cell_length_c   23.70500000
_cell_angle_alpha   110.64400000
_cell_angle_beta   110.64400000
_cell_angle_gamma   110.64400000
_symmetry_Int_Tables_number   1
_chemical_formula_structural   Mn2H15C24NO8
_chemical_formula_sum   'Mn12 H90 C144 N6 O48'
_cell_volume   9783.59873425
_cell_formula_units_Z   6
loop_
 _symmetry_equiv_pos_site_id
 _symmetry_equiv_pos_as_xyz
  1  'x, y, z'
loop_
 _atom_site_type_symbol
 _atom_site_label
 _atom_site_symmetry_multiplicity
 _atom_site_fract_x
 _atom_site_fract_y
 _atom_site_fract_z
 _atom_site_occupancy
 _atom_site_charge
Mn  Mn1  1  0.16668000  0.75628000  0.35412000  1.0 1.0639939095
Mn  Mn2  1  0.75628000  0.35412000  0.16668000  1.0 1.0639939095
Mn  Mn3  1  0.35412000  0.16668000  0.75628000  1.0 1.0639939095
Mn  Mn4  1  0.66666667  0.85412000  0.25628000  1.0 1.0639939095
Mn  Mn5  1  0.25628000  0.66666667  0.85412000  1.0 1.0639939095
Mn  Mn6  1  0.85412000  0.25628000  0.66666667  1.0 1.0639939095
Mn  Mn7  1  0.10941000  0.61379000  0.37815000  1.0 0.9944163784
Mn  Mn8  1  0.61379000  0.37815000  0.10941000  1.0 0.9944163784
Mn  Mn9  1  0.37815000  0.10941000  0.61379000  1.0 0.9944163784
Mn  Mn10  1  0.60941000  0.87815000  0.11379000  1.0 0.9944163784
Mn  Mn11  1  0.11379000  0.60941000  0.87815000  1.0 0.9944163784
Mn  Mn12  1  0.87815000  0.11379000  0.60941000  1.0 0.9953756913
H  H1  1  0.14160000  0.49530000  0.20560000  1.0 0.1297290856
H  H2  1  0.49530000  0.20560000  0.14160000  1.0 0.1297290856
H  H3  1  0.20560000  0.14160000  0.49530000  1.0 0.1297290856
H  H4  1  0.64160000  0.70560000  0.99530000  1.0 0.1297290856
H  H5  1  0.99530000  0.64160000  0.70560000  1.0 0.1297290856
H  H6  1  0.70560000  0.99530000  0.64160000  1.0 0.1297290856
H  H7  1  0.18600000  0.46070000  0.13670000  1.0 0.1210941098
H  H8  1  0.46070000  0.13670000  0.18600000  1.0 0.1210941098
H  H9  1  0.13670000  0.18600000  0.46070000  1.0 0.1210941098
H  H10  1  0.68600000  0.63670000  0.96070000  1.0 0.1210941098
H  H11  1  0.96070000  0.68600000  0.63670000  1.0 0.1210941098
H  H12  1  0.63670000  0.96070000  0.68600000  1.0 0.1210941098
H  H13  1  0.33610000  0.66220000  0.22730000  1.0 0.1210941098
H  H14  1  0.66220000  0.22730000  0.33610000  1.0 0.1210941098
H  H15  1  0.22730000  0.33610000  0.66220000  1.0 0.1210941098
H  H16  1  0.83610000  0.72730000  0.16220000  1.0 0.1210941098
H  H17  1  0.16220000  0.83610000  0.72730000  1.0 0.1210941098
H  H18  1  0.72730000  0.16220000  0.83610000  1.0 0.1210941098
H  H19  1  0.29320000  0.70210000  0.29570000  1.0 0.1210941098
H  H20  1  0.70210000  0.29570000  0.29320000  1.0 0.1210941098
H  H21  1  0.29570000  0.29320000  0.70210000  1.0 0.1210941098
H  H22  1  0.79320000  0.79570000  0.20210000  1.0 0.1210941098
H  H23  1  0.20210000  0.79320000  0.79570000  1.0 0.1210941098
H  H24  1  0.79570000  0.20210000  0.79320000  1.0 0.1210941098
H  H25  1  0.25990000  0.51110000  0.08080000  1.0 0.1123071465
H  H26  1  0.51110000  0.08080000  0.25990000  1.0 0.1123071465
H  H27  1  0.08080000  0.25990000  0.51110000  1.0 0.1123071465
H  H28  1  0.75990000  0.58080000  0.01110000  1.0 0.1123071465
H  H29  1  0.01110000  0.75990000  0.58080000  1.0 0.1123071465
H  H30  1  0.58080000  0.01110000  0.75990000  1.0 0.1123071465
H  H31  1  0.30140000  0.49620000  0.13550000  1.0 0.1123071465
H  H32  1  0.49620000  0.13550000  0.30140000  1.0 0.1123071465
H  H33  1  0.13550000  0.30140000  0.49620000  1.0 0.1123071465
H  H34  1  0.80140000  0.63550000  0.99620000  1.0 0.1123071465
H  H35  1  0.99620000  0.80140000  0.63550000  1.0 0.1123071465
H  H36  1  0.63550000  0.99620000  0.80140000  1.0 0.1123071465
H  H37  1  0.46100000  0.65670000  0.23060000  1.0 0.1123071465
H  H38  1  0.65670000  0.23060000  0.46100000  1.0 0.1123071465
H  H39  1  0.23060000  0.46100000  0.65670000  1.0 0.1123071465
H  H40  1  0.96100000  0.73060000  0.15670000  1.0 0.1123071465
H  H41  1  0.15670000  0.96100000  0.73060000  1.0 0.1123071465
H  H42  1  0.73060000  0.15670000  0.96100000  1.0 0.1123071465
H  H43  1  0.41530000  0.60050000  0.24130000  1.0 0.1123071465
H  H44  1  0.60050000  0.24130000  0.41530000  1.0 0.1123071465
H  H45  1  0.24130000  0.41530000  0.60050000  1.0 0.1123071465
H  H46  1  0.91530000  0.74130000  0.10050000  1.0 0.1123071465
H  H47  1  0.10050000  0.91530000  0.74130000  1.0 0.1123071465
H  H48  1  0.74130000  0.10050000  0.91530000  1.0 0.1123071465
H  H49  1  0.54500000  0.61890000  0.28850000  1.0 0.1210941098
H  H50  1  0.61890000  0.28850000  0.54500000  1.0 0.1210941098
H  H51  1  0.28850000  0.54500000  0.61890000  1.0 0.1210941098
H  H52  1  0.04500000  0.78850000  0.11890000  1.0 0.1210941098
H  H53  1  0.11890000  0.04500000  0.78850000  1.0 0.1210941098
H  H54  1  0.78850000  0.11890000  0.04500000  1.0 0.1210941098
H  H55  1  0.59300000  0.55210000  0.26230000  1.0 0.1297290856
H  H56  1  0.55210000  0.26230000  0.59300000  1.0 0.1297290856
H  H57  1  0.26230000  0.59300000  0.55210000  1.0 0.1297290856
H  H58  1  0.09300000  0.76230000  0.05210000  1.0 0.1297290856
H  H59  1  0.05210000  0.09300000  0.76230000  1.0 0.1297290856
H  H60  1  0.76230000  0.05210000  0.09300000  1.0 0.1297290856
H  H61  1  0.43650000  0.43190000  0.05690000  1.0 0.1210941098
H  H62  1  0.43190000  0.05690000  0.43650000  1.0 0.1210941098
H  H63  1  0.05690000  0.43650000  0.43190000  1.0 0.1210941098
H  H64  1  0.93650000  0.55690000  0.93190000  1.0 0.1210941098
H  H65  1  0.93190000  0.93650000  0.55690000  1.0 0.1210941098
H  H66  1  0.55690000  0.93190000  0.93650000  1.0 0.1210941098
H  H67  1  0.38620000  0.49710000  0.08430000  1.0 0.1210941098
H  H68  1  0.49710000  0.08430000  0.38620000  1.0 0.1210941098
H  H69  1  0.08430000  0.38620000  0.49710000  1.0 0.1210941098
H  H70  1  0.88620000  0.58430000  0.99710000  1.0 0.1210941098
H  H71  1  0.99710000  0.88620000  0.58430000  1.0 0.1210941098
H  H72  1  0.58430000  0.99710000  0.88620000  1.0 0.1210941098
H  H73  1  0.47190000  0.68160000  0.16120000  1.0 0.1297290856
H  H74  1  0.68160000  0.16120000  0.47190000  1.0 0.1297290856
H  H75  1  0.16120000  0.47190000  0.68160000  1.0 0.1297290856
H  H76  1  0.97190000  0.66120000  0.18160000  1.0 0.1297290856
H  H77  1  0.18160000  0.97190000  0.66120000  1.0 0.1297290856
H  H78  1  0.66120000  0.18160000  0.97190000  1.0 0.1297290856
H  H79  1  0.37100000  0.72170000  0.01980000  1.0 0.1297290856
H  H80  1  0.72170000  0.01980000  0.37100000  1.0 0.1297290856
H  H81  1  0.01980000  0.37100000  0.72170000  1.0 0.1297290856
H  H82  1  0.87100000  0.51980000  0.22170000  1.0 0.1297290856
H  H83  1  0.22170000  0.87100000  0.51980000  1.0 0.1297290856
H  H84  1  0.51980000  0.22170000  0.87100000  1.0 0.1297290856
H  H85  1  0.25850000  0.58440000  0.05570000  1.0 0.1297290856
H  H86  1  0.58440000  0.05570000  0.25850000  1.0 0.1297290856
H  H87  1  0.05570000  0.25850000  0.58440000  1.0 0.1297290856
H  H88  1  0.75850000  0.55570000  0.08440000  1.0 0.1297290856
H  H89  1  0.08440000  0.75850000  0.55570000  1.0 0.1297290856
H  H90  1  0.55570000  0.08440000  0.75850000  1.0 0.1297290856
C  C1  1  0.18937000  0.63113000  0.30751000  1.0 0.5872459843
C  C2  1  0.63113000  0.30751000  0.18937000  1.0 0.5872459843
C  C3  1  0.30751000  0.18937000  0.63113000  1.0 0.5872459843
C  C4  1  0.68937000  0.80751000  0.13113000  1.0 0.5872459843
C  C5  1  0.13113000  0.68937000  0.80751000  1.0 0.5872459843
C  C6  1  0.80751000  0.13113000  0.68937000  1.0 0.5872459843
C  C7  1  0.21493000  0.60387000  0.26019000  1.0 -0.0404370231
C  C8  1  0.60387000  0.26019000  0.21493000  1.0 -0.0404370231
C  C9  1  0.26019000  0.21493000  0.60387000  1.0 -0.0404370231
C  C10  1  0.71493000  0.76019000  0.10387000  1.0 -0.0404370231
C  C11  1  0.10387000  0.71493000  0.76019000  1.0 -0.0404370231
C  C12  1  0.76019000  0.10387000  0.71493000  1.0 -0.0404370231
C  C13  1  0.18098000  0.52946000  0.21048000  1.0 -0.0786370874
C  C14  1  0.52946000  0.21048000  0.18098000  1.0 -0.0786370874
C  C15  1  0.21048000  0.18098000  0.52946000  1.0 -0.0786370874
C  C16  1  0.68098000  0.71048000  0.02946000  1.0 -0.0786370874
C  C17  1  0.02946000  0.68098000  0.71048000  1.0 -0.0786370874
C  C18  1  0.71048000  0.02946000  0.68098000  1.0 -0.0786370874
C  C19  1  0.20805000  0.50934000  0.16963000  1.0 -0.1700291827
C  C20  1  0.50934000  0.16963000  0.20805000  1.0 -0.1700291827
C  C21  1  0.16963000  0.20805000  0.50934000  1.0 -0.1700291827
C  C22  1  0.70805000  0.66963000  0.00934000  1.0 -0.1700291827
C  C23  1  0.00934000  0.70805000  0.66963000  1.0 -0.1700291827
C  C24  1  0.66963000  0.00934000  0.70805000  1.0 -0.1700291827
C  C25  1  0.26595000  0.55803000  0.17557000  1.0 0.0810051557
C  C26  1  0.55803000  0.17557000  0.26595000  1.0 0.0810051557
C  C27  1  0.17557000  0.26595000  0.55803000  1.0 0.0810051557
C  C28  1  0.76595000  0.67557000  0.05803000  1.0 0.0810051557
C  C29  1  0.05803000  0.76595000  0.67557000  1.0 0.0810051557
C  C30  1  0.67557000  0.05803000  0.76595000  1.0 0.0810051557
C  C31  1  0.29668000  0.62864000  0.22279000  1.0 -0.1700291827
C  C32  1  0.62864000  0.22279000  0.29668000  1.0 -0.1700291827
C  C33  1  0.22279000  0.29668000  0.62864000  1.0 -0.1700291827
C  C34  1  0.79668000  0.72279000  0.12864000  1.0 -0.1700291827
C  C35  1  0.12864000  0.79668000  0.72279000  1.0 -0.1700291827
C  C36  1  0.72279000  0.12864000  0.79668000  1.0 -0.1700291827
C  C37  1  0.27172000  0.65303000  0.26482000  1.0 -0.088878136
C  C38  1  0.65303000  0.26482000  0.27172000  1.0 -0.088878136
C  C39  1  0.26482000  0.27172000  0.65303000  1.0 -0.088878136
C  C40  1  0.77172000  0.76482000  0.15303000  1.0 -0.088878136
C  C41  1  0.15303000  0.77172000  0.76482000  1.0 -0.088878136
C  C42  1  0.76482000  0.15303000  0.77172000  1.0 -0.088878136
C  C43  1  0.29552000  0.53309000  0.13086000  1.0 -0.1700291827
C  C44  1  0.53309000  0.13086000  0.29552000  1.0 -0.1700291827
C  C45  1  0.13086000  0.29552000  0.53309000  1.0 -0.1700291827
C  C46  1  0.79552000  0.63086000  0.03309000  1.0 -0.1700291827
C  C47  1  0.03309000  0.79552000  0.63086000  1.0 -0.1700291827
C  C48  1  0.63086000  0.03309000  0.79552000  1.0 -0.1700291827
C  C49  1  0.42577000  0.60617000  0.20695000  1.0 -0.1700291827
C  C50  1  0.60617000  0.20695000  0.42577000  1.0 -0.1700291827
C  C51  1  0.20695000  0.42577000  0.60617000  1.0 -0.1700291827
C  C52  1  0.92577000  0.70695000  0.10617000  1.0 -0.1700291827
C  C53  1  0.10617000  0.92577000  0.70695000  1.0 -0.1700291827
C  C54  1  0.70695000  0.10617000  0.92577000  1.0 -0.1700291827
C  C55  1  0.45953000  0.56581000  0.19039000  1.0 0.0657545437
C  C56  1  0.56581000  0.19039000  0.45953000  1.0 0.0657545437
C  C57  1  0.19039000  0.45953000  0.56581000  1.0 0.0657545437
C  C58  1  0.95953000  0.69039000  0.06581000  1.0 0.0657545437
C  C59  1  0.06581000  0.95953000  0.69039000  1.0 0.0657545437
C  C60  1  0.69039000  0.06581000  0.95953000  1.0 0.0657545437
C  C61  1  0.52153000  0.58089000  0.24150000  1.0 -0.1700291827
C  C62  1  0.58089000  0.24150000  0.52153000  1.0 -0.1700291827
C  C63  1  0.24150000  0.52153000  0.58089000  1.0 -0.1700291827
C  C64  1  0.02153000  0.74150000  0.08089000  1.0 -0.1700291827
C  C65  1  0.08089000  0.02153000  0.74150000  1.0 -0.1700291827
C  C66  1  0.74150000  0.08089000  0.02153000  1.0 -0.1700291827
C  C67  1  0.55101000  0.54096000  0.22537000  1.0 -0.088878136
C  C68  1  0.54096000  0.22537000  0.55101000  1.0 -0.088878136
C  C69  1  0.22537000  0.55101000  0.54096000  1.0 -0.088878136
C  C70  1  0.05101000  0.72537000  0.04096000  1.0 -0.088878136
C  C71  1  0.04096000  0.05101000  0.72537000  1.0 -0.088878136
C  C72  1  0.72537000  0.04096000  0.05101000  1.0 -0.088878136
C  C73  1  0.52129000  0.48768000  0.15936000  1.0 -0.0157053357
C  C74  1  0.48768000  0.15936000  0.52129000  1.0 -0.0157053357
C  C75  1  0.15936000  0.52129000  0.48768000  1.0 -0.0157053357
C  C76  1  0.02129000  0.65936000  0.98768000  1.0 -0.0157053357
C  C77  1  0.98768000  0.02129000  0.65936000  1.0 -0.0142500826
C  C78  1  0.65936000  0.98768000  0.02129000  1.0 -0.0157053357
C  C79  1  0.45831000  0.46932000  0.10387000  1.0 -0.088878136
C  C80  1  0.46932000  0.10387000  0.45831000  1.0 -0.088878136
C  C81  1  0.10387000  0.45831000  0.46932000  1.0 -0.088878136
C  C82  1  0.95831000  0.60387000  0.96932000  1.0 -0.088878136
C  C83  1  0.96932000  0.95831000  0.60387000  1.0 -0.088878136
C  C84  1  0.60387000  0.96932000  0.95831000  1.0 -0.088878136
C  C85  1  0.42886000  0.50905000  0.12110000  1.0 -0.1809922296
C  C86  1  0.50905000  0.12110000  0.42886000  1.0 -0.1809922296
C  C87  1  0.12110000  0.42886000  0.50905000  1.0 -0.1809922296
C  C88  1  0.92886000  0.62110000  0.00905000  1.0 -0.1809922296
C  C89  1  0.00905000  0.92886000  0.62110000  1.0 -0.1809922296
C  C90  1  0.62110000  0.00905000  0.92886000  1.0 -0.1809922296
C  C91  1  0.36438000  0.62512000  0.11361000  1.0 0.1585823755
C  C92  1  0.62512000  0.11361000  0.36438000  1.0 0.1585823755
C  C93  1  0.11361000  0.36438000  0.62512000  1.0 0.1585823755
C  C94  1  0.86438000  0.61361000  0.12512000  1.0 0.1585823755
C  C95  1  0.12512000  0.86438000  0.61361000  1.0 0.1585823755
C  C96  1  0.61361000  0.12512000  0.86438000  1.0 0.1585823755
C  C97  1  0.42970000  0.67405000  0.12824000  1.0 -0.1857434378
C  C98  1  0.67405000  0.12824000  0.42970000  1.0 -0.1857434378
C  C99  1  0.12824000  0.42970000  0.67405000  1.0 -0.1857434378
C  C100  1  0.92970000  0.62824000  0.17405000  1.0 -0.1857434378
C  C101  1  0.17405000  0.92970000  0.62824000  1.0 -0.1857434378
C  C102  1  0.62824000  0.17405000  0.92970000  1.0 -0.1857434378
C  C103  1  0.43361000  0.71132000  0.09537000  1.0 -0.0005955883
C  C104  1  0.71132000  0.09537000  0.43361000  1.0 -0.0005955883
C  C105  1  0.09537000  0.43361000  0.71132000  1.0 -0.0005955883
C  C106  1  0.93361000  0.59537000  0.21132000  1.0 -0.0005955883
C  C107  1  0.21132000  0.93361000  0.59537000  1.0 -0.0005955883
C  C108  1  0.59537000  0.21132000  0.93361000  1.0 -0.0005955883
C  C109  1  0.36971000  0.69829000  0.04408000  1.0 -0.1392678832
C  C110  1  0.69829000  0.04408000  0.36971000  1.0 -0.1392678832
C  C111  1  0.04408000  0.36971000  0.69829000  1.0 -0.1392678832
C  C112  1  0.86971000  0.54408000  0.19829000  1.0 -0.1392678832
C  C113  1  0.19829000  0.86971000  0.54408000  1.0 -0.1392678832
C  C114  1  0.54408000  0.19829000  0.86971000  1.0 -0.1392678832
C  C115  1  0.30564000  0.65066000  0.03035000  1.0 -0.0005955883
C  C116  1  0.65066000  0.03035000  0.30564000  1.0 -0.0005955883
C  C117  1  0.03035000  0.30564000  0.65066000  1.0 -0.0005955883
C  C118  1  0.80564000  0.53035000  0.15066000  1.0 -0.0005955883
C  C119  1  0.15066000  0.80564000  0.53035000  1.0 -0.0005955883
C  C120  1  0.53035000  0.15066000  0.80564000  1.0 -0.0005955883
C  C121  1  0.30260000  0.61533000  0.06497000  1.0 -0.1809922296
C  C122  1  0.61533000  0.06497000  0.30260000  1.0 -0.1809922296
C  C123  1  0.06497000  0.30260000  0.61533000  1.0 -0.1809922296
C  C124  1  0.80260000  0.56497000  0.11533000  1.0 -0.1809922296
C  C125  1  0.11533000  0.80260000  0.56497000  1.0 -0.1857434378
C  C126  1  0.56497000  0.11533000  0.80260000  1.0 -0.1809922296
C  C127  1  0.55628000  0.44611000  0.14314000  1.0 0.5429606621
C  C128  1  0.44611000  0.14314000  0.55628000  1.0 0.5429606621
C  C129  1  0.14314000  0.55628000  0.44611000  1.0 0.5429606621
C  C130  1  0.05628000  0.64314000  0.94611000  1.0 0.5429606621
C  C131  1  0.94611000  0.05628000  0.64314000  1.0 0.5429606621
C  C132  1  0.64314000  0.94611000  0.05628000  1.0 0.5429606621
C  C133  1  0.23626000  0.63590000  0.97547000  1.0 0.5812065785
C  C134  1  0.63590000  0.97547000  0.23626000  1.0 0.5812065785
C  C135  1  0.97547000  0.23626000  0.63590000  1.0 0.5812065785
C  C136  1  0.73626000  0.47547000  0.13590000  1.0 0.5812065785
C  C137  1  0.13590000  0.73626000  0.47547000  1.0 0.5812065785
C  C138  1  0.47547000  0.13590000  0.73626000  1.0 0.5812065785
C  C139  1  0.50634000  0.76637000  0.11564000  1.0 0.5872459843
C  C140  1  0.76637000  0.11564000  0.50634000  1.0 0.5872459843
C  C141  1  0.11564000  0.50634000  0.76637000  1.0 0.5872459843
C  C142  1  0.00634000  0.61564000  0.26637000  1.0 0.5872459843
C  C143  1  0.26637000  0.00634000  0.61564000  1.0 0.5872459843
C  C144  1  0.61564000  0.26637000  0.00634000  1.0 0.5872459843
N  N1  1  0.36226000  0.58760000  0.14911000  1.0 -0.1082116169
N  N2  1  0.58760000  0.14911000  0.36226000  1.0 -0.1082116169
N  N3  1  0.14911000  0.36226000  0.58760000  1.0 -0.1082116169
N  N4  1  0.86226000  0.64911000  0.08760000  1.0 -0.1082116169
N  N5  1  0.08760000  0.86226000  0.64911000  1.0 -0.1082116169
N  N6  1  0.64911000  0.08760000  0.86226000  1.0 -0.1082116169
O  O1  1  0.52291000  0.39223000  0.07772000  1.0 -0.5516450619
O  O2  1  0.39223000  0.07772000  0.52291000  1.0 -0.5516450619
O  O3  1  0.07772000  0.52291000  0.39223000  1.0 -0.5516450619
O  O4  1  0.02291000  0.57772000  0.89223000  1.0 -0.5516450619
O  O5  1  0.89223000  0.02291000  0.57772000  1.0 -0.5516450619
O  O6  1  0.57772000  0.89223000  0.02291000  1.0 -0.5516450619
O  O7  1  0.61379000  0.46318000  0.19213000  1.0 -0.5280246154
O  O8  1  0.46318000  0.19213000  0.61379000  1.0 -0.5280246154
O  O9  1  0.19213000  0.61379000  0.46318000  1.0 -0.5280246154
O  O10  1  0.11379000  0.69213000  0.96318000  1.0 -0.5280246154
O  O11  1  0.96318000  0.11379000  0.69213000  1.0 -0.5280246154
O  O12  1  0.69213000  0.96318000  0.11379000  1.0 -0.5280246154
O  O13  1  0.17834000  0.59819000  0.96778000  1.0 -0.5111214046
O  O14  1  0.59819000  0.96778000  0.17834000  1.0 -0.5111214046
O  O15  1  0.96778000  0.17834000  0.59819000  1.0 -0.5111214046
O  O16  1  0.67834000  0.46778000  0.09819000  1.0 -0.5111214046
O  O17  1  0.09819000  0.67834000  0.46778000  1.0 -0.5111214046
O  O18  1  0.46778000  0.09819000  0.67834000  1.0 -0.5111214046
O  O19  1  0.23723000  0.66242000  0.93715000  1.0 -0.61125523
O  O20  1  0.66242000  0.93715000  0.23723000  1.0 -0.61125523
O  O21  1  0.93715000  0.23723000  0.66242000  1.0 -0.61125523
O  O22  1  0.73723000  0.43715000  0.16242000  1.0 -0.61125523
O  O23  1  0.16242000  0.73723000  0.43715000  1.0 -0.61125523
O  O24  1  0.43715000  0.16242000  0.73723000  1.0 -0.61125523
O  O25  1  0.50879000  0.79725000  0.08225000  1.0 -0.5111214046
O  O26  1  0.79725000  0.08225000  0.50879000  1.0 -0.5166628972
O  O27  1  0.08225000  0.50879000  0.79725000  1.0 -0.5111214046
O  O28  1  0.00879000  0.58225000  0.29725000  1.0 -0.5111214046
O  O29  1  0.29725000  0.00879000  0.58225000  1.0 -0.5111214046
O  O30  1  0.58225000  0.29725000  0.00879000  1.0 -0.5111214046
O  O31  1  0.55963000  0.77827000  0.16577000  1.0 -0.6037177061
O  O32  1  0.77827000  0.16577000  0.55963000  1.0 -0.6037177061
O  O33  1  0.16577000  0.55963000  0.77827000  1.0 -0.6037177061
O  O34  1  0.05963000  0.66577000  0.27827000  1.0 -0.6037177061
O  O35  1  0.27827000  0.05963000  0.66577000  1.0 -0.6037177061
O  O36  1  0.66577000  0.27827000  0.05963000  1.0 -0.6037177061
O  O37  1  0.14282000  0.58222000  0.30610000  1.0 -0.5363070781
O  O38  1  0.58222000  0.30610000  0.14282000  1.0 -0.5363070781
O  O39  1  0.30610000  0.14282000  0.58222000  1.0 -0.5363070781
O  O40  1  0.64282000  0.80610000  0.08222000  1.0 -0.5363070781
O  O41  1  0.08222000  0.64282000  0.80610000  1.0 -0.5363070781
O  O42  1  0.80610000  0.08222000  0.64282000  1.0 -0.5363070781
O  O43  1  0.21354000  0.69633000  0.34108000  1.0 -0.5843863801
O  O44  1  0.69633000  0.34108000  0.21354000  1.0 -0.5843863801
O  O45  1  0.34108000  0.21354000  0.69633000  1.0 -0.5843863801
O  O46  1  0.71354000  0.84108000  0.19633000  1.0 -0.5843863801
O  O47  1  0.19633000  0.71354000  0.84108000  1.0 -0.5843863801
O  O48  1  0.84108000  0.19633000  0.71354000  1.0 -0.5843863801
